MODEL        1
REMARK 921   NORMALIZED FREE ENERGY PREDICTED BY IDOCK:   -8.72 KCAL/MOL
REMARK 922        TOTAL FREE ENERGY PREDICTED BY IDOCK:  -12.85 KCAL/MOL
REMARK 923 INTER-LIGAND FREE ENERGY PREDICTED BY IDOCK:  -11.27 KCAL/MOL
REMARK 924 INTRA-LIGAND FREE ENERGY PREDICTED BY IDOCK:   -1.59 KCAL/MOL
REMARK 927      BINDING AFFINITY PREDICTED BY RF-SCORE:    0.00 PKD
ROOT
HETATM    1  O   HOH     4     -13.946   8.965  73.419  1.00  0.00    -1.236 OA 
HETATM    2  H2  HOH     4     -13.444   8.356  72.889  1.00  0.00     0.000 HD 
HETATM    3 NA   UNL    13      -7.526   6.529  71.749  1.00  0.00    -0.078 Na 
HETATM    4  H1  HOH     4     -13.298   9.458  73.908  1.00  0.00     0.000 HD 
HETATM    5 NA   UNL    14     -13.314   6.201  72.338  1.00  0.00    -0.440 Na 
HETATM    6 FE   UNL    15     -10.473   4.844  72.382  1.00  0.00    -0.165 Fe 
HETATM    7 FE   UNL    16     -11.476   9.465  72.424  1.00  0.00    -0.333 Fe 
HETATM    8 FE   UNL    17     -12.916   6.573  70.055  1.00  0.00    -0.524 Fe 
HETATM    9 FE   UNL    18     -12.882  10.723  71.355  1.00  0.00    -0.269 Fe 
HETATM   10 FE   UNL    19     -11.605   8.604  67.006  1.00  0.00    -0.341 Fe 
HETATM   11  O   UNL    20     -11.363   9.063  69.784  1.00  0.00    -0.428 OA 
HETATM   12  C   UNL    20     -10.452  10.105  70.012  1.00  0.00    -0.274 C  
HETATM   13  H   UNL    20     -11.923   8.841  70.519  1.00  0.00     0.000 HD 
ENDROOT
BRANCH  12  14
HETATM   14  C   UNL    20      -9.542  10.468  68.816  1.00  0.00    -0.179 C  
HETATM   15  O   UNL    20     -10.200  11.338  67.929  1.00  0.00    -0.175 OA 
HETATM   16  C   UNL    20      -9.219  11.939  67.123  1.00  0.00    -0.183 C  
HETATM   17  C   UNL    20      -8.140  11.044  69.114  1.00  0.00    -0.061 C  
HETATM   18  H   UNL    20      -6.307  10.391  69.253  1.00  0.00     0.000 HD 
HETATM   19  C   UNL    20      -7.919  12.082  67.988  1.00  0.00    -0.149 C  
HETATM   20  H   UNL    20      -6.949  13.439  69.073  1.00  0.00     0.000 HD 
HETATM   21  O   UNL    20      -7.169  10.036  69.070  1.00  0.00    -0.068 OA 
HETATM   22  O   UNL    20      -7.736  13.352  68.549  1.00  0.00    -0.131 OA 
BRANCH  16  23
HETATM   23  O   UNL    20      -9.745  13.112  66.467  1.00  0.00    -0.257 OA 
BRANCH  23  24
HETATM   24  C   UNL    20     -11.099  13.567  66.700  1.00  0.00    -0.298 C  
HETATM   25  O   UNL    20     -11.064  14.928  67.086  1.00  0.00    -0.316 OA 
HETATM   26  C   UNL    20     -10.697  15.805  66.026  1.00  0.00    -0.306 C  
HETATM   27  H   UNL    20     -13.107  12.026  64.631  1.00  0.00     0.000 HD 
HETATM   28  C   UNL    20     -11.674  15.711  64.817  1.00  0.00    -0.134 C  
HETATM   29  O   UNL    20     -11.308  16.580  63.773  1.00  0.00    -1.553 OA 
HETATM   30  C   UNL    20     -11.772  14.271  64.336  1.00  0.00    -0.389 C  
HETATM   31  O   UNL    20     -12.457  12.106  65.319  1.00  0.00    -0.520 OA 
HETATM   32  H   UNL    20     -11.904  16.522  63.036  1.00  0.00     0.000 HD 
HETATM   33  O   UNL    20     -12.759  14.173  63.348  1.00  0.00    -0.945 OA 
HETATM   34  C   UNL    20     -12.159  13.437  65.578  1.00  0.00    -0.428 C  
HETATM   35  H   UNL    20     -12.821  13.273  63.047  1.00  0.00     0.000 HD 
BRANCH  26  36
HETATM   36  C   UNL    20     -10.765  17.253  66.574  1.00  0.00    -0.078 C  
HETATM   37  O   UNL    20      -9.814  18.054  65.935  1.00  0.00    -0.535 OA 
HETATM   38  H   UNL    20      -9.855  18.942  66.271  1.00  0.00     0.000 HD 
ENDBRANCH  26  36
ENDBRANCH  23  24
ENDBRANCH  16  23
BRANCH  16  39
HETATM   39  C   UNL    20      -8.877  10.927  65.986  1.00  0.00    -0.188 C  
HETATM   40  O   UNL    20     -10.037  10.294  65.519  1.00  0.00    -0.286 OA 
HETATM   41  H   UNL    20      -9.829   9.678  64.826  1.00  0.00     0.000 HD 
ENDBRANCH  16  39
ENDBRANCH  12  14
TORSDOF 5
ENDMDL
MODEL        2
REMARK 921   NORMALIZED FREE ENERGY PREDICTED BY IDOCK:   -8.35 KCAL/MOL
REMARK 922        TOTAL FREE ENERGY PREDICTED BY IDOCK:  -12.37 KCAL/MOL
REMARK 923 INTER-LIGAND FREE ENERGY PREDICTED BY IDOCK:  -11.26 KCAL/MOL
REMARK 924 INTRA-LIGAND FREE ENERGY PREDICTED BY IDOCK:   -1.12 KCAL/MOL
REMARK 927      BINDING AFFINITY PREDICTED BY RF-SCORE:    0.00 PKD
ROOT
HETATM    1  O   HOH     4     -14.076   9.021  73.244  1.00  0.00    -1.218 OA 
HETATM    2  H2  HOH     4     -13.355   8.477  72.947  1.00  0.00     0.000 HD 
HETATM    3 NA   UNL    13      -7.145   8.649  71.914  1.00  0.00    -0.062 Na 
HETATM    4  H1  HOH     4     -13.689   9.873  73.408  1.00  0.00     0.000 HD 
HETATM    5 NA   UNL    14     -12.382   6.504  73.301  1.00  0.00    -0.449 Na 
HETATM    6 FE   UNL    15      -9.243   6.436  73.535  1.00  0.00    -0.128 Fe 
HETATM    7 FE   UNL    16     -11.946   9.923  71.833  1.00  0.00    -0.312 Fe 
HETATM    8 FE   UNL    17     -12.057   5.999  71.031  1.00  0.00    -0.311 Fe 
HETATM    9 FE   UNL    18     -13.678  10.004  70.531  1.00  0.00    -0.397 Fe 
HETATM   10 FE   UNL    19     -11.492   6.886  67.285  1.00  0.00    -0.305 Fe 
HETATM   11  O   UNL    20     -11.569   8.522  69.588  1.00  0.00    -0.367 OA 
HETATM   12  C   UNL    20     -11.140   9.817  69.261  1.00  0.00    -0.149 C  
HETATM   13  H   UNL    20     -12.033   8.441  70.414  1.00  0.00     0.000 HD 
ENDROOT
BRANCH  12  14
HETATM   14  C   UNL    20     -10.386   9.950  67.917  1.00  0.00    -0.212 C  
HETATM   15  O   UNL    20     -10.944  10.970  67.126  1.00  0.00    -0.268 OA 
HETATM   16  C   UNL    20      -9.996  11.310  66.148  1.00  0.00    -0.228 C  
HETATM   17  C   UNL    20      -8.854  10.144  67.956  1.00  0.00    -0.125 C  
HETATM   18  H   UNL    20      -7.252   9.042  67.803  1.00  0.00     0.000 HD 
HETATM   19  C   UNL    20      -8.574  11.105  66.776  1.00  0.00    -0.157 C  
HETATM   20  H   UNL    20      -7.119  12.155  67.637  1.00  0.00     0.000 HD 
HETATM   21  O   UNL    20      -8.194   8.923  67.780  1.00  0.00    -0.109 OA 
HETATM   22  O   UNL    20      -7.980  12.280  67.257  1.00  0.00    -0.163 OA 
BRANCH  16  23
HETATM   23  O   UNL    20     -10.311  12.587  65.553  1.00  0.00    -0.270 OA 
BRANCH  23  24
HETATM   24  C   UNL    20     -11.453  13.363  65.987  1.00  0.00    -0.326 C  
HETATM   25  O   UNL    20     -11.096  14.092  67.147  1.00  0.00    -0.293 OA 
HETATM   26  C   UNL    20     -10.174  15.147  66.888  1.00  0.00    -0.259 C  
HETATM   27  H   UNL    20     -13.156  14.306  63.361  1.00  0.00     0.000 HD 
HETATM   28  C   UNL    20     -10.733  16.182  65.867  1.00  0.00    -0.255 C  
HETATM   29  O   UNL    20      -9.821  17.221  65.616  1.00  0.00    -0.548 OA 
HETATM   30  C   UNL    20     -11.145  15.478  64.583  1.00  0.00    -0.359 C  
HETATM   31  O   UNL    20     -12.745  13.695  63.961  1.00  0.00    -0.666 OA 
HETATM   32  H   UNL    20     -10.162  17.853  64.993  1.00  0.00     0.000 HD 
HETATM   33  O   UNL    20     -11.779  16.390  63.730  1.00  0.00    -1.553 OA 
HETATM   34  C   UNL    20     -12.124  14.360  65.009  1.00  0.00    -0.415 C  
HETATM   35  H   UNL    20     -12.037  15.951  62.928  1.00  0.00     0.000 HD 
BRANCH  26  36
HETATM   36  C   UNL    20      -9.929  15.890  68.225  1.00  0.00    -0.222 C  
HETATM   37  O   UNL    20     -11.024  16.702  68.531  1.00  0.00    -0.342 OA 
HETATM   38  H   UNL    20     -10.874  17.158  69.351  1.00  0.00     0.000 HD 
ENDBRANCH  26  36
ENDBRANCH  23  24
ENDBRANCH  16  23
BRANCH  16  39
HETATM   39  C   UNL    20     -10.122  10.259  65.002  1.00  0.00    -0.283 C  
HETATM   40  O   UNL    20     -10.733  10.824  63.873  1.00  0.00    -0.503 OA 
HETATM   41  H   UNL    20     -10.809  10.184  63.176  1.00  0.00     0.000 HD 
ENDBRANCH  16  39
ENDBRANCH  12  14
TORSDOF 5
ENDMDL
MODEL        3
REMARK 921   NORMALIZED FREE ENERGY PREDICTED BY IDOCK:   -7.48 KCAL/MOL
REMARK 922        TOTAL FREE ENERGY PREDICTED BY IDOCK:  -11.25 KCAL/MOL
REMARK 923 INTER-LIGAND FREE ENERGY PREDICTED BY IDOCK:   -9.80 KCAL/MOL
REMARK 924 INTRA-LIGAND FREE ENERGY PREDICTED BY IDOCK:   -1.44 KCAL/MOL
REMARK 927      BINDING AFFINITY PREDICTED BY RF-SCORE:    0.00 PKD
ROOT
HETATM    1  O   HOH     4      -9.878  20.738  66.736  1.00  0.00    -0.620 OA 
HETATM    2  H2  HOH     4      -9.713  19.948  67.238  1.00  0.00     0.000 HD 
HETATM    3 NA   UNL    13      -6.023  14.845  67.338  1.00  0.00    -0.121 Na 
HETATM    4  H1  HOH     4      -9.280  20.690  65.999  1.00  0.00     0.000 HD 
HETATM    5 NA   UNL    14      -9.303  19.239  69.311  1.00  0.00    -0.311 Na 
HETATM    6 FE   UNL    15      -6.972  17.161  69.717  1.00  0.00    -0.229 Fe 
HETATM    7 FE   UNL    16      -9.103  18.369  65.672  1.00  0.00    -0.228 Fe 
HETATM    8 FE   UNL    17     -10.722  17.372  69.198  1.00  0.00    -0.276 Fe 
HETATM    9 FE   UNL    18     -11.162  18.711  65.083  1.00  0.00    -0.465 Fe 
HETATM   10 FE   UNL    19     -12.605  14.500  67.368  1.00  0.00    -0.480 Fe 
HETATM   11  O   UNL    20     -10.700  16.364  66.428  1.00  0.00    -0.268 OA 
HETATM   12  C   UNL    20     -10.286  16.005  65.136  1.00  0.00    -0.215 C  
HETATM   13  H   UNL    20     -10.492  17.253  66.692  1.00  0.00     0.000 HD 
ENDROOT
BRANCH  12  14
HETATM   14  C   UNL    20     -10.624  14.559  64.707  1.00  0.00    -0.377 C  
HETATM   15  O   UNL    20      -9.827  13.630  65.398  1.00  0.00    -0.233 OA 
HETATM   16  C   UNL    20     -10.447  12.375  65.282  1.00  0.00    -0.286 C  
HETATM   17  C   UNL    20     -12.096  14.097  64.791  1.00  0.00    -0.441 C  
HETATM   18  H   UNL    20     -13.632  13.935  63.599  1.00  0.00     0.000 HD 
HETATM   19  C   UNL    20     -11.994  12.616  65.223  1.00  0.00    -0.439 C  
HETATM   20  H   UNL    20     -13.591  12.582  66.410  1.00  0.00     0.000 HD 
HETATM   21  O   UNL    20     -12.727  14.219  63.547  1.00  0.00    -0.767 OA 
HETATM   22  O   UNL    20     -12.654  12.436  66.446  1.00  0.00    -0.233 OA 
BRANCH  16  23
HETATM   23  O   UNL    20      -9.926  11.456  66.266  1.00  0.00    -0.211 OA 
BRANCH  23  24
HETATM   24  C   UNL    20      -9.318  11.924  67.492  1.00  0.00    -0.177 C  
HETATM   25  O   UNL    20     -10.334  12.138  68.454  1.00  0.00    -0.219 OA 
HETATM   26  C   UNL    20     -10.927  10.932  68.927  1.00  0.00    -0.229 C  
HETATM   27  H   UNL    20      -6.382  10.524  67.822  1.00  0.00     0.000 HD 
HETATM   28  C   UNL    20      -9.885   9.982  69.586  1.00  0.00    -0.235 C  
HETATM   29  O   UNL    20     -10.474   8.793  70.052  1.00  0.00    -0.202 OA 
HETATM   30  C   UNL    20      -8.748   9.698  68.614  1.00  0.00    -0.124 C  
HETATM   31  O   UNL    20      -7.060  11.042  67.404  1.00  0.00    -0.087 OA 
HETATM   32  H   UNL    20      -9.838   8.214  70.455  1.00  0.00     0.000 HD 
HETATM   33  O   UNL    20      -7.748   8.964  69.264  1.00  0.00    -0.090 OA 
HETATM   34  C   UNL    20      -8.213  11.080  68.176  1.00  0.00    -0.124 C  
HETATM   35  H   UNL    20      -7.039   8.787  68.657  1.00  0.00     0.000 HD 
BRANCH  26  36
HETATM   36  C   UNL    20     -11.965  11.317  70.011  1.00  0.00    -0.368 C  
HETATM   37  O   UNL    20     -12.962  10.341  70.088  1.00  0.00    -0.576 OA 
HETATM   38  H   UNL    20     -13.599  10.577  70.753  1.00  0.00     0.000 HD 
ENDBRANCH  26  36
ENDBRANCH  23  24
ENDBRANCH  16  23
BRANCH  16  39
HETATM   39  C   UNL    20     -10.042  11.791  63.893  1.00  0.00    -0.368 C  
HETATM   40  O   UNL    20     -11.175  11.376  63.178  1.00  0.00    -0.808 OA 
HETATM   41  H   UNL    20     -10.929  11.022  62.333  1.00  0.00     0.000 HD 
ENDBRANCH  16  39
ENDBRANCH  12  14
TORSDOF 5
ENDMDL
MODEL        4
REMARK 921   NORMALIZED FREE ENERGY PREDICTED BY IDOCK:   -7.45 KCAL/MOL
REMARK 922        TOTAL FREE ENERGY PREDICTED BY IDOCK:  -11.22 KCAL/MOL
REMARK 923 INTER-LIGAND FREE ENERGY PREDICTED BY IDOCK:   -9.71 KCAL/MOL
REMARK 924 INTRA-LIGAND FREE ENERGY PREDICTED BY IDOCK:   -1.51 KCAL/MOL
REMARK 927      BINDING AFFINITY PREDICTED BY RF-SCORE:    0.00 PKD
ROOT
HETATM    1  O   HOH     4     -14.041   8.865  73.446  1.00  0.00    -1.256 OA 
HETATM    2  H2  HOH     4     -13.331   8.365  73.060  1.00  0.00     0.000 HD 
HETATM    3 NA   UNL    13      -7.159   8.687  71.849  1.00  0.00    -0.062 Na 
HETATM    4  H1  HOH     4     -13.649   9.692  73.701  1.00  0.00     0.000 HD 
HETATM    5 NA   UNL    14     -12.348   6.367  73.135  1.00  0.00    -0.470 Na 
HETATM    6 FE   UNL    15      -9.202   6.283  73.254  1.00  0.00    -0.130 Fe 
HETATM    7 FE   UNL    16     -11.960   9.943  72.087  1.00  0.00    -0.347 Fe 
HETATM    8 FE   UNL    17     -12.099   6.148  70.811  1.00  0.00    -0.317 Fe 
HETATM    9 FE   UNL    18     -13.735  10.177  70.863  1.00  0.00    -0.379 Fe 
HETATM   10 FE   UNL    19     -11.661   7.492  67.186  1.00  0.00    -0.525 Fe 
HETATM   11  O   UNL    20     -11.660   8.831  69.674  1.00  0.00    -0.409 OA 
HETATM   12  C   UNL    20     -11.241  10.158  69.495  1.00  0.00    -0.238 C  
HETATM   13  H   UNL    20     -12.095   8.647  70.499  1.00  0.00     0.000 HD 
ENDROOT
BRANCH  12  14
HETATM   14  C   UNL    20     -10.533  10.458  68.154  1.00  0.00    -0.188 C  
HETATM   15  O   UNL    20     -10.441  11.844  67.933  1.00  0.00    -0.195 OA 
HETATM   16  C   UNL    20      -9.457  12.049  66.952  1.00  0.00    -0.203 C  
HETATM   17  C   UNL    20      -9.144   9.831  67.905  1.00  0.00    -0.121 C  
HETATM   18  H   UNL    20      -8.404   8.268  67.003  1.00  0.00     0.000 HD 
HETATM   19  C   UNL    20      -8.381  10.922  67.118  1.00  0.00    -0.125 C  
HETATM   20  H   UNL    20      -6.591  10.629  67.939  1.00  0.00     0.000 HD 
HETATM   21  O   UNL    20      -9.258   8.654  67.156  1.00  0.00    -0.138 OA 
HETATM   22  O   UNL    20      -7.243  11.312  67.838  1.00  0.00    -0.082 OA 
BRANCH  16  23
HETATM   23  O   UNL    20      -9.022  13.426  66.945  1.00  0.00    -0.229 OA 
BRANCH  23  24
HETATM   24  C   UNL    20      -9.789  14.466  67.595  1.00  0.00    -0.224 C  
HETATM   25  O   UNL    20      -8.906  15.300  68.321  1.00  0.00    -0.164 OA 
HETATM   26  C   UNL    20      -8.075  16.102  67.487  1.00  0.00    -0.145 C  
HETATM   27  H   UNL    20     -12.331  15.255  65.697  1.00  0.00     0.000 HD 
HETATM   28  C   UNL    20      -8.901  17.035  66.554  1.00  0.00    -0.264 C  
HETATM   29  O   UNL    20      -8.077  17.826  65.734  1.00  0.00    -0.541 OA 
HETATM   30  C   UNL    20      -9.884  16.215  65.732  1.00  0.00    -0.320 C  
HETATM   31  O   UNL    20     -11.771  14.688  66.213  1.00  0.00    -0.370 OA 
HETATM   32  H   UNL    20      -8.581  18.396  65.165  1.00  0.00     0.000 HD 
HETATM   33  O   UNL    20     -10.720  17.073  65.007  1.00  0.00    -0.713 OA 
HETATM   34  C   UNL    20     -10.703  15.391  66.753  1.00  0.00    -0.310 C  
HETATM   35  H   UNL    20     -11.334  16.561  64.494  1.00  0.00     0.000 HD 
BRANCH  26  36
HETATM   36  C   UNL    20      -7.215  17.001  68.412  1.00  0.00    -0.202 C  
HETATM   37  O   UNL    20      -7.961  18.104  68.836  1.00  0.00    -0.270 OA 
HETATM   38  H   UNL    20      -7.434  18.655  69.404  1.00  0.00     0.000 HD 
ENDBRANCH  26  36
ENDBRANCH  23  24
ENDBRANCH  16  23
BRANCH  16  39
HETATM   39  C   UNL    20     -10.134  11.805  65.568  1.00  0.00    -0.249 C  
HETATM   40  O   UNL    20      -9.705  12.754  64.629  1.00  0.00    -0.522 OA 
HETATM   41  H   UNL    20     -10.117  12.605  63.786  1.00  0.00     0.000 HD 
ENDBRANCH  16  39
ENDBRANCH  12  14
TORSDOF 5
ENDMDL
MODEL        5
REMARK 921   NORMALIZED FREE ENERGY PREDICTED BY IDOCK:   -7.42 KCAL/MOL
REMARK 922        TOTAL FREE ENERGY PREDICTED BY IDOCK:  -11.18 KCAL/MOL
REMARK 923 INTER-LIGAND FREE ENERGY PREDICTED BY IDOCK:   -9.17 KCAL/MOL
REMARK 924 INTRA-LIGAND FREE ENERGY PREDICTED BY IDOCK:   -2.01 KCAL/MOL
REMARK 927      BINDING AFFINITY PREDICTED BY RF-SCORE:    0.00 PKD
ROOT
HETATM    1  O   HOH     4     -12.386  13.674  62.638  1.00  0.00    -0.775 OA 
HETATM    2  H2  HOH     4     -12.102  13.783  63.538  1.00  0.00     0.000 HD 
HETATM    3 NA   UNL    13      -6.904  13.914  67.092  1.00  0.00    -0.156 Na 
HETATM    4  H1  HOH     4     -11.589  13.509  62.147  1.00  0.00     0.000 HD 
HETATM    5 NA   UNL    14     -12.308  15.144  65.290  1.00  0.00    -0.320 Na 
HETATM    6 FE   UNL    15      -9.688  15.943  66.844  1.00  0.00    -0.210 Fe 
HETATM    7 FE   UNL    16     -10.256  12.417  63.745  1.00  0.00    -0.277 Fe 
HETATM    8 FE   UNL    17     -12.530  13.434  66.883  1.00  0.00    -0.344 Fe 
HETATM    9 FE   UNL    18     -11.795  10.927  63.406  1.00  0.00    -0.593 Fe 
HETATM   10 FE   UNL    19     -11.954   9.852  68.290  1.00  0.00    -0.517 Fe 
HETATM   11  O   UNL    20     -10.914  11.134  65.996  1.00  0.00    -0.227 OA 
HETATM   12  C   UNL    20      -9.892  10.349  65.440  1.00  0.00    -0.283 C  
HETATM   13  H   UNL    20     -11.264  11.812  65.429  1.00  0.00     0.000 HD 
ENDROOT
BRANCH  12  14
HETATM   14  C   UNL    20      -9.323   9.246  66.361  1.00  0.00    -0.192 C  
HETATM   15  O   UNL    20      -9.738   9.438  67.691  1.00  0.00    -0.147 OA 
HETATM   16  C   UNL    20      -9.548   8.223  68.371  1.00  0.00    -0.144 C  
HETATM   17  C   UNL    20      -9.578   7.772  65.978  1.00  0.00     0.065 C  
HETATM   18  H   UNL    20      -8.639   6.335  65.051  1.00  0.00     0.000 HD 
HETATM   19  C   UNL    20      -9.774   7.064  67.340  1.00  0.00    -0.141 C  
HETATM   20  H   UNL    20     -11.187   5.786  66.767  1.00  0.00     0.000 HD 
HETATM   21  O   UNL    20      -8.482   7.241  65.287  1.00  0.00    -0.133 OA 
HETATM   22  O   UNL    20     -11.050   6.488  67.391  1.00  0.00    -0.357 OA 
BRANCH  16  23
HETATM   23  O   UNL    20     -10.295   8.207  69.605  1.00  0.00    -0.212 OA 
BRANCH  23  24
HETATM   24  C   UNL    20      -9.962   9.088  70.704  1.00  0.00    -0.233 C  
HETATM   25  O   UNL    20     -10.902  10.145  70.743  1.00  0.00    -0.307 OA 
HETATM   26  C   UNL    20     -12.201   9.731  71.154  1.00  0.00    -0.362 C  
HETATM   27  H   UNL    20      -8.703   7.313  73.144  1.00  0.00     0.000 HD 
HETATM   28  C   UNL    20     -12.194   9.091  72.574  1.00  0.00    -0.164 C  
HETATM   29  O   UNL    20     -13.478   8.684  72.976  1.00  0.00    -0.812 OA 
HETATM   30  C   UNL    20     -11.203   7.937  72.622  1.00  0.00    -0.398 C  
HETATM   31  O   UNL    20      -8.770   7.661  72.262  1.00  0.00    -0.114 OA 
HETATM   32  H   UNL    20     -13.474   8.294  73.842  1.00  0.00     0.000 HD 
HETATM   33  O   UNL    20     -11.097   7.464  73.935  1.00  0.00    -0.488 OA 
HETATM   34  C   UNL    20      -9.854   8.520  72.141  1.00  0.00    -0.318 C  
HETATM   35  H   UNL    20     -10.478   6.744  73.965  1.00  0.00     0.000 HD 
BRANCH  26  36
HETATM   36  C   UNL    20     -13.097  10.994  71.212  1.00  0.00    -0.284 C  
HETATM   37  O   UNL    20     -13.314  11.368  72.541  1.00  0.00    -0.510 OA 
HETATM   38  H   UNL    20     -13.863  12.143  72.576  1.00  0.00     0.000 HD 
ENDBRANCH  26  36
ENDBRANCH  23  24
ENDBRANCH  16  23
BRANCH  16  39
HETATM   39  C   UNL    20      -8.043   8.158  68.778  1.00  0.00    -0.120 C  
HETATM   40  O   UNL    20      -7.736   6.915  69.350  1.00  0.00    -0.100 OA 
HETATM   41  H   UNL    20      -6.820   6.875  69.597  1.00  0.00     0.000 HD 
ENDBRANCH  16  39
ENDBRANCH  12  14
TORSDOF 5
ENDMDL
MODEL        6
REMARK 921   NORMALIZED FREE ENERGY PREDICTED BY IDOCK:   -7.34 KCAL/MOL
REMARK 922        TOTAL FREE ENERGY PREDICTED BY IDOCK:  -11.08 KCAL/MOL
REMARK 923 INTER-LIGAND FREE ENERGY PREDICTED BY IDOCK:   -9.43 KCAL/MOL
REMARK 924 INTRA-LIGAND FREE ENERGY PREDICTED BY IDOCK:   -1.64 KCAL/MOL
REMARK 927      BINDING AFFINITY PREDICTED BY RF-SCORE:    0.00 PKD
ROOT
HETATM    1  O   HOH     4      -9.653  20.558  66.510  1.00  0.00    -0.620 OA 
HETATM    2  H2  HOH     4      -9.584  19.796  67.074  1.00  0.00     0.000 HD 
HETATM    3 NA   UNL    13      -6.368  14.421  67.730  1.00  0.00    -0.088 Na 
HETATM    4  H1  HOH     4      -9.026  20.406  65.813  1.00  0.00     0.000 HD 
HETATM    5 NA   UNL    14      -9.342  19.209  69.210  1.00  0.00    -0.307 Na 
HETATM    6 FE   UNL    15      -7.227  16.977  69.888  1.00  0.00    -0.221 Fe 
HETATM    7 FE   UNL    16      -9.038  18.061  65.656  1.00  0.00    -0.205 Fe 
HETATM    8 FE   UNL    17     -10.913  17.465  69.146  1.00  0.00    -0.294 Fe 
HETATM    9 FE   UNL    18     -11.027  18.532  64.931  1.00  0.00    -0.508 Fe 
HETATM   10 FE   UNL    19     -12.948  14.637  67.415  1.00  0.00    -0.616 Fe 
HETATM   11  O   UNL    20     -10.842  16.259  66.458  1.00  0.00    -0.240 OA 
HETATM   12  C   UNL    20     -10.398  15.773  65.219  1.00  0.00    -0.357 C  
HETATM   13  H   UNL    20     -10.569  17.145  66.671  1.00  0.00     0.000 HD 
ENDROOT
BRANCH  12  14
HETATM   14  C   UNL    20     -10.840  14.333  64.871  1.00  0.00    -0.416 C  
HETATM   15  O   UNL    20     -10.685  13.478  65.977  1.00  0.00    -0.275 OA 
HETATM   16  C   UNL    20     -11.465  12.335  65.738  1.00  0.00    -0.367 C  
HETATM   17  C   UNL    20     -12.256  14.125  64.289  1.00  0.00    -0.420 C  
HETATM   18  H   UNL    20     -13.083  13.924  62.534  1.00  0.00     0.000 HD 
HETATM   19  C   UNL    20     -12.715  12.782  64.904  1.00  0.00    -0.404 C  
HETATM   20  H   UNL    20     -14.631  13.255  65.159  1.00  0.00     0.000 HD 
HETATM   21  O   UNL    20     -12.213  14.052  62.891  1.00  0.00    -0.261 OA 
HETATM   22  O   UNL    20     -13.874  12.984  65.664  1.00  0.00     0.711 OA 
BRANCH  16  23
HETATM   23  O   UNL    20     -11.677  11.598  66.961  1.00  0.00    -0.564 OA 
BRANCH  23  24
HETATM   24  C   UNL    20     -10.693  11.591  68.022  1.00  0.00    -0.202 C  
HETATM   25  O   UNL    20     -10.911  12.715  68.854  1.00  0.00    -0.241 OA 
HETATM   26  C   UNL    20     -12.101  12.619  69.631  1.00  0.00    -0.213 C  
HETATM   27  H   UNL    20     -10.011   8.495  68.818  1.00  0.00     0.000 HD 
HETATM   28  C   UNL    20     -12.099  11.371  70.562  1.00  0.00    -0.394 C  
HETATM   29  O   UNL    20     -13.274  11.281  71.328  1.00  0.00    -0.282 OA 
HETATM   30  C   UNL    20     -11.868  10.109  69.743  1.00  0.00    -0.088 C  
HETATM   31  O   UNL    20     -10.089   9.253  68.251  1.00  0.00    -0.170 OA 
HETATM   32  H   UNL    20     -13.272  10.520  71.896  1.00  0.00     0.000 HD 
HETATM   33  O   UNL    20     -11.721   9.013  70.602  1.00  0.00    -0.358 OA 
HETATM   34  C   UNL    20     -10.566  10.355  68.947  1.00  0.00    -0.216 C  
HETATM   35  H   UNL    20     -11.577   8.225  70.091  1.00  0.00     0.000 HD 
BRANCH  26  36
HETATM   36  C   UNL    20     -12.172  13.878  70.532  1.00  0.00    -0.373 C  
HETATM   37  O   UNL    20     -13.081  14.797  70.001  1.00  0.00    -0.581 OA 
HETATM   38  H   UNL    20     -13.125  15.570  70.553  1.00  0.00     0.000 HD 
ENDBRANCH  26  36
ENDBRANCH  23  24
ENDBRANCH  16  23
BRANCH  16  39
HETATM   39  C   UNL    20     -10.633  11.398  64.810  1.00  0.00    -0.316 C  
HETATM   40  O   UNL    20     -11.297  11.183  63.594  1.00  0.00    -0.545 OA 
HETATM   41  H   UNL    20     -10.790  10.613  63.029  1.00  0.00     0.000 HD 
ENDBRANCH  16  39
ENDBRANCH  12  14
TORSDOF 5
ENDMDL
MODEL        7
REMARK 921   NORMALIZED FREE ENERGY PREDICTED BY IDOCK:   -7.30 KCAL/MOL
REMARK 922        TOTAL FREE ENERGY PREDICTED BY IDOCK:  -11.02 KCAL/MOL
REMARK 923 INTER-LIGAND FREE ENERGY PREDICTED BY IDOCK:  -10.02 KCAL/MOL
REMARK 924 INTRA-LIGAND FREE ENERGY PREDICTED BY IDOCK:   -1.01 KCAL/MOL
REMARK 927      BINDING AFFINITY PREDICTED BY RF-SCORE:    0.00 PKD
ROOT
HETATM    1  O   HOH     4     -13.893   8.956  73.413  1.00  0.00    -1.192 OA 
HETATM    2  H2  HOH     4     -13.129   8.553  73.016  1.00  0.00     0.000 HD 
HETATM    3 NA   UNL    13      -7.193   9.824  71.341  1.00  0.00    -0.092 Na 
HETATM    4  H1  HOH     4     -13.640   9.857  73.573  1.00  0.00     0.000 HD 
HETATM    5 NA   UNL    14     -11.803   6.769  73.176  1.00  0.00    -0.430 Na 
HETATM    6 FE   UNL    15      -8.691   7.239  73.072  1.00  0.00    -0.114 Fe 
HETATM    7 FE   UNL    16     -12.118  10.250  71.826  1.00  0.00    -0.313 Fe 
HETATM    8 FE   UNL    17     -11.654   6.389  70.864  1.00  0.00    -0.248 Fe 
HETATM    9 FE   UNL    18     -13.974  10.064  70.720  1.00  0.00    -0.393 Fe 
HETATM   10 FE   UNL    19     -11.671   7.460  67.123  1.00  0.00    -0.539 Fe 
HETATM   11  O   UNL    20     -11.765   8.996  69.493  1.00  0.00    -0.270 OA 
HETATM   12  C   UNL    20     -11.600  10.354  69.181  1.00  0.00    -0.164 C  
HETATM   13  H   UNL    20     -12.112   8.814  70.359  1.00  0.00     0.000 HD 
ENDROOT
BRANCH  12  14
HETATM   14  C   UNL    20     -11.035  10.650  67.773  1.00  0.00    -0.306 C  
HETATM   15  O   UNL    20     -11.208  12.005  67.437  1.00  0.00    -0.268 OA 
HETATM   16  C   UNL    20     -10.335  12.290  66.374  1.00  0.00    -0.225 C  
HETATM   17  C   UNL    20      -9.571  10.256  67.475  1.00  0.00    -0.156 C  
HETATM   18  H   UNL    20      -8.612   8.773  66.649  1.00  0.00     0.000 HD 
HETATM   19  C   UNL    20      -9.064  11.389  66.552  1.00  0.00    -0.186 C  
HETATM   20  H   UNL    20      -7.208  11.491  67.262  1.00  0.00     0.000 HD 
HETATM   21  O   UNL    20      -9.512   9.014  66.832  1.00  0.00    -0.148 OA 
HETATM   22  O   UNL    20      -7.977  12.036  67.154  1.00  0.00    -0.164 OA 
BRANCH  16  23
HETATM   23  O   UNL    20     -10.158  13.714  66.226  1.00  0.00    -0.284 OA 
BRANCH  23  24
HETATM   24  C   UNL    20     -11.285  14.620  66.211  1.00  0.00    -0.340 C  
HETATM   25  O   UNL    20     -11.728  14.821  67.541  1.00  0.00    -0.363 OA 
HETATM   26  C   UNL    20     -10.819  15.584  68.328  1.00  0.00    -0.292 C  
HETATM   27  H   UNL    20     -10.882  16.778  63.789  1.00  0.00     0.000 HD 
HETATM   28  C   UNL    20     -10.561  16.998  67.728  1.00  0.00    -0.350 C  
HETATM   29  O   UNL    20      -9.665  17.748  68.509  1.00  0.00    -0.311 OA 
HETATM   30  C   UNL    20     -10.080  16.874  66.290  1.00  0.00    -0.324 C  
HETATM   31  O   UNL    20     -10.970  15.920  64.187  1.00  0.00    -0.305 OA 
HETATM   32  H   UNL    20      -9.508  18.610  68.143  1.00  0.00     0.000 HD 
HETATM   33  O   UNL    20      -9.991  18.147  65.714  1.00  0.00    -0.547 OA 
HETATM   34  C   UNL    20     -11.142  16.019  65.561  1.00  0.00    -0.105 C  
HETATM   35  H   UNL    20      -9.690  18.070  64.816  1.00  0.00     0.000 HD 
BRANCH  26  36
HETATM   36  C   UNL    20     -11.462  15.776  69.726  1.00  0.00    -0.349 C  
HETATM   37  O   UNL    20     -12.792  15.346  69.706  1.00  0.00    -0.628 OA 
HETATM   38  H   UNL    20     -13.186  15.464  70.562  1.00  0.00     0.000 HD 
ENDBRANCH  26  36
ENDBRANCH  23  24
ENDBRANCH  16  23
BRANCH  16  39
HETATM   39  C   UNL    20     -11.033  11.805  65.066  1.00  0.00    -0.300 C  
HETATM   40  O   UNL    20     -10.240  10.861  64.398  1.00  0.00    -0.313 OA 
HETATM   41  H   UNL    20     -10.666  10.567  63.602  1.00  0.00     0.000 HD 
ENDBRANCH  16  39
ENDBRANCH  12  14
TORSDOF 5
ENDMDL
MODEL        8
REMARK 921   NORMALIZED FREE ENERGY PREDICTED BY IDOCK:   -7.22 KCAL/MOL
REMARK 922        TOTAL FREE ENERGY PREDICTED BY IDOCK:  -10.92 KCAL/MOL
REMARK 923 INTER-LIGAND FREE ENERGY PREDICTED BY IDOCK:   -9.68 KCAL/MOL
REMARK 924 INTRA-LIGAND FREE ENERGY PREDICTED BY IDOCK:   -1.24 KCAL/MOL
REMARK 927      BINDING AFFINITY PREDICTED BY RF-SCORE:    0.00 PKD
ROOT
HETATM    1  O   HOH     4     -10.537  19.263  68.929  1.00  0.00    -0.413 OA 
HETATM    2  H2  HOH     4     -10.820  18.377  69.124  1.00  0.00     0.000 HD 
HETATM    3 NA   UNL    13      -8.691  12.454  69.336  1.00  0.00    -0.343 Na 
HETATM    4  H1  HOH     4      -9.631  19.178  68.659  1.00  0.00     0.000 HD 
HETATM    5 NA   UNL    14     -11.843  17.164  70.689  1.00  0.00    -0.449 Na 
HETATM    6 FE   UNL    15     -10.544  14.411  71.494  1.00  0.00    -0.468 Fe 
HETATM    7 FE   UNL    16      -9.619  17.043  67.676  1.00  0.00    -0.225 Fe 
HETATM    8 FE   UNL    17     -13.153  15.917  69.191  1.00  0.00    -0.590 Fe 
HETATM    9 FE   UNL    18     -10.837  18.141  66.257  1.00  0.00    -0.336 Fe 
HETATM   10 FE   UNL    19     -13.934  14.243  65.767  1.00  0.00    -0.631 Fe 
HETATM   11  O   UNL    20     -11.610  15.547  66.707  1.00  0.00    -0.080 OA 
HETATM   12  C   UNL    20     -10.559  15.348  65.800  1.00  0.00    -0.348 C  
HETATM   13  H   UNL    20     -11.481  16.248  67.336  1.00  0.00     0.000 HD 
ENDROOT
BRANCH  12  14
HETATM   14  C   UNL    20     -10.768  14.208  64.777  1.00  0.00    -0.419 C  
HETATM   15  O   UNL    20     -10.300  12.983  65.286  1.00  0.00    -0.294 OA 
HETATM   16  C   UNL    20     -10.878  11.959  64.518  1.00  0.00    -0.316 C  
HETATM   17  C   UNL    20     -12.188  13.989  64.208  1.00  0.00    -0.418 C  
HETATM   18  H   UNL    20     -13.202  14.491  62.619  1.00  0.00     0.000 HD 
HETATM   19  C   UNL    20     -12.295  12.453  64.062  1.00  0.00    -0.488 C  
HETATM   20  H   UNL    20     -14.210  12.277  64.574  1.00  0.00     0.000 HD 
HETATM   21  O   UNL    20     -12.330  14.625  62.969  1.00  0.00     0.139 OA 
HETATM   22  O   UNL    20     -13.352  11.978  64.850  1.00  0.00    -0.081 OA 
BRANCH  16  23
HETATM   23  O   UNL    20     -10.773  10.690  65.197  1.00  0.00    -0.186 OA 
BRANCH  23  24
HETATM   24  C   UNL    20      -9.600  10.338  65.967  1.00  0.00    -0.206 C  
HETATM   25  O   UNL    20      -9.837  10.650  67.328  1.00  0.00    -0.169 OA 
HETATM   26  C   UNL    20     -10.794   9.793  67.944  1.00  0.00    -0.242 C  
HETATM   27  H   UNL    20      -8.205   7.700  64.634  1.00  0.00     0.000 HD 
HETATM   28  C   UNL    20     -10.362   8.298  67.900  1.00  0.00    -0.219 C  
HETATM   29  O   UNL    20     -11.308   7.456  68.510  1.00  0.00    -0.359 OA 
HETATM   30  C   UNL    20     -10.084   7.877  66.464  1.00  0.00    -0.175 C  
HETATM   31  O   UNL    20      -8.542   8.588  64.664  1.00  0.00    -0.150 OA 
HETATM   32  H   UNL    20     -11.044   6.544  68.483  1.00  0.00     0.000 HD 
HETATM   33  O   UNL    20      -9.558   6.580  66.449  1.00  0.00    -0.235 OA 
HETATM   34  C   UNL    20      -9.052   8.890  65.919  1.00  0.00    -0.218 C  
HETATM   35  H   UNL    20      -9.385   6.317  65.553  1.00  0.00     0.000 HD 
BRANCH  26  36
HETATM   36  C   UNL    20     -10.900  10.209  69.433  1.00  0.00    -0.241 C  
HETATM   37  O   UNL    20     -10.797  11.597  69.552  1.00  0.00    -0.427 OA 
HETATM   38  H   UNL    20     -10.862  11.852  70.466  1.00  0.00     0.000 HD 
ENDBRANCH  26  36
ENDBRANCH  23  24
ENDBRANCH  16  23
BRANCH  16  39
HETATM   39  C   UNL    20     -10.025  11.824  63.219  1.00  0.00    -0.410 C  
HETATM   40  O   UNL    20     -10.087  10.517  62.715  1.00  0.00    -0.685 OA 
HETATM   41  H   UNL    20      -9.568  10.435  61.925  1.00  0.00     0.000 HD 
ENDBRANCH  16  39
ENDBRANCH  12  14
TORSDOF 5
ENDMDL
MODEL        9
REMARK 921   NORMALIZED FREE ENERGY PREDICTED BY IDOCK:   -7.22 KCAL/MOL
REMARK 922        TOTAL FREE ENERGY PREDICTED BY IDOCK:  -10.91 KCAL/MOL
REMARK 923 INTER-LIGAND FREE ENERGY PREDICTED BY IDOCK:   -9.21 KCAL/MOL
REMARK 924 INTRA-LIGAND FREE ENERGY PREDICTED BY IDOCK:   -1.70 KCAL/MOL
REMARK 927      BINDING AFFINITY PREDICTED BY RF-SCORE:    0.00 PKD
ROOT
HETATM    1  O   HOH     4      -9.686   2.229  67.450  1.00  0.00    -0.405 OA 
HETATM    2  H2  HOH     4      -9.898   2.960  66.882  1.00  0.00     0.000 HD 
HETATM    3 NA   UNL    13      -7.182   7.519  63.489  1.00  0.00    -0.057 Na 
HETATM    4  H1  HOH     4      -8.739   2.239  67.520  1.00  0.00     0.000 HD 
HETATM    5 NA   UNL    14     -11.086   3.492  65.073  1.00  0.00    -0.423 Na 
HETATM    6 FE   UNL    15      -9.677   5.219  62.848  1.00  0.00    -0.338 Fe 
HETATM    7 FE   UNL    16      -8.262   4.530  67.307  1.00  0.00    -0.095 Fe 
HETATM    8 FE   UNL    17     -11.883   5.534  65.916  1.00  0.00    -0.570 Fe 
HETATM    9 FE   UNL    18      -9.265   4.496  69.230  1.00  0.00    -0.090 Fe 
HETATM   10 FE   UNL    19     -11.700   8.726  68.132  1.00  0.00    -0.393 Fe 
HETATM   11  O   UNL    20      -9.806   6.683  67.663  1.00  0.00    -0.121 OA 
HETATM   12  C   UNL    20      -8.566   7.056  68.204  1.00  0.00    -0.128 C  
HETATM   13  H   UNL    20      -9.900   5.760  67.452  1.00  0.00     0.000 HD 
ENDROOT
BRANCH  12  14
HETATM   14  C   UNL    20      -8.413   8.555  68.547  1.00  0.00    -0.131 C  
HETATM   15  O   UNL    20      -9.026   9.360  67.569  1.00  0.00    -0.122 OA 
HETATM   16  C   UNL    20      -9.213  10.634  68.130  1.00  0.00    -0.148 C  
HETATM   17  C   UNL    20      -8.880   9.038  69.938  1.00  0.00    -0.158 C  
HETATM   18  H   UNL    20      -8.089   9.402  71.684  1.00  0.00     0.000 HD 
HETATM   19  C   UNL    20      -9.467  10.443  69.665  1.00  0.00    -0.086 C  
HETATM   20  H   UNL    20     -10.973  10.352  70.963  1.00  0.00     0.000 HD 
HETATM   21  O   UNL    20      -7.802   9.105  70.828  1.00  0.00    -0.125 OA 
HETATM   22  O   UNL    20     -10.819  10.468  70.033  1.00  0.00    -0.279 OA 
BRANCH  16  23
HETATM   23  O   UNL    20     -10.168  11.394  67.360  1.00  0.00    -0.188 OA 
BRANCH  23  24
HETATM   24  C   UNL    20      -9.803  12.636  66.712  1.00  0.00    -0.235 C  
HETATM   25  O   UNL    20     -10.229  12.590  65.363  1.00  0.00    -0.277 OA 
HETATM   26  C   UNL    20     -11.645  12.651  65.216  1.00  0.00    -0.351 C  
HETATM   27  H   UNL    20      -9.997  15.066  68.890  1.00  0.00     0.000 HD 
HETATM   28  C   UNL    20     -12.245  13.951  65.828  1.00  0.00    -0.460 C  
HETATM   29  O   UNL    20     -13.642  14.009  65.680  1.00  0.00    -0.659 OA 
HETATM   30  C   UNL    20     -11.833  14.081  67.287  1.00  0.00    -0.411 C  
HETATM   31  O   UNL    20      -9.698  14.239  68.529  1.00  0.00    -0.219 OA 
HETATM   32  H   UNL    20     -14.008  14.802  66.053  1.00  0.00     0.000 HD 
HETATM   33  O   UNL    20     -12.254  15.320  67.785  1.00  0.00    -0.369 OA 
HETATM   34  C   UNL    20     -10.290  13.984  67.300  1.00  0.00    -0.264 C  
HETATM   35  H   UNL    20     -11.996  15.401  68.696  1.00  0.00     0.000 HD 
BRANCH  26  36
HETATM   36  C   UNL    20     -11.956  12.658  63.698  1.00  0.00    -0.535 C  
HETATM   37  O   UNL    20     -12.353  13.936  63.295  1.00  0.00    -1.115 OA 
HETATM   38  H   UNL    20     -12.543  13.940  62.364  1.00  0.00     0.000 HD 
ENDBRANCH  26  36
ENDBRANCH  23  24
ENDBRANCH  16  23
BRANCH  16  39
HETATM   39  C   UNL    20      -7.857  11.394  68.003  1.00  0.00    -0.121 C  
HETATM   40  O   UNL    20      -7.671  12.264  69.087  1.00  0.00    -0.331 OA 
HETATM   41  H   UNL    20      -6.845  12.726  69.010  1.00  0.00     0.000 HD 
ENDBRANCH  16  39
ENDBRANCH  12  14
TORSDOF 5
ENDMDL
MODEL       10
REMARK 921   NORMALIZED FREE ENERGY PREDICTED BY IDOCK:   -7.21 KCAL/MOL
REMARK 922        TOTAL FREE ENERGY PREDICTED BY IDOCK:  -10.90 KCAL/MOL
REMARK 923 INTER-LIGAND FREE ENERGY PREDICTED BY IDOCK:   -9.45 KCAL/MOL
REMARK 924 INTRA-LIGAND FREE ENERGY PREDICTED BY IDOCK:   -1.45 KCAL/MOL
REMARK 927      BINDING AFFINITY PREDICTED BY RF-SCORE:    0.00 PKD
ROOT
HETATM    1  O   HOH     4     -11.542   4.052  64.843  1.00  0.00    -0.714 OA 
HETATM    2  H2  HOH     4     -10.737   4.553  64.782  1.00  0.00     0.000 HD 
HETATM    3 NA   UNL    13      -5.767   6.339  68.214  1.00  0.00    -0.008 Na 
HETATM    4  H1  HOH     4     -11.582   3.760  65.746  1.00  0.00     0.000 HD 
HETATM    5 NA   UNL    14      -8.891   4.768  63.552  1.00  0.00    -0.108 Na 
HETATM    6 FE   UNL    15      -6.136   4.974  65.064  1.00  0.00    -0.022 Fe 
HETATM    7 FE   UNL    16     -10.475   5.503  66.867  1.00  0.00    -0.144 Fe 
HETATM    8 FE   UNL    17      -8.881   7.116  63.564  1.00  0.00    -0.352 Fe 
HETATM    9 FE   UNL    18     -12.278   6.515  66.212  1.00  0.00    -0.372 Fe 
HETATM   10 FE   UNL    19      -9.661  10.621  65.062  1.00  0.00    -0.183 Fe 
HETATM   11  O   UNL    20      -9.991   8.029  66.137  1.00  0.00    -0.469 OA 
HETATM   12  C   UNL    20     -10.315   8.121  67.499  1.00  0.00    -0.261 C  
HETATM   13  H   UNL    20     -10.161   7.186  65.732  1.00  0.00     0.000 HD 
ENDROOT
BRANCH  12  14
HETATM   14  C   UNL    20     -10.037   9.492  68.159  1.00  0.00    -0.182 C  
HETATM   15  O   UNL    20     -10.078  10.526  67.206  1.00  0.00    -0.185 OA 
HETATM   16  C   UNL    20     -10.233  11.735  67.903  1.00  0.00    -0.191 C  
HETATM   17  C   UNL    20     -10.904   9.909  69.368  1.00  0.00    -0.237 C  
HETATM   18  H   UNL    20     -10.783   9.871  71.315  1.00  0.00     0.000 HD 
HETATM   19  C   UNL    20     -11.081  11.434  69.187  1.00  0.00    -0.258 C  
HETATM   20  H   UNL    20     -12.957  11.557  69.841  1.00  0.00     0.000 HD 
HETATM   21  O   UNL    20     -10.251   9.615  70.571  1.00  0.00    -0.264 OA 
HETATM   22  O   UNL    20     -12.443  11.738  69.063  1.00  0.00    -0.175 OA 
BRANCH  16  23
HETATM   23  O   UNL    20     -10.671  12.784  67.014  1.00  0.00    -0.249 OA 
BRANCH  23  24
HETATM   24  C   UNL    20      -9.911  13.147  65.838  1.00  0.00    -0.269 C  
HETATM   25  O   UNL    20     -10.598  12.685  64.690  1.00  0.00    -0.300 OA 
HETATM   26  C   UNL    20     -11.802  13.401  64.427  1.00  0.00    -0.408 C  
HETATM   27  H   UNL    20      -8.417  16.003  66.378  1.00  0.00     0.000 HD 
HETATM   28  C   UNL    20     -11.548  14.921  64.211  1.00  0.00    -0.191 C  
HETATM   29  O   UNL    20     -12.738  15.624  63.951  1.00  0.00    -0.770 OA 
HETATM   30  C   UNL    20     -10.807  15.502  65.407  1.00  0.00    -0.390 C  
HETATM   31  O   UNL    20      -8.642  15.093  66.533  1.00  0.00    -0.270 OA 
HETATM   32  H   UNL    20     -12.583  16.551  63.818  1.00  0.00     0.000 HD 
HETATM   33  O   UNL    20     -10.456  16.831  65.141  1.00  0.00    -0.658 OA 
HETATM   34  C   UNL    20      -9.544  14.630  65.585  1.00  0.00    -0.180 C  
HETATM   35  H   UNL    20      -9.994  17.194  65.887  1.00  0.00     0.000 HD 
BRANCH  26  36
HETATM   36  C   UNL    20     -12.405  12.833  63.117  1.00  0.00    -0.180 C  
HETATM   37  O   UNL    20     -12.048  11.490  62.967  1.00  0.00    -0.939 OA 
HETATM   38  H   UNL    20     -12.418  11.141  62.164  1.00  0.00     0.000 HD 
ENDBRANCH  26  36
ENDBRANCH  23  24
ENDBRANCH  16  23
BRANCH  16  39
HETATM   39  C   UNL    20      -8.818  12.159  68.405  1.00  0.00    -0.143 C  
HETATM   40  O   UNL    20      -8.841  13.463  68.918  1.00  0.00    -0.379 OA 
HETATM   41  H   UNL    20      -7.980  13.721  69.223  1.00  0.00     0.000 HD 
ENDBRANCH  16  39
ENDBRANCH  12  14
TORSDOF 5
ENDMDL
MODEL       11
REMARK 921   NORMALIZED FREE ENERGY PREDICTED BY IDOCK:   -7.19 KCAL/MOL
REMARK 922        TOTAL FREE ENERGY PREDICTED BY IDOCK:  -10.88 KCAL/MOL
REMARK 923 INTER-LIGAND FREE ENERGY PREDICTED BY IDOCK:   -9.09 KCAL/MOL
REMARK 924 INTRA-LIGAND FREE ENERGY PREDICTED BY IDOCK:   -1.79 KCAL/MOL
REMARK 927      BINDING AFFINITY PREDICTED BY RF-SCORE:    0.00 PKD
ROOT
HETATM    1  O   HOH     4     -10.769  15.894  64.439  1.00  0.00    -0.803 OA 
HETATM    2  H2  HOH     4     -10.819  15.593  65.339  1.00  0.00     0.000 HD 
HETATM    3 NA   UNL    13      -7.164  13.920  70.188  1.00  0.00    -0.304 Na 
HETATM    4  H1  HOH     4      -9.841  15.912  64.237  1.00  0.00     0.000 HD 
HETATM    5 NA   UNL    14     -11.743  16.085  67.306  1.00  0.00    -0.247 Na 
HETATM    6 FE   UNL    15      -9.898  16.004  69.857  1.00  0.00    -0.213 Fe 
HETATM    7 FE   UNL    16      -9.018  14.173  65.586  1.00  0.00    -0.438 Fe 
HETATM    8 FE   UNL    17     -12.309  13.873  67.852  1.00  0.00    -0.308 Fe 
HETATM    9 FE   UNL    18     -10.189  13.054  64.144  1.00  0.00    -0.311 Fe 
HETATM   10 FE   UNL    19     -11.869  10.008  67.739  1.00  0.00    -0.491 Fe 
HETATM   11  O   UNL    20     -10.257  12.090  66.711  1.00  0.00    -0.200 OA 
HETATM   12  C   UNL    20      -9.032  11.565  66.273  1.00  0.00    -0.196 C  
HETATM   13  H   UNL    20     -10.465  12.962  66.397  1.00  0.00     0.000 HD 
ENDROOT
BRANCH  12  14
HETATM   14  C   UNL    20      -8.695  10.145  66.785  1.00  0.00    -0.125 C  
HETATM   15  O   UNL    20      -9.096   9.984  68.123  1.00  0.00    -0.121 OA 
HETATM   16  C   UNL    20      -9.145   8.605  68.385  1.00  0.00    -0.138 C  
HETATM   17  C   UNL    20      -9.208   8.935  65.973  1.00  0.00    -0.228 C  
HETATM   18  H   UNL    20      -8.529   7.714  64.611  1.00  0.00     0.000 HD 
HETATM   19  C   UNL    20      -9.559   7.887  67.054  1.00  0.00    -0.192 C  
HETATM   20  H   UNL    20     -11.170   7.128  66.166  1.00  0.00     0.000 HD 
HETATM   21  O   UNL    20      -8.213   8.458  65.110  1.00  0.00    -0.141 OA 
HETATM   22  O   UNL    20     -10.919   7.563  66.972  1.00  0.00    -0.306 OA 
BRANCH  16  23
HETATM   23  O   UNL    20      -9.909   8.340  69.580  1.00  0.00    -0.179 OA 
BRANCH  23  24
HETATM   24  C   UNL    20      -9.808   9.189  70.748  1.00  0.00    -0.270 C  
HETATM   25  O   UNL    20     -10.895  10.095  70.750  1.00  0.00    -0.307 OA 
HETATM   26  C   UNL    20     -12.148   9.472  71.016  1.00  0.00    -0.318 C  
HETATM   27  H   UNL    20      -8.512   7.465  73.205  1.00  0.00     0.000 HD 
HETATM   28  C   UNL    20     -12.168   8.752  72.396  1.00  0.00    -0.326 C  
HETATM   29  O   UNL    20     -13.406   8.140  72.655  1.00  0.00    -0.556 OA 
HETATM   30  C   UNL    20     -11.022   7.753  72.480  1.00  0.00    -0.338 C  
HETATM   31  O   UNL    20      -8.554   7.854  72.339  1.00  0.00    -0.121 OA 
HETATM   32  H   UNL    20     -13.418   7.701  73.497  1.00  0.00     0.000 HD 
HETATM   33  O   UNL    20     -10.960   7.219  73.773  1.00  0.00    -0.547 OA 
HETATM   34  C   UNL    20      -9.740   8.553  72.159  1.00  0.00    -0.317 C  
HETATM   35  H   UNL    20     -10.246   6.595  73.826  1.00  0.00     0.000 HD 
BRANCH  26  36
HETATM   36  C   UNL    20     -13.224  10.587  71.051  1.00  0.00    -0.239 C  
HETATM   37  O   UNL    20     -13.339  11.102  72.345  1.00  0.00    -0.600 OA 
HETATM   38  H   UNL    20     -13.999  11.786  72.366  1.00  0.00     0.000 HD 
ENDBRANCH  26  36
ENDBRANCH  23  24
ENDBRANCH  16  23
BRANCH  16  39
HETATM   39  C   UNL    20      -7.687   8.145  68.694  1.00  0.00    -0.112 C  
HETATM   40  O   UNL    20      -7.680   6.863  69.262  1.00  0.00    -0.101 OA 
HETATM   41  H   UNL    20      -6.792   6.584  69.450  1.00  0.00     0.000 HD 
ENDBRANCH  16  39
ENDBRANCH  12  14
TORSDOF 5
ENDMDL
MODEL       12
REMARK 921   NORMALIZED FREE ENERGY PREDICTED BY IDOCK:   -6.98 KCAL/MOL
REMARK 922        TOTAL FREE ENERGY PREDICTED BY IDOCK:  -10.61 KCAL/MOL
REMARK 923 INTER-LIGAND FREE ENERGY PREDICTED BY IDOCK:   -9.27 KCAL/MOL
REMARK 924 INTRA-LIGAND FREE ENERGY PREDICTED BY IDOCK:   -1.35 KCAL/MOL
REMARK 927      BINDING AFFINITY PREDICTED BY RF-SCORE:    0.00 PKD
ROOT
HETATM    1  O   HOH     4      -6.482  19.084  67.318  1.00  0.00    -0.188 OA 
HETATM    2  H2  HOH     4      -7.409  18.973  67.493  1.00  0.00     0.000 HD 
HETATM    3 NA   UNL    13     -11.469  15.017  70.238  1.00  0.00    -0.205 Na 
HETATM    4  H1  HOH     4      -6.069  18.305  67.672  1.00  0.00     0.000 HD 
HETATM    5 NA   UNL    14      -9.173  20.030  68.352  1.00  0.00    -0.312 Na 
HETATM    6 FE   UNL    15     -11.006  18.437  70.357  1.00  0.00    -0.429 Fe 
HETATM    7 FE   UNL    16      -7.758  16.695  67.393  1.00  0.00    -0.134 Fe 
HETATM    8 FE   UNL    17     -10.682  19.343  66.689  1.00  0.00    -0.330 Fe 
HETATM    9 FE   UNL    18      -7.221  17.087  65.329  1.00  0.00    -0.123 Fe 
HETATM   10 FE   UNL    19     -12.028  16.924  63.954  1.00  0.00    -0.373 Fe 
HETATM   11  O   UNL    20      -9.891  16.652  65.783  1.00  0.00    -0.482 OA 
HETATM   12  C   UNL    20      -9.417  15.332  65.760  1.00  0.00    -0.275 C  
HETATM   13  H   UNL    20      -9.313  17.287  66.190  1.00  0.00     0.000 HD 
ENDROOT
BRANCH  12  14
HETATM   14  C   UNL    20     -10.356  14.297  65.098  1.00  0.00    -0.415 C  
HETATM   15  O   UNL    20      -9.789  13.011  65.130  1.00  0.00    -0.184 OA 
HETATM   16  C   UNL    20     -10.825  12.088  64.907  1.00  0.00    -0.301 C  
HETATM   17  C   UNL    20     -11.811  14.202  65.608  1.00  0.00    -0.375 C  
HETATM   18  H   UNL    20     -13.567  14.891  65.110  1.00  0.00     0.000 HD 
HETATM   19  C   UNL    20     -12.134  12.691  65.522  1.00  0.00    -0.458 C  
HETATM   20  H   UNL    20     -13.244  12.569  67.170  1.00  0.00     0.000 HD 
HETATM   21  O   UNL    20     -12.672  14.950  64.796  1.00  0.00    -0.376 OA 
HETATM   22  O   UNL    20     -12.450  12.204  66.797  1.00  0.00    -0.151 OA 
BRANCH  16  23
HETATM   23  O   UNL    20     -10.420  10.761  65.305  1.00  0.00    -0.270 OA 
BRANCH  23  24
HETATM   24  C   UNL    20      -9.313  10.546  66.210  1.00  0.00    -0.170 C  
HETATM   25  O   UNL    20      -9.726  10.874  67.524  1.00  0.00    -0.165 OA 
HETATM   26  C   UNL    20     -10.662   9.948  68.068  1.00  0.00    -0.248 C  
HETATM   27  H   UNL    20      -7.543   8.014  65.141  1.00  0.00     0.000 HD 
HETATM   28  C   UNL    20     -10.093   8.501  68.130  1.00  0.00    -0.200 C  
HETATM   29  O   UNL    20     -11.019   7.591  68.668  1.00  0.00    -0.418 OA 
HETATM   30  C   UNL    20      -9.621   8.066  66.750  1.00  0.00    -0.216 C  
HETATM   31  O   UNL    20      -7.961   8.867  65.099  1.00  0.00    -0.110 OA 
HETATM   32  H   UNL    20     -10.672   6.708  68.706  1.00  0.00     0.000 HD 
HETATM   33  O   UNL    20      -8.979   6.825  66.843  1.00  0.00    -0.121 OA 
HETATM   34  C   UNL    20      -8.632   9.156  66.279  1.00  0.00    -0.126 C  
HETATM   35  H   UNL    20      -8.685   6.553  65.982  1.00  0.00     0.000 HD 
BRANCH  26  36
HETATM   36  C   UNL    20     -10.970  10.396  69.519  1.00  0.00    -0.262 C  
HETATM   37  O   UNL    20     -12.276  10.037  69.865  1.00  0.00    -0.481 OA 
HETATM   38  H   UNL    20     -12.464  10.311  70.756  1.00  0.00     0.000 HD 
ENDBRANCH  26  36
ENDBRANCH  23  24
ENDBRANCH  16  23
BRANCH  16  39
HETATM   39  C   UNL    20     -11.056  12.024  63.365  1.00  0.00    -0.398 C  
HETATM   40  O   UNL    20     -12.384  11.682  63.075  1.00  0.00    -0.970 OA 
HETATM   41  H   UNL    20     -12.525  11.643  62.137  1.00  0.00     0.000 HD 
ENDBRANCH  16  39
ENDBRANCH  12  14
TORSDOF 5
ENDMDL
MODEL       13
REMARK 921   NORMALIZED FREE ENERGY PREDICTED BY IDOCK:   -6.98 KCAL/MOL
REMARK 922        TOTAL FREE ENERGY PREDICTED BY IDOCK:  -10.61 KCAL/MOL
REMARK 923 INTER-LIGAND FREE ENERGY PREDICTED BY IDOCK:   -9.03 KCAL/MOL
REMARK 924 INTRA-LIGAND FREE ENERGY PREDICTED BY IDOCK:   -1.58 KCAL/MOL
REMARK 927      BINDING AFFINITY PREDICTED BY RF-SCORE:    0.00 PKD
ROOT
HETATM    1  O   HOH     4      -9.860  20.953  66.808  1.00  0.00    -0.608 OA 
HETATM    2  H2  HOH     4      -9.714  20.169  67.324  1.00  0.00     0.000 HD 
HETATM    3 NA   UNL    13      -6.045  15.058  67.600  1.00  0.00    -0.098 Na 
HETATM    4  H1  HOH     4      -9.238  20.896  66.092  1.00  0.00     0.000 HD 
HETATM    5 NA   UNL    14      -9.375  19.481  69.416  1.00  0.00    -0.326 Na 
HETATM    6 FE   UNL    15      -7.065  17.402  69.922  1.00  0.00    -0.217 Fe 
HETATM    7 FE   UNL    16      -9.057  18.572  65.796  1.00  0.00    -0.281 Fe 
HETATM    8 FE   UNL    17     -10.796  17.617  69.277  1.00  0.00    -0.304 Fe 
HETATM    9 FE   UNL    18     -11.095  18.912  65.136  1.00  0.00    -0.488 Fe 
HETATM   10 FE   UNL    19     -12.625  14.730  67.416  1.00  0.00    -0.514 Fe 
HETATM   11  O   UNL    20     -10.684  16.579  66.520  1.00  0.00    -0.260 OA 
HETATM   12  C   UNL    20     -10.230  16.205  65.247  1.00  0.00    -0.170 C  
HETATM   13  H   UNL    20     -10.483  17.470  66.781  1.00  0.00     0.000 HD 
ENDROOT
BRANCH  12  14
HETATM   14  C   UNL    20     -10.557  14.755  64.822  1.00  0.00    -0.328 C  
HETATM   15  O   UNL    20      -9.842  13.828  65.601  1.00  0.00    -0.268 OA 
HETATM   16  C   UNL    20     -10.475  12.582  65.459  1.00  0.00    -0.279 C  
HETATM   17  C   UNL    20     -12.040  14.322  64.786  1.00  0.00    -0.446 C  
HETATM   18  H   UNL    20     -13.468  14.159  63.468  1.00  0.00     0.000 HD 
HETATM   19  C   UNL    20     -12.006  12.850  65.259  1.00  0.00    -0.419 C  
HETATM   20  H   UNL    20     -13.701  12.873  66.301  1.00  0.00     0.000 HD 
HETATM   21  O   UNL    20     -12.557  14.425  63.489  1.00  0.00    -0.784 OA 
HETATM   22  O   UNL    20     -12.773  12.711  66.423  1.00  0.00    -0.119 OA 
BRANCH  16  23
HETATM   23  O   UNL    20     -10.061  11.678  66.506  1.00  0.00    -0.201 OA 
BRANCH  23  24
HETATM   24  C   UNL    20      -8.881  10.852  66.371  1.00  0.00    -0.171 C  
HETATM   25  O   UNL    20      -7.794  11.501  67.005  1.00  0.00    -0.148 OA 
HETATM   26  C   UNL    20      -7.905  11.529  68.425  1.00  0.00    -0.136 C  
HETATM   27  H   UNL    20      -9.772   7.708  66.436  1.00  0.00     0.000 HD 
HETATM   28  C   UNL    20      -7.989  10.100  69.038  1.00  0.00    -0.115 C  
HETATM   29  O   UNL    20      -8.097  10.132  70.440  1.00  0.00    -0.403 OA 
HETATM   30  C   UNL    20      -9.139   9.327  68.407  1.00  0.00    -0.128 C  
HETATM   31  O   UNL    20      -9.760   8.605  66.123  1.00  0.00    -0.253 OA 
HETATM   32  H   UNL    20      -8.148   9.260  70.814  1.00  0.00     0.000 HD 
HETATM   33  O   UNL    20      -9.115   8.001  68.857  1.00  0.00    -0.144 OA 
HETATM   34  C   UNL    20      -8.901   9.390  66.881  1.00  0.00    -0.127 C  
HETATM   35  H   UNL    20      -9.833   7.519  68.463  1.00  0.00     0.000 HD 
BRANCH  26  36
HETATM   36  C   UNL    20      -6.626  12.205  68.979  1.00  0.00    -0.100 C  
HETATM   37  O   UNL    20      -6.916  13.502  69.409  1.00  0.00    -0.263 OA 
HETATM   38  H   UNL    20      -6.132  13.917  69.749  1.00  0.00     0.000 HD 
ENDBRANCH  26  36
ENDBRANCH  23  24
ENDBRANCH  16  23
BRANCH  16  39
HETATM   39  C   UNL    20      -9.962  11.958  64.125  1.00  0.00    -0.262 C  
HETATM   40  O   UNL    20     -11.036  11.589  63.303  1.00  0.00    -0.674 OA 
HETATM   41  H   UNL    20     -10.724  11.210  62.490  1.00  0.00     0.000 HD 
ENDBRANCH  16  39
ENDBRANCH  12  14
TORSDOF 5
ENDMDL
MODEL       14
REMARK 921   NORMALIZED FREE ENERGY PREDICTED BY IDOCK:   -6.96 KCAL/MOL
REMARK 922        TOTAL FREE ENERGY PREDICTED BY IDOCK:  -10.59 KCAL/MOL
REMARK 923 INTER-LIGAND FREE ENERGY PREDICTED BY IDOCK:   -9.14 KCAL/MOL
REMARK 924 INTRA-LIGAND FREE ENERGY PREDICTED BY IDOCK:   -1.44 KCAL/MOL
REMARK 927      BINDING AFFINITY PREDICTED BY RF-SCORE:    0.00 PKD
ROOT
HETATM    1  O   HOH     4     -14.363  15.811  72.724  1.00  0.00    -0.485 OA 
HETATM    2  H2  HOH     4     -13.539  16.123  72.369  1.00  0.00     0.000 HD 
HETATM    3 NA   UNL    13     -11.187  19.454  67.569  1.00  0.00    -0.419 Na 
HETATM    4  H1  HOH     4     -15.023  16.100  72.106  1.00  0.00     0.000 HD 
HETATM    5 NA   UNL    14     -11.692  17.234  72.933  1.00  0.00    -0.489 Na 
HETATM    6 FE   UNL    15     -10.685  19.495  70.985  1.00  0.00    -0.652 Fe 
HETATM    7 FE   UNL    16     -13.831  16.082  70.081  1.00  0.00    -0.801 Fe 
HETATM    8 FE   UNL    17     -10.214  15.818  71.783  1.00  0.00     0.071 Fe 
HETATM    9 FE   UNL    18     -13.935  13.959  70.516  1.00  0.00    -0.152 Fe 
HETATM   10 FE   UNL    19      -9.221  13.321  68.969  1.00  0.00    -0.283 Fe 
HETATM   11  O   UNL    20     -11.588  14.810  69.379  1.00  0.00    -0.276 OA 
HETATM   12  C   UNL    20     -12.405  14.718  68.242  1.00  0.00     0.113 C  
HETATM   13  H   UNL    20     -12.016  15.124  70.167  1.00  0.00     0.000 HD 
ENDROOT
BRANCH  12  14
HETATM   14  C   UNL    20     -11.708  14.207  66.960  1.00  0.00    -0.405 C  
HETATM   15  O   UNL    20     -11.146  12.934  67.166  1.00  0.00    -0.259 OA 
HETATM   16  C   UNL    20     -10.908  12.369  65.903  1.00  0.00    -0.270 C  
HETATM   17  C   UNL    20     -12.525  14.173  65.649  1.00  0.00    -0.469 C  
HETATM   18  H   UNL    20     -12.781  15.295  64.075  1.00  0.00     0.000 HD 
HETATM   19  C   UNL    20     -12.019  12.899  64.932  1.00  0.00    -0.392 C  
HETATM   20  H   UNL    20     -13.760  12.334  64.150  1.00  0.00     0.000 HD 
HETATM   21  O   UNL    20     -12.279  15.317  64.880  1.00  0.00    -0.129 OA 
HETATM   22  O   UNL    20     -13.087  12.013  64.738  1.00  0.00    -0.430 OA 
BRANCH  16  23
HETATM   23  O   UNL    20     -10.707  10.944  66.011  1.00  0.00    -0.224 OA 
BRANCH  23  24
HETATM   24  C   UNL    20      -9.494  10.391  66.574  1.00  0.00    -0.167 C  
HETATM   25  O   UNL    20      -9.585  10.433  67.986  1.00  0.00    -0.141 OA 
HETATM   26  C   UNL    20     -10.536   9.515  68.517  1.00  0.00    -0.217 C  
HETATM   27  H   UNL    20      -8.400   8.014  64.615  1.00  0.00     0.000 HD 
HETATM   28  C   UNL    20     -10.207   8.041  68.137  1.00  0.00    -0.207 C  
HETATM   29  O   UNL    20     -11.147   7.138  68.665  1.00  0.00    -0.442 OA 
HETATM   30  C   UNL    20     -10.089   7.905  66.626  1.00  0.00    -0.240 C  
HETATM   31  O   UNL    20      -8.674   8.892  64.852  1.00  0.00    -0.184 OA 
HETATM   32  H   UNL    20     -10.946   6.238  68.433  1.00  0.00     0.000 HD 
HETATM   33  O   UNL    20      -9.652   6.615  66.304  1.00  0.00    -0.315 OA 
HETATM   34  C   UNL    20      -9.047   8.959  66.188  1.00  0.00    -0.203 C  
HETATM   35  H   UNL    20      -9.578   6.530  65.360  1.00  0.00     0.000 HD 
BRANCH  26  36
HETATM   36  C   UNL    20     -10.478   9.626  70.062  1.00  0.00    -0.261 C  
HETATM   37  O   UNL    20     -11.741   9.377  70.608  1.00  0.00    -0.268 OA 
HETATM   38  H   UNL    20     -11.706   9.445  71.556  1.00  0.00     0.000 HD 
ENDBRANCH  26  36
ENDBRANCH  23  24
ENDBRANCH  16  23
BRANCH  16  39
HETATM   39  C   UNL    20      -9.559  12.956  65.385  1.00  0.00     0.081 C  
HETATM   40  O   UNL    20      -9.718  13.519  64.110  1.00  0.00    -0.627 OA 
HETATM   41  H   UNL    20      -8.897  13.877  63.795  1.00  0.00     0.000 HD 
ENDBRANCH  16  39
ENDBRANCH  12  14
TORSDOF 5
ENDMDL
MODEL       15
REMARK 921   NORMALIZED FREE ENERGY PREDICTED BY IDOCK:   -6.96 KCAL/MOL
REMARK 922        TOTAL FREE ENERGY PREDICTED BY IDOCK:  -10.58 KCAL/MOL
REMARK 923 INTER-LIGAND FREE ENERGY PREDICTED BY IDOCK:   -8.80 KCAL/MOL
REMARK 924 INTRA-LIGAND FREE ENERGY PREDICTED BY IDOCK:   -1.78 KCAL/MOL
REMARK 927      BINDING AFFINITY PREDICTED BY RF-SCORE:    0.00 PKD
ROOT
HETATM    1  O   HOH     4     -10.106   7.459  74.337  1.00  0.00    -0.349 OA 
HETATM    2  H2  HOH     4     -10.670   7.778  73.642  1.00  0.00     0.000 HD 
HETATM    3 NA   UNL    13     -12.242   6.643  67.650  1.00  0.00    -0.582 Na 
HETATM    4  H1  HOH     4      -9.616   6.744  73.947  1.00  0.00     0.000 HD 
HETATM    5 NA   UNL    14     -12.790   8.310  73.207  1.00  0.00    -0.598 Na 
HETATM    6 FE   UNL    15     -14.053   7.234  70.530  1.00  0.00    -0.616 Fe 
HETATM    7 FE   UNL    16      -9.476   7.423  71.702  1.00  0.00    -0.145 Fe 
HETATM    8 FE   UNL    17     -12.293  10.257  71.993  1.00  0.00    -0.334 Fe 
HETATM    9 FE   UNL    18      -8.213   8.904  72.658  1.00  0.00    -0.150 Fe 
HETATM   10 FE   UNL    19     -10.071  12.508  69.727  1.00  0.00    -0.390 Fe 
HETATM   11  O   UNL    20      -9.742   9.834  70.578  1.00  0.00    -0.310 OA 
HETATM   12  C   UNL    20      -8.683   9.242  69.874  1.00  0.00    -0.180 C  
HETATM   13  H   UNL    20     -10.019   9.374  71.363  1.00  0.00     0.000 HD 
ENDROOT
BRANCH  12  14
HETATM   14  C   UNL    20      -8.232   9.989  68.597  1.00  0.00    -0.111 C  
HETATM   15  O   UNL    20      -9.059  11.097  68.345  1.00  0.00    -0.155 OA 
HETATM   16  C   UNL    20      -8.373  11.941  67.455  1.00  0.00    -0.158 C  
HETATM   17  C   UNL    20      -6.760  10.447  68.502  1.00  0.00    -0.056 C  
HETATM   18  H   UNL    20      -5.092   9.802  67.722  1.00  0.00     0.000 HD 
HETATM   19  C   UNL    20      -6.842  11.801  67.758  1.00  0.00    -0.090 C  
HETATM   20  H   UNL    20      -5.391  12.731  68.754  1.00  0.00     0.000 HD 
HETATM   21  O   UNL    20      -5.997   9.520  67.781  1.00  0.00    -0.051 OA 
HETATM   22  O   UNL    20      -6.319  12.816  68.571  1.00  0.00    -0.066 OA 
BRANCH  16  23
HETATM   23  O   UNL    20      -8.959  13.260  67.448  1.00  0.00    -0.194 OA 
BRANCH  23  24
HETATM   24  C   UNL    20     -10.349  13.469  67.103  1.00  0.00    -0.250 C  
HETATM   25  O   UNL    20     -11.054  13.864  68.265  1.00  0.00    -0.241 OA 
HETATM   26  C   UNL    20     -10.718  15.175  68.711  1.00  0.00    -0.239 C  
HETATM   27  H   UNL    20     -10.521  14.630  64.052  1.00  0.00     0.000 HD 
HETATM   28  C   UNL    20     -11.005  16.257  67.629  1.00  0.00    -0.245 C  
HETATM   29  O   UNL    20     -10.673  17.549  68.073  1.00  0.00    -0.387 OA 
HETATM   30  C   UNL    20     -10.280  15.908  66.336  1.00  0.00    -0.301 C  
HETATM   31  O   UNL    20     -10.293  14.017  64.740  1.00  0.00    -0.423 OA 
HETATM   32  H   UNL    20     -10.848  18.209  67.413  1.00  0.00     0.000 HD 
HETATM   33  O   UNL    20     -10.659  16.804  65.330  1.00  0.00    -0.621 OA 
HETATM   34  C   UNL    20     -10.722  14.470  65.980  1.00  0.00    -0.305 C  
HETATM   35  H   UNL    20     -10.207  16.586  64.523  1.00  0.00     0.000 HD 
BRANCH  26  36
HETATM   36  C   UNL    20     -11.608  15.491  69.940  1.00  0.00    -0.335 C  
HETATM   37  O   UNL    20     -12.806  16.079  69.526  1.00  0.00    -0.462 OA 
HETATM   38  H   UNL    20     -13.352  16.272  70.280  1.00  0.00     0.000 HD 
ENDBRANCH  26  36
ENDBRANCH  23  24
ENDBRANCH  16  23
BRANCH  16  39
HETATM   39  C   UNL    20      -8.589  11.366  66.021  1.00  0.00    -0.094 C  
HETATM   40  O   UNL    20      -7.360  11.082  65.409  1.00  0.00    -0.359 OA 
HETATM   41  H   UNL    20      -7.491  10.732  64.536  1.00  0.00     0.000 HD 
ENDBRANCH  16  39
ENDBRANCH  12  14
TORSDOF 5
ENDMDL
MODEL       16
REMARK 921   NORMALIZED FREE ENERGY PREDICTED BY IDOCK:   -6.90 KCAL/MOL
REMARK 922        TOTAL FREE ENERGY PREDICTED BY IDOCK:  -10.51 KCAL/MOL
REMARK 923 INTER-LIGAND FREE ENERGY PREDICTED BY IDOCK:   -9.82 KCAL/MOL
REMARK 924 INTRA-LIGAND FREE ENERGY PREDICTED BY IDOCK:   -0.69 KCAL/MOL
REMARK 927      BINDING AFFINITY PREDICTED BY RF-SCORE:    0.00 PKD
ROOT
HETATM    1  O   HOH     4      -6.206  20.124  66.647  1.00  0.00    -0.180 OA 
HETATM    2  H2  HOH     4      -7.148  20.034  66.736  1.00  0.00     0.000 HD 
HETATM    3 NA   UNL    13     -11.515  17.145  70.236  1.00  0.00    -0.458 Na 
HETATM    4  H1  HOH     4      -5.840  19.554  67.312  1.00  0.00     0.000 HD 
HETATM    5 NA   UNL    14      -9.017  21.233  66.918  1.00  0.00    -0.527 Na 
HETATM    6 FE   UNL    15     -11.093  20.390  69.131  1.00  0.00    -0.534 Fe 
HETATM    7 FE   UNL    16      -7.467  17.864  67.448  1.00  0.00    -0.179 Fe 
HETATM    8 FE   UNL    17     -10.285  19.900  65.459  1.00  0.00    -0.365 Fe 
HETATM    9 FE   UNL    18      -6.660  17.499  65.468  1.00  0.00    -0.194 Fe 
HETATM   10 FE   UNL    19     -11.238  16.576  63.676  1.00  0.00    -0.627 Fe 
HETATM   11  O   UNL    20      -9.364  17.113  65.722  1.00  0.00    -0.523 OA 
HETATM   12  C   UNL    20      -8.883  15.905  66.249  1.00  0.00    -0.351 C  
HETATM   13  H   UNL    20      -8.850  17.885  65.931  1.00  0.00     0.000 HD 
ENDROOT
BRANCH  12  14
HETATM   14  C   UNL    20      -9.718  14.650  65.910  1.00  0.00    -0.310 C  
HETATM   15  O   UNL    20      -9.266  13.533  66.635  1.00  0.00    -0.248 OA 
HETATM   16  C   UNL    20     -10.286  12.569  66.604  1.00  0.00    -0.227 C  
HETATM   17  C   UNL    20     -11.254  14.735  66.053  1.00  0.00    -0.341 C  
HETATM   18  H   UNL    20     -12.798  15.064  64.907  1.00  0.00     0.000 HD 
HETATM   19  C   UNL    20     -11.656  13.331  66.566  1.00  0.00    -0.350 C  
HETATM   20  H   UNL    20     -13.115  13.910  67.789  1.00  0.00     0.000 HD 
HETATM   21  O   UNL    20     -11.854  15.012  64.819  1.00  0.00    -0.387 OA 
HETATM   22  O   UNL    20     -12.286  13.449  67.812  1.00  0.00    -0.291 OA 
BRANCH  16  23
HETATM   23  O   UNL    20     -10.078  11.572  67.627  1.00  0.00    -0.181 OA 
BRANCH  23  24
HETATM   24  C   UNL    20     -11.136  10.674  68.037  1.00  0.00    -0.301 C  
HETATM   25  O   UNL    20     -10.975   9.440  67.363  1.00  0.00    -0.210 OA 
HETATM   26  C   UNL    20      -9.845   8.697  67.809  1.00  0.00    -0.175 C  
HETATM   27  H   UNL    20     -11.884  11.273  71.162  1.00  0.00     0.000 HD 
HETATM   28  C   UNL    20      -9.919   8.366  69.329  1.00  0.00    -0.195 C  
HETATM   29  O   UNL    20      -8.803   7.632  69.765  1.00  0.00    -0.139 OA 
HETATM   30  C   UNL    20     -10.094   9.646  70.134  1.00  0.00    -0.262 C  
HETATM   31  O   UNL    20     -11.763  11.470  70.241  1.00  0.00    -0.327 OA 
HETATM   32  H   UNL    20      -8.848   7.430  70.692  1.00  0.00     0.000 HD 
HETATM   33  O   UNL    20     -10.306   9.328  71.480  1.00  0.00    -0.336 OA 
HETATM   34  C   UNL    20     -11.334  10.352  69.539  1.00  0.00    -0.265 C  
HETATM   35  H   UNL    20     -10.415  10.126  71.983  1.00  0.00     0.000 HD 
BRANCH  26  36
HETATM   36  C   UNL    20      -9.835   7.355  67.035  1.00  0.00    -0.209 C  
HETATM   37  O   UNL    20     -11.145   6.942  66.774  1.00  0.00    -0.536 OA 
HETATM   38  H   UNL    20     -11.139   6.118  66.299  1.00  0.00     0.000 HD 
ENDBRANCH  26  36
ENDBRANCH  23  24
ENDBRANCH  16  23
BRANCH  16  39
HETATM   39  C   UNL    20     -10.167  11.819  65.242  1.00  0.00    -0.267 C  
HETATM   40  O   UNL    20     -11.394  11.819  64.564  1.00  0.00    -0.322 OA 
HETATM   41  H   UNL    20     -11.321  11.362  63.734  1.00  0.00     0.000 HD 
ENDBRANCH  16  39
ENDBRANCH  12  14
TORSDOF 5
ENDMDL
MODEL       17
REMARK 921   NORMALIZED FREE ENERGY PREDICTED BY IDOCK:   -6.90 KCAL/MOL
REMARK 922        TOTAL FREE ENERGY PREDICTED BY IDOCK:  -10.50 KCAL/MOL
REMARK 923 INTER-LIGAND FREE ENERGY PREDICTED BY IDOCK:   -8.78 KCAL/MOL
REMARK 924 INTRA-LIGAND FREE ENERGY PREDICTED BY IDOCK:   -1.72 KCAL/MOL
REMARK 927      BINDING AFFINITY PREDICTED BY RF-SCORE:    0.00 PKD
ROOT
HETATM    1  O   HOH     4      -9.606   4.837  71.938  1.00  0.00    -0.142 OA 
HETATM    2  H2  HOH     4      -9.959   5.705  72.093  1.00  0.00     0.000 HD 
HETATM    3 NA   UNL    13     -14.387   9.672  70.012  1.00  0.00    -0.675 Na 
HETATM    4  H1  HOH     4     -10.098   4.499  71.199  1.00  0.00     0.000 HD 
HETATM    5 NA   UNL    14     -10.753   7.015  73.712  1.00  0.00    -0.241 Na 
HETATM    6 FE   UNL    15     -13.416   8.598  73.147  1.00  0.00    -0.538 Fe 
HETATM    7 FE   UNL    16     -10.593   6.464  70.010  1.00  0.00    -0.173 Fe 
HETATM    8 FE   UNL    17      -9.644   8.957  72.998  1.00  0.00    -0.233 Fe 
HETATM    9 FE   UNL    18      -8.445   6.347  69.733  1.00  0.00    -0.109 Fe 
HETATM   10 FE   UNL    19      -8.008  11.292  70.351  1.00  0.00    -0.277 Fe 
HETATM   11  O   UNL    20      -9.450   8.880  70.059  1.00  0.00    -0.165 OA 
HETATM   12  C   UNL    20      -9.736   8.663  68.702  1.00  0.00    -0.163 C  
HETATM   13  H   UNL    20      -9.549   8.122  70.624  1.00  0.00     0.000 HD 
ENDROOT
BRANCH  12  14
HETATM   14  C   UNL    20      -9.575   9.895  67.782  1.00  0.00    -0.141 C  
HETATM   15  O   UNL    20     -10.255  11.008  68.309  1.00  0.00    -0.165 OA 
HETATM   16  C   UNL    20      -9.742  12.152  67.676  1.00  0.00    -0.188 C  
HETATM   17  C   UNL    20      -8.146  10.335  67.394  1.00  0.00    -0.110 C  
HETATM   18  H   UNL    20      -6.911  10.089  65.905  1.00  0.00     0.000 HD 
HETATM   19  C   UNL    20      -8.232  11.879  67.357  1.00  0.00    -0.164 C  
HETATM   20  H   UNL    20      -6.422  12.257  68.094  1.00  0.00     0.000 HD 
HETATM   21  O   UNL    20      -7.789   9.818  66.143  1.00  0.00    -0.104 OA 
HETATM   22  O   UNL    20      -7.337  12.423  68.288  1.00  0.00    -0.097 OA 
BRANCH  16  23
HETATM   23  O   UNL    20     -10.088  13.342  68.416  1.00  0.00    -0.241 OA 
BRANCH  23  24
HETATM   24  C   UNL    20     -11.170  14.207  67.997  1.00  0.00    -0.281 C  
HETATM   25  O   UNL    20     -12.279  13.999  68.852  1.00  0.00    -0.345 OA 
HETATM   26  C   UNL    20     -12.073  14.496  70.171  1.00  0.00    -0.334 C  
HETATM   27  H   UNL    20      -9.915  16.991  66.832  1.00  0.00     0.000 HD 
HETATM   28  C   UNL    20     -11.780  16.025  70.187  1.00  0.00    -0.281 C  
HETATM   29  O   UNL    20     -11.580  16.511  71.491  1.00  0.00    -0.602 OA 
HETATM   30  C   UNL    20     -10.595  16.339  69.286  1.00  0.00    -0.293 C  
HETATM   31  O   UNL    20     -10.054  16.053  66.888  1.00  0.00    -0.253 OA 
HETATM   32  H   UNL    20     -11.402  17.444  71.500  1.00  0.00     0.000 HD 
HETATM   33  O   UNL    20     -10.432  17.726  69.192  1.00  0.00    -0.426 OA 
HETATM   34  C   UNL    20     -10.943  15.736  67.906  1.00  0.00    -0.324 C  
HETATM   35  H   UNL    20      -9.692  17.923  68.629  1.00  0.00     0.000 HD 
BRANCH  26  36
HETATM   36  C   UNL    20     -13.382  14.259  70.967  1.00  0.00    -0.265 C  
HETATM   37  O   UNL    20     -14.140  15.432  71.005  1.00  0.00    -0.768 OA 
HETATM   38  H   UNL    20     -14.942  15.287  71.493  1.00  0.00     0.000 HD 
ENDBRANCH  26  36
ENDBRANCH  23  24
ENDBRANCH  16  23
BRANCH  16  39
HETATM   39  C   UNL    20     -10.464  12.276  66.299  1.00  0.00    -0.238 C  
HETATM   40  O   UNL    20      -9.539  12.505  65.271  1.00  0.00    -0.449 OA 
HETATM   41  H   UNL    20      -9.978  12.580  64.432  1.00  0.00     0.000 HD 
ENDBRANCH  16  39
ENDBRANCH  12  14
TORSDOF 5
ENDMDL
MODEL       18
REMARK 921   NORMALIZED FREE ENERGY PREDICTED BY IDOCK:   -6.89 KCAL/MOL
REMARK 922        TOTAL FREE ENERGY PREDICTED BY IDOCK:  -10.49 KCAL/MOL
REMARK 923 INTER-LIGAND FREE ENERGY PREDICTED BY IDOCK:   -9.41 KCAL/MOL
REMARK 924 INTRA-LIGAND FREE ENERGY PREDICTED BY IDOCK:   -1.08 KCAL/MOL
REMARK 927      BINDING AFFINITY PREDICTED BY RF-SCORE:    0.00 PKD
ROOT
HETATM    1  O   HOH     4     -12.063   6.234  71.791  1.00  0.00    -0.323 OA 
HETATM    2  H2  HOH     4     -11.712   7.113  71.703  1.00  0.00     0.000 HD 
HETATM    3 NA   UNL    13     -12.774  12.579  68.759  1.00  0.00    -0.172 Na 
HETATM    4  H1  HOH     4     -12.811   6.209  71.205  1.00  0.00     0.000 HD 
HETATM    5 NA   UNL    14     -11.046   8.866  72.905  1.00  0.00    -0.301 Na 
HETATM    6 FE   UNL    15     -12.051  11.718  72.025  1.00  0.00    -0.083 Fe 
HETATM    7 FE   UNL    16     -12.154   7.708  69.519  1.00  0.00    -0.453 Fe 
HETATM    8 FE   UNL    17      -9.141   9.321  71.610  1.00  0.00    -0.186 Fe 
HETATM    9 FE   UNL    18     -10.753   6.085  69.193  1.00  0.00    -0.159 Fe 
HETATM   10 FE   UNL    19      -7.051   9.338  68.328  1.00  0.00    -0.066 Fe 
HETATM   11  O   UNL    20      -9.737   8.606  68.814  1.00  0.00    -0.160 OA 
HETATM   12  C   UNL    20     -10.400   8.410  67.593  1.00  0.00    -0.252 C  
HETATM   13  H   UNL    20     -10.174   8.248  69.579  1.00  0.00     0.000 HD 
ENDROOT
BRANCH  12  14
HETATM   14  C   UNL    20      -9.691   8.992  66.349  1.00  0.00    -0.268 C  
HETATM   15  O   UNL    20     -10.368  10.128  65.869  1.00  0.00    -0.229 OA 
HETATM   16  C   UNL    20      -9.480  10.827  65.035  1.00  0.00    -0.241 C  
HETATM   17  C   UNL    20      -8.188   9.330  66.457  1.00  0.00    -0.107 C  
HETATM   18  H   UNL    20      -6.481   8.492  66.020  1.00  0.00     0.000 HD 
HETATM   19  C   UNL    20      -8.033  10.606  65.596  1.00  0.00    -0.136 C  
HETATM   20  H   UNL    20      -6.680  11.523  66.733  1.00  0.00     0.000 HD 
HETATM   21  O   UNL    20      -7.405   8.284  65.954  1.00  0.00    -0.074 OA 
HETATM   22  O   UNL    20      -7.557  11.656  66.393  1.00  0.00    -0.056 OA 
BRANCH  16  23
HETATM   23  O   UNL    20      -9.940  12.177  64.818  1.00  0.00    -0.255 OA 
BRANCH  23  24
HETATM   24  C   UNL    20     -11.230  12.624  65.296  1.00  0.00    -0.300 C  
HETATM   25  O   UNL    20     -11.091  13.077  66.630  1.00  0.00    -0.278 OA 
HETATM   26  C   UNL    20     -10.361  14.294  66.740  1.00  0.00    -0.274 C  
HETATM   27  H   UNL    20     -12.892  13.931  62.803  1.00  0.00     0.000 HD 
HETATM   28  C   UNL    20     -11.027  15.455  65.945  1.00  0.00    -0.293 C  
HETATM   29  O   UNL    20     -10.304  16.656  66.056  1.00  0.00    -0.330 OA 
HETATM   30  C   UNL    20     -11.216  15.051  64.490  1.00  0.00    -0.265 C  
HETATM   31  O   UNL    20     -12.419  13.259  63.279  1.00  0.00    -0.736 OA 
HETATM   32  H   UNL    20     -10.711  17.364  65.571  1.00  0.00     0.000 HD 
HETATM   33  O   UNL    20     -11.945  16.040  63.819  1.00  0.00    -1.339 OA 
HETATM   34  C   UNL    20     -12.002  13.720  64.520  1.00  0.00    -0.427 C  
HETATM   35  H   UNL    20     -12.063  15.788  62.910  1.00  0.00     0.000 HD 
BRANCH  26  36
HETATM   36  C   UNL    20     -10.347  14.696  68.237  1.00  0.00    -0.230 C  
HETATM   37  O   UNL    20     -10.507  13.563  69.039  1.00  0.00    -0.385 OA 
HETATM   38  H   UNL    20     -10.499  13.809  69.957  1.00  0.00     0.000 HD 
ENDBRANCH  26  36
ENDBRANCH  23  24
ENDBRANCH  16  23
BRANCH  16  39
HETATM   39  C   UNL    20      -9.517  10.130  63.640  1.00  0.00    -0.267 C  
HETATM   40  O   UNL    20     -10.446  10.755  62.796  1.00  0.00    -0.763 OA 
HETATM   41  H   UNL    20     -10.468  10.331  61.946  1.00  0.00     0.000 HD 
ENDBRANCH  16  39
ENDBRANCH  12  14
TORSDOF 5
ENDMDL
MODEL       19
REMARK 921   NORMALIZED FREE ENERGY PREDICTED BY IDOCK:   -6.86 KCAL/MOL
REMARK 922        TOTAL FREE ENERGY PREDICTED BY IDOCK:  -10.45 KCAL/MOL
REMARK 923 INTER-LIGAND FREE ENERGY PREDICTED BY IDOCK:   -8.90 KCAL/MOL
REMARK 924 INTRA-LIGAND FREE ENERGY PREDICTED BY IDOCK:   -1.55 KCAL/MOL
REMARK 927      BINDING AFFINITY PREDICTED BY RF-SCORE:    0.00 PKD
ROOT
HETATM    1  O   HOH     4      -6.726  19.565  66.650  1.00  0.00    -0.188 OA 
HETATM    2  H2  HOH     4      -7.673  19.498  66.686  1.00  0.00     0.000 HD 
HETATM    3 NA   UNL    13     -12.288  16.385  69.630  1.00  0.00    -0.264 Na 
HETATM    4  H1  HOH     4      -6.409  18.911  67.261  1.00  0.00     0.000 HD 
HETATM    5 NA   UNL    14      -9.513  20.733  66.920  1.00  0.00    -0.333 Na 
HETATM    6 FE   UNL    15     -11.718  19.717  68.925  1.00  0.00     0.137 Fe 
HETATM    7 FE   UNL    16      -8.090  17.274  67.128  1.00  0.00    -0.173 Fe 
HETATM    8 FE   UNL    17     -10.747  19.620  65.261  1.00  0.00    -0.424 Fe 
HETATM    9 FE   UNL    18      -7.198  17.108  65.157  1.00  0.00    -0.069 Fe 
HETATM   10 FE   UNL    19     -11.710  16.555  63.067  1.00  0.00    -0.511 Fe 
HETATM   11  O   UNL    20      -9.922  16.791  65.243  1.00  0.00    -0.546 OA 
HETATM   12  C   UNL    20      -9.503  15.515  65.648  1.00  0.00    -0.236 C  
HETATM   13  H   UNL    20      -9.397  17.515  65.562  1.00  0.00     0.000 HD 
ENDROOT
BRANCH  12  14
HETATM   14  C   UNL    20     -10.358  14.336  65.129  1.00  0.00    -0.415 C  
HETATM   15  O   UNL    20      -9.853  13.107  65.590  1.00  0.00    -0.246 OA 
HETATM   16  C   UNL    20     -10.871  12.151  65.443  1.00  0.00    -0.294 C  
HETATM   17  C   UNL    20     -11.880  14.367  65.392  1.00  0.00    -0.366 C  
HETATM   18  H   UNL    20     -13.502  14.888  64.441  1.00  0.00     0.000 HD 
HETATM   19  C   UNL    20     -12.241  12.885  65.648  1.00  0.00    -0.463 C  
HETATM   20  H   UNL    20     -13.612  13.192  67.058  1.00  0.00     0.000 HD 
HETATM   21  O   UNL    20     -12.566  14.869  64.280  1.00  0.00    -0.699 OA 
HETATM   22  O   UNL    20     -12.782  12.748  66.934  1.00  0.00     0.080 OA 
BRANCH  16  23
HETATM   23  O   UNL    20     -10.588  10.978  66.235  1.00  0.00    -0.254 OA 
BRANCH  23  24
HETATM   24  C   UNL    20      -9.636  11.011  67.323  1.00  0.00    -0.165 C  
HETATM   25  O   UNL    20     -10.303  11.415  68.504  1.00  0.00    -0.191 OA 
HETATM   26  C   UNL    20     -11.206  10.434  69.006  1.00  0.00    -0.234 C  
HETATM   27  H   UNL    20      -7.427   8.643  66.872  1.00  0.00     0.000 HD 
HETATM   28  C   UNL    20     -10.492   9.091  69.338  1.00  0.00    -0.222 C  
HETATM   29  O   UNL    20     -11.385   8.126  69.834  1.00  0.00    -0.450 OA 
HETATM   30  C   UNL    20      -9.742   8.582  68.115  1.00  0.00    -0.155 C  
HETATM   31  O   UNL    20      -7.927   9.422  66.658  1.00  0.00    -0.107 OA 
HETATM   32  H   UNL    20     -10.949   7.306  70.037  1.00  0.00     0.000 HD 
HETATM   33  O   UNL    20      -8.987   7.455  68.463  1.00  0.00    -0.129 OA 
HETATM   34  C   UNL    20      -8.820   9.740  67.672  1.00  0.00    -0.125 C  
HETATM   35  H   UNL    20      -8.519   7.137  67.700  1.00  0.00     0.000 HD 
BRANCH  26  36
HETATM   36  C   UNL    20     -11.808  10.985  70.323  1.00  0.00    -0.367 C  
HETATM   37  O   UNL    20     -13.089  10.462  70.521  1.00  0.00    -0.481 OA 
HETATM   38  H   UNL    20     -13.458  10.799  71.329  1.00  0.00     0.000 HD 
ENDBRANCH  26  36
ENDBRANCH  23  24
ENDBRANCH  16  23
BRANCH  16  39
HETATM   39  C   UNL    20     -10.846  11.682  63.955  1.00  0.00    -0.392 C  
HETATM   40  O   UNL    20     -12.149  11.541  63.456  1.00  0.00    -0.615 OA 
HETATM   41  H   UNL    20     -12.133  11.255  62.550  1.00  0.00     0.000 HD 
ENDBRANCH  16  39
ENDBRANCH  12  14
TORSDOF 5
ENDMDL
MODEL       20
REMARK 921   NORMALIZED FREE ENERGY PREDICTED BY IDOCK:   -6.85 KCAL/MOL
REMARK 922        TOTAL FREE ENERGY PREDICTED BY IDOCK:  -10.44 KCAL/MOL
REMARK 923 INTER-LIGAND FREE ENERGY PREDICTED BY IDOCK:   -8.99 KCAL/MOL
REMARK 924 INTRA-LIGAND FREE ENERGY PREDICTED BY IDOCK:   -1.44 KCAL/MOL
REMARK 927      BINDING AFFINITY PREDICTED BY RF-SCORE:    0.00 PKD
ROOT
HETATM    1  O   HOH     4      -9.973  20.849  66.810  1.00  0.00    -0.536 OA 
HETATM    2  H2  HOH     4      -9.769  20.063  67.305  1.00  0.00     0.000 HD 
HETATM    3 NA   UNL    13      -5.928  15.073  67.274  1.00  0.00    -0.130 Na 
HETATM    4  H1  HOH     4      -9.398  20.820  66.055  1.00  0.00     0.000 HD 
HETATM    5 NA   UNL    14      -9.273  19.363  69.361  1.00  0.00    -0.325 Na 
HETATM    6 FE   UNL    15      -6.870  17.355  69.689  1.00  0.00    -0.226 Fe 
HETATM    7 FE   UNL    16      -9.162  18.506  65.716  1.00  0.00    -0.284 Fe 
HETATM    8 FE   UNL    17     -10.639  17.455  69.288  1.00  0.00    -0.275 Fe 
HETATM    9 FE   UNL    18     -11.248  18.787  65.193  1.00  0.00    -0.458 Fe 
HETATM   10 FE   UNL    19     -12.492  14.531  67.510  1.00  0.00    -0.406 Fe 
HETATM   11  O   UNL    20     -10.674  16.453  66.516  1.00  0.00    -0.270 OA 
HETATM   12  C   UNL    20     -10.291  16.109  65.211  1.00  0.00    -0.252 C  
HETATM   13  H   UNL    20     -10.484  17.348  66.776  1.00  0.00     0.000 HD 
ENDROOT
BRANCH  12  14
HETATM   14  C   UNL    20     -10.599  14.654  64.788  1.00  0.00    -0.353 C  
HETATM   15  O   UNL    20      -9.762  13.747  65.461  1.00  0.00    -0.196 OA 
HETATM   16  C   UNL    20     -10.350  12.475  65.358  1.00  0.00    -0.282 C  
HETATM   17  C   UNL    20     -12.055  14.153  64.904  1.00  0.00    -0.428 C  
HETATM   18  H   UNL    20     -13.612  13.949  63.747  1.00  0.00     0.000 HD 
HETATM   19  C   UNL    20     -11.904  12.674  65.333  1.00  0.00    -0.427 C  
HETATM   20  H   UNL    20     -13.473  12.597  66.555  1.00  0.00     0.000 HD 
HETATM   21  O   UNL    20     -12.717  14.258  63.675  1.00  0.00    -0.783 OA 
HETATM   22  O   UNL    20     -12.531  12.477  66.570  1.00  0.00    -0.396 OA 
BRANCH  16  23
HETATM   23  O   UNL    20      -9.783  11.571  66.330  1.00  0.00    -0.203 OA 
BRANCH  23  24
HETATM   24  C   UNL    20      -9.360  12.029  67.635  1.00  0.00    -0.185 C  
HETATM   25  O   UNL    20     -10.117  11.356  68.624  1.00  0.00    -0.203 OA 
HETATM   26  C   UNL    20      -9.791   9.974  68.739  1.00  0.00    -0.167 C  
HETATM   27  H   UNL    20      -6.162  12.699  67.540  1.00  0.00     0.000 HD 
HETATM   28  C   UNL    20      -8.293   9.749  69.097  1.00  0.00    -0.137 C  
HETATM   29  O   UNL    20      -7.976   8.384  69.211  1.00  0.00    -0.108 OA 
HETATM   30  C   UNL    20      -7.402  10.445  68.078  1.00  0.00    -0.085 C  
HETATM   31  O   UNL    20      -7.075  12.768  67.288  1.00  0.00    -0.148 OA 
HETATM   32  H   UNL    20      -7.062   8.247  69.430  1.00  0.00     0.000 HD 
HETATM   33  O   UNL    20      -6.066  10.361  68.488  1.00  0.00    -0.044 OA 
HETATM   34  C   UNL    20      -7.870  11.918  68.045  1.00  0.00    -0.140 C  
HETATM   35  H   UNL    20      -5.510  10.796  67.852  1.00  0.00     0.000 HD 
BRANCH  26  36
HETATM   36  C   UNL    20     -10.644   9.390  69.893  1.00  0.00    -0.234 C  
HETATM   37  O   UNL    20     -11.961   9.849  69.797  1.00  0.00    -0.463 OA 
HETATM   38  H   UNL    20     -12.484   9.490  70.505  1.00  0.00     0.000 HD 
ENDBRANCH  26  36
ENDBRANCH  23  24
ENDBRANCH  16  23
BRANCH  16  39
HETATM   39  C   UNL    20      -9.960  11.903  63.960  1.00  0.00    -0.293 C  
HETATM   40  O   UNL    20     -10.886  10.936  63.542  1.00  0.00    -0.556 OA 
HETATM   41  H   UNL    20     -10.649  10.588  62.691  1.00  0.00     0.000 HD 
ENDBRANCH  16  39
ENDBRANCH  12  14
TORSDOF 5
ENDMDL
MODEL       21
REMARK 921   NORMALIZED FREE ENERGY PREDICTED BY IDOCK:   -6.81 KCAL/MOL
REMARK 922        TOTAL FREE ENERGY PREDICTED BY IDOCK:  -10.39 KCAL/MOL
REMARK 923 INTER-LIGAND FREE ENERGY PREDICTED BY IDOCK:   -9.05 KCAL/MOL
REMARK 924 INTRA-LIGAND FREE ENERGY PREDICTED BY IDOCK:   -1.34 KCAL/MOL
REMARK 927      BINDING AFFINITY PREDICTED BY RF-SCORE:    0.00 PKD
ROOT
HETATM    1  O   HOH     4     -14.232   8.876  73.389  1.00  0.00    -1.241 OA 
HETATM    2  H2  HOH     4     -13.491   8.480  72.944  1.00  0.00     0.000 HD 
HETATM    3 NA   UNL    13      -7.336   9.320  71.907  1.00  0.00    -0.103 Na 
HETATM    4  H1  HOH     4     -13.890   9.675  73.773  1.00  0.00     0.000 HD 
HETATM    5 NA   UNL    14     -12.397   6.551  72.733  1.00  0.00    -0.429 Na 
HETATM    6 FE   UNL    15      -9.253   6.622  72.894  1.00  0.00    -0.133 Fe 
HETATM    7 FE   UNL    16     -12.202  10.261  72.246  1.00  0.00    -0.355 Fe 
HETATM    8 FE   UNL    17     -12.114   6.702  70.407  1.00  0.00    -0.303 Fe 
HETATM    9 FE   UNL    18     -13.977  10.581  71.040  1.00  0.00    -0.272 Fe 
HETATM   10 FE   UNL    19     -11.719   8.605  67.036  1.00  0.00    -0.256 Fe 
HETATM   11  O   UNL    20     -11.817   9.548  69.699  1.00  0.00    -0.433 OA 
HETATM   12  C   UNL    20     -11.473  10.908  69.730  1.00  0.00    -0.313 C  
HETATM   13  H   UNL    20     -12.249   9.217  70.478  1.00  0.00     0.000 HD 
ENDROOT
BRANCH  12  14
HETATM   14  C   UNL    20     -10.771  11.447  68.463  1.00  0.00    -0.201 C  
HETATM   15  O   UNL    20     -10.651  12.847  68.511  1.00  0.00    -0.245 OA 
HETATM   16  C   UNL    20      -9.672  13.219  67.575  1.00  0.00    -0.224 C  
HETATM   17  C   UNL    20      -9.397  10.853  68.081  1.00  0.00    -0.165 C  
HETATM   18  H   UNL    20      -8.696   9.479  66.886  1.00  0.00     0.000 HD 
HETATM   19  C   UNL    20      -8.618  12.061  67.509  1.00  0.00    -0.167 C  
HETATM   20  H   UNL    20      -6.828  11.582  68.236  1.00  0.00     0.000 HD 
HETATM   21  O   UNL    20      -9.541   9.844  67.121  1.00  0.00    -0.154 OA 
HETATM   22  O   UNL    20      -7.466  12.284  68.276  1.00  0.00    -0.102 OA 
BRANCH  16  23
HETATM   23  O   UNL    20      -9.209  14.563  67.828  1.00  0.00    -0.186 OA 
BRANCH  23  24
HETATM   24  C   UNL    20      -8.480  15.313  66.828  1.00  0.00    -0.255 C  
HETATM   25  O   UNL    20      -9.318  16.336  66.323  1.00  0.00    -0.278 OA 
HETATM   26  C   UNL    20      -9.570  17.374  67.265  1.00  0.00    -0.258 C  
HETATM   27  H   UNL    20      -5.323  15.415  67.670  1.00  0.00     0.000 HD 
HETATM   28  C   UNL    20      -8.260  18.068  67.742  1.00  0.00    -0.238 C  
HETATM   29  O   UNL    20      -8.513  19.093  68.670  1.00  0.00    -0.350 OA 
HETATM   30  C   UNL    20      -7.295  17.033  68.302  1.00  0.00    -0.203 C  
HETATM   31  O   UNL    20      -6.154  15.012  67.446  1.00  0.00    -0.331 OA 
HETATM   32  H   UNL    20      -7.714  19.517  68.961  1.00  0.00     0.000 HD 
HETATM   33  O   UNL    20      -6.069  17.644  68.592  1.00  0.00    -0.170 OA 
HETATM   34  C   UNL    20      -7.126  15.970  67.193  1.00  0.00    -0.213 C  
HETATM   35  H   UNL    20      -5.466  16.998  68.942  1.00  0.00     0.000 HD 
BRANCH  26  36
HETATM   36  C   UNL    20     -10.439  18.445  66.557  1.00  0.00    -0.381 C  
HETATM   37  O   UNL    20     -10.979  19.324  67.499  1.00  0.00    -0.465 OA 
HETATM   38  H   UNL    20     -11.512  19.981  67.065  1.00  0.00     0.000 HD 
ENDBRANCH  26  36
ENDBRANCH  23  24
ENDBRANCH  16  23
BRANCH  16  39
HETATM   39  C   UNL    20     -10.366  13.258  66.179  1.00  0.00    -0.290 C  
HETATM   40  O   UNL    20     -11.531  14.036  66.223  1.00  0.00    -0.330 OA 
HETATM   41  H   UNL    20     -11.953  14.060  65.373  1.00  0.00     0.000 HD 
ENDBRANCH  16  39
ENDBRANCH  12  14
TORSDOF 5
ENDMDL
MODEL       22
REMARK 921   NORMALIZED FREE ENERGY PREDICTED BY IDOCK:   -6.78 KCAL/MOL
REMARK 922        TOTAL FREE ENERGY PREDICTED BY IDOCK:  -10.34 KCAL/MOL
REMARK 923 INTER-LIGAND FREE ENERGY PREDICTED BY IDOCK:   -8.84 KCAL/MOL
REMARK 924 INTRA-LIGAND FREE ENERGY PREDICTED BY IDOCK:   -1.50 KCAL/MOL
REMARK 927      BINDING AFFINITY PREDICTED BY RF-SCORE:    0.00 PKD
ROOT
HETATM    1  O   HOH     4      -6.433  18.843  67.755  1.00  0.00    -0.207 OA 
HETATM    2  H2  HOH     4      -7.363  18.726  67.907  1.00  0.00     0.000 HD 
HETATM    3 NA   UNL    13     -11.488  14.627  70.326  1.00  0.00    -0.224 Na 
HETATM    4  H1  HOH     4      -6.030  18.041  68.065  1.00  0.00     0.000 HD 
HETATM    5 NA   UNL    14      -9.137  19.736  68.800  1.00  0.00    -0.309 Na 
HETATM    6 FE   UNL    15     -11.012  18.030  70.669  1.00  0.00    -0.457 Fe 
HETATM    7 FE   UNL    16      -7.721  16.461  67.657  1.00  0.00    -0.126 Fe 
HETATM    8 FE   UNL    17     -10.620  19.164  67.072  1.00  0.00    -0.309 Fe 
HETATM    9 FE   UNL    18      -7.146  16.980  65.631  1.00  0.00    -0.226 Fe 
HETATM   10 FE   UNL    19     -11.930  16.931  64.167  1.00  0.00    -0.396 Fe 
HETATM   11  O   UNL    20      -9.826  16.531  66.011  1.00  0.00    -0.309 OA 
HETATM   12  C   UNL    20      -9.357  15.213  65.912  1.00  0.00    -0.244 C  
HETATM   13  H   UNL    20      -9.252  17.137  66.467  1.00  0.00     0.000 HD 
ENDROOT
BRANCH  12  14
HETATM   14  C   UNL    20     -10.289  14.228  65.170  1.00  0.00    -0.415 C  
HETATM   15  O   UNL    20      -9.681  12.967  65.034  1.00  0.00    -0.090 OA 
HETATM   16  C   UNL    20     -10.696  12.040  64.744  1.00  0.00    -0.306 C  
HETATM   17  C   UNL    20     -11.719  14.024  65.717  1.00  0.00    -0.363 C  
HETATM   18  H   UNL    20     -13.513  14.703  65.364  1.00  0.00     0.000 HD 
HETATM   19  C   UNL    20     -11.999  12.523  65.470  1.00  0.00    -0.442 C  
HETATM   20  H   UNL    20     -13.038  12.176  67.132  1.00  0.00     0.000 HD 
HETATM   21  O   UNL    20     -12.634  14.828  65.028  1.00  0.00    -0.300 OA 
HETATM   22  O   UNL    20     -12.249  11.883  66.692  1.00  0.00    -0.493 OA 
BRANCH  16  23
HETATM   23  O   UNL    20     -10.236  10.691  64.972  1.00  0.00    -0.305 OA 
BRANCH  23  24
HETATM   24  C   UNL    20      -9.241  10.390  65.979  1.00  0.00    -0.167 C  
HETATM   25  O   UNL    20      -9.820   9.546  66.957  1.00  0.00    -0.168 OA 
HETATM   26  C   UNL    20     -10.084   8.230  66.480  1.00  0.00    -0.233 C  
HETATM   27  H   UNL    20      -6.302  10.239  64.557  1.00  0.00     0.000 HD 
HETATM   28  C   UNL    20      -8.794   7.514  65.984  1.00  0.00    -0.150 C  
HETATM   29  O   UNL    20      -9.057   6.215  65.516  1.00  0.00    -0.345 OA 
HETATM   30  C   UNL    20      -8.102   8.359  64.924  1.00  0.00    -0.149 C  
HETATM   31  O   UNL    20      -7.129  10.631  64.811  1.00  0.00    -0.006 OA 
HETATM   32  H   UNL    20      -8.270   5.778  65.213  1.00  0.00     0.000 HD 
HETATM   33  O   UNL    20      -6.872   7.779  64.590  1.00  0.00    -0.053 OA 
HETATM   34  C   UNL    20      -7.893   9.750  65.564  1.00  0.00    -0.120 C  
HETATM   35  H   UNL    20      -6.440   8.307  63.929  1.00  0.00     0.000 HD 
BRANCH  26  36
HETATM   36  C   UNL    20     -10.650   7.410  67.667  1.00  0.00    -0.239 C  
HETATM   37  O   UNL    20     -11.499   6.405  67.194  1.00  0.00    -0.720 OA 
HETATM   38  H   UNL    20     -11.846   5.902  67.921  1.00  0.00     0.000 HD 
ENDBRANCH  26  36
ENDBRANCH  23  24
ENDBRANCH  16  23
BRANCH  16  39
HETATM   39  C   UNL    20     -10.986  12.142  63.214  1.00  0.00    -0.330 C  
HETATM   40  O   UNL    20     -12.310  12.543  62.984  1.00  0.00    -0.641 OA 
HETATM   41  H   UNL    20     -12.486  12.605  62.053  1.00  0.00     0.000 HD 
ENDBRANCH  16  39
ENDBRANCH  12  14
TORSDOF 5
ENDMDL
MODEL       23
REMARK 921   NORMALIZED FREE ENERGY PREDICTED BY IDOCK:   -6.70 KCAL/MOL
REMARK 922        TOTAL FREE ENERGY PREDICTED BY IDOCK:  -10.24 KCAL/MOL
REMARK 923 INTER-LIGAND FREE ENERGY PREDICTED BY IDOCK:   -8.23 KCAL/MOL
REMARK 924 INTRA-LIGAND FREE ENERGY PREDICTED BY IDOCK:   -2.01 KCAL/MOL
REMARK 927      BINDING AFFINITY PREDICTED BY RF-SCORE:    0.00 PKD
ROOT
HETATM    1  O   HOH     4     -10.600   7.161  74.294  1.00  0.00    -0.545 OA 
HETATM    2  H2  HOH     4     -11.063   7.502  73.537  1.00  0.00     0.000 HD 
HETATM    3 NA   UNL    13     -12.163   6.263  67.461  1.00  0.00    -0.511 Na 
HETATM    4  H1  HOH     4     -10.147   6.388  73.978  1.00  0.00     0.000 HD 
HETATM    5 NA   UNL    14     -13.072   8.207  72.878  1.00  0.00    -0.492 Na 
HETATM    6 FE   UNL    15     -14.173   7.141  70.128  1.00  0.00    -0.509 Fe 
HETATM    7 FE   UNL    16      -9.730   6.956  71.736  1.00  0.00    -0.157 Fe 
HETATM    8 FE   UNL    17     -12.277  10.047  71.655  1.00  0.00    -0.281 Fe 
HETATM    9 FE   UNL    18      -8.427   8.353  72.762  1.00  0.00    -0.117 Fe 
HETATM   10 FE   UNL    19      -9.645  11.986  69.545  1.00  0.00    -0.391 Fe 
HETATM   11  O   UNL    20      -9.656   9.331  70.512  1.00  0.00    -0.223 OA 
HETATM   12  C   UNL    20      -8.597   8.614  69.935  1.00  0.00    -0.131 C  
HETATM   13  H   UNL    20     -10.049   8.932  71.281  1.00  0.00     0.000 HD 
ENDROOT
BRANCH  12  14
HETATM   14  C   UNL    20      -7.958   9.262  68.685  1.00  0.00    -0.100 C  
HETATM   15  O   UNL    20      -8.891  10.058  67.998  1.00  0.00    -0.124 OA 
HETATM   16  C   UNL    20      -8.170  10.917  67.152  1.00  0.00    -0.126 C  
HETATM   17  C   UNL    20      -6.660  10.079  68.870  1.00  0.00    -0.049 C  
HETATM   18  H   UNL    20      -4.738   9.800  68.696  1.00  0.00     0.000 HD 
HETATM   19  C   UNL    20      -6.807  11.239  67.856  1.00  0.00    -0.068 C  
HETATM   20  H   UNL    20      -5.959  12.659  68.963  1.00  0.00     0.000 HD 
HETATM   21  O   UNL    20      -5.535   9.297  68.583  1.00  0.00    -0.040 OA 
HETATM   22  O   UNL    20      -6.785  12.464  68.537  1.00  0.00    -0.066 OA 
BRANCH  16  23
HETATM   23  O   UNL    20      -8.999  12.014  66.713  1.00  0.00    -0.189 OA 
BRANCH  23  24
HETATM   24  C   UNL    20     -10.441  11.908  66.679  1.00  0.00    -0.216 C  
HETATM   25  O   UNL    20     -10.992  12.878  67.550  1.00  0.00    -0.244 OA 
HETATM   26  C   UNL    20     -10.839  14.213  67.077  1.00  0.00    -0.295 C  
HETATM   27  H   UNL    20     -11.370  11.026  63.671  1.00  0.00     0.000 HD 
HETATM   28  C   UNL    20     -11.514  14.428  65.691  1.00  0.00    -0.336 C  
HETATM   29  O   UNL    20     -11.362  15.746  65.228  1.00  0.00    -0.219 OA 
HETATM   30  C   UNL    20     -10.977  13.418  64.686  1.00  0.00    -0.377 C  
HETATM   31  O   UNL    20     -10.910  10.952  64.499  1.00  0.00    -0.279 OA 
HETATM   32  H   UNL    20     -11.775  15.878  64.382  1.00  0.00     0.000 HD 
HETATM   33  O   UNL    20     -11.693  13.524  63.487  1.00  0.00    -0.680 OA 
HETATM   34  C   UNL    20     -11.191  12.029  65.329  1.00  0.00    -0.322 C  
HETATM   35  H   UNL    20     -11.358  12.894  62.860  1.00  0.00     0.000 HD 
BRANCH  26  36
HETATM   36  C   UNL    20     -11.540  15.150  68.093  1.00  0.00    -0.341 C  
HETATM   37  O   UNL    20     -10.855  16.365  68.176  1.00  0.00    -0.324 OA 
HETATM   38  H   UNL    20     -11.285  16.940  68.799  1.00  0.00     0.000 HD 
ENDBRANCH  26  36
ENDBRANCH  23  24
ENDBRANCH  16  23
BRANCH  16  39
HETATM   39  C   UNL    20      -7.817  10.104  65.869  1.00  0.00    -0.132 C  
HETATM   40  O   UNL    20      -7.799  10.937  64.741  1.00  0.00    -0.351 OA 
HETATM   41  H   UNL    20      -7.584  10.441  63.960  1.00  0.00     0.000 HD 
ENDBRANCH  16  39
ENDBRANCH  12  14
TORSDOF 5
ENDMDL
MODEL       24
REMARK 921   NORMALIZED FREE ENERGY PREDICTED BY IDOCK:   -6.68 KCAL/MOL
REMARK 922        TOTAL FREE ENERGY PREDICTED BY IDOCK:  -10.22 KCAL/MOL
REMARK 923 INTER-LIGAND FREE ENERGY PREDICTED BY IDOCK:   -9.47 KCAL/MOL
REMARK 924 INTRA-LIGAND FREE ENERGY PREDICTED BY IDOCK:   -0.75 KCAL/MOL
REMARK 927      BINDING AFFINITY PREDICTED BY RF-SCORE:    0.00 PKD
ROOT
HETATM    1  O   HOH     4      -9.802  20.963  66.987  1.00  0.00    -0.624 OA 
HETATM    2  H2  HOH     4      -9.619  20.175  67.485  1.00  0.00     0.000 HD 
HETATM    3 NA   UNL    13      -5.891  15.099  67.488  1.00  0.00    -0.109 Na 
HETATM    4  H1  HOH     4      -9.224  20.919  66.235  1.00  0.00     0.000 HD 
HETATM    5 NA   UNL    14      -9.149  19.470  69.546  1.00  0.00    -0.335 Na 
HETATM    6 FE   UNL    15      -6.793  17.409  69.891  1.00  0.00    -0.238 Fe 
HETATM    7 FE   UNL    16      -9.038  18.600  65.904  1.00  0.00    -0.290 Fe 
HETATM    8 FE   UNL    17     -10.557  17.593  69.471  1.00  0.00    -0.315 Fe 
HETATM    9 FE   UNL    18     -11.115  18.927  65.370  1.00  0.00    -0.435 Fe 
HETATM   10 FE   UNL    19     -12.467  14.707  67.692  1.00  0.00    -0.440 Fe 
HETATM   11  O   UNL    20     -10.601  16.584  66.702  1.00  0.00    -0.291 OA 
HETATM   12  C   UNL    20     -10.219  16.228  65.400  1.00  0.00    -0.229 C  
HETATM   13  H   UNL    20     -10.392  17.475  66.961  1.00  0.00     0.000 HD 
ENDROOT
BRANCH  12  14
HETATM   14  C   UNL    20     -10.558  14.779  64.980  1.00  0.00    -0.429 C  
HETATM   15  O   UNL    20      -9.762  13.853  65.677  1.00  0.00    -0.235 OA 
HETATM   16  C   UNL    20     -10.382  12.598  65.569  1.00  0.00    -0.286 C  
HETATM   17  C   UNL    20     -12.030  14.319  65.067  1.00  0.00    -0.410 C  
HETATM   18  H   UNL    20     -13.566  14.150  63.875  1.00  0.00     0.000 HD 
HETATM   19  C   UNL    20     -11.930  12.840  65.508  1.00  0.00    -0.449 C  
HETATM   20  H   UNL    20     -13.527  12.815  66.695  1.00  0.00     0.000 HD 
HETATM   21  O   UNL    20     -12.661  14.433  63.822  1.00  0.00    -0.829 OA 
HETATM   22  O   UNL    20     -12.589  12.668  66.732  1.00  0.00    -0.154 OA 
BRANCH  16  23
HETATM   23  O   UNL    20      -9.863  11.685  66.559  1.00  0.00    -0.197 OA 
BRANCH  23  24
HETATM   24  C   UNL    20     -10.716  10.726  67.226  1.00  0.00    -0.274 C  
HETATM   25  O   UNL    20     -10.546   9.460  66.615  1.00  0.00    -0.197 OA 
HETATM   26  C   UNL    20      -9.275   8.874  66.879  1.00  0.00    -0.147 C  
HETATM   27  H   UNL    20     -10.927  11.512  70.392  1.00  0.00     0.000 HD 
HETATM   28  C   UNL    20      -9.024   8.669  68.401  1.00  0.00    -0.142 C  
HETATM   29  O   UNL    20      -7.769   8.088  68.657  1.00  0.00    -0.101 OA 
HETATM   30  C   UNL    20      -9.189   9.989  69.140  1.00  0.00    -0.190 C  
HETATM   31  O   UNL    20     -11.004  11.641  69.454  1.00  0.00    -0.223 OA 
HETATM   32  H   UNL    20      -7.616   7.963  69.586  1.00  0.00     0.000 HD 
HETATM   33  O   UNL    20      -9.106   9.768  70.520  1.00  0.00    -0.319 OA 
HETATM   34  C   UNL    20     -10.591  10.515  68.756  1.00  0.00    -0.207 C  
HETATM   35  H   UNL    20      -9.209  10.592  70.982  1.00  0.00     0.000 HD 
BRANCH  26  36
HETATM   36  C   UNL    20      -9.258   7.477  66.206  1.00  0.00    -0.146 C  
HETATM   37  O   UNL    20     -10.528   6.898  66.271  1.00  0.00    -0.454 OA 
HETATM   38  H   UNL    20     -10.518   6.042  65.859  1.00  0.00     0.000 HD 
ENDBRANCH  26  36
ENDBRANCH  23  24
ENDBRANCH  16  23
BRANCH  16  39
HETATM   39  C   UNL    20      -9.978  12.006  64.184  1.00  0.00    -0.263 C  
HETATM   40  O   UNL    20     -10.747  10.872  63.884  1.00  0.00    -0.510 OA 
HETATM   41  H   UNL    20     -10.501  10.512  63.040  1.00  0.00     0.000 HD 
ENDBRANCH  16  39
ENDBRANCH  12  14
TORSDOF 5
ENDMDL
MODEL       25
REMARK 921   NORMALIZED FREE ENERGY PREDICTED BY IDOCK:   -6.66 KCAL/MOL
REMARK 922        TOTAL FREE ENERGY PREDICTED BY IDOCK:  -10.19 KCAL/MOL
REMARK 923 INTER-LIGAND FREE ENERGY PREDICTED BY IDOCK:   -8.66 KCAL/MOL
REMARK 924 INTRA-LIGAND FREE ENERGY PREDICTED BY IDOCK:   -1.54 KCAL/MOL
REMARK 927      BINDING AFFINITY PREDICTED BY RF-SCORE:    0.00 PKD
ROOT
HETATM    1  O   HOH     4      -6.674  20.563  66.094  1.00  0.00    -0.229 OA 
HETATM    2  H2  HOH     4      -7.576  20.372  66.322  1.00  0.00     0.000 HD 
HETATM    3 NA   UNL    13     -11.041  17.327  70.610  1.00  0.00    -0.472 Na 
HETATM    4  H1  HOH     4      -6.153  20.103  66.743  1.00  0.00     0.000 HD 
HETATM    5 NA   UNL    14      -9.544  21.356  66.676  1.00  0.00    -0.621 Na 
HETATM    6 FE   UNL    15     -11.187  20.483  69.217  1.00  0.00    -0.507 Fe 
HETATM    7 FE   UNL    16      -7.518  18.254  67.233  1.00  0.00    -0.192 Fe 
HETATM    8 FE   UNL    17     -10.811  19.757  65.514  1.00  0.00    -0.399 Fe 
HETATM    9 FE   UNL    18      -6.937  17.806  65.192  1.00  0.00    -0.250 Fe 
HETATM   10 FE   UNL    19     -11.555  16.194  64.138  1.00  0.00    -0.431 Fe 
HETATM   11  O   UNL    20      -9.513  17.132  65.853  1.00  0.00    -0.496 OA 
HETATM   12  C   UNL    20      -8.816  16.042  66.395  1.00  0.00    -0.328 C  
HETATM   13  H   UNL    20      -9.080  17.974  65.928  1.00  0.00     0.000 HD 
ENDROOT
BRANCH  12  14
HETATM   14  C   UNL    20      -9.521  14.672  66.272  1.00  0.00    -0.293 C  
HETATM   15  O   UNL    20      -8.750  13.655  66.862  1.00  0.00    -0.214 OA 
HETATM   16  C   UNL    20      -9.598  12.558  67.084  1.00  0.00    -0.208 C  
HETATM   17  C   UNL    20     -10.971  14.548  66.791  1.00  0.00    -0.316 C  
HETATM   18  H   UNL    20     -12.779  14.620  66.063  1.00  0.00     0.000 HD 
HETATM   19  C   UNL    20     -11.030  13.121  67.386  1.00  0.00    -0.264 C  
HETATM   20  H   UNL    20     -12.213  13.534  68.932  1.00  0.00     0.000 HD 
HETATM   21  O   UNL    20     -11.888  14.696  65.743  1.00  0.00    -0.346 OA 
HETATM   22  O   UNL    20     -11.346  13.193  68.749  1.00  0.00    -0.254 OA 
BRANCH  16  23
HETATM   23  O   UNL    20      -9.005  11.636  68.023  1.00  0.00    -0.162 OA 
BRANCH  23  24
HETATM   24  C   UNL    20      -9.241  10.211  67.937  1.00  0.00    -0.138 C  
HETATM   25  O   UNL    20      -8.152   9.531  68.534  1.00  0.00    -0.099 OA 
HETATM   26  C   UNL    20      -8.103   9.679  69.950  1.00  0.00    -0.171 C  
HETATM   27  H   UNL    20     -12.451   9.648  68.181  1.00  0.00     0.000 HD 
HETATM   28  C   UNL    20      -9.392   9.150  70.644  1.00  0.00    -0.258 C  
HETATM   29  O   UNL    20      -9.339   9.297  72.041  1.00  0.00    -0.256 OA 
HETATM   30  C   UNL    20     -10.619   9.832  70.057  1.00  0.00    -0.276 C  
HETATM   31  O   UNL    20     -11.656  10.018  67.817  1.00  0.00    -0.141 OA 
HETATM   32  H   UNL    20     -10.125   8.973  72.464  1.00  0.00     0.000 HD 
HETATM   33  O   UNL    20     -11.778   9.247  70.581  1.00  0.00    -0.300 OA 
HETATM   34  C   UNL    20     -10.538   9.606  68.530  1.00  0.00    -0.220 C  
HETATM   35  H   UNL    20     -12.544   9.672  70.215  1.00  0.00     0.000 HD 
BRANCH  26  36
HETATM   36  C   UNL    20      -6.910   8.835  70.465  1.00  0.00    -0.046 C  
HETATM   37  O   UNL    20      -6.497   9.302  71.716  1.00  0.00    -0.241 OA 
HETATM   38  H   UNL    20      -5.765   8.785  72.032  1.00  0.00     0.000 HD 
ENDBRANCH  26  36
ENDBRANCH  23  24
ENDBRANCH  16  23
BRANCH  16  39
HETATM   39  C   UNL    20      -9.710  11.785  65.734  1.00  0.00    -0.237 C  
HETATM   40  O   UNL    20     -11.047  11.694  65.321  1.00  0.00    -0.292 OA 
HETATM   41  H   UNL    20     -11.114  11.224  64.499  1.00  0.00     0.000 HD 
ENDBRANCH  16  39
ENDBRANCH  12  14
TORSDOF 5
ENDMDL
MODEL       26
REMARK 921   NORMALIZED FREE ENERGY PREDICTED BY IDOCK:   -6.65 KCAL/MOL
REMARK 922        TOTAL FREE ENERGY PREDICTED BY IDOCK:  -10.19 KCAL/MOL
REMARK 923 INTER-LIGAND FREE ENERGY PREDICTED BY IDOCK:   -8.81 KCAL/MOL
REMARK 924 INTRA-LIGAND FREE ENERGY PREDICTED BY IDOCK:   -1.37 KCAL/MOL
REMARK 927      BINDING AFFINITY PREDICTED BY RF-SCORE:    0.00 PKD
ROOT
HETATM    1  O   HOH     4     -12.807   6.785  72.383  1.00  0.00    -0.518 OA 
HETATM    2  H2  HOH     4     -11.892   6.615  72.189  1.00  0.00     0.000 HD 
HETATM    3 NA   UNL    13      -6.237   9.387  72.266  1.00  0.00    -0.083 Na 
HETATM    4  H1  HOH     4     -12.836   7.695  72.654  1.00  0.00     0.000 HD 
HETATM    5 NA   UNL    14     -10.247   5.172  72.608  1.00  0.00    -0.156 Na 
HETATM    6 FE   UNL    15      -7.428   6.344  73.383  1.00  0.00    -0.082 Fe 
HETATM    7 FE   UNL    16     -11.071   8.626  71.412  1.00  0.00    -0.215 Fe 
HETATM    8 FE   UNL    17      -9.430   5.112  70.408  1.00  0.00    -0.126 Fe 
HETATM    9 FE   UNL    18     -12.482   8.156  69.833  1.00  0.00    -0.400 Fe 
HETATM   10 FE   UNL    19      -8.773   6.584  66.867  1.00  0.00    -0.108 Fe 
HETATM   11  O   UNL    20      -9.841   7.768  69.200  1.00  0.00    -0.167 OA 
HETATM   12  C   UNL    20      -9.947   9.155  69.018  1.00  0.00    -0.184 C  
HETATM   13  H   UNL    20     -10.338   7.412  69.927  1.00  0.00     0.000 HD 
ENDROOT
BRANCH  12  14
HETATM   14  C   UNL    20      -9.138   9.736  67.835  1.00  0.00    -0.121 C  
HETATM   15  O   UNL    20      -9.830  10.799  67.226  1.00  0.00    -0.173 OA 
HETATM   16  C   UNL    20      -8.900  11.526  66.465  1.00  0.00    -0.190 C  
HETATM   17  C   UNL    20      -7.684  10.187  68.096  1.00  0.00    -0.088 C  
HETATM   18  H   UNL    20      -5.886   9.458  67.897  1.00  0.00     0.000 HD 
HETATM   19  C   UNL    20      -7.517  11.435  67.197  1.00  0.00    -0.138 C  
HETATM   20  H   UNL    20      -6.371  12.493  68.433  1.00  0.00     0.000 HD 
HETATM   21  O   UNL    20      -6.780   9.181  67.736  1.00  0.00    -0.063 OA 
HETATM   22  O   UNL    20      -7.209  12.548  67.990  1.00  0.00    -0.085 OA 
BRANCH  16  23
HETATM   23  O   UNL    20      -9.422  12.829  66.131  1.00  0.00    -0.238 OA 
BRANCH  23  24
HETATM   24  C   UNL    20     -10.720  13.268  66.598  1.00  0.00    -0.280 C  
HETATM   25  O   UNL    20     -10.587  14.554  67.175  1.00  0.00    -0.269 OA 
HETATM   26  C   UNL    20     -10.318  15.576  66.220  1.00  0.00    -0.302 C  
HETATM   27  H   UNL    20     -13.021  12.100  64.592  1.00  0.00     0.000 HD 
HETATM   28  C   UNL    20     -11.438  15.686  65.144  1.00  0.00    -0.099 C  
HETATM   29  O   UNL    20     -11.169  16.696  64.204  1.00  0.00    -1.410 OA 
HETATM   30  C   UNL    20     -11.648  14.338  64.469  1.00  0.00    -0.387 C  
HETATM   31  O   UNL    20     -12.289  12.061  65.197  1.00  0.00    -0.423 OA 
HETATM   32  H   UNL    20     -11.853  16.764  63.547  1.00  0.00     0.000 HD 
HETATM   33  O   UNL    20     -12.751  14.411  63.610  1.00  0.00    -0.890 OA 
HETATM   34  C   UNL    20     -11.913  13.331  65.612  1.00  0.00    -0.412 C  
HETATM   35  H   UNL    20     -12.883  13.569  63.189  1.00  0.00     0.000 HD 
BRANCH  26  36
HETATM   36  C   UNL    20     -10.264  16.924  66.983  1.00  0.00    -0.297 C  
HETATM   37  O   UNL    20      -9.838  17.943  66.126  1.00  0.00    -0.440 OA 
HETATM   38  H   UNL    20      -9.805  18.770  66.594  1.00  0.00     0.000 HD 
ENDBRANCH  26  36
ENDBRANCH  23  24
ENDBRANCH  16  23
BRANCH  16  39
HETATM   39  C   UNL    20      -8.728  10.771  65.111  1.00  0.00    -0.164 C  
HETATM   40  O   UNL    20      -9.951  10.682  64.431  1.00  0.00    -0.304 OA 
HETATM   41  H   UNL    20      -9.846  10.223  63.607  1.00  0.00     0.000 HD 
ENDBRANCH  16  39
ENDBRANCH  12  14
TORSDOF 5
ENDMDL
MODEL       27
REMARK 921   NORMALIZED FREE ENERGY PREDICTED BY IDOCK:   -6.64 KCAL/MOL
REMARK 922        TOTAL FREE ENERGY PREDICTED BY IDOCK:  -10.16 KCAL/MOL
REMARK 923 INTER-LIGAND FREE ENERGY PREDICTED BY IDOCK:   -8.14 KCAL/MOL
REMARK 924 INTRA-LIGAND FREE ENERGY PREDICTED BY IDOCK:   -2.02 KCAL/MOL
REMARK 927      BINDING AFFINITY PREDICTED BY RF-SCORE:    0.00 PKD
ROOT
HETATM    1  O   HOH     4     -12.411  13.606  62.968  1.00  0.00    -1.041 OA 
HETATM    2  H2  HOH     4     -12.141  13.628  63.879  1.00  0.00     0.000 HD 
HETATM    3 NA   UNL    13      -6.987  13.805  67.494  1.00  0.00    -0.094 Na 
HETATM    4  H1  HOH     4     -11.601  13.581  62.472  1.00  0.00     0.000 HD 
HETATM    5 NA   UNL    14     -12.481  14.731  65.785  1.00  0.00    -0.353 Na 
HETATM    6 FE   UNL    15      -9.953  15.573  67.464  1.00  0.00    -0.214 Fe 
HETATM    7 FE   UNL    16     -10.173  12.428  63.940  1.00  0.00    -0.270 Fe 
HETATM    8 FE   UNL    17     -12.540  12.819  67.147  1.00  0.00    -0.315 Fe 
HETATM    9 FE   UNL    18     -11.560  10.853  63.394  1.00  0.00    -0.563 Fe 
HETATM   10 FE   UNL    19     -11.624   9.160  68.102  1.00  0.00    -0.480 Fe 
HETATM   11  O   UNL    20     -10.708  10.815  66.002  1.00  0.00    -0.196 OA 
HETATM   12  C   UNL    20      -9.614  10.208  65.367  1.00  0.00    -0.264 C  
HETATM   13  H   UNL    20     -11.120  11.523  65.520  1.00  0.00     0.000 HD 
ENDROOT
BRANCH  12  14
HETATM   14  C   UNL    20      -8.943   9.057  66.150  1.00  0.00    -0.177 C  
HETATM   15  O   UNL    20      -9.187   9.178  67.530  1.00  0.00    -0.128 OA 
HETATM   16  C   UNL    20      -8.923   7.930  68.116  1.00  0.00    -0.131 C  
HETATM   17  C   UNL    20      -9.256   7.605  65.726  1.00  0.00     0.084 C  
HETATM   18  H   UNL    20      -8.453   6.217  64.615  1.00  0.00     0.000 HD 
HETATM   19  C   UNL    20      -9.286   6.827  67.063  1.00  0.00    -0.137 C  
HETATM   20  H   UNL    20     -10.770   5.582  66.606  1.00  0.00     0.000 HD 
HETATM   21  O   UNL    20      -8.260   7.110  64.876  1.00  0.00    -0.129 OA 
HETATM   22  O   UNL    20     -10.550   6.250  67.244  1.00  0.00    -0.220 OA 
BRANCH  16  23
HETATM   23  O   UNL    20      -9.510   7.849  69.433  1.00  0.00    -0.156 OA 
BRANCH  23  24
HETATM   24  C   UNL    20      -9.689   9.026  70.255  1.00  0.00    -0.196 C  
HETATM   25  O   UNL    20     -11.066   9.175  70.546  1.00  0.00    -0.242 OA 
HETATM   26  C   UNL    20     -11.565   8.182  71.437  1.00  0.00    -0.278 C  
HETATM   27  H   UNL    20      -7.087   9.366  72.205  1.00  0.00     0.000 HD 
HETATM   28  C   UNL    20     -10.819   8.189  72.804  1.00  0.00    -0.320 C  
HETATM   29  O   UNL    20     -11.315   7.209  73.681  1.00  0.00    -0.507 OA 
HETATM   30  C   UNL    20      -9.322   8.034  72.583  1.00  0.00    -0.248 C  
HETATM   31  O   UNL    20      -7.557   9.287  71.383  1.00  0.00    -0.329 OA 
HETATM   32  H   UNL    20     -10.860   7.213  74.515  1.00  0.00     0.000 HD 
HETATM   33  O   UNL    20      -8.649   8.187  73.801  1.00  0.00    -0.255 OA 
HETATM   34  C   UNL    20      -8.923   9.154  71.595  1.00  0.00     0.074 C  
HETATM   35  H   UNL    20      -7.714   8.090  73.663  1.00  0.00     0.000 HD 
BRANCH  26  36
HETATM   36  C   UNL    20     -13.055   8.508  71.712  1.00  0.00    -0.355 C  
HETATM   37  O   UNL    20     -13.767   7.331  71.957  1.00  0.00    -0.526 OA 
HETATM   38  H   UNL    20     -14.680   7.531  72.126  1.00  0.00     0.000 HD 
ENDBRANCH  26  36
ENDBRANCH  23  24
ENDBRANCH  16  23
BRANCH  16  39
HETATM   39  C   UNL    20      -7.380   7.840  68.327  1.00  0.00    -0.102 C  
HETATM   40  O   UNL    20      -7.074   7.047  69.442  1.00  0.00    -0.074 OA 
HETATM   41  H   UNL    20      -6.135   6.992  69.570  1.00  0.00     0.000 HD 
ENDBRANCH  16  39
ENDBRANCH  12  14
TORSDOF 5
ENDMDL
MODEL       28
REMARK 921   NORMALIZED FREE ENERGY PREDICTED BY IDOCK:   -6.63 KCAL/MOL
REMARK 922        TOTAL FREE ENERGY PREDICTED BY IDOCK:  -10.15 KCAL/MOL
REMARK 923 INTER-LIGAND FREE ENERGY PREDICTED BY IDOCK:   -9.54 KCAL/MOL
REMARK 924 INTRA-LIGAND FREE ENERGY PREDICTED BY IDOCK:   -0.61 KCAL/MOL
REMARK 927      BINDING AFFINITY PREDICTED BY RF-SCORE:    0.00 PKD
ROOT
HETATM    1  O   HOH     4     -14.299  12.968  72.658  1.00  0.00    -0.657 OA 
HETATM    2  H2  HOH     4     -13.741  12.410  72.128  1.00  0.00     0.000 HD 
HETATM    3 NA   UNL    13      -7.782  11.823  70.174  1.00  0.00    -0.327 Na 
HETATM    4  H1  HOH     4     -13.733  13.672  72.953  1.00  0.00     0.000 HD 
HETATM    5 NA   UNL    14     -13.148  10.281  71.845  1.00  0.00    -0.300 Na 
HETATM    6 FE   UNL    15     -10.079   9.639  71.544  1.00  0.00    -0.256 Fe 
HETATM    7 FE   UNL    16     -12.208  13.845  71.173  1.00  0.00    -0.270 Fe 
HETATM    8 FE   UNL    17     -13.193  10.341  69.498  1.00  0.00    -0.582 Fe 
HETATM    9 FE   UNL    18     -14.028  14.547  70.225  1.00  0.00    -0.531 Fe 
HETATM   10 FE   UNL    19     -12.898  12.073  66.026  1.00  0.00    -0.179 Fe 
HETATM   11  O   UNL    20     -12.381  13.039  68.631  1.00  0.00    -0.098 OA 
HETATM   12  C   UNL    20     -11.742  14.285  68.553  1.00  0.00    -0.341 C  
HETATM   13  H   UNL    20     -12.753  12.822  69.478  1.00  0.00     0.000 HD 
ENDROOT
BRANCH  12  14
HETATM   14  C   UNL    20     -11.137  14.639  67.175  1.00  0.00    -0.326 C  
HETATM   15  O   UNL    20     -10.692  15.973  67.148  1.00  0.00    -0.314 OA 
HETATM   16  C   UNL    20      -9.809  16.101  66.064  1.00  0.00    -0.347 C  
HETATM   17  C   UNL    20     -10.012  13.739  66.619  1.00  0.00    -0.279 C  
HETATM   18  H   UNL    20      -9.837  12.234  65.390  1.00  0.00     0.000 HD 
HETATM   19  C   UNL    20      -9.073  14.728  65.889  1.00  0.00     0.108 C  
HETATM   20  H   UNL    20      -7.351  13.849  66.363  1.00  0.00     0.000 HD 
HETATM   21  O   UNL    20     -10.529  12.787  65.732  1.00  0.00    -0.266 OA 
HETATM   22  O   UNL    20      -7.798  14.680  66.468  1.00  0.00     0.337 OA 
BRANCH  16  23
HETATM   23  O   UNL    20      -9.017  17.301  66.190  1.00  0.00    -0.422 OA 
BRANCH  23  24
HETATM   24  C   UNL    20      -7.628  17.252  66.594  1.00  0.00    -0.258 C  
HETATM   25  O   UNL    20      -6.852  17.969  65.652  1.00  0.00    -0.391 OA 
HETATM   26  C   UNL    20      -7.066  19.377  65.700  1.00  0.00    -0.267 C  
HETATM   27  H   UNL    20      -7.473  17.239  69.859  1.00  0.00     0.000 HD 
HETATM   28  C   UNL    20      -6.733  19.977  67.097  1.00  0.00    -0.213 C  
HETATM   29  O   UNL    20      -6.944  21.366  67.140  1.00  0.00    -0.717 OA 
HETATM   30  C   UNL    20      -7.529  19.258  68.177  1.00  0.00    -0.289 C  
HETATM   31  O   UNL    20      -7.725  16.931  68.997  1.00  0.00    -0.243 OA 
HETATM   32  H   UNL    20      -6.741  21.732  67.993  1.00  0.00     0.000 HD 
HETATM   33  O   UNL    20      -7.116  19.703  69.439  1.00  0.00    -0.357 OA 
HETATM   34  C   UNL    20      -7.217  17.754  68.001  1.00  0.00    -0.218 C  
HETATM   35  H   UNL    20      -7.613  19.254  70.113  1.00  0.00     0.000 HD 
BRANCH  26  36
HETATM   36  C   UNL    20      -6.111  20.028  64.668  1.00  0.00    -0.270 C  
HETATM   37  O   UNL    20      -6.723  21.140  64.082  1.00  0.00    -0.519 OA 
HETATM   38  H   UNL    20      -6.137  21.539  63.450  1.00  0.00     0.000 HD 
ENDBRANCH  26  36
ENDBRANCH  23  24
ENDBRANCH  16  23
BRANCH  16  39
HETATM   39  C   UNL    20     -10.681  16.294  64.784  1.00  0.00    -0.126 C  
HETATM   40  O   UNL    20     -10.920  17.655  64.545  1.00  0.00    -0.625 OA 
HETATM   41  H   UNL    20     -11.451  17.772  63.766  1.00  0.00     0.000 HD 
ENDBRANCH  16  39
ENDBRANCH  12  14
TORSDOF 5
ENDMDL
MODEL       29
REMARK 921   NORMALIZED FREE ENERGY PREDICTED BY IDOCK:   -6.54 KCAL/MOL
REMARK 922        TOTAL FREE ENERGY PREDICTED BY IDOCK:  -10.04 KCAL/MOL
REMARK 923 INTER-LIGAND FREE ENERGY PREDICTED BY IDOCK:   -8.60 KCAL/MOL
REMARK 924 INTRA-LIGAND FREE ENERGY PREDICTED BY IDOCK:   -1.44 KCAL/MOL
REMARK 927      BINDING AFFINITY PREDICTED BY RF-SCORE:    0.00 PKD
ROOT
HETATM    1  O   HOH     4     -11.724  16.373  63.723  1.00  0.00    -1.553 OA 
HETATM    2  H2  HOH     4     -11.176  16.569  64.474  1.00  0.00     0.000 HD 
HETATM    3 NA   UNL    13      -5.178  16.367  66.386  1.00  0.00    -0.097 Na 
HETATM    4  H1  HOH     4     -11.134  16.004  63.076  1.00  0.00     0.000 HD 
HETATM    5 NA   UNL    14     -10.691  18.196  65.917  1.00  0.00    -0.331 Na 
HETATM    6 FE   UNL    15      -7.654  18.772  66.516  1.00  0.00    -0.199 Fe 
HETATM    7 FE   UNL    16      -9.524  14.960  64.433  1.00  0.00    -0.170 Fe 
HETATM    8 FE   UNL    17     -10.628  16.810  67.811  1.00  0.00    -0.265 Fe 
HETATM    9 FE   UNL    18     -11.257  13.715  64.820  1.00  0.00    -0.300 Fe 
HETATM   10 FE   UNL    19     -10.082  13.438  69.675  1.00  0.00    -0.410 Fe 
HETATM   11  O   UNL    20      -9.628  14.164  66.982  1.00  0.00    -0.244 OA 
HETATM   12  C   UNL    20      -8.917  13.144  66.332  1.00  0.00     0.020 C  
HETATM   13  H   UNL    20     -10.049  14.797  66.411  1.00  0.00     0.000 HD 
ENDROOT
BRANCH  12  14
HETATM   14  C   UNL    20      -8.232  12.114  67.260  1.00  0.00    -0.180 C  
HETATM   15  O   UNL    20      -9.050  11.808  68.363  1.00  0.00    -0.185 OA 
HETATM   16  C   UNL    20      -8.578  10.607  68.917  1.00  0.00    -0.158 C  
HETATM   17  C   UNL    20      -7.734  10.790  66.640  1.00  0.00    -0.141 C  
HETATM   18  H   UNL    20      -6.065  10.052  65.953  1.00  0.00     0.000 HD 
HETATM   19  C   UNL    20      -8.001   9.741  67.745  1.00  0.00    -0.101 C  
HETATM   20  H   UNL    20      -8.532   8.238  66.553  1.00  0.00     0.000 HD 
HETATM   21  O   UNL    20      -6.370  10.866  66.334  1.00  0.00    -0.109 OA 
HETATM   22  O   UNL    20      -8.881   8.763  67.263  1.00  0.00    -0.130 OA 
BRANCH  16  23
HETATM   23  O   UNL    20      -9.570  10.022  69.787  1.00  0.00    -0.222 OA 
BRANCH  23  24
HETATM   24  C   UNL    20     -10.948   9.873  69.371  1.00  0.00    -0.230 C  
HETATM   25  O   UNL    20     -11.339   8.526  69.561  1.00  0.00     0.059 OA 
HETATM   26  C   UNL    20     -11.462   8.162  70.933  1.00  0.00    -0.271 C  
HETATM   27  H   UNL    20     -12.563  12.637  70.035  1.00  0.00     0.000 HD 
HETATM   28  C   UNL    20     -12.508   9.038  71.683  1.00  0.00    -0.351 C  
HETATM   29  O   UNL    20     -12.628   8.675  73.036  1.00  0.00    -0.589 OA 
HETATM   30  C   UNL    20     -12.162  10.512  71.529  1.00  0.00    -0.286 C  
HETATM   31  O   UNL    20     -11.890  12.092  69.644  1.00  0.00    -0.308 OA 
HETATM   32  H   UNL    20     -13.266   9.209  73.494  1.00  0.00     0.000 HD 
HETATM   33  O   UNL    20     -13.184  11.294  72.081  1.00  0.00    -0.579 OA 
HETATM   34  C   UNL    20     -12.046  10.761  70.008  1.00  0.00    -0.345 C  
HETATM   35  H   UNL    20     -12.968  12.214  71.985  1.00  0.00     0.000 HD 
BRANCH  26  36
HETATM   36  C   UNL    20     -11.955   6.694  70.983  1.00  0.00    -0.359 C  
HETATM   37  O   UNL    20     -11.487   6.070  72.142  1.00  0.00    -0.289 OA 
HETATM   38  H   UNL    20     -11.789   5.169  72.173  1.00  0.00     0.000 HD 
ENDBRANCH  26  36
ENDBRANCH  23  24
ENDBRANCH  16  23
BRANCH  16  39
HETATM   39  C   UNL    20      -7.366  10.969  69.830  1.00  0.00     0.061 C  
HETATM   40  O   UNL    20      -7.342  10.157  70.972  1.00  0.00    -0.334 OA 
HETATM   41  H   UNL    20      -6.604  10.377  71.527  1.00  0.00     0.000 HD 
ENDBRANCH  16  39
ENDBRANCH  12  14
TORSDOF 5
ENDMDL
MODEL       30
REMARK 921   NORMALIZED FREE ENERGY PREDICTED BY IDOCK:   -6.42 KCAL/MOL
REMARK 922        TOTAL FREE ENERGY PREDICTED BY IDOCK:   -9.88 KCAL/MOL
REMARK 923 INTER-LIGAND FREE ENERGY PREDICTED BY IDOCK:   -9.37 KCAL/MOL
REMARK 924 INTRA-LIGAND FREE ENERGY PREDICTED BY IDOCK:   -0.52 KCAL/MOL
REMARK 927      BINDING AFFINITY PREDICTED BY RF-SCORE:    0.00 PKD
ROOT
HETATM    1  O   HOH     4     -10.120   3.235  65.203  1.00  0.00    -0.382 OA 
HETATM    2  H2  HOH     4      -9.847   3.442  66.090  1.00  0.00     0.000 HD 
HETATM    3 NA   UNL    13     -12.018   5.872  71.480  1.00  0.00    -0.284 Na 
HETATM    4  H1  HOH     4     -11.021   3.532  65.148  1.00  0.00     0.000 HD 
HETATM    5 NA   UNL    14      -8.867   2.545  67.879  1.00  0.00    -0.074 Na 
HETATM    6 FE   UNL    15     -10.201   3.044  70.688  1.00  0.00    -0.165 Fe 
HETATM    7 FE   UNL    16     -11.024   5.347  66.641  1.00  0.00    -0.215 Fe 
HETATM    8 FE   UNL    17      -7.532   4.413  68.368  1.00  0.00    -0.057 Fe 
HETATM    9 FE   UNL    18      -9.767   6.123  65.053  1.00  0.00    -0.371 Fe 
HETATM   10 FE   UNL    19      -6.684   8.211  68.394  1.00  0.00    -0.049 Fe 
HETATM   11  O   UNL    20      -9.021   6.837  67.595  1.00  0.00    -0.117 OA 
HETATM   12  C   UNL    20     -10.053   7.758  67.363  1.00  0.00    -0.222 C  
HETATM   13  H   UNL    20      -9.159   5.967  67.236  1.00  0.00     0.000 HD 
ENDROOT
BRANCH  12  14
HETATM   14  C   UNL    20      -9.827   9.172  67.946  1.00  0.00    -0.169 C  
HETATM   15  O   UNL    20      -9.868  10.146  66.932  1.00  0.00    -0.179 OA 
HETATM   16  C   UNL    20     -10.072  11.390  67.552  1.00  0.00    -0.183 C  
HETATM   17  C   UNL    20     -10.735   9.637  69.106  1.00  0.00    -0.217 C  
HETATM   18  H   UNL    20     -10.666   9.718  71.054  1.00  0.00     0.000 HD 
HETATM   19  C   UNL    20     -10.946  11.144  68.830  1.00  0.00    -0.219 C  
HETATM   20  H   UNL    20     -12.841  11.255  69.428  1.00  0.00     0.000 HD 
HETATM   21  O   UNL    20     -10.107   9.432  70.341  1.00  0.00    -0.218 OA 
HETATM   22  O   UNL    20     -12.311  11.404  68.654  1.00  0.00    -0.491 OA 
BRANCH  16  23
HETATM   23  O   UNL    20     -10.513  12.373  66.591  1.00  0.00    -0.227 OA 
BRANCH  23  24
HETATM   24  C   UNL    20     -11.720  13.145  66.796  1.00  0.00    -0.385 C  
HETATM   25  O   UNL    20     -11.400  14.303  67.544  1.00  0.00    -0.297 OA 
HETATM   26  C   UNL    20     -10.630  15.252  66.812  1.00  0.00    -0.304 C  
HETATM   27  H   UNL    20     -13.653  12.806  64.182  1.00  0.00     0.000 HD 
HETATM   28  C   UNL    20     -11.363  15.741  65.528  1.00  0.00     0.021 C  
HETATM   29  O   UNL    20     -10.601  16.679  64.810  1.00  0.00    -0.685 OA 
HETATM   30  C   UNL    20     -11.747  14.551  64.661  1.00  0.00    -0.431 C  
HETATM   31  O   UNL    20     -13.140  12.524  64.930  1.00  0.00    -0.833 OA 
HETATM   32  H   UNL    20     -11.049  16.977  64.026  1.00  0.00     0.000 HD 
HETATM   33  O   UNL    20     -12.530  14.988  63.585  1.00  0.00    -1.036 OA 
HETATM   34  C   UNL    20     -12.557  13.605  65.576  1.00  0.00    -0.496 C  
HETATM   35  H   UNL    20     -12.770  14.245  63.044  1.00  0.00     0.000 HD 
BRANCH  26  36
HETATM   36  C   UNL    20     -10.415  16.483  67.729  1.00  0.00    -0.308 C  
HETATM   37  O   UNL    20      -9.256  17.167  67.350  1.00  0.00    -0.229 OA 
HETATM   38  H   UNL    20      -9.124  17.922  67.912  1.00  0.00     0.000 HD 
ENDBRANCH  26  36
ENDBRANCH  23  24
ENDBRANCH  16  23
BRANCH  16  39
HETATM   39  C   UNL    20      -8.682  11.881  68.062  1.00  0.00    -0.173 C  
HETATM   40  O   UNL    20      -8.821  13.015  68.874  1.00  0.00    -0.373 OA 
HETATM   41  H   UNL    20      -7.975  13.313  69.185  1.00  0.00     0.000 HD 
ENDBRANCH  16  39
ENDBRANCH  12  14
TORSDOF 5
ENDMDL
MODEL       31
REMARK 921   NORMALIZED FREE ENERGY PREDICTED BY IDOCK:   -6.35 KCAL/MOL
REMARK 922        TOTAL FREE ENERGY PREDICTED BY IDOCK:   -9.79 KCAL/MOL
REMARK 923 INTER-LIGAND FREE ENERGY PREDICTED BY IDOCK:   -8.60 KCAL/MOL
REMARK 924 INTRA-LIGAND FREE ENERGY PREDICTED BY IDOCK:   -1.20 KCAL/MOL
REMARK 927      BINDING AFFINITY PREDICTED BY RF-SCORE:    0.00 PKD
ROOT
HETATM    1  O   HOH     4      -9.911   1.930  70.671  1.00  0.00    -0.068 OA 
HETATM    2  H2  HOH     4     -10.274   2.654  71.168  1.00  0.00     0.000 HD 
HETATM    3 NA   UNL    13     -14.324   7.449  70.651  1.00  0.00    -0.590 Na 
HETATM    4  H1  HOH     4     -10.297   2.007  69.807  1.00  0.00     0.000 HD 
HETATM    5 NA   UNL    14     -11.276   3.129  73.101  1.00  0.00    -0.155 Na 
HETATM    6 FE   UNL    15     -13.816   4.988  73.020  1.00  0.00    -0.426 Fe 
HETATM    7 FE   UNL    16     -10.600   4.329  69.617  1.00  0.00    -0.229 Fe 
HETATM    8 FE   UNL    17     -10.058   5.094  73.512  1.00  0.00    -0.146 Fe 
HETATM    9 FE   UNL    18      -8.436   4.193  69.579  1.00  0.00    -0.064 Fe 
HETATM   10 FE   UNL    19      -8.041   8.255  72.472  1.00  0.00    -0.093 Fe 
HETATM   11  O   UNL    20      -9.451   6.360  70.920  1.00  0.00    -0.173 OA 
HETATM   12  C   UNL    20      -9.544   6.812  69.595  1.00  0.00    -0.148 C  
HETATM   13  H   UNL    20      -9.636   5.437  71.052  1.00  0.00     0.000 HD 
ENDROOT
BRANCH  12  14
HETATM   14  C   UNL    20      -9.243   8.313  69.380  1.00  0.00    -0.155 C  
HETATM   15  O   UNL    20      -9.456   8.681  68.039  1.00  0.00    -0.139 OA 
HETATM   16  C   UNL    20      -9.570  10.080  68.000  1.00  0.00    -0.138 C  
HETATM   17  C   UNL    20      -9.959   9.338  70.287  1.00  0.00    -0.219 C  
HETATM   18  H   UNL    20      -9.580  10.339  71.918  1.00  0.00     0.000 HD 
HETATM   19  C   UNL    20     -10.226  10.539  69.348  1.00  0.00    -0.221 C  
HETATM   20  H   UNL    20     -12.002  11.053  70.085  1.00  0.00     0.000 HD 
HETATM   21  O   UNL    20      -9.140   9.709  71.360  1.00  0.00    -0.082 OA 
HETATM   22  O   UNL    20     -11.605  10.775  69.268  1.00  0.00    -0.269 OA 
BRANCH  16  23
HETATM   23  O   UNL    20     -10.169  10.509  66.759  1.00  0.00    -0.217 OA 
BRANCH  23  24
HETATM   24  C   UNL    20      -9.786  11.751  66.122  1.00  0.00    -0.229 C  
HETATM   25  O   UNL    20      -9.293  11.467  64.826  1.00  0.00    -0.163 OA 
HETATM   26  C   UNL    20     -10.303  11.035  63.920  1.00  0.00    -0.372 C  
HETATM   27  H   UNL    20     -11.801  14.122  67.124  1.00  0.00     0.000 HD 
HETATM   28  C   UNL    20     -11.429  12.096  63.744  1.00  0.00    -0.465 C  
HETATM   29  O   UNL    20     -12.424  11.666  62.848  1.00  0.00    -0.930 OA 
HETATM   30  C   UNL    20     -12.019  12.461  65.098  1.00  0.00    -0.400 C  
HETATM   31  O   UNL    20     -11.166  13.421  67.213  1.00  0.00    -0.278 OA 
HETATM   32  H   UNL    20     -13.111  12.313  62.740  1.00  0.00     0.000 HD 
HETATM   33  O   UNL    20     -12.926  13.517  64.945  1.00  0.00    -0.708 OA 
HETATM   34  C   UNL    20     -10.823  12.893  65.977  1.00  0.00    -0.279 C  
HETATM   35  H   UNL    20     -13.294  13.746  65.791  1.00  0.00     0.000 HD 
BRANCH  26  36
HETATM   36  C   UNL    20      -9.632  10.827  62.539  1.00  0.00    -0.202 C  
HETATM   37  O   UNL    20      -8.472  11.602  62.448  1.00  0.00    -0.612 OA 
HETATM   38  H   UNL    20      -8.060  11.474  61.601  1.00  0.00     0.000 HD 
ENDBRANCH  26  36
ENDBRANCH  23  24
ENDBRANCH  16  23
BRANCH  16  39
HETATM   39  C   UNL    20      -8.121  10.659  68.002  1.00  0.00    -0.112 C  
HETATM   40  O   UNL    20      -7.987  11.664  68.970  1.00  0.00    -0.315 OA 
HETATM   41  H   UNL    20      -7.105  12.015  68.971  1.00  0.00     0.000 HD 
ENDBRANCH  16  39
ENDBRANCH  12  14
TORSDOF 5
ENDMDL
MODEL       32
REMARK 921   NORMALIZED FREE ENERGY PREDICTED BY IDOCK:   -6.32 KCAL/MOL
REMARK 922        TOTAL FREE ENERGY PREDICTED BY IDOCK:   -9.75 KCAL/MOL
REMARK 923 INTER-LIGAND FREE ENERGY PREDICTED BY IDOCK:   -8.23 KCAL/MOL
REMARK 924 INTRA-LIGAND FREE ENERGY PREDICTED BY IDOCK:   -1.53 KCAL/MOL
REMARK 927      BINDING AFFINITY PREDICTED BY RF-SCORE:    0.00 PKD
ROOT
HETATM    1  O   HOH     4      -9.735   1.896  69.707  1.00  0.00    -0.027 OA 
HETATM    2  H2  HOH     4      -9.987   2.544  70.356  1.00  0.00     0.000 HD 
HETATM    3 NA   UNL    13     -13.883   7.420  71.200  1.00  0.00    -0.332 Na 
HETATM    4  H1  HOH     4     -10.251   2.105  68.937  1.00  0.00     0.000 HD 
HETATM    5 NA   UNL    14     -10.650   2.742  72.474  1.00  0.00    -0.137 Na 
HETATM    6 FE   UNL    15     -13.099   4.628  73.076  1.00  0.00    -0.285 Fe 
HETATM    7 FE   UNL    16     -10.492   4.435  69.135  1.00  0.00    -0.193 Fe 
HETATM    8 FE   UNL    17      -9.309   4.607  72.959  1.00  0.00    -0.116 Fe 
HETATM    9 FE   UNL    18      -8.368   4.274  68.726  1.00  0.00    -0.077 Fe 
HETATM   10 FE   UNL    19      -7.365   7.858  72.070  1.00  0.00    -0.059 Fe 
HETATM   11  O   UNL    20      -9.074   6.234  70.512  1.00  0.00    -0.152 OA 
HETATM   12  C   UNL    20      -9.360   6.878  69.299  1.00  0.00    -0.144 C  
HETATM   13  H   UNL    20      -9.271   5.304  70.538  1.00  0.00     0.000 HD 
ENDROOT
BRANCH  12  14
HETATM   14  C   UNL    20      -9.040   8.390  69.256  1.00  0.00    -0.150 C  
HETATM   15  O   UNL    20      -9.425   8.950  68.025  1.00  0.00    -0.141 OA 
HETATM   16  C   UNL    20      -9.496  10.342  68.199  1.00  0.00    -0.145 C  
HETATM   17  C   UNL    20      -9.585   9.284  70.391  1.00  0.00    -0.244 C  
HETATM   18  H   UNL    20      -8.947  10.035  72.074  1.00  0.00     0.000 HD 
HETATM   19  C   UNL    20      -9.940  10.611  69.679  1.00  0.00    -0.050 C  
HETATM   20  H   UNL    20     -11.576  11.039  70.728  1.00  0.00     0.000 HD 
HETATM   21  O   UNL    20      -8.612   9.485  71.377  1.00  0.00    -0.215 OA 
HETATM   22  O   UNL    20     -11.307  10.876  69.832  1.00  0.00    -0.268 OA 
BRANCH  16  23
HETATM   23  O   UNL    20     -10.247  10.953  67.129  1.00  0.00    -0.194 OA 
BRANCH  23  24
HETATM   24  C   UNL    20      -9.849  12.218  66.550  1.00  0.00    -0.229 C  
HETATM   25  O   UNL    20     -10.280  12.259  65.203  1.00  0.00    -0.271 OA 
HETATM   26  C   UNL    20     -11.693  12.368  65.065  1.00  0.00    -0.371 C  
HETATM   27  H   UNL    20      -9.970  14.528  68.860  1.00  0.00     0.000 HD 
HETATM   28  C   UNL    20     -12.256  13.648  65.750  1.00  0.00    -0.464 C  
HETATM   29  O   UNL    20     -13.651  13.752  65.611  1.00  0.00    -0.474 OA 
HETATM   30  C   UNL    20     -11.836  13.685  67.213  1.00  0.00    -0.391 C  
HETATM   31  O   UNL    20      -9.695  13.715  68.453  1.00  0.00    -0.224 OA 
HETATM   32  H   UNL    20     -13.994  14.533  66.029  1.00  0.00     0.000 HD 
HETATM   33  O   UNL    20     -12.221  14.906  67.780  1.00  0.00    -0.545 OA 
HETATM   34  C   UNL    20     -10.297  13.544  67.214  1.00  0.00    -0.241 C  
HETATM   35  H   UNL    20     -11.959  14.929  68.693  1.00  0.00     0.000 HD 
BRANCH  26  36
HETATM   36  C   UNL    20     -12.008  12.467  63.551  1.00  0.00    -0.543 C  
HETATM   37  O   UNL    20     -12.287  13.792  63.205  1.00  0.00    -1.099 OA 
HETATM   38  H   UNL    20     -12.480  13.854  62.276  1.00  0.00     0.000 HD 
ENDBRANCH  26  36
ENDBRANCH  23  24
ENDBRANCH  16  23
BRANCH  16  39
HETATM   39  C   UNL    20      -8.042  10.893  68.073  1.00  0.00    -0.119 C  
HETATM   40  O   UNL    20      -7.727  11.720  69.161  1.00  0.00    -0.324 OA 
HETATM   41  H   UNL    20      -6.842  12.055  69.084  1.00  0.00     0.000 HD 
ENDBRANCH  16  39
ENDBRANCH  12  14
TORSDOF 5
ENDMDL
MODEL       33
REMARK 921   NORMALIZED FREE ENERGY PREDICTED BY IDOCK:   -6.31 KCAL/MOL
REMARK 922        TOTAL FREE ENERGY PREDICTED BY IDOCK:   -9.74 KCAL/MOL
REMARK 923 INTER-LIGAND FREE ENERGY PREDICTED BY IDOCK:   -8.65 KCAL/MOL
REMARK 924 INTRA-LIGAND FREE ENERGY PREDICTED BY IDOCK:   -1.09 KCAL/MOL
REMARK 927      BINDING AFFINITY PREDICTED BY RF-SCORE:    0.00 PKD
ROOT
HETATM    1  O   HOH     4     -10.076  20.249  70.625  1.00  0.00    -0.224 OA 
HETATM    2  H2  HOH     4      -9.351  19.888  70.127  1.00  0.00     0.000 HD 
HETATM    3 NA   UNL    13      -7.033  19.626  64.277  1.00  0.00    -0.198 Na 
HETATM    4  H1  HOH     4     -10.619  20.691  69.983  1.00  0.00     0.000 HD 
HETATM    5 NA   UNL    14      -7.126  19.765  70.102  1.00  0.00    -0.311 Na 
HETATM    6 FE   UNL    15      -5.657  20.307  67.371  1.00  0.00    -0.164 Fe 
HETATM    7 FE   UNL    16     -10.245  19.394  68.059  1.00  0.00    -0.295 Fe 
HETATM    8 FE   UNL    17      -7.030  17.495  69.511  1.00  0.00    -0.226 Fe 
HETATM    9 FE   UNL    18     -11.345  17.990  69.293  1.00  0.00    -0.159 Fe 
HETATM   10 FE   UNL    19      -8.365  14.244  67.840  1.00  0.00    -0.121 Fe 
HETATM   11  O   UNL    20      -9.337  16.896  67.777  1.00  0.00    -0.231 OA 
HETATM   12  C   UNL    20     -10.355  17.002  66.816  1.00  0.00    -0.302 C  
HETATM   13  H   UNL    20      -9.290  17.610  68.403  1.00  0.00     0.000 HD 
ENDROOT
BRANCH  12  14
HETATM   14  C   UNL    20     -10.432  15.843  65.797  1.00  0.00    -0.370 C  
HETATM   15  O   UNL    20     -10.168  14.609  66.418  1.00  0.00    -0.273 OA 
HETATM   16  C   UNL    20     -10.649  13.599  65.568  1.00  0.00    -0.296 C  
HETATM   17  C   UNL    20     -11.717  15.699  64.951  1.00  0.00    -0.055 C  
HETATM   18  H   UNL    20     -12.346  16.209  63.177  1.00  0.00     0.000 HD 
HETATM   19  C   UNL    20     -11.903  14.169  64.819  1.00  0.00    -0.417 C  
HETATM   20  H   UNL    20     -13.890  14.139  64.928  1.00  0.00     0.000 HD 
HETATM   21  O   UNL    20     -11.556  16.298  63.697  1.00  0.00    -0.836 OA 
HETATM   22  O   UNL    20     -13.130  13.794  65.381  1.00  0.00    -0.727 OA 
BRANCH  16  23
HETATM   23  O   UNL    20     -10.777  12.351  66.282  1.00  0.00    -0.246 OA 
BRANCH  23  24
HETATM   24  C   UNL    20     -10.002  12.075  67.472  1.00  0.00    -0.192 C  
HETATM   25  O   UNL    20     -10.561  12.791  68.557  1.00  0.00    -0.244 OA 
HETATM   26  C   UNL    20     -11.826  12.287  68.974  1.00  0.00    -0.305 C  
HETATM   27  H   UNL    20      -8.903   9.000  67.335  1.00  0.00     0.000 HD 
HETATM   28  C   UNL    20     -11.750  10.797  69.418  1.00  0.00    -0.306 C  
HETATM   29  O   UNL    20     -13.000  10.303  69.830  1.00  0.00    -0.570 OA 
HETATM   30  C   UNL    20     -11.155   9.949  68.302  1.00  0.00    -0.150 C  
HETATM   31  O   UNL    20      -9.023   9.897  67.047  1.00  0.00    -0.137 OA 
HETATM   32  H   UNL    20     -12.953   9.394  70.101  1.00  0.00     0.000 HD 
HETATM   33  O   UNL    20     -10.955   8.642  68.762  1.00  0.00    -0.432 OA 
HETATM   34  C   UNL    20      -9.806  10.612  67.942  1.00  0.00    -0.161 C  
HETATM   35  H   UNL    20     -10.584   8.113  68.066  1.00  0.00     0.000 HD 
BRANCH  26  36
HETATM   36  C   UNL    20     -12.280  13.121  70.199  1.00  0.00    -0.290 C  
HETATM   37  O   UNL    20     -11.278  14.026  70.560  1.00  0.00    -0.494 OA 
HETATM   38  H   UNL    20     -11.556  14.538  71.312  1.00  0.00     0.000 HD 
ENDBRANCH  26  36
ENDBRANCH  23  24
ENDBRANCH  16  23
BRANCH  16  39
HETATM   39  C   UNL    20      -9.560  13.361  64.477  1.00  0.00     0.660 C  
HETATM   40  O   UNL    20     -10.029  12.486  63.487  1.00  0.00    -0.581 OA 
HETATM   41  H   UNL    20      -9.366  12.342  62.823  1.00  0.00     0.000 HD 
ENDBRANCH  16  39
ENDBRANCH  12  14
TORSDOF 5
ENDMDL
MODEL       34
REMARK 921   NORMALIZED FREE ENERGY PREDICTED BY IDOCK:   -6.27 KCAL/MOL
REMARK 922        TOTAL FREE ENERGY PREDICTED BY IDOCK:   -9.69 KCAL/MOL
REMARK 923 INTER-LIGAND FREE ENERGY PREDICTED BY IDOCK:   -8.37 KCAL/MOL
REMARK 924 INTRA-LIGAND FREE ENERGY PREDICTED BY IDOCK:   -1.32 KCAL/MOL
REMARK 927      BINDING AFFINITY PREDICTED BY RF-SCORE:    0.00 PKD
ROOT
HETATM    1  O   HOH     4     -10.161   1.924  64.716  1.00  0.00    -0.329 OA 
HETATM    2  H2  HOH     4     -10.233   2.865  64.833  1.00  0.00     0.000 HD 
HETATM    3 NA   UNL    13      -6.763   7.950  66.162  1.00  0.00    -0.046 Na 
HETATM    4  H1  HOH     4      -9.248   1.724  64.888  1.00  0.00     0.000 HD 
HETATM    5 NA   UNL    14     -11.011   4.703  63.844  1.00  0.00    -0.409 Na 
HETATM    6 FE   UNL    15      -9.132   7.229  63.755  1.00  0.00    -0.337 Fe 
HETATM    7 FE   UNL    16      -8.679   3.377  66.459  1.00  0.00    -0.100 Fe 
HETATM    8 FE   UNL    17     -11.911   5.649  65.795  1.00  0.00    -0.658 Fe 
HETATM    9 FE   UNL    18     -10.055   2.164  67.617  1.00  0.00    -0.376 Fe 
HETATM   10 FE   UNL    19     -12.104   6.259  69.633  1.00  0.00    -0.396 Fe 
HETATM   11  O   UNL    20     -10.207   4.866  68.069  1.00  0.00    -0.122 OA 
HETATM   12  C   UNL    20      -9.096   4.537  68.859  1.00  0.00    -0.123 C  
HETATM   13  H   UNL    20     -10.279   4.394  67.247  1.00  0.00     0.000 HD 
ENDROOT
BRANCH  12  14
HETATM   14  C   UNL    20      -8.977   5.304  70.196  1.00  0.00    -0.129 C  
HETATM   15  O   UNL    20      -9.243   6.674  70.015  1.00  0.00    -0.156 OA 
HETATM   16  C   UNL    20      -9.524   7.219  71.278  1.00  0.00    -0.155 C  
HETATM   17  C   UNL    20      -9.803   4.802  71.401  1.00  0.00    -0.187 C  
HETATM   18  H   UNL    20      -9.533   3.676  72.971  1.00  0.00     0.000 HD 
HETATM   19  C   UNL    20     -10.219   6.102  72.131  1.00  0.00    -0.186 C  
HETATM   20  H   UNL    20     -12.038   5.515  72.687  1.00  0.00     0.000 HD 
HETATM   21  O   UNL    20      -9.025   3.985  72.230  1.00  0.00    -0.107 OA 
HETATM   22  O   UNL    20     -11.617   6.192  72.170  1.00  0.00    -0.299 OA 
BRANCH  16  23
HETATM   23  O   UNL    20     -10.179   8.498  71.148  1.00  0.00    -0.193 OA 
BRANCH  23  24
HETATM   24  C   UNL    20     -11.161   8.744  70.114  1.00  0.00    -0.202 C  
HETATM   25  O   UNL    20     -12.455   8.619  70.673  1.00  0.00     0.007 OA 
HETATM   26  C   UNL    20     -12.785   9.673  71.572  1.00  0.00    -0.387 C  
HETATM   27  H   UNL    20      -9.982  10.980  68.041  1.00  0.00     0.000 HD 
HETATM   28  C   UNL    20     -12.731  11.071  70.888  1.00  0.00    -0.358 C  
HETATM   29  O   UNL    20     -13.059  12.108  71.778  1.00  0.00    -0.438 OA 
HETATM   30  C   UNL    20     -11.364  11.289  70.255  1.00  0.00    -0.089 C  
HETATM   31  O   UNL    20     -10.000  10.163  68.525  1.00  0.00    -0.154 OA 
HETATM   32  H   UNL    20     -13.026  12.960  71.360  1.00  0.00     0.000 HD 
HETATM   33  O   UNL    20     -11.373  12.481  69.520  1.00  0.00    -0.396 OA 
HETATM   34  C   UNL    20     -11.131  10.077  69.324  1.00  0.00    -0.206 C  
HETATM   35  H   UNL    20     -10.520  12.618  69.124  1.00  0.00     0.000 HD 
BRANCH  26  36
HETATM   36  C   UNL    20     -14.241   9.439  72.049  1.00  0.00    -0.097 C  
HETATM   37  O   UNL    20     -14.243   8.927  73.350  1.00  0.00    -1.241 OA 
HETATM   38  H   UNL    20     -15.136   8.784  73.643  1.00  0.00     0.000 HD 
ENDBRANCH  26  36
ENDBRANCH  23  24
ENDBRANCH  16  23
BRANCH  16  39
HETATM   39  C   UNL    20      -8.154   7.505  71.968  1.00  0.00    -0.098 C  
HETATM   40  O   UNL    20      -8.181   8.738  72.635  1.00  0.00    -0.403 OA 
HETATM   41  H   UNL    20      -7.347   8.912  73.055  1.00  0.00     0.000 HD 
ENDBRANCH  16  39
ENDBRANCH  12  14
TORSDOF 5
ENDMDL
MODEL       35
REMARK 921   NORMALIZED FREE ENERGY PREDICTED BY IDOCK:   -6.25 KCAL/MOL
REMARK 922        TOTAL FREE ENERGY PREDICTED BY IDOCK:   -9.67 KCAL/MOL
REMARK 923 INTER-LIGAND FREE ENERGY PREDICTED BY IDOCK:   -7.83 KCAL/MOL
REMARK 924 INTRA-LIGAND FREE ENERGY PREDICTED BY IDOCK:   -1.84 KCAL/MOL
REMARK 927      BINDING AFFINITY PREDICTED BY RF-SCORE:    0.00 PKD
ROOT
HETATM    1  O   HOH     4     -12.360  13.452  62.799  1.00  0.00    -0.812 OA 
HETATM    2  H2  HOH     4     -12.126  13.726  63.679  1.00  0.00     0.000 HD 
HETATM    3 NA   UNL    13      -7.163  15.437  67.158  1.00  0.00    -0.126 Na 
HETATM    4  H1  HOH     4     -11.537  13.417  62.326  1.00  0.00     0.000 HD 
HETATM    5 NA   UNL    14     -12.668  15.196  65.263  1.00  0.00    -0.233 Na 
HETATM    6 FE   UNL    15     -10.327  16.740  66.696  1.00  0.00    -0.258 Fe 
HETATM    7 FE   UNL    16     -10.024  12.845  64.031  1.00  0.00    -0.327 Fe 
HETATM    8 FE   UNL    17     -12.530  13.674  67.045  1.00  0.00    -0.346 Fe 
HETATM    9 FE   UNL    18     -11.180  11.017  63.878  1.00  0.00    -0.346 Fe 
HETATM   10 FE   UNL    19     -11.187  10.501  68.854  1.00  0.00    -0.188 Fe 
HETATM   11  O   UNL    20     -10.419  11.714  66.420  1.00  0.00    -0.229 OA 
HETATM   12  C   UNL    20      -9.236  11.123  65.952  1.00  0.00    -0.206 C  
HETATM   13  H   UNL    20     -10.902  12.226  65.781  1.00  0.00     0.000 HD 
ENDROOT
BRANCH  12  14
HETATM   14  C   UNL    20      -8.450  10.290  66.991  1.00  0.00    -0.129 C  
HETATM   15  O   UNL    20      -9.190  10.141  68.178  1.00  0.00    -0.134 OA 
HETATM   16  C   UNL    20      -8.629   9.068  68.891  1.00  0.00    -0.131 C  
HETATM   17  C   UNL    20      -7.924   8.901  66.566  1.00  0.00    -0.103 C  
HETATM   18  H   UNL    20      -6.260   8.126  65.906  1.00  0.00     0.000 HD 
HETATM   19  C   UNL    20      -8.076   8.042  67.843  1.00  0.00    -0.129 C  
HETATM   20  H   UNL    20      -8.597   6.341  66.950  1.00  0.00     0.000 HD 
HETATM   21  O   UNL    20      -6.584   8.979  66.167  1.00  0.00    -0.064 OA 
HETATM   22  O   UNL    20      -8.932   6.963  67.585  1.00  0.00    -0.118 OA 
BRANCH  16  23
HETATM   23  O   UNL    20      -9.541   8.598  69.906  1.00  0.00    -0.168 OA 
BRANCH  23  24
HETATM   24  C   UNL    20      -9.707   9.301  71.160  1.00  0.00    -0.257 C  
HETATM   25  O   UNL    20     -10.950   9.977  71.143  1.00  0.00    -0.302 OA 
HETATM   26  C   UNL    20     -12.071   9.099  71.211  1.00  0.00    -0.323 C  
HETATM   27  H   UNL    20      -8.297   7.566  73.545  1.00  0.00     0.000 HD 
HETATM   28  C   UNL    20     -12.058   8.225  72.499  1.00  0.00    -0.337 C  
HETATM   29  O   UNL    20     -13.165   7.362  72.563  1.00  0.00    -0.387 OA 
HETATM   30  C   UNL    20     -10.746   7.459  72.597  1.00  0.00    -0.288 C  
HETATM   31  O   UNL    20      -8.345   8.044  72.725  1.00  0.00    -0.137 OA 
HETATM   32  H   UNL    20     -13.158   6.828  73.349  1.00  0.00     0.000 HD 
HETATM   33  O   UNL    20     -10.684   6.792  73.826  1.00  0.00    -0.462 OA 
HETATM   34  C   UNL    20      -9.628   8.521  72.496  1.00  0.00    -0.254 C  
HETATM   35  H   UNL    20      -9.865   6.313  73.888  1.00  0.00     0.000 HD 
BRANCH  26  36
HETATM   36  C   UNL    20     -13.348   9.977  71.250  1.00  0.00    -0.330 C  
HETATM   37  O   UNL    20     -13.691  10.266  72.573  1.00  0.00    -0.577 OA 
HETATM   38  H   UNL    20     -14.474  10.804  72.597  1.00  0.00     0.000 HD 
ENDBRANCH  26  36
ENDBRANCH  23  24
ENDBRANCH  16  23
BRANCH  16  39
HETATM   39  C   UNL    20      -7.387   9.625  69.653  1.00  0.00    -0.093 C  
HETATM   40  O   UNL    20      -6.462   8.604  69.913  1.00  0.00    -0.034 OA 
HETATM   41  H   UNL    20      -5.707   8.943  70.377  1.00  0.00     0.000 HD 
ENDBRANCH  16  39
ENDBRANCH  12  14
TORSDOF 5
ENDMDL
MODEL       36
REMARK 921   NORMALIZED FREE ENERGY PREDICTED BY IDOCK:   -6.24 KCAL/MOL
REMARK 922        TOTAL FREE ENERGY PREDICTED BY IDOCK:   -9.65 KCAL/MOL
REMARK 923 INTER-LIGAND FREE ENERGY PREDICTED BY IDOCK:   -8.41 KCAL/MOL
REMARK 924 INTRA-LIGAND FREE ENERGY PREDICTED BY IDOCK:   -1.23 KCAL/MOL
REMARK 927      BINDING AFFINITY PREDICTED BY RF-SCORE:    0.00 PKD
ROOT
HETATM    1  O   HOH     4     -10.431  20.093  70.188  1.00  0.00    -0.672 OA 
HETATM    2  H2  HOH     4      -9.614  19.716  69.882  1.00  0.00     0.000 HD 
HETATM    3 NA   UNL    13      -6.586  18.141  64.589  1.00  0.00    -0.227 Na 
HETATM    4  H1  HOH     4     -10.940  20.248  69.401  1.00  0.00     0.000 HD 
HETATM    5 NA   UNL    14      -7.404  19.920  70.077  1.00  0.00    -0.331 Na 
HETATM    6 FE   UNL    15      -5.686  19.872  67.438  1.00  0.00    -0.168 Fe 
HETATM    7 FE   UNL    16     -10.186  18.527  67.990  1.00  0.00    -0.279 Fe 
HETATM    8 FE   UNL    17      -6.972  17.616  70.202  1.00  0.00    -0.127 Fe 
HETATM    9 FE   UNL    18     -11.256  17.387  69.493  1.00  0.00    -0.320 Fe 
HETATM   10 FE   UNL    19      -7.704  13.864  69.477  1.00  0.00    -0.219 Fe 
HETATM   11  O   UNL    20      -8.965  16.214  68.543  1.00  0.00    -0.188 OA 
HETATM   12  C   UNL    20      -9.863  15.891  67.515  1.00  0.00    -0.230 C  
HETATM   13  H   UNL    20      -9.078  17.075  68.930  1.00  0.00     0.000 HD 
ENDROOT
BRANCH  12  14
HETATM   14  C   UNL    20      -9.679  14.490  66.887  1.00  0.00    -0.252 C  
HETATM   15  O   UNL    20      -9.464  13.517  67.879  1.00  0.00    -0.200 OA 
HETATM   16  C   UNL    20      -9.717  12.263  67.301  1.00  0.00    -0.195 C  
HETATM   17  C   UNL    20     -10.772  13.973  65.925  1.00  0.00    -0.293 C  
HETATM   18  H   UNL    20     -11.086  13.891  64.002  1.00  0.00     0.000 HD 
HETATM   19  C   UNL    20     -10.840  12.457  66.224  1.00  0.00    -0.266 C  
HETATM   20  H   UNL    20     -12.807  12.238  66.012  1.00  0.00     0.000 HD 
HETATM   21  O   UNL    20     -10.414  14.210  64.593  1.00  0.00    -0.434 OA 
HETATM   22  O   UNL    20     -12.127  12.121  66.665  1.00  0.00    -0.622 OA 
BRANCH  16  23
HETATM   23  O   UNL    20      -9.904  11.259  68.321  1.00  0.00    -0.182 OA 
BRANCH  23  24
HETATM   24  C   UNL    20      -9.086  10.066  68.369  1.00  0.00    -0.121 C  
HETATM   25  O   UNL    20      -8.863   9.718  69.722  1.00  0.00    -0.193 OA 
HETATM   26  C   UNL    20     -10.030   9.234  70.380  1.00  0.00    -0.237 C  
HETATM   27  H   UNL    20      -9.827   8.169  65.812  1.00  0.00     0.000 HD 
HETATM   28  C   UNL    20     -10.615   7.969  69.687  1.00  0.00    -0.223 C  
HETATM   29  O   UNL    20     -11.766   7.493  70.339  1.00  0.00    -0.449 OA 
HETATM   30  C   UNL    20     -10.885   8.256  68.217  1.00  0.00     0.085 C  
HETATM   31  O   UNL    20      -9.541   8.956  66.261  1.00  0.00    -0.219 OA 
HETATM   32  H   UNL    20     -12.123   6.721  69.916  1.00  0.00     0.000 HD 
HETATM   33  O   UNL    20     -11.272   7.075  67.571  1.00  0.00    -0.564 OA 
HETATM   34  C   UNL    20      -9.552   8.782  67.638  1.00  0.00    -0.144 C  
HETATM   35  H   UNL    20     -11.441   7.254  66.654  1.00  0.00     0.000 HD 
BRANCH  26  36
HETATM   36  C   UNL    20      -9.622   8.835  71.821  1.00  0.00    -0.301 C  
HETATM   37  O   UNL    20      -8.258   9.069  72.015  1.00  0.00    -0.360 OA 
HETATM   38  H   UNL    20      -8.007   8.825  72.898  1.00  0.00     0.000 HD 
ENDBRANCH  26  36
ENDBRANCH  23  24
ENDBRANCH  16  23
BRANCH  16  39
HETATM   39  C   UNL    20      -8.431  11.850  66.521  1.00  0.00    -0.097 C  
HETATM   40  O   UNL    20      -8.724  11.600  65.173  1.00  0.00    -0.384 OA 
HETATM   41  H   UNL    20      -7.941  11.350  64.699  1.00  0.00     0.000 HD 
ENDBRANCH  16  39
ENDBRANCH  12  14
TORSDOF 5
ENDMDL
MODEL       37
REMARK 921   NORMALIZED FREE ENERGY PREDICTED BY IDOCK:   -6.23 KCAL/MOL
REMARK 922        TOTAL FREE ENERGY PREDICTED BY IDOCK:   -9.63 KCAL/MOL
REMARK 923 INTER-LIGAND FREE ENERGY PREDICTED BY IDOCK:   -8.57 KCAL/MOL
REMARK 924 INTRA-LIGAND FREE ENERGY PREDICTED BY IDOCK:   -1.06 KCAL/MOL
REMARK 927      BINDING AFFINITY PREDICTED BY RF-SCORE:    0.00 PKD
ROOT
HETATM    1  O   HOH     4     -12.886   6.302  72.415  1.00  0.00    -0.546 OA 
HETATM    2  H2  HOH     4     -12.062   5.978  72.069  1.00  0.00     0.000 HD 
HETATM    3 NA   UNL    13      -6.038   7.648  71.306  1.00  0.00    -0.034 Na 
HETATM    4  H1  HOH     4     -12.697   7.182  72.717  1.00  0.00     0.000 HD 
HETATM    5 NA   UNL    14     -10.680   4.233  72.165  1.00  0.00    -0.177 Na 
HETATM    6 FE   UNL    15      -7.604   4.813  72.504  1.00  0.00    -0.070 Fe 
HETATM    7 FE   UNL    16     -11.001   7.848  71.233  1.00  0.00    -0.223 Fe 
HETATM    8 FE   UNL    17     -10.242   4.161  69.860  1.00  0.00    -0.193 Fe 
HETATM    9 FE   UNL    18     -12.703   7.747  69.893  1.00  0.00    -0.301 Fe 
HETATM   10 FE   UNL    19      -9.871   5.707  66.308  1.00  0.00    -0.139 Fe 
HETATM   11  O   UNL    20     -10.316   6.919  68.822  1.00  0.00    -0.173 OA 
HETATM   12  C   UNL    20     -10.181   8.310  68.705  1.00  0.00    -0.204 C  
HETATM   13  H   UNL    20     -10.754   6.615  69.609  1.00  0.00     0.000 HD 
ENDROOT
BRANCH  12  14
HETATM   14  C   UNL    20      -9.469   8.805  67.425  1.00  0.00    -0.146 C  
HETATM   15  O   UNL    20     -10.240   9.780  66.766  1.00  0.00    -0.221 OA 
HETATM   16  C   UNL    20      -9.388  10.465  65.884  1.00  0.00    -0.182 C  
HETATM   17  C   UNL    20      -8.022   9.330  67.550  1.00  0.00    -0.099 C  
HETATM   18  H   UNL    20      -6.210   8.650  67.306  1.00  0.00     0.000 HD 
HETATM   19  C   UNL    20      -7.960  10.492  66.532  1.00  0.00    -0.132 C  
HETATM   20  H   UNL    20      -6.788  11.703  67.590  1.00  0.00     0.000 HD 
HETATM   21  O   UNL    20      -7.100   8.327  67.228  1.00  0.00    -0.077 OA 
HETATM   22  O   UNL    20      -7.652  11.686  67.198  1.00  0.00    -0.137 OA 
BRANCH  16  23
HETATM   23  O   UNL    20      -9.982  11.712  65.465  1.00  0.00    -0.226 OA 
BRANCH  23  24
HETATM   24  C   UNL    20     -11.279  12.133  65.949  1.00  0.00    -0.339 C  
HETATM   25  O   UNL    20     -11.100  12.915  67.115  1.00  0.00    -0.259 OA 
HETATM   26  C   UNL    20     -10.516  14.188  66.856  1.00  0.00    -0.272 C  
HETATM   27  H   UNL    20     -13.263  12.604  63.395  1.00  0.00     0.000 HD 
HETATM   28  C   UNL    20     -11.374  15.042  65.877  1.00  0.00    -0.273 C  
HETATM   29  O   UNL    20     -10.796  16.298  65.625  1.00  0.00    -0.297 OA 
HETATM   30  C   UNL    20     -11.617  14.271  64.588  1.00  0.00    -0.408 C  
HETATM   31  O   UNL    20     -12.679  12.123  63.968  1.00  0.00    -0.587 OA 
HETATM   32  H   UNL    20     -11.319  16.819  65.028  1.00  0.00     0.000 HD 
HETATM   33  O   UNL    20     -12.508  14.983  63.775  1.00  0.00    -1.037 OA 
HETATM   34  C   UNL    20     -12.232  12.918  65.014  1.00  0.00    -0.464 C  
HETATM   35  H   UNL    20     -12.660  14.502  62.971  1.00  0.00     0.000 HD 
BRANCH  26  36
HETATM   36  C   UNL    20     -10.443  14.950  68.204  1.00  0.00    -0.242 C  
HETATM   37  O   UNL    20      -9.909  14.121  69.195  1.00  0.00    -0.415 OA 
HETATM   38  H   UNL    20      -9.863  14.588  70.021  1.00  0.00     0.000 HD 
ENDBRANCH  26  36
ENDBRANCH  23  24
ENDBRANCH  16  23
BRANCH  16  39
HETATM   39  C   UNL    20      -9.266   9.593  64.596  1.00  0.00    -0.234 C  
HETATM   40  O   UNL    20     -10.097  10.086  63.580  1.00  0.00    -0.466 OA 
HETATM   41  H   UNL    20     -10.022   9.555  62.797  1.00  0.00     0.000 HD 
ENDBRANCH  16  39
ENDBRANCH  12  14
TORSDOF 5
ENDMDL
MODEL       38
REMARK 921   NORMALIZED FREE ENERGY PREDICTED BY IDOCK:   -6.19 KCAL/MOL
REMARK 922        TOTAL FREE ENERGY PREDICTED BY IDOCK:   -9.58 KCAL/MOL
REMARK 923 INTER-LIGAND FREE ENERGY PREDICTED BY IDOCK:   -8.20 KCAL/MOL
REMARK 924 INTRA-LIGAND FREE ENERGY PREDICTED BY IDOCK:   -1.38 KCAL/MOL
REMARK 927      BINDING AFFINITY PREDICTED BY RF-SCORE:    0.00 PKD
ROOT
HETATM    1  O   HOH     4     -11.284  15.887  64.309  1.00  0.00    -0.840 OA 
HETATM    2  H2  HOH     4     -11.601  15.371  65.042  1.00  0.00     0.000 HD 
HETATM    3 NA   UNL    13     -10.704  14.500  71.214  1.00  0.00    -0.491 Na 
HETATM    4  H1  HOH     4     -10.582  16.418  64.667  1.00  0.00     0.000 HD 
HETATM    5 NA   UNL    14     -13.475  14.786  66.096  1.00  0.00    -0.436 Na 
HETATM    6 FE   UNL    15     -13.502  14.948  69.240  1.00  0.00    -0.328 Fe 
HETATM    7 FE   UNL    16      -9.746  15.029  66.369  1.00  0.00    -0.210 Fe 
HETATM    8 FE   UNL    17     -12.879  12.533  66.384  1.00  0.00    -0.256 Fe 
HETATM    9 FE   UNL    18      -9.160  13.914  64.603  1.00  0.00    -0.417 Fe 
HETATM   10 FE   UNL    19     -10.365   9.596  66.824  1.00  0.00    -0.180 Fe 
HETATM   11  O   UNL    20      -9.957  12.391  66.742  1.00  0.00    -0.218 OA 
HETATM   12  C   UNL    20      -8.637  12.686  67.115  1.00  0.00    -0.199 C  
HETATM   13  H   UNL    20     -10.425  13.093  66.302  1.00  0.00     0.000 HD 
ENDROOT
BRANCH  12  14
HETATM   14  C   UNL    20      -7.877  11.546  67.830  1.00  0.00    -0.123 C  
HETATM   15  O   UNL    20      -8.613  11.059  68.925  1.00  0.00    -0.161 OA 
HETATM   16  C   UNL    20      -8.088   9.800  69.259  1.00  0.00    -0.115 C  
HETATM   17  C   UNL    20      -7.404  10.342  66.986  1.00  0.00    -0.092 C  
HETATM   18  H   UNL    20      -5.774   9.756  66.088  1.00  0.00     0.000 HD 
HETATM   19  C   UNL    20      -7.580   9.133  67.935  1.00  0.00    -0.085 C  
HETATM   20  H   UNL    20      -8.169   7.813  66.566  1.00  0.00     0.000 HD 
HETATM   21  O   UNL    20      -6.065  10.496  66.607  1.00  0.00    -0.062 OA 
HETATM   22  O   UNL    20      -8.477   8.217  67.369  1.00  0.00    -0.123 OA 
BRANCH  16  23
HETATM   23  O   UNL    20      -9.010   9.067  70.093  1.00  0.00    -0.155 OA 
BRANCH  23  24
HETATM   24  C   UNL    20     -10.247   8.533  69.566  1.00  0.00    -0.206 C  
HETATM   25  O   UNL    20     -10.550   7.327  70.244  1.00  0.00    -0.218 OA 
HETATM   26  C   UNL    20     -10.933   7.524  71.601  1.00  0.00    -0.232 C  
HETATM   27  H   UNL    20     -12.205  11.013  68.729  1.00  0.00     0.000 HD 
HETATM   28  C   UNL    20     -12.190   8.434  71.733  1.00  0.00    -0.330 C  
HETATM   29  O   UNL    20     -12.566   8.625  73.074  1.00  0.00    -0.589 OA 
HETATM   30  C   UNL    20     -11.950   9.761  71.026  1.00  0.00    -0.352 C  
HETATM   31  O   UNL    20     -11.418  10.481  68.719  1.00  0.00    -0.260 OA 
HETATM   32  H   UNL    20     -13.333   9.180  73.154  1.00  0.00     0.000 HD 
HETATM   33  O   UNL    20     -13.132  10.511  71.024  1.00  0.00    -0.377 OA 
HETATM   34  C   UNL    20     -11.531   9.400  69.583  1.00  0.00     0.102 C  
HETATM   35  H   UNL    20     -12.983  11.339  70.583  1.00  0.00     0.000 HD 
BRANCH  26  36
HETATM   36  C   UNL    20     -11.293   6.136  72.190  1.00  0.00    -0.299 C  
HETATM   37  O   UNL    20     -12.677   6.030  72.356  1.00  0.00    -0.488 OA 
HETATM   38  H   UNL    20     -12.898   5.179  72.717  1.00  0.00     0.000 HD 
ENDBRANCH  26  36
ENDBRANCH  23  24
ENDBRANCH  16  23
BRANCH  16  39
HETATM   39  C   UNL    20      -6.822  10.050  70.135  1.00  0.00    -0.137 C  
HETATM   40  O   UNL    20      -7.033   9.617  71.451  1.00  0.00    -0.325 OA 
HETATM   41  H   UNL    20      -6.262   9.769  71.984  1.00  0.00     0.000 HD 
ENDBRANCH  16  39
ENDBRANCH  12  14
TORSDOF 5
ENDMDL
MODEL       39
REMARK 921   NORMALIZED FREE ENERGY PREDICTED BY IDOCK:   -6.19 KCAL/MOL
REMARK 922        TOTAL FREE ENERGY PREDICTED BY IDOCK:   -9.58 KCAL/MOL
REMARK 923 INTER-LIGAND FREE ENERGY PREDICTED BY IDOCK:   -8.37 KCAL/MOL
REMARK 924 INTRA-LIGAND FREE ENERGY PREDICTED BY IDOCK:   -1.21 KCAL/MOL
REMARK 927      BINDING AFFINITY PREDICTED BY RF-SCORE:    0.00 PKD
ROOT
HETATM    1  O   HOH     4     -10.542   7.650  73.589  1.00  0.00    -0.306 OA 
HETATM    2  H2  HOH     4     -10.651   7.184  72.768  1.00  0.00     0.000 HD 
HETATM    3 NA   UNL    13      -7.355   4.142  68.347  1.00  0.00    -0.052 Na 
HETATM    4  H1  HOH     4      -9.605   7.655  73.746  1.00  0.00     0.000 HD 
HETATM    5 NA   UNL    14     -11.817   5.534  71.827  1.00  0.00    -0.251 Na 
HETATM    6 FE   UNL    15     -10.242   3.424  70.100  1.00  0.00    -0.180 Fe 
HETATM    7 FE   UNL    16      -8.748   7.667  71.558  1.00  0.00    -0.110 Fe 
HETATM    8 FE   UNL    17     -12.203   6.655  69.800  1.00  0.00    -0.462 Fe 
HETATM    9 FE   UNL    18      -9.643   9.640  71.659  1.00  0.00    -0.243 Fe 
HETATM   10 FE   UNL    19     -11.356   9.198  66.979  1.00  0.00    -0.238 Fe 
HETATM   11  O   UNL    20      -9.872   8.370  69.238  1.00  0.00    -0.178 OA 
HETATM   12  C   UNL    20      -8.562   8.861  69.147  1.00  0.00    -0.134 C  
HETATM   13  H   UNL    20     -10.136   8.064  70.098  1.00  0.00     0.000 HD 
ENDROOT
BRANCH  12  14
HETATM   14  C   UNL    20      -8.132   9.359  67.747  1.00  0.00    -0.107 C  
HETATM   15  O   UNL    20      -9.079  10.255  67.220  1.00  0.00    -0.138 OA 
HETATM   16  C   UNL    20      -8.454  10.966  66.182  1.00  0.00    -0.171 C  
HETATM   17  C   UNL    20      -6.729   9.985  67.594  1.00  0.00    -0.075 C  
HETATM   18  H   UNL    20      -4.946   9.423  67.036  1.00  0.00     0.000 HD 
HETATM   19  C   UNL    20      -6.938  11.113  66.556  1.00  0.00    -0.126 C  
HETATM   20  H   UNL    20      -5.685  12.437  67.355  1.00  0.00     0.000 HD 
HETATM   21  O   UNL    20      -5.809   9.037  67.130  1.00  0.00    -0.045 OA 
HETATM   22  O   UNL    20      -6.603  12.347  67.128  1.00  0.00    -0.154 OA 
BRANCH  16  23
HETATM   23  O   UNL    20      -9.204  12.154  65.852  1.00  0.00    -0.182 OA 
BRANCH  23  24
HETATM   24  C   UNL    20      -9.984  12.858  66.847  1.00  0.00    -0.238 C  
HETATM   25  O   UNL    20      -9.486  14.177  66.968  1.00  0.00    -0.232 OA 
HETATM   26  C   UNL    20      -9.761  14.990  65.831  1.00  0.00    -0.342 C  
HETATM   27  H   UNL    20     -13.069  11.783  66.734  1.00  0.00     0.000 HD 
HETATM   28  C   UNL    20     -11.287  15.114  65.550  1.00  0.00    -0.274 C  
HETATM   29  O   UNL    20     -11.554  15.918  64.427  1.00  0.00    -0.621 OA 
HETATM   30  C   UNL    20     -11.907  13.731  65.406  1.00  0.00    -0.358 C  
HETATM   31  O   UNL    20     -12.126  11.720  66.830  1.00  0.00    -0.566 OA 
HETATM   32  H   UNL    20     -12.486  15.994  64.256  1.00  0.00     0.000 HD 
HETATM   33  O   UNL    20     -13.298  13.849  65.300  1.00  0.00    -0.732 OA 
HETATM   34  C   UNL    20     -11.521  12.961  66.690  1.00  0.00    -0.343 C  
HETATM   35  H   UNL    20     -13.685  12.986  65.211  1.00  0.00     0.000 HD 
BRANCH  26  36
HETATM   36  C   UNL    20      -9.220  16.410  66.131  1.00  0.00    -0.330 C  
HETATM   37  O   UNL    20     -10.099  17.374  65.630  1.00  0.00    -0.566 OA 
HETATM   38  H   UNL    20      -9.767  18.246  65.815  1.00  0.00     0.000 HD 
ENDBRANCH  26  36
ENDBRANCH  23  24
ENDBRANCH  16  23
BRANCH  16  39
HETATM   39  C   UNL    20      -8.503  10.059  64.913  1.00  0.00    -0.166 C  
HETATM   40  O   UNL    20      -9.658   9.264  64.914  1.00  0.00    -0.447 OA 
HETATM   41  H   UNL    20      -9.688   8.713  64.141  1.00  0.00     0.000 HD 
ENDBRANCH  16  39
ENDBRANCH  12  14
TORSDOF 5
ENDMDL
MODEL       40
REMARK 921   NORMALIZED FREE ENERGY PREDICTED BY IDOCK:   -6.17 KCAL/MOL
REMARK 922        TOTAL FREE ENERGY PREDICTED BY IDOCK:   -9.56 KCAL/MOL
REMARK 923 INTER-LIGAND FREE ENERGY PREDICTED BY IDOCK:   -8.29 KCAL/MOL
REMARK 924 INTRA-LIGAND FREE ENERGY PREDICTED BY IDOCK:   -1.26 KCAL/MOL
REMARK 927      BINDING AFFINITY PREDICTED BY RF-SCORE:    0.00 PKD
ROOT
HETATM    1  O   HOH     4     -11.074  17.608  68.317  1.00  0.00    -0.173 OA 
HETATM    2  H2  HOH     4     -10.900  17.112  67.525  1.00  0.00     0.000 HD 
HETATM    3 NA   UNL    13     -12.931  12.101  64.296  1.00  0.00    -0.413 Na 
HETATM    4  H1  HOH     4     -11.783  17.144  68.746  1.00  0.00     0.000 HD 
HETATM    5 NA   UNL    14     -10.630  17.354  65.326  1.00  0.00    -0.328 Na 
HETATM    6 FE   UNL    15     -12.151  15.352  63.431  1.00  0.00    -0.812 Fe 
HETATM    7 FE   UNL    16     -11.385  14.927  68.078  1.00  0.00    -0.244 Fe 
HETATM    8 FE   UNL    17      -8.815  15.875  65.155  1.00  0.00    -0.159 Fe 
HETATM    9 FE   UNL    18      -9.682  15.277  69.374  1.00  0.00    -0.172 Fe 
HETATM   10 FE   UNL    19      -6.671  12.812  66.230  1.00  0.00    -0.321 Fe 
HETATM   11  O   UNL    20      -9.173  13.743  67.157  1.00  0.00    -0.223 OA 
HETATM   12  C   UNL    20      -9.747  12.784  68.006  1.00  0.00    -0.220 C  
HETATM   13  H   UNL    20      -9.553  14.613  67.206  1.00  0.00     0.000 HD 
ENDROOT
BRANCH  12  14
HETATM   14  C   UNL    20      -9.129  11.369  67.928  1.00  0.00    -0.164 C  
HETATM   15  O   UNL    20      -9.342  10.661  69.124  1.00  0.00    -0.196 OA 
HETATM   16  C   UNL    20      -9.139   9.299  68.848  1.00  0.00    -0.139 C  
HETATM   17  C   UNL    20      -9.532  10.461  66.745  1.00  0.00    -0.166 C  
HETATM   18  H   UNL    20      -8.828   9.971  64.993  1.00  0.00     0.000 HD 
HETATM   19  C   UNL    20      -9.583   9.046  67.366  1.00  0.00    -0.152 C  
HETATM   20  H   UNL    20     -11.143   8.366  66.335  1.00  0.00     0.000 HD 
HETATM   21  O   UNL    20      -8.581  10.529  65.720  1.00  0.00    -0.160 OA 
HETATM   22  O   UNL    20     -10.875   8.519  67.232  1.00  0.00    -0.216 OA 
BRANCH  16  23
HETATM   23  O   UNL    20      -9.707   8.477  69.890  1.00  0.00    -0.176 OA 
BRANCH  23  24
HETATM   24  C   UNL    20      -9.868   8.971  71.241  1.00  0.00    -0.306 C  
HETATM   25  O   UNL    20     -11.238   9.250  71.465  1.00  0.00    -0.337 OA 
HETATM   26  C   UNL    20     -12.047   8.080  71.540  1.00  0.00    -0.298 C  
HETATM   27  H   UNL    20      -7.686   7.498  73.178  1.00  0.00     0.000 HD 
HETATM   28  C   UNL    20     -11.595   7.123  72.683  1.00  0.00    -0.188 C  
HETATM   29  O   UNL    20     -12.397   5.971  72.755  1.00  0.00    -0.524 OA 
HETATM   30  C   UNL    20     -10.124   6.771  72.519  1.00  0.00    -0.172 C  
HETATM   31  O   UNL    20      -7.989   8.020  72.444  1.00  0.00    -0.108 OA 
HETATM   32  H   UNL    20     -12.122   5.388  73.452  1.00  0.00     0.000 HD 
HETATM   33  O   UNL    20      -9.692   6.032  73.627  1.00  0.00    -0.151 OA 
HETATM   34  C   UNL    20      -9.374   8.120  72.437  1.00  0.00    -0.240 C  
HETATM   35  H   UNL    20      -8.774   5.812  73.525  1.00  0.00     0.000 HD 
BRANCH  26  36
HETATM   36  C   UNL    20     -13.495   8.534  71.851  1.00  0.00    -0.383 C  
HETATM   37  O   UNL    20     -13.627   8.820  73.212  1.00  0.00    -0.983 OA 
HETATM   38  H   UNL    20     -14.515   9.099  73.403  1.00  0.00     0.000 HD 
ENDBRANCH  26  36
ENDBRANCH  23  24
ENDBRANCH  16  23
BRANCH  16  39
HETATM   39  C   UNL    20      -7.600   9.047  68.892  1.00  0.00    -0.083 C  
HETATM   40  O   UNL    20      -7.166   8.413  67.719  1.00  0.00    -0.085 OA 
HETATM   41  H   UNL    20      -6.229   8.260  67.746  1.00  0.00     0.000 HD 
ENDBRANCH  16  39
ENDBRANCH  12  14
TORSDOF 5
ENDMDL
MODEL       41
REMARK 921   NORMALIZED FREE ENERGY PREDICTED BY IDOCK:   -6.15 KCAL/MOL
REMARK 922        TOTAL FREE ENERGY PREDICTED BY IDOCK:   -9.54 KCAL/MOL
REMARK 923 INTER-LIGAND FREE ENERGY PREDICTED BY IDOCK:   -8.17 KCAL/MOL
REMARK 924 INTRA-LIGAND FREE ENERGY PREDICTED BY IDOCK:   -1.36 KCAL/MOL
REMARK 927      BINDING AFFINITY PREDICTED BY RF-SCORE:    0.00 PKD
ROOT
HETATM    1  O   HOH     4     -11.389  16.818  63.958  1.00  0.00    -1.471 OA 
HETATM    2  H2  HOH     4     -11.491  15.874  63.997  1.00  0.00     0.000 HD 
HETATM    3 NA   UNL    13     -13.150  11.251  67.939  1.00  0.00     0.647 Na 
HETATM    4  H1  HOH     4     -11.592  17.124  64.834  1.00  0.00     0.000 HD 
HETATM    5 NA   UNL    14     -12.463  14.169  62.942  1.00  0.00    -0.795 Na 
HETATM    6 FE   UNL    15     -14.001  12.046  64.688  1.00  0.00    -0.564 Fe 
HETATM    7 FE   UNL    16     -10.902  15.305  66.153  1.00  0.00    -0.280 Fe 
HETATM    8 FE   UNL    17     -10.622  12.721  63.104  1.00  0.00    -0.394 Fe 
HETATM    9 FE   UNL    18      -8.994  16.025  65.416  1.00  0.00    -0.274 Fe 
HETATM   10 FE   UNL    19      -7.381  11.336  64.752  1.00  0.00    -0.346 Fe 
HETATM   11  O   UNL    20      -9.216  13.299  65.629  1.00  0.00    -0.437 OA 
HETATM   12  C   UNL    20      -8.941  13.639  66.962  1.00  0.00    -0.236 C  
HETATM   13  H   UNL    20      -9.774  13.907  65.158  1.00  0.00     0.000 HD 
ENDROOT
BRANCH  12  14
HETATM   14  C   UNL    20      -8.033  12.649  67.728  1.00  0.00    -0.158 C  
HETATM   15  O   UNL    20      -8.751  11.502  68.112  1.00  0.00    -0.144 OA 
HETATM   16  C   UNL    20      -7.814  10.501  68.417  1.00  0.00    -0.110 C  
HETATM   17  C   UNL    20      -6.716  12.199  67.059  1.00  0.00    -0.071 C  
HETATM   18  H   UNL    20      -4.828  12.689  67.108  1.00  0.00     0.000 HD 
HETATM   19  C   UNL    20      -6.570  10.720  67.487  1.00  0.00    -0.059 C  
HETATM   20  H   UNL    20      -5.796  10.034  65.787  1.00  0.00     0.000 HD 
HETATM   21  O   UNL    20      -5.638  12.966  67.519  1.00  0.00    -0.192 OA 
HETATM   22  O   UNL    20      -6.549   9.902  66.350  1.00  0.00    -0.070 OA 
BRANCH  16  23
HETATM   23  O   UNL    20      -8.442   9.202  68.437  1.00  0.00    -0.126 OA 
BRANCH  23  24
HETATM   24  C   UNL    20      -9.835   9.029  68.086  1.00  0.00    -0.166 C  
HETATM   25  O   UNL    20      -9.944   7.968  67.155  1.00  0.00    -0.187 OA 
HETATM   26  C   UNL    20      -9.680   6.690  67.725  1.00  0.00    -0.123 C  
HETATM   27  H   UNL    20     -11.682   9.728  70.691  1.00  0.00     0.000 HD 
HETATM   28  C   UNL    20     -10.650   6.354  68.895  1.00  0.00    -0.252 C  
HETATM   29  O   UNL    20     -10.388   5.091  69.454  1.00  0.00    -0.226 OA 
HETATM   30  C   UNL    20     -10.598   7.452  69.948  1.00  0.00    -0.236 C  
HETATM   31  O   UNL    20     -11.039   9.886  70.010  1.00  0.00    -0.251 OA 
HETATM   32  H   UNL    20     -10.980   4.886  70.168  1.00  0.00     0.000 HD 
HETATM   33  O   UNL    20     -11.576   7.216  70.921  1.00  0.00    -0.286 OA 
HETATM   34  C   UNL    20     -10.884   8.772  69.196  1.00  0.00    -0.053 C  
HETATM   35  H   UNL    20     -11.544   7.901  71.579  1.00  0.00     0.000 HD 
BRANCH  26  36
HETATM   36  C   UNL    20      -9.898   5.631  66.614  1.00  0.00    -0.167 C  
HETATM   37  O   UNL    20     -11.236   5.629  66.210  1.00  0.00    -0.759 OA 
HETATM   38  H   UNL    20     -11.370   4.980  65.529  1.00  0.00     0.000 HD 
ENDBRANCH  26  36
ENDBRANCH  23  24
ENDBRANCH  16  23
BRANCH  16  39
HETATM   39  C   UNL    20      -7.321  10.764  69.873  1.00  0.00     0.005 C  
HETATM   40  O   UNL    20      -7.889   9.843  70.765  1.00  0.00    -0.391 OA 
HETATM   41  H   UNL    20      -7.588  10.003  71.651  1.00  0.00     0.000 HD 
ENDBRANCH  16  39
ENDBRANCH  12  14
TORSDOF 5
ENDMDL
MODEL       42
REMARK 921   NORMALIZED FREE ENERGY PREDICTED BY IDOCK:   -6.15 KCAL/MOL
REMARK 922        TOTAL FREE ENERGY PREDICTED BY IDOCK:   -9.53 KCAL/MOL
REMARK 923 INTER-LIGAND FREE ENERGY PREDICTED BY IDOCK:   -8.36 KCAL/MOL
REMARK 924 INTRA-LIGAND FREE ENERGY PREDICTED BY IDOCK:   -1.16 KCAL/MOL
REMARK 927      BINDING AFFINITY PREDICTED BY RF-SCORE:    0.00 PKD
ROOT
HETATM    1  O   HOH     4      -5.871  17.269  70.567  1.00  0.00    -0.141 OA 
HETATM    2  H2  HOH     4      -6.117  17.170  69.655  1.00  0.00     0.000 HD 
HETATM    3 NA   UNL    13     -11.176  16.759  65.926  1.00  0.00    -0.249 Na 
HETATM    4  H1  HOH     4      -6.693  17.285  71.043  1.00  0.00     0.000 HD 
HETATM    5 NA   UNL    14      -5.752  18.035  67.634  1.00  0.00    -0.130 Na 
HETATM    6 FE   UNL    15      -8.253  18.595  65.804  1.00  0.00    -0.269 Fe 
HETATM    7 FE   UNL    16      -8.055  15.921  69.699  1.00  0.00    -0.192 Fe 
HETATM    8 FE   UNL    17      -5.613  15.971  66.524  1.00  0.00    -0.056 Fe 
HETATM    9 FE   UNL    18      -6.646  14.463  70.470  1.00  0.00    -0.142 Fe 
HETATM   10 FE   UNL    19      -6.419  12.199  66.014  1.00  0.00    -0.359 Fe 
HETATM   11  O   UNL    20      -7.428  14.078  67.868  1.00  0.00    -0.116 OA 
HETATM   12  C   UNL    20      -8.524  13.526  68.549  1.00  0.00    -0.092 C  
HETATM   13  H   UNL    20      -7.045  14.851  68.267  1.00  0.00     0.000 HD 
ENDROOT
BRANCH  12  14
HETATM   14  C   UNL    20      -9.147  12.269  67.900  1.00  0.00    -0.190 C  
HETATM   15  O   UNL    20      -9.199  11.204  68.817  1.00  0.00    -0.180 OA 
HETATM   16  C   UNL    20     -10.121  10.266  68.321  1.00  0.00    -0.154 C  
HETATM   17  C   UNL    20     -10.532  12.404  67.230  1.00  0.00    -0.222 C  
HETATM   18  H   UNL    20     -11.251  12.679  65.438  1.00  0.00     0.000 HD 
HETATM   19  C   UNL    20     -11.227  11.058  67.543  1.00  0.00    -0.302 C  
HETATM   20  H   UNL    20     -13.066  11.771  67.808  1.00  0.00     0.000 HD 
HETATM   21  O   UNL    20     -10.400  12.596  65.850  1.00  0.00    -0.265 OA 
HETATM   22  O   UNL    20     -12.396  11.292  68.280  1.00  0.00    -0.542 OA 
BRANCH  16  23
HETATM   23  O   UNL    20     -10.527   9.351  69.361  1.00  0.00    -0.206 OA 
BRANCH  23  24
HETATM   24  C   UNL    20     -10.549   9.746  70.752  1.00  0.00    -0.301 C  
HETATM   25  O   UNL    20     -11.895   9.831  71.182  1.00  0.00    -0.322 OA 
HETATM   26  C   UNL    20     -12.536   8.563  71.283  1.00  0.00    -0.249 C  
HETATM   27  H   UNL    20      -7.945   8.470  72.261  1.00  0.00     0.000 HD 
HETATM   28  C   UNL    20     -11.810   7.614  72.282  1.00  0.00    -0.308 C  
HETATM   29  O   UNL    20     -12.446   6.365  72.380  1.00  0.00    -0.543 OA 
HETATM   30  C   UNL    20     -10.346   7.467  71.893  1.00  0.00    -0.192 C  
HETATM   31  O   UNL    20      -8.413   8.986  71.615  1.00  0.00    -0.339 OA 
HETATM   32  H   UNL    20     -12.004   5.786  72.990  1.00  0.00     0.000 HD 
HETATM   33  O   UNL    20      -9.671   6.732  72.875  1.00  0.00    -0.151 OA 
HETATM   34  C   UNL    20      -9.786   8.904  71.805  1.00  0.00    -0.295 C  
HETATM   35  H   UNL    20      -8.758   6.640  72.632  1.00  0.00     0.000 HD 
BRANCH  26  36
HETATM   36  C   UNL    20     -13.968   8.807  71.821  1.00  0.00    -0.418 C  
HETATM   37  O   UNL    20     -13.974   8.744  73.218  1.00  0.00    -1.160 OA 
HETATM   38  H   UNL    20     -14.852   8.894  73.548  1.00  0.00     0.000 HD 
ENDBRANCH  26  36
ENDBRANCH  23  24
ENDBRANCH  16  23
BRANCH  16  39
HETATM   39  C   UNL    20      -9.371   9.405  67.258  1.00  0.00    -0.131 C  
HETATM   40  O   UNL    20      -9.701   8.050  67.393  1.00  0.00    -0.148 OA 
HETATM   41  H   UNL    20      -9.244   7.526  66.745  1.00  0.00     0.000 HD 
ENDBRANCH  16  39
ENDBRANCH  12  14
TORSDOF 5
ENDMDL
MODEL       43
REMARK 921   NORMALIZED FREE ENERGY PREDICTED BY IDOCK:   -6.13 KCAL/MOL
REMARK 922        TOTAL FREE ENERGY PREDICTED BY IDOCK:   -9.51 KCAL/MOL
REMARK 923 INTER-LIGAND FREE ENERGY PREDICTED BY IDOCK:   -8.26 KCAL/MOL
REMARK 924 INTRA-LIGAND FREE ENERGY PREDICTED BY IDOCK:   -1.25 KCAL/MOL
REMARK 927      BINDING AFFINITY PREDICTED BY RF-SCORE:    0.00 PKD
ROOT
HETATM    1  O   HOH     4      -7.808   5.494  73.437  1.00  0.00    -0.105 OA 
HETATM    2  H2  HOH     4      -8.505   6.028  73.072  1.00  0.00     0.000 HD 
HETATM    3 NA   UNL    13     -12.364   6.379  68.107  1.00  0.00    -0.456 Na 
HETATM    4  H1  HOH     4      -7.661   4.810  72.795  1.00  0.00     0.000 HD 
HETATM    5 NA   UNL    14     -10.470   6.943  73.589  1.00  0.00    -0.186 Na 
HETATM    6 FE   UNL    15     -12.824   6.633  71.520  1.00  0.00    -0.301 Fe 
HETATM    7 FE   UNL    16      -8.209   5.903  70.788  1.00  0.00    -0.100 Fe 
HETATM    8 FE   UNL    17     -10.045   9.001  72.543  1.00  0.00    -0.270 Fe 
HETATM    9 FE   UNL    18      -6.398   6.956  71.348  1.00  0.00    -0.036 Fe 
HETATM   10 FE   UNL    19      -8.378  11.314  69.894  1.00  0.00    -0.356 Fe 
HETATM   11  O   UNL    20      -8.344   8.504  70.188  1.00  0.00    -0.115 OA 
HETATM   12  C   UNL    20      -7.769   7.918  69.050  1.00  0.00    -0.101 C  
HETATM   13  H   UNL    20      -8.406   7.940  70.951  1.00  0.00     0.000 HD 
ENDROOT
BRANCH  12  14
HETATM   14  C   UNL    20      -7.667   8.834  67.808  1.00  0.00    -0.102 C  
HETATM   15  O   UNL    20      -8.880   9.509  67.580  1.00  0.00    -0.119 OA 
HETATM   16  C   UNL    20      -8.605  10.595  66.733  1.00  0.00    -0.129 C  
HETATM   17  C   UNL    20      -6.518   9.865  67.755  1.00  0.00    -0.063 C  
HETATM   18  H   UNL    20      -4.732  10.001  66.982  1.00  0.00     0.000 HD 
HETATM   19  C   UNL    20      -7.153  11.091  67.058  1.00  0.00    -0.118 C  
HETATM   20  H   UNL    20      -6.221  12.499  68.111  1.00  0.00     0.000 HD 
HETATM   21  O   UNL    20      -5.438   9.367  67.015  1.00  0.00    -0.039 OA 
HETATM   22  O   UNL    20      -7.100  12.199  67.914  1.00  0.00    -0.084 OA 
BRANCH  16  23
HETATM   23  O   UNL    20      -9.685  11.552  66.762  1.00  0.00    -0.194 OA 
BRANCH  23  24
HETATM   24  C   UNL    20      -9.535  12.882  66.213  1.00  0.00    -0.200 C  
HETATM   25  O   UNL    20     -10.096  12.907  64.914  1.00  0.00    -0.272 OA 
HETATM   26  C   UNL    20     -11.517  12.807  64.912  1.00  0.00    -0.320 C  
HETATM   27  H   UNL    20      -9.764  15.063  68.637  1.00  0.00     0.000 HD 
HETATM   28  C   UNL    20     -12.190  13.963  65.709  1.00  0.00    -0.460 C  
HETATM   29  O   UNL    20     -13.592  13.861  65.704  1.00  0.00    -0.593 OA 
HETATM   30  C   UNL    20     -11.640  14.009  67.127  1.00  0.00    -0.372 C  
HETATM   31  O   UNL    20      -9.415  14.315  68.167  1.00  0.00    -0.192 OA 
HETATM   32  H   UNL    20     -14.003  14.567  66.190  1.00  0.00     0.000 HD 
HETATM   33  O   UNL    20     -12.141  15.137  67.788  1.00  0.00    -0.456 OA 
HETATM   34  C   UNL    20     -10.104  14.101  66.981  1.00  0.00    -0.261 C  
HETATM   35  H   UNL    20     -11.797  15.167  68.673  1.00  0.00     0.000 HD 
BRANCH  26  36
HETATM   36  C   UNL    20     -11.989  12.913  63.440  1.00  0.00    -0.537 C  
HETATM   37  O   UNL    20     -12.427  14.212  63.169  1.00  0.00    -1.126 OA 
HETATM   38  H   UNL    20     -12.717  14.277  62.266  1.00  0.00     0.000 HD 
ENDBRANCH  26  36
ENDBRANCH  23  24
ENDBRANCH  16  23
BRANCH  16  39
HETATM   39  C   UNL    20      -8.560  10.040  65.276  1.00  0.00    -0.154 C  
HETATM   40  O   UNL    20      -9.775   9.427  64.940  1.00  0.00    -0.443 OA 
HETATM   41  H   UNL    20      -9.748   9.089  64.053  1.00  0.00     0.000 HD 
ENDBRANCH  16  39
ENDBRANCH  12  14
TORSDOF 5
ENDMDL
MODEL       44
REMARK 921   NORMALIZED FREE ENERGY PREDICTED BY IDOCK:   -6.13 KCAL/MOL
REMARK 922        TOTAL FREE ENERGY PREDICTED BY IDOCK:   -9.50 KCAL/MOL
REMARK 923 INTER-LIGAND FREE ENERGY PREDICTED BY IDOCK:   -7.81 KCAL/MOL
REMARK 924 INTRA-LIGAND FREE ENERGY PREDICTED BY IDOCK:   -1.69 KCAL/MOL
REMARK 927      BINDING AFFINITY PREDICTED BY RF-SCORE:    0.00 PKD
ROOT
HETATM    1  O   HOH     4      -7.714   4.244  72.412  1.00  0.00    -0.081 OA 
HETATM    2  H2  HOH     4      -8.192   5.064  72.465  1.00  0.00     0.000 HD 
HETATM    3 NA   UNL    13     -13.457   7.845  70.414  1.00  0.00    -0.513 Na 
HETATM    4  H1  HOH     4      -8.225   3.699  71.826  1.00  0.00     0.000 HD 
HETATM    5 NA   UNL    14      -9.001   6.533  73.932  1.00  0.00    -0.123 Na 
HETATM    6 FE   UNL    15     -11.946   7.563  73.506  1.00  0.00    -0.566 Fe 
HETATM    7 FE   UNL    16      -9.192   5.297  70.401  1.00  0.00    -0.121 Fe 
HETATM    8 FE   UNL    17      -8.339   8.440  72.734  1.00  0.00    -0.113 Fe 
HETATM    9 FE   UNL    18      -7.105   5.447  69.830  1.00  0.00    -0.047 Fe 
HETATM   10 FE   UNL    19      -7.462  10.427  69.505  1.00  0.00    -0.064 Fe 
HETATM   11  O   UNL    20      -8.488   7.817  69.857  1.00  0.00    -0.129 OA 
HETATM   12  C   UNL    20      -8.892   7.299  68.617  1.00  0.00    -0.129 C  
HETATM   13  H   UNL    20      -8.385   7.179  70.554  1.00  0.00     0.000 HD 
ENDROOT
BRANCH  12  14
HETATM   14  C   UNL    20      -9.058   8.336  67.483  1.00  0.00    -0.137 C  
HETATM   15  O   UNL    20      -9.903   9.388  67.884  1.00  0.00    -0.154 OA 
HETATM   16  C   UNL    20      -9.685  10.461  67.005  1.00  0.00    -0.178 C  
HETATM   17  C   UNL    20      -7.784   8.946  66.858  1.00  0.00    -0.098 C  
HETATM   18  H   UNL    20      -6.651   8.644  65.299  1.00  0.00     0.000 HD 
HETATM   19  C   UNL    20      -8.182  10.411  66.561  1.00  0.00    -0.131 C  
HETATM   20  H   UNL    20      -6.431  11.249  67.002  1.00  0.00     0.000 HD 
HETATM   21  O   UNL    20      -7.435   8.269  65.683  1.00  0.00    -0.077 OA 
HETATM   22  O   UNL    20      -7.342  11.279  67.270  1.00  0.00    -0.107 OA 
BRANCH  16  23
HETATM   23  O   UNL    20     -10.201  11.689  67.560  1.00  0.00    -0.191 OA 
BRANCH  23  24
HETATM   24  C   UNL    20     -11.619  11.979  67.569  1.00  0.00    -0.330 C  
HETATM   25  O   UNL    20     -12.214  11.317  68.671  1.00  0.00    -0.562 OA 
HETATM   26  C   UNL    20     -11.847  11.876  69.929  1.00  0.00    -0.343 C  
HETATM   27  H   UNL    20     -12.090  15.011  66.443  1.00  0.00     0.000 HD 
HETATM   28  C   UNL    20     -12.244  13.377  70.045  1.00  0.00    -0.298 C  
HETATM   29  O   UNL    20     -11.882  13.924  71.289  1.00  0.00    -0.449 OA 
HETATM   30  C   UNL    20     -11.643  14.167  68.891  1.00  0.00    -0.310 C  
HETATM   31  O   UNL    20     -11.792  14.109  66.422  1.00  0.00    -0.386 OA 
HETATM   32  H   UNL    20     -12.124  14.840  71.360  1.00  0.00     0.000 HD 
HETATM   33  O   UNL    20     -12.123  15.482  68.923  1.00  0.00    -0.555 OA 
HETATM   34  C   UNL    20     -12.105  13.449  67.603  1.00  0.00    -0.269 C  
HETATM   35  H   UNL    20     -11.748  15.975  68.203  1.00  0.00     0.000 HD 
BRANCH  26  36
HETATM   36  C   UNL    20     -12.618  11.099  71.026  1.00  0.00    -0.403 C  
HETATM   37  O   UNL    20     -13.392  10.090  70.445  1.00  0.00    -0.595 OA 
HETATM   38  H   UNL    20     -13.864   9.613  71.117  1.00  0.00     0.000 HD 
ENDBRANCH  26  36
ENDBRANCH  23  24
ENDBRANCH  16  23
BRANCH  16  39
HETATM   39  C   UNL    20     -10.527  10.181  65.722  1.00  0.00    -0.057 C  
HETATM   40  O   UNL    20      -9.703  10.112  64.590  1.00  0.00    -0.297 OA 
HETATM   41  H   UNL    20     -10.217   9.941  63.809  1.00  0.00     0.000 HD 
ENDBRANCH  16  39
ENDBRANCH  12  14
TORSDOF 5
ENDMDL
MODEL       45
REMARK 921   NORMALIZED FREE ENERGY PREDICTED BY IDOCK:   -6.13 KCAL/MOL
REMARK 922        TOTAL FREE ENERGY PREDICTED BY IDOCK:   -9.50 KCAL/MOL
REMARK 923 INTER-LIGAND FREE ENERGY PREDICTED BY IDOCK:   -8.98 KCAL/MOL
REMARK 924 INTRA-LIGAND FREE ENERGY PREDICTED BY IDOCK:   -0.53 KCAL/MOL
REMARK 927      BINDING AFFINITY PREDICTED BY RF-SCORE:    0.00 PKD
ROOT
HETATM    1  O   HOH     4      -9.719  21.089  67.017  1.00  0.00    -0.671 OA 
HETATM    2  H2  HOH     4      -9.578  20.280  67.497  1.00  0.00     0.000 HD 
HETATM    3 NA   UNL    13      -6.091  15.036  67.407  1.00  0.00    -0.121 Na 
HETATM    4  H1  HOH     4      -9.134  21.036  66.270  1.00  0.00     0.000 HD 
HETATM    5 NA   UNL    14      -9.164  19.502  69.543  1.00  0.00    -0.334 Na 
HETATM    6 FE   UNL    15      -6.911  17.325  69.859  1.00  0.00    -0.238 Fe 
HETATM    7 FE   UNL    16      -9.054  18.720  65.881  1.00  0.00    -0.293 Fe 
HETATM    8 FE   UNL    17     -10.658  17.696  69.406  1.00  0.00    -0.310 Fe 
HETATM    9 FE   UNL    18     -11.107  19.157  65.335  1.00  0.00    -0.436 Fe 
HETATM   10 FE   UNL    19     -12.680  14.948  67.535  1.00  0.00    -0.561 Fe 
HETATM   11  O   UNL    20     -10.717  16.760  66.612  1.00  0.00    -0.236 OA 
HETATM   12  C   UNL    20     -10.338  16.419  65.305  1.00  0.00    -0.181 C  
HETATM   13  H   UNL    20     -10.470  17.633  66.895  1.00  0.00     0.000 HD 
ENDROOT
BRANCH  12  14
HETATM   14  C   UNL    20     -10.740  14.999  64.845  1.00  0.00    -0.397 C  
HETATM   15  O   UNL    20      -9.732  14.067  65.151  1.00  0.00    -0.173 OA 
HETATM   16  C   UNL    20     -10.309  12.788  65.095  1.00  0.00    -0.295 C  
HETATM   17  C   UNL    20     -12.093  14.430  65.327  1.00  0.00    -0.380 C  
HETATM   18  H   UNL    20     -13.917  14.272  64.655  1.00  0.00     0.000 HD 
HETATM   19  C   UNL    20     -11.806  12.925  65.541  1.00  0.00    -0.411 C  
HETATM   20  H   UNL    20     -12.948  12.671  67.151  1.00  0.00     0.000 HD 
HETATM   21  O   UNL    20     -13.085  14.622  64.358  1.00  0.00    -0.281 OA 
HETATM   22  O   UNL    20     -12.041  12.588  66.880  1.00  0.00    -0.537 OA 
BRANCH  16  23
HETATM   23  O   UNL    20      -9.473  11.820  65.764  1.00  0.00    -0.234 OA 
BRANCH  23  24
HETATM   24  C   UNL    20      -9.554  10.409  65.458  1.00  0.00    -0.234 C  
HETATM   25  O   UNL    20      -8.464  10.058  64.626  1.00  0.00    -0.154 OA 
HETATM   26  C   UNL    20      -7.209  10.085  65.299  1.00  0.00    -0.137 C  
HETATM   27  H   UNL    20     -10.817   8.835  68.030  1.00  0.00     0.000 HD 
HETATM   28  C   UNL    20      -7.171   9.112  66.514  1.00  0.00    -0.085 C  
HETATM   29  O   UNL    20      -5.930   9.141  67.175  1.00  0.00    -0.048 OA 
HETATM   30  C   UNL    20      -8.318   9.420  67.466  1.00  0.00    -0.122 C  
HETATM   31  O   UNL    20     -10.788   9.471  67.324  1.00  0.00    -0.251 OA 
HETATM   32  H   UNL    20      -5.907   8.547  67.916  1.00  0.00     0.000 HD 
HETATM   33  O   UNL    20      -8.362   8.452  68.476  1.00  0.00    -0.128 OA 
HETATM   34  C   UNL    20      -9.602   9.372  66.608  1.00  0.00    -0.192 C  
HETATM   35  H   UNL    20      -9.078   8.644  69.070  1.00  0.00     0.000 HD 
BRANCH  26  36
HETATM   36  C   UNL    20      -6.129   9.621  64.290  1.00  0.00    -0.097 C  
HETATM   37  O   UNL    20      -5.593  10.724  63.619  1.00  0.00    -0.318 OA 
HETATM   38  H   UNL    20      -4.931  10.439  63.000  1.00  0.00     0.000 HD 
ENDBRANCH  26  36
ENDBRANCH  23  24
ENDBRANCH  16  23
BRANCH  16  39
HETATM   39  C   UNL    20     -10.339  12.365  63.593  1.00  0.00    -0.403 C  
HETATM   40  O   UNL    20     -11.481  11.601  63.314  1.00  0.00    -0.718 OA 
HETATM   41  H   UNL    20     -11.499  11.344  62.400  1.00  0.00     0.000 HD 
ENDBRANCH  16  39
ENDBRANCH  12  14
TORSDOF 5
ENDMDL
MODEL       46
REMARK 921   NORMALIZED FREE ENERGY PREDICTED BY IDOCK:   -6.11 KCAL/MOL
REMARK 922        TOTAL FREE ENERGY PREDICTED BY IDOCK:   -9.48 KCAL/MOL
REMARK 923 INTER-LIGAND FREE ENERGY PREDICTED BY IDOCK:   -8.25 KCAL/MOL
REMARK 924 INTRA-LIGAND FREE ENERGY PREDICTED BY IDOCK:   -1.23 KCAL/MOL
REMARK 927      BINDING AFFINITY PREDICTED BY RF-SCORE:    0.00 PKD
ROOT
HETATM    1  O   HOH     4      -6.354   4.551  66.879  1.00  0.00    -0.035 OA 
HETATM    2  H2  HOH     4      -6.806   5.184  66.333  1.00  0.00     0.000 HD 
HETATM    3 NA   UNL    13      -6.389  11.129  64.296  1.00  0.00    -0.343 Na 
HETATM    4  H1  HOH     4      -5.608   5.020  67.233  1.00  0.00     0.000 HD 
HETATM    5 NA   UNL    14      -7.675   5.445  64.298  1.00  0.00    -0.060 Na 
HETATM    6 FE   UNL    15      -7.011   8.105  62.748  1.00  0.00    -0.078 Fe 
HETATM    7 FE   UNL    16      -6.433   7.217  67.357  1.00  0.00    -0.039 Fe 
HETATM    8 FE   UNL    17      -9.618   6.548  65.020  1.00  0.00    -0.369 Fe 
HETATM    9 FE   UNL    18      -7.633   6.241  68.877  1.00  0.00    -0.074 Fe 
HETATM   10 FE   UNL    19     -11.691   8.787  67.435  1.00  0.00    -0.423 Fe 
HETATM   11  O   UNL    20      -8.938   8.149  67.399  1.00  0.00    -0.135 OA 
HETATM   12  C   UNL    20      -8.255   8.959  68.318  1.00  0.00    -0.121 C  
HETATM   13  H   UNL    20      -8.464   7.383  67.098  1.00  0.00     0.000 HD 
ENDROOT
BRANCH  12  14
HETATM   14  C   UNL    20      -9.026  10.206  68.810  1.00  0.00    -0.147 C  
HETATM   15  O   UNL    20      -9.317  11.071  67.740  1.00  0.00    -0.154 OA 
HETATM   16  C   UNL    20     -10.340  11.935  68.164  1.00  0.00    -0.199 C  
HETATM   17  C   UNL    20     -10.318   9.990  69.628  1.00  0.00    -0.247 C  
HETATM   18  H   UNL    20     -10.851   9.937  71.504  1.00  0.00     0.000 HD 
HETATM   19  C   UNL    20     -11.243  11.141  69.168  1.00  0.00    -0.264 C  
HETATM   20  H   UNL    20     -12.956  10.128  69.209  1.00  0.00     0.000 HD 
HETATM   21  O   UNL    20     -10.056  10.069  71.001  1.00  0.00     0.035 OA 
HETATM   22  O   UNL    20     -12.409  10.610  68.600  1.00  0.00    -0.336 OA 
BRANCH  16  23
HETATM   23  O   UNL    20     -10.963  12.581  67.033  1.00  0.00    -0.251 OA 
BRANCH  23  24
HETATM   24  C   UNL    20     -10.182  13.113  65.938  1.00  0.00    -0.291 C  
HETATM   25  O   UNL    20      -9.594  12.037  65.231  1.00  0.00    -0.205 OA 
HETATM   26  C   UNL    20     -10.537  11.263  64.497  1.00  0.00    -0.336 C  
HETATM   27  H   UNL    20     -11.634  15.816  64.812  1.00  0.00     0.000 HD 
HETATM   28  C   UNL    20     -11.310  12.114  63.447  1.00  0.00    -0.411 C  
HETATM   29  O   UNL    20     -12.239  11.346  62.724  1.00  0.00    -0.847 OA 
HETATM   30  C   UNL    20     -11.976  13.302  64.127  1.00  0.00    -0.447 C  
HETATM   31  O   UNL    20     -11.223  15.250  65.454  1.00  0.00    -0.341 OA 
HETATM   32  H   UNL    20     -12.710  11.866  62.083  1.00  0.00     0.000 HD 
HETATM   33  O   UNL    20     -12.544  14.139  63.158  1.00  0.00    -1.058 OA 
HETATM   34  C   UNL    20     -10.851  14.037  64.891  1.00  0.00    -0.410 C  
HETATM   35  H   UNL    20     -12.960  14.880  63.582  1.00  0.00     0.000 HD 
BRANCH  26  36
HETATM   36  C   UNL    20      -9.748  10.172  63.729  1.00  0.00    -0.137 C  
HETATM   37  O   UNL    20      -9.473  10.605  62.429  1.00  0.00    -0.447 OA 
HETATM   38  H   UNL    20      -8.988   9.936  61.958  1.00  0.00     0.000 HD 
ENDBRANCH  26  36
ENDBRANCH  23  24
ENDBRANCH  16  23
BRANCH  16  39
HETATM   39  C   UNL    20      -9.664  13.073  68.990  1.00  0.00     0.342 C  
HETATM   40  O   UNL    20     -10.619  13.997  69.438  1.00  0.00    -0.420 OA 
HETATM   41  H   UNL    20     -10.208  14.689  69.941  1.00  0.00     0.000 HD 
ENDBRANCH  16  39
ENDBRANCH  12  14
TORSDOF 5
ENDMDL
MODEL       47
REMARK 921   NORMALIZED FREE ENERGY PREDICTED BY IDOCK:   -6.09 KCAL/MOL
REMARK 922        TOTAL FREE ENERGY PREDICTED BY IDOCK:   -9.46 KCAL/MOL
REMARK 923 INTER-LIGAND FREE ENERGY PREDICTED BY IDOCK:   -7.52 KCAL/MOL
REMARK 924 INTRA-LIGAND FREE ENERGY PREDICTED BY IDOCK:   -1.94 KCAL/MOL
REMARK 927      BINDING AFFINITY PREDICTED BY RF-SCORE:    0.00 PKD
ROOT
HETATM    1  O   HOH     4     -14.378   8.627  73.285  1.00  0.00    -1.043 OA 
HETATM    2  H2  HOH     4     -13.629   8.146  72.954  1.00  0.00     0.000 HD 
HETATM    3 NA   UNL    13      -7.338   8.358  72.728  1.00  0.00    -0.088 Na 
HETATM    4  H1  HOH     4     -14.012   9.404  73.691  1.00  0.00     0.000 HD 
HETATM    5 NA   UNL    14     -12.712   6.115  72.941  1.00  0.00    -0.486 Na 
HETATM    6 FE   UNL    15      -9.625   5.894  73.519  1.00  0.00    -0.135 Fe 
HETATM    7 FE   UNL    16     -12.090   9.768  72.389  1.00  0.00    -0.339 Fe 
HETATM    8 FE   UNL    17     -12.115   6.149  70.671  1.00  0.00    -0.325 Fe 
HETATM    9 FE   UNL    18     -13.651  10.208  70.949  1.00  0.00    -0.368 Fe 
HETATM   10 FE   UNL    19     -11.096   7.874  67.335  1.00  0.00    -0.277 Fe 
HETATM   11  O   UNL    20     -11.448   8.924  69.935  1.00  0.00    -0.444 OA 
HETATM   12  C   UNL    20     -10.977  10.245  69.978  1.00  0.00    -0.311 C  
HETATM   13  H   UNL    20     -12.008   8.665  70.658  1.00  0.00     0.000 HD 
ENDROOT
BRANCH  12  14
HETATM   14  C   UNL    20     -10.066  10.666  68.802  1.00  0.00    -0.191 C  
HETATM   15  O   UNL    20      -9.537   9.539  68.148  1.00  0.00    -0.137 OA 
HETATM   16  C   UNL    20      -9.080   9.960  66.888  1.00  0.00    -0.142 C  
HETATM   17  C   UNL    20     -10.644  11.622  67.736  1.00  0.00    -0.194 C  
HETATM   18  H   UNL    20     -10.635  13.535  67.351  1.00  0.00     0.000 HD 
HETATM   19  C   UNL    20     -10.011  11.128  66.414  1.00  0.00    -0.217 C  
HETATM   20  H   UNL    20     -11.586  11.444  65.239  1.00  0.00     0.000 HD 
HETATM   21  O   UNL    20     -10.279  12.947  68.007  1.00  0.00    -0.217 OA 
HETATM   22  O   UNL    20     -11.022  10.737  65.526  1.00  0.00    -0.060 OA 
BRANCH  16  23
HETATM   23  O   UNL    20      -8.888   8.829  66.012  1.00  0.00    -0.153 OA 
BRANCH  23  24
HETATM   24  C   UNL    20      -8.069   7.701  66.399  1.00  0.00    -0.113 C  
HETATM   25  O   UNL    20      -8.912   6.599  66.679  1.00  0.00    -0.132 OA 
HETATM   26  C   UNL    20      -9.534   6.056  65.518  1.00  0.00     0.287 C  
HETATM   27  H   UNL    20      -5.251   7.816  64.747  1.00  0.00     0.000 HD 
HETATM   28  C   UNL    20      -8.495   5.564  64.468  1.00  0.00    -0.094 C  
HETATM   29  O   UNL    20      -9.113   5.027  63.325  1.00  0.00    -0.323 OA 
HETATM   30  C   UNL    20      -7.541   6.694  64.109  1.00  0.00    -0.104 C  
HETATM   31  O   UNL    20      -5.934   8.126  65.329  1.00  0.00    -0.044 OA 
HETATM   32  H   UNL    20      -8.479   4.727  62.685  1.00  0.00     0.000 HD 
HETATM   33  O   UNL    20      -6.526   6.204  63.279  1.00  0.00    -0.031 OA 
HETATM   34  C   UNL    20      -6.955   7.194  65.449  1.00  0.00    -0.056 C  
HETATM   35  H   UNL    20      -5.930   6.909  63.054  1.00  0.00     0.000 HD 
BRANCH  26  36
HETATM   36  C   UNL    20     -10.367   4.828  65.967  1.00  0.00    -0.293 C  
HETATM   37  O   UNL    20     -11.303   4.498  64.984  1.00  0.00    -1.027 OA 
HETATM   38  H   UNL    20     -11.814   3.745  65.259  1.00  0.00     0.000 HD 
ENDBRANCH  26  36
ENDBRANCH  23  24
ENDBRANCH  16  23
BRANCH  16  39
HETATM   39  C   UNL    20      -7.667  10.586  67.099  1.00  0.00    -0.101 C  
HETATM   40  O   UNL    20      -7.550  11.797  66.402  1.00  0.00    -0.369 OA 
HETATM   41  H   UNL    20      -6.690  12.178  66.531  1.00  0.00     0.000 HD 
ENDBRANCH  16  39
ENDBRANCH  12  14
TORSDOF 5
ENDMDL
MODEL       48
REMARK 921   NORMALIZED FREE ENERGY PREDICTED BY IDOCK:   -6.09 KCAL/MOL
REMARK 922        TOTAL FREE ENERGY PREDICTED BY IDOCK:   -9.46 KCAL/MOL
REMARK 923 INTER-LIGAND FREE ENERGY PREDICTED BY IDOCK:   -8.79 KCAL/MOL
REMARK 924 INTRA-LIGAND FREE ENERGY PREDICTED BY IDOCK:   -0.66 KCAL/MOL
REMARK 927      BINDING AFFINITY PREDICTED BY RF-SCORE:    0.00 PKD
ROOT
HETATM    1  O   HOH     4     -10.504   3.588  65.408  1.00  0.00    -0.379 OA 
HETATM    2  H2  HOH     4     -10.184   3.751  66.288  1.00  0.00     0.000 HD 
HETATM    3 NA   UNL    13     -12.042   5.990  71.874  1.00  0.00    -0.279 Na 
HETATM    4  H1  HOH     4     -11.400   3.903  65.409  1.00  0.00     0.000 HD 
HETATM    5 NA   UNL    14      -9.138   2.761  67.988  1.00  0.00    -0.085 Na 
HETATM    6 FE   UNL    15     -10.324   3.165  70.877  1.00  0.00    -0.163 Fe 
HETATM    7 FE   UNL    16     -11.293   5.653  66.974  1.00  0.00    -0.344 Fe 
HETATM    8 FE   UNL    17      -7.743   4.582  68.489  1.00  0.00    -0.067 Fe 
HETATM    9 FE   UNL    18     -10.099   6.473  65.361  1.00  0.00    -0.377 Fe 
HETATM   10 FE   UNL    19      -6.816   8.358  68.631  1.00  0.00    -0.051 Fe 
HETATM   11  O   UNL    20      -9.216   7.063  67.890  1.00  0.00    -0.127 OA 
HETATM   12  C   UNL    20     -10.239   8.013  67.748  1.00  0.00    -0.222 C  
HETATM   13  H   UNL    20      -9.390   6.213  67.503  1.00  0.00     0.000 HD 
ENDROOT
BRANCH  12  14
HETATM   14  C   UNL    20      -9.957   9.396  68.377  1.00  0.00    -0.170 C  
HETATM   15  O   UNL    20     -10.115  10.422  67.429  1.00  0.00    -0.180 OA 
HETATM   16  C   UNL    20     -10.254  11.629  68.133  1.00  0.00    -0.197 C  
HETATM   17  C   UNL    20     -10.732   9.789  69.655  1.00  0.00    -0.242 C  
HETATM   18  H   UNL    20     -10.446   9.768  71.584  1.00  0.00     0.000 HD 
HETATM   19  C   UNL    20     -10.979  11.306  69.485  1.00  0.00    -0.191 C  
HETATM   20  H   UNL    20     -12.796  11.365  70.295  1.00  0.00     0.000 HD 
HETATM   21  O   UNL    20      -9.969   9.526  70.799  1.00  0.00    -0.278 OA 
HETATM   22  O   UNL    20     -12.357  11.561  69.476  1.00  0.00    -0.237 OA 
BRANCH  16  23
HETATM   23  O   UNL    20     -10.804  12.657  67.281  1.00  0.00    -0.239 OA 
BRANCH  23  24
HETATM   24  C   UNL    20     -10.038  13.233  66.198  1.00  0.00    -0.293 C  
HETATM   25  O   UNL    20      -9.694  12.208  65.285  1.00  0.00    -0.230 OA 
HETATM   26  C   UNL    20     -10.809  11.710  64.551  1.00  0.00    -0.324 C  
HETATM   27  H   UNL    20     -11.113  16.268  65.633  1.00  0.00     0.000 HD 
HETATM   28  C   UNL    20     -11.514  12.824  63.723  1.00  0.00    -0.470 C  
HETATM   29  O   UNL    20     -12.612  12.329  62.998  1.00  0.00    -0.714 OA 
HETATM   30  C   UNL    20     -11.919  13.975  64.633  1.00  0.00    -0.430 C  
HETATM   31  O   UNL    20     -10.750  15.551  66.140  1.00  0.00    -0.310 OA 
HETATM   32  H   UNL    20     -13.043  13.008  62.493  1.00  0.00     0.000 HD 
HETATM   33  O   UNL    20     -12.418  15.030  63.861  1.00  0.00    -1.005 OA 
HETATM   34  C   UNL    20     -10.630  14.402  65.371  1.00  0.00    -0.365 C  
HETATM   35  H   UNL    20     -12.671  15.749  64.429  1.00  0.00     0.000 HD 
BRANCH  26  36
HETATM   36  C   UNL    20     -10.274  10.650  63.554  1.00  0.00    -0.134 C  
HETATM   37  O   UNL    20      -9.890  11.265  62.359  1.00  0.00    -0.555 OA 
HETATM   38  H   UNL    20      -9.563  10.615  61.749  1.00  0.00     0.000 HD 
ENDBRANCH  26  36
ENDBRANCH  23  24
ENDBRANCH  16  23
BRANCH  16  39
HETATM   39  C   UNL    20      -8.818  12.107  68.511  1.00  0.00    -0.079 C  
HETATM   40  O   UNL    20      -8.869  13.266  69.297  1.00  0.00    -0.056 OA 
HETATM   41  H   UNL    20      -7.995  13.557  69.527  1.00  0.00     0.000 HD 
ENDBRANCH  16  39
ENDBRANCH  12  14
TORSDOF 5
ENDMDL
MODEL       49
REMARK 921   NORMALIZED FREE ENERGY PREDICTED BY IDOCK:   -6.08 KCAL/MOL
REMARK 922        TOTAL FREE ENERGY PREDICTED BY IDOCK:   -9.44 KCAL/MOL
REMARK 923 INTER-LIGAND FREE ENERGY PREDICTED BY IDOCK:   -8.00 KCAL/MOL
REMARK 924 INTRA-LIGAND FREE ENERGY PREDICTED BY IDOCK:   -1.44 KCAL/MOL
REMARK 927      BINDING AFFINITY PREDICTED BY RF-SCORE:    0.00 PKD
ROOT
HETATM    1  O   HOH     4     -10.790   3.909  73.200  1.00  0.00    -0.186 OA 
HETATM    2  H2  HOH     4     -10.885   4.853  73.155  1.00  0.00     0.000 HD 
HETATM    3 NA   UNL    13     -14.230   9.341  70.268  1.00  0.00    -0.606 Na 
HETATM    4  H1  HOH     4     -11.409   3.569  72.565  1.00  0.00     0.000 HD 
HETATM    5 NA   UNL    14     -11.174   6.652  74.437  1.00  0.00    -0.400 Na 
HETATM    6 FE   UNL    15     -13.349   8.751  73.554  1.00  0.00    -0.643 Fe 
HETATM    7 FE   UNL    16     -11.447   5.285  70.960  1.00  0.00    -0.189 Fe 
HETATM    8 FE   UNL    17      -9.641   8.005  73.282  1.00  0.00    -0.168 Fe 
HETATM    9 FE   UNL    18      -9.437   4.516  70.693  1.00  0.00    -0.106 Fe 
HETATM   10 FE   UNL    19      -7.643   9.155  70.148  1.00  0.00    -0.050 Fe 
HETATM   11  O   UNL    20      -9.697   7.236  70.437  1.00  0.00    -0.173 OA 
HETATM   12  C   UNL    20     -10.132   6.817  69.171  1.00  0.00    -0.171 C  
HETATM   13  H   UNL    20      -9.953   6.678  71.163  1.00  0.00     0.000 HD 
ENDROOT
BRANCH  12  14
HETATM   14  C   UNL    20      -9.717   7.723  67.990  1.00  0.00    -0.154 C  
HETATM   15  O   UNL    20     -10.419   8.942  68.020  1.00  0.00    -0.220 OA 
HETATM   16  C   UNL    20      -9.721   9.850  67.206  1.00  0.00    -0.171 C  
HETATM   17  C   UNL    20      -8.215   8.030  67.798  1.00  0.00    -0.129 C  
HETATM   18  H   UNL    20      -6.725   7.357  66.734  1.00  0.00     0.000 HD 
HETATM   19  C   UNL    20      -8.197   9.495  67.300  1.00  0.00    -0.114 C  
HETATM   20  H   UNL    20      -6.551  10.074  68.258  1.00  0.00     0.000 HD 
HETATM   21  O   UNL    20      -7.648   7.168  66.851  1.00  0.00    -0.097 OA 
HETATM   22  O   UNL    20      -7.475  10.289  68.200  1.00  0.00    -0.084 OA 
BRANCH  16  23
HETATM   23  O   UNL    20     -10.135  11.204  67.482  1.00  0.00    -0.179 OA 
BRANCH  23  24
HETATM   24  C   UNL    20     -11.501  11.636  67.280  1.00  0.00    -0.277 C  
HETATM   25  O   UNL    20     -12.044  12.034  68.525  1.00  0.00    -0.367 OA 
HETATM   26  C   UNL    20     -11.482  13.245  69.024  1.00  0.00    -0.302 C  
HETATM   27  H   UNL    20     -11.744  13.046  64.341  1.00  0.00     0.000 HD 
HETATM   28  C   UNL    20     -11.691  14.438  68.046  1.00  0.00    -0.340 C  
HETATM   29  O   UNL    20     -11.137  15.631  68.542  1.00  0.00    -0.286 OA 
HETATM   30  C   UNL    20     -11.133  14.093  66.673  1.00  0.00    -0.312 C  
HETATM   31  O   UNL    20     -11.554  12.354  64.963  1.00  0.00    -0.322 OA 
HETATM   32  H   UNL    20     -11.264  16.359  67.946  1.00  0.00     0.000 HD 
HETATM   33  O   UNL    20     -11.454  15.110  65.766  1.00  0.00    -0.292 OA 
HETATM   34  C   UNL    20     -11.810  12.764  66.264  1.00  0.00    -0.423 C  
HETATM   35  H   UNL    20     -11.106  14.894  64.909  1.00  0.00     0.000 HD 
BRANCH  26  36
HETATM   36  C   UNL    20     -12.213  13.586  70.347  1.00  0.00    -0.356 C  
HETATM   37  O   UNL    20     -11.432  14.454  71.116  1.00  0.00    -0.520 OA 
HETATM   38  H   UNL    20     -11.880  14.663  71.928  1.00  0.00     0.000 HD 
ENDBRANCH  26  36
ENDBRANCH  23  24
ENDBRANCH  16  23
BRANCH  16  39
HETATM   39  C   UNL    20     -10.146   9.563  65.732  1.00  0.00    -0.153 C  
HETATM   40  O   UNL    20      -9.348  10.286  64.835  1.00  0.00    -0.207 OA 
HETATM   41  H   UNL    20      -9.606  10.111  63.938  1.00  0.00     0.000 HD 
ENDBRANCH  16  39
ENDBRANCH  12  14
TORSDOF 5
ENDMDL
MODEL       50
REMARK 921   NORMALIZED FREE ENERGY PREDICTED BY IDOCK:   -6.06 KCAL/MOL
REMARK 922        TOTAL FREE ENERGY PREDICTED BY IDOCK:   -9.41 KCAL/MOL
REMARK 923 INTER-LIGAND FREE ENERGY PREDICTED BY IDOCK:   -8.84 KCAL/MOL
REMARK 924 INTRA-LIGAND FREE ENERGY PREDICTED BY IDOCK:   -0.58 KCAL/MOL
REMARK 927      BINDING AFFINITY PREDICTED BY RF-SCORE:    0.00 PKD
ROOT
HETATM    1  O   HOH     4     -10.418  20.315  70.281  1.00  0.00    -0.673 OA 
HETATM    2  H2  HOH     4      -9.608  19.924  69.975  1.00  0.00     0.000 HD 
HETATM    3 NA   UNL    13      -6.637  18.234  64.685  1.00  0.00    -0.253 Na 
HETATM    4  H1  HOH     4     -10.931  20.464  69.496  1.00  0.00     0.000 HD 
HETATM    5 NA   UNL    14      -7.394  20.106  70.151  1.00  0.00    -0.334 Na 
HETATM    6 FE   UNL    15      -5.696  19.998  67.501  1.00  0.00    -0.169 Fe 
HETATM    7 FE   UNL    16     -10.207  18.713  68.106  1.00  0.00    -0.282 Fe 
HETATM    8 FE   UNL    17      -6.987  17.799  70.308  1.00  0.00    -0.049 Fe 
HETATM    9 FE   UNL    18     -11.279  17.608  69.634  1.00  0.00    -0.345 Fe 
HETATM   10 FE   UNL    19      -7.767  14.045  69.647  1.00  0.00    -0.249 Fe 
HETATM   11  O   UNL    20      -9.008  16.396  68.686  1.00  0.00    -0.213 OA 
HETATM   12  C   UNL    20      -9.918  16.067  67.670  1.00  0.00    -0.239 C  
HETATM   13  H   UNL    20      -9.108  17.264  69.060  1.00  0.00     0.000 HD 
ENDROOT
BRANCH  12  14
HETATM   14  C   UNL    20      -9.755  14.655  67.061  1.00  0.00    -0.243 C  
HETATM   15  O   UNL    20      -9.542  13.695  68.067  1.00  0.00    -0.203 OA 
HETATM   16  C   UNL    20      -9.813  12.435  67.510  1.00  0.00    -0.194 C  
HETATM   17  C   UNL    20     -10.862  14.135  66.117  1.00  0.00    -0.296 C  
HETATM   18  H   UNL    20     -11.193  14.027  64.198  1.00  0.00     0.000 HD 
HETATM   19  C   UNL    20     -10.943  12.624  66.440  1.00  0.00    -0.272 C  
HETATM   20  H   UNL    20     -12.914  12.424  66.248  1.00  0.00     0.000 HD 
HETATM   21  O   UNL    20     -10.513  14.347  64.778  1.00  0.00    -0.430 OA 
HETATM   22  O   UNL    20     -12.229  12.309  66.897  1.00  0.00    -0.530 OA 
BRANCH  16  23
HETATM   23  O   UNL    20     -10.001  11.449  68.547  1.00  0.00    -0.190 OA 
BRANCH  23  24
HETATM   24  C   UNL    20     -11.254  10.742  68.703  1.00  0.00    -0.274 C  
HETATM   25  O   UNL    20     -11.191   9.532  67.971  1.00  0.00    -0.090 OA 
HETATM   26  C   UNL    20     -10.304   8.574  68.542  1.00  0.00    -0.198 C  
HETATM   27  H   UNL    20     -12.436  11.321  71.695  1.00  0.00     0.000 HD 
HETATM   28  C   UNL    20     -10.705   8.193  69.997  1.00  0.00    -0.243 C  
HETATM   29  O   UNL    20      -9.828   7.246  70.556  1.00  0.00    -0.183 OA 
HETATM   30  C   UNL    20     -10.798   9.444  70.858  1.00  0.00    -0.322 C  
HETATM   31  O   UNL    20     -12.119  11.536  70.825  1.00  0.00    -0.364 OA 
HETATM   32  H   UNL    20     -10.073   7.013  71.443  1.00  0.00     0.000 HD 
HETATM   33  O   UNL    20     -11.299   9.108  72.122  1.00  0.00    -0.330 OA 
HETATM   34  C   UNL    20     -11.771  10.392  70.121  1.00  0.00    -0.312 C  
HETATM   35  H   UNL    20     -11.358   9.889  72.659  1.00  0.00     0.000 HD 
BRANCH  26  36
HETATM   36  C   UNL    20     -10.387   7.290  67.678  1.00  0.00    -0.227 C  
HETATM   37  O   UNL    20     -11.429   6.476  68.129  1.00  0.00    -0.553 OA 
HETATM   38  H   UNL    20     -11.481   5.688  67.599  1.00  0.00     0.000 HD 
ENDBRANCH  26  36
ENDBRANCH  23  24
ENDBRANCH  16  23
BRANCH  16  39
HETATM   39  C   UNL    20      -8.538  11.996  66.726  1.00  0.00    -0.177 C  
HETATM   40  O   UNL    20      -8.851  11.702  65.391  1.00  0.00    -0.400 OA 
HETATM   41  H   UNL    20      -8.075  11.435  64.914  1.00  0.00     0.000 HD 
ENDBRANCH  16  39
ENDBRANCH  12  14
TORSDOF 5
ENDMDL
MODEL       51
REMARK 921   NORMALIZED FREE ENERGY PREDICTED BY IDOCK:   -6.05 KCAL/MOL
REMARK 922        TOTAL FREE ENERGY PREDICTED BY IDOCK:   -9.41 KCAL/MOL
REMARK 923 INTER-LIGAND FREE ENERGY PREDICTED BY IDOCK:   -7.82 KCAL/MOL
REMARK 924 INTRA-LIGAND FREE ENERGY PREDICTED BY IDOCK:   -1.59 KCAL/MOL
REMARK 927      BINDING AFFINITY PREDICTED BY RF-SCORE:    0.00 PKD
ROOT
HETATM    1  O   HOH     4     -13.890  15.583  70.707  1.00  0.00    -0.867 OA 
HETATM    2  H2  HOH     4     -13.065  15.780  70.278  1.00  0.00     0.000 HD 
HETATM    3 NA   UNL    13     -10.339  15.802  64.600  1.00  0.00    -0.351 Na 
HETATM    4  H1  HOH     4     -14.457  15.264  70.015  1.00  0.00     0.000 HD 
HETATM    5 NA   UNL    14     -11.526  17.380  70.083  1.00  0.00    -0.373 Na 
HETATM    6 FE   UNL    15     -10.494  18.080  67.191  1.00  0.00    -0.296 Fe 
HETATM    7 FE   UNL    16     -12.916  14.254  68.555  1.00  0.00    -0.568 Fe 
HETATM    8 FE   UNL    17      -9.679  15.936  70.211  1.00  0.00    -0.253 Fe 
HETATM    9 FE   UNL    18     -12.807  12.915  70.258  1.00  0.00    -0.258 Fe 
HETATM   10 FE   UNL    19      -7.844  12.535  69.752  1.00  0.00    -0.320 Fe 
HETATM   11  O   UNL    20     -10.428  13.370  68.969  1.00  0.00    -0.395 OA 
HETATM   12  C   UNL    20     -10.998  12.407  68.123  1.00  0.00    -0.228 C  
HETATM   13  H   UNL    20     -11.036  14.000  69.340  1.00  0.00     0.000 HD 
ENDROOT
BRANCH  12  14
HETATM   14  C   UNL    20     -10.011  11.381  67.521  1.00  0.00    -0.182 C  
HETATM   15  O   UNL    20      -9.258  10.754  68.530  1.00  0.00    -0.159 OA 
HETATM   16  C   UNL    20      -8.708   9.585  67.981  1.00  0.00    -0.120 C  
HETATM   17  C   UNL    20     -10.574  10.290  66.583  1.00  0.00    -0.162 C  
HETATM   18  H   UNL    20     -10.772   9.991  64.666  1.00  0.00     0.000 HD 
HETATM   19  C   UNL    20      -9.720   9.043  66.913  1.00  0.00    -0.200 C  
HETATM   20  H   UNL    20     -11.164   7.685  66.730  1.00  0.00     0.000 HD 
HETATM   21  O   UNL    20     -10.426  10.662  65.242  1.00  0.00    -0.269 OA 
HETATM   22  O   UNL    20     -10.551   8.013  67.377  1.00  0.00    -0.282 OA 
BRANCH  16  23
HETATM   23  O   UNL    20      -8.258   8.694  69.023  1.00  0.00    -0.118 OA 
BRANCH  23  24
HETATM   24  C   UNL    20      -8.708   8.840  70.390  1.00  0.00    -0.166 C  
HETATM   25  O   UNL    20      -9.933   8.147  70.545  1.00  0.00    -0.185 OA 
HETATM   26  C   UNL    20      -9.791   6.731  70.490  1.00  0.00    -0.176 C  
HETATM   27  H   UNL    20      -6.102   8.951  72.360  1.00  0.00     0.000 HD 
HETATM   28  C   UNL    20      -8.833   6.191  71.592  1.00  0.00    -0.138 C  
HETATM   29  O   UNL    20      -8.697   4.793  71.535  1.00  0.00    -0.118 OA 
HETATM   30  C   UNL    20      -7.484   6.888  71.499  1.00  0.00    -0.086 C  
HETATM   31  O   UNL    20      -6.667   9.219  71.645  1.00  0.00    -0.267 OA 
HETATM   32  H   UNL    20      -8.113   4.464  72.208  1.00  0.00     0.000 HD 
HETATM   33  O   UNL    20      -6.682   6.504  72.581  1.00  0.00    -0.063 OA 
HETATM   34  C   UNL    20      -7.786   8.403  71.556  1.00  0.00    -0.120 C  
HETATM   35  H   UNL    20      -5.839   6.939  72.523  1.00  0.00     0.000 HD 
BRANCH  26  36
HETATM   36  C   UNL    20     -11.190   6.112  70.737  1.00  0.00    -0.306 C  
HETATM   37  O   UNL    20     -12.106   6.612  69.808  1.00  0.00    -0.638 OA 
HETATM   38  H   UNL    20     -12.965   6.233  69.959  1.00  0.00     0.000 HD 
ENDBRANCH  26  36
ENDBRANCH  23  24
ENDBRANCH  16  23
BRANCH  16  39
HETATM   39  C   UNL    20      -7.429  10.007  67.194  1.00  0.00    -0.091 C  
HETATM   40  O   UNL    20      -6.639  10.877  67.958  1.00  0.00    -0.061 OA 
HETATM   41  H   UNL    20      -5.860  11.133  67.479  1.00  0.00     0.000 HD 
ENDBRANCH  16  39
ENDBRANCH  12  14
TORSDOF 5
ENDMDL
MODEL       52
REMARK 921   NORMALIZED FREE ENERGY PREDICTED BY IDOCK:   -6.04 KCAL/MOL
REMARK 922        TOTAL FREE ENERGY PREDICTED BY IDOCK:   -9.39 KCAL/MOL
REMARK 923 INTER-LIGAND FREE ENERGY PREDICTED BY IDOCK:   -7.94 KCAL/MOL
REMARK 924 INTRA-LIGAND FREE ENERGY PREDICTED BY IDOCK:   -1.45 KCAL/MOL
REMARK 927      BINDING AFFINITY PREDICTED BY RF-SCORE:    0.00 PKD
ROOT
HETATM    1  O   HOH     4     -10.386  19.928  70.272  1.00  0.00    -0.567 OA 
HETATM    2  H2  HOH     4      -9.587  19.529  69.947  1.00  0.00     0.000 HD 
HETATM    3 NA   UNL    13      -6.649  18.032  64.581  1.00  0.00    -0.186 Na 
HETATM    4  H1  HOH     4     -10.891  20.135  69.495  1.00  0.00     0.000 HD 
HETATM    5 NA   UNL    14      -7.369  19.633  70.138  1.00  0.00    -0.281 Na 
HETATM    6 FE   UNL    15      -5.666  19.614  67.490  1.00  0.00    -0.169 Fe 
HETATM    7 FE   UNL    16     -10.216  18.439  68.015  1.00  0.00    -0.276 Fe 
HETATM    8 FE   UNL    17      -7.034  17.310  70.172  1.00  0.00    -0.166 Fe 
HETATM    9 FE   UNL    18     -11.327  17.288  69.480  1.00  0.00    -0.292 Fe 
HETATM   10 FE   UNL    19      -7.927  13.622  69.309  1.00  0.00    -0.212 Fe 
HETATM   11  O   UNL    20      -9.091  16.058  68.473  1.00  0.00    -0.189 OA 
HETATM   12  C   UNL    20     -10.006  15.811  67.439  1.00  0.00    -0.237 C  
HETATM   13  H   UNL    20      -9.166  16.907  68.893  1.00  0.00     0.000 HD 
ENDROOT
BRANCH  12  14
HETATM   14  C   UNL    20      -9.885  14.430  66.756  1.00  0.00    -0.264 C  
HETATM   15  O   UNL    20      -9.923  13.394  67.707  1.00  0.00    -0.222 OA 
HETATM   16  C   UNL    20     -10.222  12.205  67.022  1.00  0.00    -0.207 C  
HETATM   17  C   UNL    20     -10.875  14.087  65.621  1.00  0.00    -0.295 C  
HETATM   18  H   UNL    20     -10.911  14.131  63.671  1.00  0.00     0.000 HD 
HETATM   19  C   UNL    20     -11.148  12.576  65.812  1.00  0.00    -0.308 C  
HETATM   20  H   UNL    20     -13.075  12.596  65.314  1.00  0.00     0.000 HD 
HETATM   21  O   UNL    20     -10.302  14.342  64.369  1.00  0.00    -0.240 OA 
HETATM   22  O   UNL    20     -12.514  12.371  66.046  1.00  0.00    -0.551 OA 
BRANCH  16  23
HETATM   23  O   UNL    20     -10.663  11.183  67.941  1.00  0.00    -0.191 OA 
BRANCH  23  24
HETATM   24  C   UNL    20     -10.177  11.130  69.303  1.00  0.00    -0.083 C  
HETATM   25  O   UNL    20     -11.281  11.212  70.186  1.00  0.00    -0.250 OA 
HETATM   26  C   UNL    20     -12.097  10.044  70.177  1.00  0.00    -0.091 C  
HETATM   27  H   UNL    20      -7.543   9.197  69.416  1.00  0.00     0.000 HD 
HETATM   28  C   UNL    20     -11.303   8.766  70.577  1.00  0.00    -0.227 C  
HETATM   29  O   UNL    20     -12.112   7.617  70.569  1.00  0.00    -0.500 OA 
HETATM   30  C   UNL    20     -10.090   8.601  69.673  1.00  0.00    -0.201 C  
HETATM   31  O   UNL    20      -8.075   9.932  69.133  1.00  0.00    -0.100 OA 
HETATM   32  H   UNL    20     -11.628   6.837  70.813  1.00  0.00     0.000 HD 
HETATM   33  O   UNL    20      -9.305   7.536  70.131  1.00  0.00    -0.158 OA 
HETATM   34  C   UNL    20      -9.310   9.932  69.766  1.00  0.00    -0.221 C  
HETATM   35  H   UNL    20      -8.548   7.433  69.567  1.00  0.00     0.000 HD 
BRANCH  26  36
HETATM   36  C   UNL    20     -13.217  10.251  71.229  1.00  0.00    -0.356 C  
HETATM   37  O   UNL    20     -14.309   9.430  70.935  1.00  0.00    -0.310 OA 
HETATM   38  H   UNL    20     -14.995   9.557  71.580  1.00  0.00     0.000 HD 
ENDBRANCH  26  36
ENDBRANCH  23  24
ENDBRANCH  16  23
BRANCH  16  39
HETATM   39  C   UNL    20      -8.888  11.683  66.406  1.00  0.00    -0.182 C  
HETATM   40  O   UNL    20      -9.016  11.501  65.021  1.00  0.00    -0.404 OA 
HETATM   41  H   UNL    20      -8.203  11.183  64.647  1.00  0.00     0.000 HD 
ENDBRANCH  16  39
ENDBRANCH  12  14
TORSDOF 5
ENDMDL
MODEL       53
REMARK 921   NORMALIZED FREE ENERGY PREDICTED BY IDOCK:   -6.03 KCAL/MOL
REMARK 922        TOTAL FREE ENERGY PREDICTED BY IDOCK:   -9.38 KCAL/MOL
REMARK 923 INTER-LIGAND FREE ENERGY PREDICTED BY IDOCK:   -8.65 KCAL/MOL
REMARK 924 INTRA-LIGAND FREE ENERGY PREDICTED BY IDOCK:   -0.73 KCAL/MOL
REMARK 927      BINDING AFFINITY PREDICTED BY RF-SCORE:    0.00 PKD
ROOT
HETATM    1  O   HOH     4      -7.024   3.804  66.704  1.00  0.00    -0.056 OA 
HETATM    2  H2  HOH     4      -7.660   4.341  66.245  1.00  0.00     0.000 HD 
HETATM    3 NA   UNL    13      -8.167   9.739  63.041  1.00  0.00    -0.124 Na 
HETATM    4  H1  HOH     4      -6.211   4.294  66.659  1.00  0.00     0.000 HD 
HETATM    5 NA   UNL    14      -9.224   4.242  64.660  1.00  0.00    -0.120 Na 
HETATM    6 FE   UNL    15      -9.241   6.506  62.472  1.00  0.00    -0.349 Fe 
HETATM    7 FE   UNL    16      -6.987   6.512  66.629  1.00  0.00    -0.051 Fe 
HETATM    8 FE   UNL    17     -10.790   5.565  65.802  1.00  0.00    -0.330 Fe 
HETATM    9 FE   UNL    18      -7.519   5.918  68.646  1.00  0.00    -0.068 Fe 
HETATM   10 FE   UNL    19     -11.883   8.341  68.302  1.00  0.00    -0.092 Fe 
HETATM   11  O   UNL    20      -9.322   7.565  67.394  1.00  0.00    -0.136 OA 
HETATM   12  C   UNL    20      -8.368   8.503  67.816  1.00  0.00    -0.130 C  
HETATM   13  H   UNL    20      -8.973   6.730  67.101  1.00  0.00     0.000 HD 
ENDROOT
BRANCH  12  14
HETATM   14  C   UNL    20      -8.934   9.861  68.292  1.00  0.00    -0.119 C  
HETATM   15  O   UNL    20      -9.140  10.729  67.205  1.00  0.00    -0.144 OA 
HETATM   16  C   UNL    20     -10.012  11.742  67.635  1.00  0.00    -0.194 C  
HETATM   17  C   UNL    20     -10.211   9.855  69.160  1.00  0.00    -0.205 C  
HETATM   18  H   UNL    20     -10.674   9.930  71.054  1.00  0.00     0.000 HD 
HETATM   19  C   UNL    20     -10.980  11.114  68.695  1.00  0.00    -0.220 C  
HETATM   20  H   UNL    20     -12.817  10.359  68.827  1.00  0.00     0.000 HD 
HETATM   21  O   UNL    20      -9.888   9.934  70.520  1.00  0.00    -0.226 OA 
HETATM   22  O   UNL    20     -12.230  10.740  68.185  1.00  0.00    -0.399 OA 
BRANCH  16  23
HETATM   23  O   UNL    20     -10.580  12.439  66.506  1.00  0.00    -0.231 OA 
BRANCH  23  24
HETATM   24  C   UNL    20     -11.805  13.200  66.624  1.00  0.00    -0.391 C  
HETATM   25  O   UNL    20     -11.511  14.450  67.219  1.00  0.00    -0.326 OA 
HETATM   26  C   UNL    20     -10.769  15.320  66.369  1.00  0.00    -0.318 C  
HETATM   27  H   UNL    20     -13.744  12.493  64.089  1.00  0.00     0.000 HD 
HETATM   28  C   UNL    20     -11.522  15.627  65.041  1.00  0.00    -0.175 C  
HETATM   29  O   UNL    20     -10.788  16.487  64.205  1.00  0.00    -0.976 OA 
HETATM   30  C   UNL    20     -11.880  14.330  64.331  1.00  0.00    -0.426 C  
HETATM   31  O   UNL    20     -13.220  12.318  64.862  1.00  0.00    -0.597 OA 
HETATM   32  H   UNL    20     -11.247  16.675  63.395  1.00  0.00     0.000 HD 
HETATM   33  O   UNL    20     -12.680  14.610  63.217  1.00  0.00    -0.696 OA 
HETATM   34  C   UNL    20     -12.660  13.485  65.364  1.00  0.00    -0.483 C  
HETATM   35  H   UNL    20     -12.904  13.800  62.773  1.00  0.00     0.000 HD 
BRANCH  26  36
HETATM   36  C   UNL    20     -10.580  16.660  67.124  1.00  0.00    -0.264 C  
HETATM   37  O   UNL    20     -10.537  16.432  68.502  1.00  0.00    -0.269 OA 
HETATM   38  H   UNL    20     -10.421  17.254  68.965  1.00  0.00     0.000 HD 
ENDBRANCH  26  36
ENDBRANCH  23  24
ENDBRANCH  16  23
BRANCH  16  39
HETATM   39  C   UNL    20      -9.150  12.794  68.400  1.00  0.00    -0.129 C  
HETATM   40  O   UNL    20      -9.938  13.522  69.302  1.00  0.00    -0.399 OA 
HETATM   41  H   UNL    20      -9.414  14.162  69.767  1.00  0.00     0.000 HD 
ENDBRANCH  16  39
ENDBRANCH  12  14
TORSDOF 5
ENDMDL
MODEL       54
REMARK 921   NORMALIZED FREE ENERGY PREDICTED BY IDOCK:   -6.02 KCAL/MOL
REMARK 922        TOTAL FREE ENERGY PREDICTED BY IDOCK:   -9.37 KCAL/MOL
REMARK 923 INTER-LIGAND FREE ENERGY PREDICTED BY IDOCK:   -8.49 KCAL/MOL
REMARK 924 INTRA-LIGAND FREE ENERGY PREDICTED BY IDOCK:   -0.88 KCAL/MOL
REMARK 927      BINDING AFFINITY PREDICTED BY RF-SCORE:    0.00 PKD
ROOT
HETATM    1  O   HOH     4     -11.187  16.773  64.031  1.00  0.00    -1.438 OA 
HETATM    2  H2  HOH     4     -11.345  15.835  64.040  1.00  0.00     0.000 HD 
HETATM    3 NA   UNL    13     -13.131  11.170  67.876  1.00  0.00     0.642 Na 
HETATM    4  H1  HOH     4     -11.340  17.056  64.925  1.00  0.00     0.000 HD 
HETATM    5 NA   UNL    14     -12.455  14.231  62.963  1.00  0.00    -0.769 Na 
HETATM    6 FE   UNL    15     -14.051  12.137  64.691  1.00  0.00    -0.557 Fe 
HETATM    7 FE   UNL    16     -10.712  15.151  66.150  1.00  0.00    -0.275 Fe 
HETATM    8 FE   UNL    17     -10.698  12.674  63.002  1.00  0.00    -0.422 Fe 
HETATM    9 FE   UNL    18      -8.792  15.787  65.366  1.00  0.00    -0.266 Fe 
HETATM   10 FE   UNL    19      -7.488  11.040  64.473  1.00  0.00    -0.311 Fe 
HETATM   11  O   UNL    20      -9.169  13.072  65.490  1.00  0.00    -0.394 OA 
HETATM   12  C   UNL    20      -8.826  13.344  66.823  1.00  0.00    -0.132 C  
HETATM   13  H   UNL    20      -9.706  13.729  65.063  1.00  0.00     0.000 HD 
ENDROOT
BRANCH  12  14
HETATM   14  C   UNL    20      -7.951  12.275  67.517  1.00  0.00    -0.166 C  
HETATM   15  O   UNL    20      -8.744  11.384  68.263  1.00  0.00    -0.147 OA 
HETATM   16  C   UNL    20      -7.969  10.239  68.512  1.00  0.00    -0.107 C  
HETATM   17  C   UNL    20      -6.977  11.450  66.647  1.00  0.00    -0.102 C  
HETATM   18  H   UNL    20      -5.090  11.489  66.154  1.00  0.00     0.000 HD 
HETATM   19  C   UNL    20      -7.008  10.044  67.290  1.00  0.00    -0.083 C  
HETATM   20  H   UNL    20      -6.873   8.988  65.608  1.00  0.00     0.000 HD 
HETATM   21  O   UNL    20      -5.689  11.997  66.689  1.00  0.00    -0.277 OA 
HETATM   22  O   UNL    20      -7.455   9.106  66.349  1.00  0.00    -0.091 OA 
BRANCH  16  23
HETATM   23  O   UNL    20      -8.806   9.136  68.919  1.00  0.00    -0.136 OA 
BRANCH  23  24
HETATM   24  C   UNL    20      -8.826   8.663  70.286  1.00  0.00    -0.152 C  
HETATM   25  O   UNL    20      -9.860   9.331  70.985  1.00  0.00    -0.273 OA 
HETATM   26  C   UNL    20     -11.165   8.935  70.576  1.00  0.00    -0.252 C  
HETATM   27  H   UNL    20      -7.963   5.511  70.333  1.00  0.00     0.000 HD 
HETATM   28  C   UNL    20     -11.408   7.410  70.776  1.00  0.00    -0.280 C  
HETATM   29  O   UNL    20     -12.698   7.023  70.373  1.00  0.00    -0.595 OA 
HETATM   30  C   UNL    20     -10.333   6.611  70.053  1.00  0.00    -0.199 C  
HETATM   31  O   UNL    20      -7.867   6.439  70.155  1.00  0.00    -0.102 OA 
HETATM   32  H   UNL    20     -12.846   6.092  70.495  1.00  0.00     0.000 HD 
HETATM   33  O   UNL    20     -10.474   5.252  70.358  1.00  0.00    -0.271 OA 
HETATM   34  C   UNL    20      -8.982   7.150  70.576  1.00  0.00    -0.155 C  
HETATM   35  H   UNL    20      -9.803   4.753  69.906  1.00  0.00     0.000 HD 
BRANCH  26  36
HETATM   36  C   UNL    20     -12.183   9.694  71.465  1.00  0.00    -0.399 C  
HETATM   37  O   UNL    20     -13.410   9.802  70.805  1.00  0.00    -0.594 OA 
HETATM   38  H   UNL    20     -14.034  10.267  71.350  1.00  0.00     0.000 HD 
ENDBRANCH  26  36
ENDBRANCH  23  24
ENDBRANCH  16  23
BRANCH  16  39
HETATM   39  C   UNL    20      -7.058  10.561  69.737  1.00  0.00    -0.150 C  
HETATM   40  O   UNL    20      -5.703  10.468  69.387  1.00  0.00    -0.038 OA 
HETATM   41  H   UNL    20      -5.148  10.664  70.132  1.00  0.00     0.000 HD 
ENDBRANCH  16  39
ENDBRANCH  12  14
TORSDOF 5
ENDMDL
MODEL       55
REMARK 921   NORMALIZED FREE ENERGY PREDICTED BY IDOCK:   -6.00 KCAL/MOL
REMARK 922        TOTAL FREE ENERGY PREDICTED BY IDOCK:   -9.35 KCAL/MOL
REMARK 923 INTER-LIGAND FREE ENERGY PREDICTED BY IDOCK:   -8.52 KCAL/MOL
REMARK 924 INTRA-LIGAND FREE ENERGY PREDICTED BY IDOCK:   -0.83 KCAL/MOL
REMARK 927      BINDING AFFINITY PREDICTED BY RF-SCORE:    0.00 PKD
ROOT
HETATM    1  O   HOH     4     -13.743  15.794  70.484  1.00  0.00    -0.743 OA 
HETATM    2  H2  HOH     4     -12.960  15.863  69.949  1.00  0.00     0.000 HD 
HETATM    3 NA   UNL    13     -10.717  14.324  64.269  1.00  0.00    -0.359 Na 
HETATM    4  H1  HOH     4     -14.359  15.301  69.955  1.00  0.00     0.000 HD 
HETATM    5 NA   UNL    14     -11.472  17.341  69.196  1.00  0.00    -0.198 Na 
HETATM    6 FE   UNL    15     -10.698  17.222  66.147  1.00  0.00    -0.306 Fe 
HETATM    7 FE   UNL    16     -12.927  13.925  68.700  1.00  0.00    -0.459 Fe 
HETATM    8 FE   UNL    17      -9.595  15.977  69.554  1.00  0.00    -0.189 Fe 
HETATM    9 FE   UNL    18     -12.653  13.100  70.687  1.00  0.00    -0.281 Fe 
HETATM   10 FE   UNL    19      -7.743  12.571  69.883  1.00  0.00    -0.311 Fe 
HETATM   11  O   UNL    20     -10.398  13.174  69.125  1.00  0.00    -0.434 OA 
HETATM   12  C   UNL    20     -11.018  12.020  68.624  1.00  0.00    -0.240 C  
HETATM   13  H   UNL    20     -10.984  13.885  69.360  1.00  0.00     0.000 HD 
ENDROOT
BRANCH  12  14
HETATM   14  C   UNL    20     -10.066  10.864  68.241  1.00  0.00    -0.174 C  
HETATM   15  O   UNL    20      -9.572  10.218  69.389  1.00  0.00    -0.213 OA 
HETATM   16  C   UNL    20      -9.073   8.969  68.987  1.00  0.00    -0.143 C  
HETATM   17  C   UNL    20     -10.582   9.788  67.260  1.00  0.00    -0.255 C  
HETATM   18  H   UNL    20     -10.483   9.406  65.350  1.00  0.00     0.000 HD 
HETATM   19  C   UNL    20      -9.944   8.478  67.780  1.00  0.00    -0.190 C  
HETATM   20  H   UNL    20     -11.480   7.272  67.397  1.00  0.00     0.000 HD 
HETATM   21  O   UNL    20     -10.167  10.068  65.953  1.00  0.00    -0.259 OA 
HETATM   22  O   UNL    20     -10.952   7.569  68.128  1.00  0.00    -0.059 OA 
BRANCH  16  23
HETATM   23  O   UNL    20      -8.910   8.094  70.124  1.00  0.00    -0.142 OA 
BRANCH  23  24
HETATM   24  C   UNL    20      -9.091   8.571  71.478  1.00  0.00    -0.216 C  
HETATM   25  O   UNL    20     -10.390   9.118  71.601  1.00  0.00    -0.334 OA 
HETATM   26  C   UNL    20     -11.422   8.136  71.555  1.00  0.00    -0.267 C  
HETATM   27  H   UNL    20      -7.434   6.627  73.518  1.00  0.00     0.000 HD 
HETATM   28  C   UNL    20     -11.278   7.075  72.685  1.00  0.00    -0.272 C  
HETATM   29  O   UNL    20     -12.298   6.109  72.636  1.00  0.00    -0.535 OA 
HETATM   30  C   UNL    20      -9.898   6.434  72.626  1.00  0.00    -0.166 C  
HETATM   31  O   UNL    20      -7.558   7.222  72.787  1.00  0.00    -0.081 OA 
HETATM   32  H   UNL    20     -12.210   5.462  73.326  1.00  0.00     0.000 HD 
HETATM   33  O   UNL    20      -9.726   5.591  73.731  1.00  0.00    -0.145 OA 
HETATM   34  C   UNL    20      -8.888   7.603  72.670  1.00  0.00    -0.149 C  
HETATM   35  H   UNL    20      -8.865   5.190  73.694  1.00  0.00     0.000 HD 
BRANCH  26  36
HETATM   36  C   UNL    20     -12.771   8.868  71.765  1.00  0.00    -0.364 C  
HETATM   37  O   UNL    20     -13.183   8.742  73.095  1.00  0.00    -0.866 OA 
HETATM   38  H   UNL    20     -14.011   9.191  73.224  1.00  0.00     0.000 HD 
ENDBRANCH  26  36
ENDBRANCH  23  24
ENDBRANCH  16  23
BRANCH  16  39
HETATM   39  C   UNL    20      -7.639   9.209  68.422  1.00  0.00    -0.083 C  
HETATM   40  O   UNL    20      -7.367   8.330  67.364  1.00  0.00    -0.089 OA 
HETATM   41  H   UNL    20      -6.494   8.477  67.019  1.00  0.00     0.000 HD 
ENDBRANCH  16  39
ENDBRANCH  12  14
TORSDOF 5
ENDMDL
MODEL       56
REMARK 921   NORMALIZED FREE ENERGY PREDICTED BY IDOCK:   -5.96 KCAL/MOL
REMARK 922        TOTAL FREE ENERGY PREDICTED BY IDOCK:   -9.28 KCAL/MOL
REMARK 923 INTER-LIGAND FREE ENERGY PREDICTED BY IDOCK:   -7.77 KCAL/MOL
REMARK 924 INTRA-LIGAND FREE ENERGY PREDICTED BY IDOCK:   -1.51 KCAL/MOL
REMARK 927      BINDING AFFINITY PREDICTED BY RF-SCORE:    0.00 PKD
ROOT
HETATM    1  O   HOH     4     -10.119   4.516  71.161  1.00  0.00    -0.190 OA 
HETATM    2  H2  HOH     4     -10.269   5.446  71.286  1.00  0.00     0.000 HD 
HETATM    3 NA   UNL    13     -14.214  10.071  69.641  1.00  0.00    -0.565 Na 
HETATM    4  H1  HOH     4     -10.802   4.235  70.563  1.00  0.00     0.000 HD 
HETATM    5 NA   UNL    14     -10.471   6.993  72.876  1.00  0.00    -0.179 Na 
HETATM    6 FE   UNL    15     -12.855   9.037  72.642  1.00  0.00    -0.335 Fe 
HETATM    7 FE   UNL    16     -11.153   6.175  69.284  1.00  0.00    -0.190 Fe 
HETATM    8 FE   UNL    17      -9.187   8.621  71.775  1.00  0.00    -0.130 Fe 
HETATM    9 FE   UNL    18      -9.161   5.611  68.636  1.00  0.00    -0.115 Fe 
HETATM   10 FE   UNL    19      -7.707  10.398  68.645  1.00  0.00    -0.077 Fe 
HETATM   11  O   UNL    20      -9.598   8.309  68.873  1.00  0.00    -0.151 OA 
HETATM   12  C   UNL    20     -10.182   8.064  67.621  1.00  0.00    -0.228 C  
HETATM   13  H   UNL    20      -9.720   7.627  69.523  1.00  0.00     0.000 HD 
ENDROOT
BRANCH  12  14
HETATM   14  C   UNL    20      -9.983   9.174  66.564  1.00  0.00    -0.288 C  
HETATM   15  O   UNL    20     -10.323  10.435  67.088  1.00  0.00    -0.213 OA 
HETATM   16  C   UNL    20      -9.744  11.407  66.256  1.00  0.00    -0.212 C  
HETATM   17  C   UNL    20      -8.605   9.288  65.875  1.00  0.00    -0.148 C  
HETATM   18  H   UNL    20      -7.763   8.698  64.217  1.00  0.00     0.000 HD 
HETATM   19  C   UNL    20      -8.407  10.811  65.693  1.00  0.00    -0.144 C  
HETATM   20  H   UNL    20      -6.448  10.862  66.041  1.00  0.00     0.000 HD 
HETATM   21  O   UNL    20      -8.610   8.628  64.640  1.00  0.00    -0.165 OA 
HETATM   22  O   UNL    20      -7.258  11.222  66.381  1.00  0.00    -0.126 OA 
BRANCH  16  23
HETATM   23  O   UNL    20      -9.706  12.688  66.918  1.00  0.00    -0.222 OA 
BRANCH  23  24
HETATM   24  C   UNL    20     -10.817  13.612  66.845  1.00  0.00    -0.283 C  
HETATM   25  O   UNL    20     -11.194  13.979  68.159  1.00  0.00    -0.254 OA 
HETATM   26  C   UNL    20     -10.236  14.808  68.810  1.00  0.00    -0.239 C  
HETATM   27  H   UNL    20     -10.488  15.458  64.167  1.00  0.00     0.000 HD 
HETATM   28  C   UNL    20      -9.981  16.134  68.035  1.00  0.00    -0.238 C  
HETATM   29  O   UNL    20      -9.036  16.950  68.681  1.00  0.00    -0.251 OA 
HETATM   30  C   UNL    20      -9.569  15.831  66.601  1.00  0.00    -0.247 C  
HETATM   31  O   UNL    20     -10.573  14.656  64.669  1.00  0.00    -0.392 OA 
HETATM   32  H   UNL    20      -8.880  17.760  68.208  1.00  0.00     0.000 HD 
HETATM   33  O   UNL    20      -9.484  17.024  65.875  1.00  0.00    -0.492 OA 
HETATM   34  C   UNL    20     -10.679  14.921  66.027  1.00  0.00    -0.323 C  
HETATM   35  H   UNL    20      -9.227  16.835  64.980  1.00  0.00     0.000 HD 
BRANCH  26  36
HETATM   36  C   UNL    20     -10.809  15.179  70.201  1.00  0.00    -0.241 C  
HETATM   37  O   UNL    20     -11.332  16.475  70.175  1.00  0.00    -0.439 OA 
HETATM   38  H   UNL    20     -11.683  16.702  71.028  1.00  0.00     0.000 HD 
ENDBRANCH  26  36
ENDBRANCH  23  24
ENDBRANCH  16  23
BRANCH  16  39
HETATM   39  C   UNL    20     -10.692  11.584  65.030  1.00  0.00    -0.290 C  
HETATM   40  O   UNL    20      -9.984  12.058  63.916  1.00  0.00    -0.400 OA 
HETATM   41  H   UNL    20     -10.561  12.165  63.170  1.00  0.00     0.000 HD 
ENDBRANCH  16  39
ENDBRANCH  12  14
TORSDOF 5
ENDMDL
MODEL       57
REMARK 921   NORMALIZED FREE ENERGY PREDICTED BY IDOCK:   -5.95 KCAL/MOL
REMARK 922        TOTAL FREE ENERGY PREDICTED BY IDOCK:   -9.28 KCAL/MOL
REMARK 923 INTER-LIGAND FREE ENERGY PREDICTED BY IDOCK:   -8.54 KCAL/MOL
REMARK 924 INTRA-LIGAND FREE ENERGY PREDICTED BY IDOCK:   -0.74 KCAL/MOL
REMARK 927      BINDING AFFINITY PREDICTED BY RF-SCORE:    0.00 PKD
ROOT
HETATM    1  O   HOH     4      -6.373   4.358  63.001  1.00  0.00    -0.024 OA 
HETATM    2  H2  HOH     4      -6.798   4.368  63.851  1.00  0.00     0.000 HD 
HETATM    3 NA   UNL    13     -12.036   6.365  66.721  1.00  0.00    -0.572 Na 
HETATM    4  H1  HOH     4      -6.956   4.841  62.428  1.00  0.00     0.000 HD 
HETATM    5 NA   UNL    14      -7.411   3.029  65.523  1.00  0.00    -0.061 Na 
HETATM    6 FE   UNL    15     -10.317   3.370  66.687  1.00  0.00    -0.402 Fe 
HETATM    7 FE   UNL    16      -7.935   6.373  63.917  1.00  0.00    -0.079 Fe 
HETATM    8 FE   UNL    17      -6.734   4.482  67.239  1.00  0.00    -0.040 Fe 
HETATM    9 FE   UNL    18      -5.892   7.098  63.868  1.00  0.00    -0.033 Fe 
HETATM   10 FE   UNL    19      -5.989   7.970  68.793  1.00  0.00    -0.030 Fe 
HETATM   11  O   UNL    20      -7.132   7.251  66.311  1.00  0.00    -0.073 OA 
HETATM   12  C   UNL    20      -7.656   8.392  65.685  1.00  0.00    -0.089 C  
HETATM   13  H   UNL    20      -7.014   6.493  65.749  1.00  0.00     0.000 HD 
ENDROOT
BRANCH  12  14
HETATM   14  C   UNL    20      -7.848   9.624  66.599  1.00  0.00    -0.105 C  
HETATM   15  O   UNL    20      -8.192  10.761  65.845  1.00  0.00    -0.157 OA 
HETATM   16  C   UNL    20      -8.743  11.702  66.730  1.00  0.00    -0.189 C  
HETATM   17  C   UNL    20      -8.833   9.508  67.783  1.00  0.00    -0.119 C  
HETATM   18  H   UNL    20      -8.758   9.130  69.695  1.00  0.00     0.000 HD 
HETATM   19  C   UNL    20      -9.483  10.910  67.861  1.00  0.00    -0.159 C  
HETATM   20  H   UNL    20     -11.316  10.317  68.361  1.00  0.00     0.000 HD 
HETATM   21  O   UNL    20      -8.152   9.201  68.967  1.00  0.00    -0.099 OA 
HETATM   22  O   UNL    20     -10.868  10.797  67.676  1.00  0.00    -0.236 OA 
BRANCH  16  23
HETATM   23  O   UNL    20      -9.470  12.718  66.006  1.00  0.00    -0.219 OA 
BRANCH  23  24
HETATM   24  C   UNL    20     -10.738  13.226  66.483  1.00  0.00    -0.285 C  
HETATM   25  O   UNL    20     -10.541  14.524  67.011  1.00  0.00    -0.273 OA 
HETATM   26  C   UNL    20     -10.251  15.500  66.015  1.00  0.00    -0.330 C  
HETATM   27  H   UNL    20     -13.127  12.085  64.566  1.00  0.00     0.000 HD 
HETATM   28  C   UNL    20     -11.388  15.619  64.958  1.00  0.00    -0.253 C  
HETATM   29  O   UNL    20     -11.099  16.584  63.978  1.00  0.00    -1.299 OA 
HETATM   30  C   UNL    20     -11.668  14.258  64.336  1.00  0.00    -0.389 C  
HETATM   31  O   UNL    20     -12.385  12.037  65.157  1.00  0.00    -0.423 OA 
HETATM   32  H   UNL    20     -11.793  16.657  63.333  1.00  0.00     0.000 HD 
HETATM   33  O   UNL    20     -12.785  14.347  63.497  1.00  0.00    -0.926 OA 
HETATM   34  C   UNL    20     -11.948  13.304  65.519  1.00  0.00    -0.405 C  
HETATM   35  H   UNL    20     -12.960  13.497  63.109  1.00  0.00     0.000 HD 
BRANCH  26  36
HETATM   36  C   UNL    20     -10.126  16.870  66.729  1.00  0.00    -0.294 C  
HETATM   37  O   UNL    20      -9.458  17.781  65.905  1.00  0.00    -0.521 OA 
HETATM   38  H   UNL    20      -9.381  18.621  66.343  1.00  0.00     0.000 HD 
ENDBRANCH  26  36
ENDBRANCH  23  24
ENDBRANCH  16  23
BRANCH  16  39
HETATM   39  C   UNL    20      -7.550  12.435  67.419  1.00  0.00    -0.160 C  
HETATM   40  O   UNL    20      -7.658  13.823  67.256  1.00  0.00    -0.293 OA 
HETATM   41  H   UNL    20      -6.933  14.269  67.676  1.00  0.00     0.000 HD 
ENDBRANCH  16  39
ENDBRANCH  12  14
TORSDOF 5
ENDMDL
MODEL       58
REMARK 921   NORMALIZED FREE ENERGY PREDICTED BY IDOCK:   -5.95 KCAL/MOL
REMARK 922        TOTAL FREE ENERGY PREDICTED BY IDOCK:   -9.28 KCAL/MOL
REMARK 923 INTER-LIGAND FREE ENERGY PREDICTED BY IDOCK:   -7.99 KCAL/MOL
REMARK 924 INTRA-LIGAND FREE ENERGY PREDICTED BY IDOCK:   -1.29 KCAL/MOL
REMARK 927      BINDING AFFINITY PREDICTED BY RF-SCORE:    0.00 PKD
ROOT
HETATM    1  O   HOH     4     -12.869   5.773  72.630  1.00  0.00    -0.451 OA 
HETATM    2  H2  HOH     4     -12.096   5.684  72.084  1.00  0.00     0.000 HD 
HETATM    3 NA   UNL    13      -6.740   8.648  70.602  1.00  0.00    -0.034 Na 
HETATM    4  H1  HOH     4     -12.771   6.613  73.061  1.00  0.00     0.000 HD 
HETATM    5 NA   UNL    14     -10.453   4.265  71.583  1.00  0.00    -0.172 Na 
HETATM    6 FE   UNL    15      -7.517   5.398  71.474  1.00  0.00    -0.073 Fe 
HETATM    7 FE   UNL    16     -11.566   7.840  71.460  1.00  0.00    -0.247 Fe 
HETATM    8 FE   UNL    17     -10.511   4.657  69.269  1.00  0.00    -0.202 Fe 
HETATM    9 FE   UNL    18     -13.473   7.612  70.453  1.00  0.00    -0.537 Fe 
HETATM   10 FE   UNL    19     -11.170   6.797  66.087  1.00  0.00    -0.474 Fe 
HETATM   11  O   UNL    20     -11.266   7.472  68.830  1.00  0.00    -0.423 OA 
HETATM   12  C   UNL    20     -11.393   8.862  68.969  1.00  0.00     0.461 C  
HETATM   13  H   UNL    20     -11.468   6.962  69.606  1.00  0.00     0.000 HD 
ENDROOT
BRANCH  12  14
HETATM   14  C   UNL    20     -11.065   9.691  67.706  1.00  0.00    -0.023 C  
HETATM   15  O   UNL    20     -11.261  11.064  67.941  1.00  0.00    -0.268 OA 
HETATM   16  C   UNL    20     -10.571  11.765  66.938  1.00  0.00    -0.235 C  
HETATM   17  C   UNL    20      -9.680   9.501  67.048  1.00  0.00    -0.176 C  
HETATM   18  H   UNL    20      -8.905   8.481  65.578  1.00  0.00     0.000 HD 
HETATM   19  C   UNL    20      -9.309  10.919  66.553  1.00  0.00    -0.173 C  
HETATM   20  H   UNL    20      -7.358  10.825  66.937  1.00  0.00     0.000 HD 
HETATM   21  O   UNL    20      -9.756   8.597  65.982  1.00  0.00    -0.241 OA 
HETATM   22  O   UNL    20      -8.123  11.337  67.171  1.00  0.00    -0.137 OA 
BRANCH  16  23
HETATM   23  O   UNL    20     -10.389  13.146  67.314  1.00  0.00    -0.240 OA 
BRANCH  23  24
HETATM   24  C   UNL    20     -11.412  14.139  67.068  1.00  0.00    -0.352 C  
HETATM   25  O   UNL    20     -11.877  14.635  68.310  1.00  0.00    -0.322 OA 
HETATM   26  C   UNL    20     -10.919  15.442  68.989  1.00  0.00    -0.252 C  
HETATM   27  H   UNL    20     -10.696  15.740  64.309  1.00  0.00     0.000 HD 
HETATM   28  C   UNL    20     -10.491  16.681  68.149  1.00  0.00    -0.321 C  
HETATM   29  O   UNL    20      -9.547  17.475  68.823  1.00  0.00    -0.291 OA 
HETATM   30  C   UNL    20      -9.975  16.236  66.788  1.00  0.00    -0.261 C  
HETATM   31  O   UNL    20     -10.889  14.988  64.856  1.00  0.00    -0.393 OA 
HETATM   32  H   UNL    20      -9.285  18.231  68.311  1.00  0.00     0.000 HD 
HETATM   33  O   UNL    20      -9.730  17.359  65.989  1.00  0.00    -0.459 OA 
HETATM   34  C   UNL    20     -11.097  15.366  66.176  1.00  0.00    -0.230 C  
HETATM   35  H   UNL    20      -9.409  17.082  65.139  1.00  0.00     0.000 HD 
BRANCH  26  36
HETATM   36  C   UNL    20     -11.586  15.961  70.288  1.00  0.00    -0.354 C  
HETATM   37  O   UNL    20     -12.917  15.539  70.346  1.00  0.00    -0.631 OA 
HETATM   38  H   UNL    20     -13.326  15.858  71.143  1.00  0.00     0.000 HD 
ENDBRANCH  26  36
ENDBRANCH  23  24
ENDBRANCH  16  23
BRANCH  16  39
HETATM   39  C   UNL    20     -11.488  11.780  65.676  1.00  0.00    -0.186 C  
HETATM   40  O   UNL    20     -10.725  11.670  64.505  1.00  0.00    -0.288 OA 
HETATM   41  H   UNL    20     -11.284  11.679  63.737  1.00  0.00     0.000 HD 
ENDBRANCH  16  39
ENDBRANCH  12  14
TORSDOF 5
ENDMDL
MODEL       59
REMARK 921   NORMALIZED FREE ENERGY PREDICTED BY IDOCK:   -5.93 KCAL/MOL
REMARK 922        TOTAL FREE ENERGY PREDICTED BY IDOCK:   -9.25 KCAL/MOL
REMARK 923 INTER-LIGAND FREE ENERGY PREDICTED BY IDOCK:   -8.34 KCAL/MOL
REMARK 924 INTRA-LIGAND FREE ENERGY PREDICTED BY IDOCK:   -0.91 KCAL/MOL
REMARK 927      BINDING AFFINITY PREDICTED BY RF-SCORE:    0.00 PKD
ROOT
HETATM    1  O   HOH     4     -13.347   8.402  72.826  1.00  0.00    -0.622 OA 
HETATM    2  H2  HOH     4     -12.530   8.245  72.366  1.00  0.00     0.000 HD 
HETATM    3 NA   UNL    13      -7.034  11.000  70.998  1.00  0.00    -0.090 Na 
HETATM    4  H1  HOH     4     -13.278   9.290  73.154  1.00  0.00     0.000 HD 
HETATM    5 NA   UNL    14     -10.864   6.775  72.197  1.00  0.00    -0.206 Na 
HETATM    6 FE   UNL    15      -7.918   7.887  72.204  1.00  0.00    -0.083 Fe 
HETATM    7 FE   UNL    16     -11.925  10.304  71.522  1.00  0.00    -0.284 Fe 
HETATM    8 FE   UNL    17     -10.715   6.868  69.856  1.00  0.00    -0.192 Fe 
HETATM    9 FE   UNL    18     -13.739   9.948  70.388  1.00  0.00    -0.503 Fe 
HETATM   10 FE   UNL    19     -11.071   8.584  66.382  1.00  0.00    -0.202 Fe 
HETATM   11  O   UNL    20     -11.399   9.603  68.997  1.00  0.00    -0.452 OA 
HETATM   12  C   UNL    20     -11.524  11.000  68.947  1.00  0.00    -0.296 C  
HETATM   13  H   UNL    20     -11.674   9.197  69.812  1.00  0.00     0.000 HD 
ENDROOT
BRANCH  12  14
HETATM   14  C   UNL    20     -11.077  11.661  67.623  1.00  0.00    -0.255 C  
HETATM   15  O   UNL    20     -11.131  13.063  67.718  1.00  0.00    -0.245 OA 
HETATM   16  C   UNL    20     -10.346  13.586  66.678  1.00  0.00    -0.271 C  
HETATM   17  C   UNL    20      -9.705  11.264  67.035  1.00  0.00    -0.186 C  
HETATM   18  H   UNL    20      -9.008  10.028  65.697  1.00  0.00     0.000 HD 
HETATM   19  C   UNL    20      -9.172  12.579  66.420  1.00  0.00    -0.177 C  
HETATM   20  H   UNL    20      -7.253  12.321  66.879  1.00  0.00     0.000 HD 
HETATM   21  O   UNL    20      -9.851  10.272  66.058  1.00  0.00    -0.206 OA 
HETATM   22  O   UNL    20      -7.964  12.931  67.035  1.00  0.00    -0.131 OA 
BRANCH  16  23
HETATM   23  O   UNL    20     -10.026  14.972  66.926  1.00  0.00    -0.238 OA 
BRANCH  23  24
HETATM   24  C   UNL    20      -9.617  15.432  68.235  1.00  0.00    -0.205 C  
HETATM   25  O   UNL    20      -8.236  15.739  68.201  1.00  0.00    -0.139 OA 
HETATM   26  C   UNL    20      -7.936  16.902  67.434  1.00  0.00    -0.170 C  
HETATM   27  H   UNL    20     -12.093  17.065  69.609  1.00  0.00     0.000 HD 
HETATM   28  C   UNL    20      -8.660  18.169  67.978  1.00  0.00    -0.265 C  
HETATM   29  O   UNL    20      -8.361  19.315  67.220  1.00  0.00    -0.274 OA 
HETATM   30  C   UNL    20     -10.160  17.923  68.050  1.00  0.00    -0.358 C  
HETATM   31  O   UNL    20     -11.652  16.325  69.209  1.00  0.00    -0.293 OA 
HETATM   32  H   UNL    20      -8.802  20.088  67.552  1.00  0.00     0.000 HD 
HETATM   33  O   UNL    20     -10.784  19.010  68.674  1.00  0.00    -0.333 OA 
HETATM   34  C   UNL    20     -10.338  16.638  68.889  1.00  0.00    -0.300 C  
HETATM   35  H   UNL    20     -11.721  18.857  68.719  1.00  0.00     0.000 HD 
BRANCH  26  36
HETATM   36  C   UNL    20      -6.410  17.149  67.541  1.00  0.00    -0.144 C  
HETATM   37  O   UNL    20      -5.710  16.024  67.099  1.00  0.00    -0.323 OA 
HETATM   38  H   UNL    20      -4.774  16.175  67.164  1.00  0.00     0.000 HD 
ENDBRANCH  26  36
ENDBRANCH  23  24
ENDBRANCH  16  23
BRANCH  16  39
HETATM   39  C   UNL    20     -11.224  13.572  65.389  1.00  0.00    -0.289 C  
HETATM   40  O   UNL    20     -10.712  14.453  64.427  1.00  0.00    -0.609 OA 
HETATM   41  H   UNL    20     -11.247  14.444  63.642  1.00  0.00     0.000 HD 
ENDBRANCH  16  39
ENDBRANCH  12  14
TORSDOF 5
ENDMDL
MODEL       60
REMARK 921   NORMALIZED FREE ENERGY PREDICTED BY IDOCK:   -5.84 KCAL/MOL
REMARK 922        TOTAL FREE ENERGY PREDICTED BY IDOCK:   -9.13 KCAL/MOL
REMARK 923 INTER-LIGAND FREE ENERGY PREDICTED BY IDOCK:   -7.43 KCAL/MOL
REMARK 924 INTRA-LIGAND FREE ENERGY PREDICTED BY IDOCK:   -1.70 KCAL/MOL
REMARK 927      BINDING AFFINITY PREDICTED BY RF-SCORE:    0.00 PKD
ROOT
HETATM    1  O   HOH     4     -13.196  15.959  70.969  1.00  0.00    -0.593 OA 
HETATM    2  H2  HOH     4     -12.643  15.682  70.247  1.00  0.00     0.000 HD 
HETATM    3 NA   UNL    13     -12.689  12.011  65.130  1.00  0.00    -0.414 Na 
HETATM    4  H1  HOH     4     -14.009  15.481  70.855  1.00  0.00     0.000 HD 
HETATM    5 NA   UNL    14     -11.350  16.482  68.619  1.00  0.00    -0.285 Na 
HETATM    6 FE   UNL    15     -11.695  15.262  65.736  1.00  0.00    -0.340 Fe 
HETATM    7 FE   UNL    16     -13.264  13.499  69.834  1.00  0.00    -0.156 Fe 
HETATM    8 FE   UNL    17      -9.632  14.907  68.897  1.00  0.00    -0.168 Fe 
HETATM    9 FE   UNL    18     -12.415  13.284  71.819  1.00  0.00    -0.303 Fe 
HETATM   10 FE   UNL    19      -8.178  11.440  69.901  1.00  0.00    -0.354 Fe 
HETATM   11  O   UNL    20     -10.845  12.364  69.765  1.00  0.00    -0.429 OA 
HETATM   12  C   UNL    20     -11.727  11.284  69.917  1.00  0.00    -0.352 C  
HETATM   13  H   UNL    20     -11.229  13.226  69.882  1.00  0.00     0.000 HD 
ENDROOT
BRANCH  12  14
HETATM   14  C   UNL    20     -11.102   9.882  69.727  1.00  0.00    -0.254 C  
HETATM   15  O   UNL    20     -10.566   9.742  68.434  1.00  0.00    -0.208 OA 
HETATM   16  C   UNL    20      -9.679   8.653  68.462  1.00  0.00    -0.163 C  
HETATM   17  C   UNL    20     -10.044   9.410  70.748  1.00  0.00    -0.298 C  
HETATM   18  H   UNL    20      -9.978   8.317  72.362  1.00  0.00     0.000 HD 
HETATM   19  C   UNL    20      -9.040   8.601  69.893  1.00  0.00    -0.151 C  
HETATM   20  H   UNL    20      -7.383   9.154  70.845  1.00  0.00     0.000 HD 
HETATM   21  O   UNL    20     -10.629   8.607  71.735  1.00  0.00    -0.270 OA 
HETATM   22  O   UNL    20      -7.770   9.186  69.979  1.00  0.00    -0.068 OA 
BRANCH  16  23
HETATM   23  O   UNL    20      -8.805   8.678  67.314  1.00  0.00    -0.131 OA 
BRANCH  23  24
HETATM   24  C   UNL    20      -9.253   8.237  66.011  1.00  0.00    -0.166 C  
HETATM   25  O   UNL    20      -9.856   9.329  65.342  1.00  0.00    -0.222 OA 
HETATM   26  C   UNL    20      -8.925  10.333  64.948  1.00  0.00    -0.201 C  
HETATM   27  H   UNL    20      -7.179   5.976  64.883  1.00  0.00     0.000 HD 
HETATM   28  C   UNL    20      -7.829   9.778  63.992  1.00  0.00    -0.141 C  
HETATM   29  O   UNL    20      -6.913  10.772  63.605  1.00  0.00    -0.345 OA 
HETATM   30  C   UNL    20      -7.126   8.592  64.637  1.00  0.00    -0.081 C  
HETATM   31  O   UNL    20      -7.798   6.368  65.488  1.00  0.00    -0.091 OA 
HETATM   32  H   UNL    20      -6.245  10.434  63.022  1.00  0.00     0.000 HD 
HETATM   33  O   UNL    20      -6.246   8.012  63.716  1.00  0.00    -0.065 OA 
HETATM   34  C   UNL    20      -8.244   7.598  65.024  1.00  0.00    -0.113 C  
HETATM   35  H   UNL    20      -5.807   7.271  64.118  1.00  0.00     0.000 HD 
BRANCH  26  36
HETATM   36  C   UNL    20      -9.714  11.423  64.178  1.00  0.00    -0.235 C  
HETATM   37  O   UNL    20     -10.974  10.938  63.816  1.00  0.00    -0.507 OA 
HETATM   38  H   UNL    20     -11.457  11.606  63.344  1.00  0.00     0.000 HD 
ENDBRANCH  26  36
ENDBRANCH  23  24
ENDBRANCH  16  23
BRANCH  16  39
HETATM   39  C   UNL    20     -10.539   7.359  68.321  1.00  0.00    -0.157 C  
HETATM   40  O   UNL    20     -10.265   6.463  69.364  1.00  0.00    -0.174 OA 
HETATM   41  H   UNL    20     -10.789   5.676  69.278  1.00  0.00     0.000 HD 
ENDBRANCH  16  39
ENDBRANCH  12  14
TORSDOF 5
ENDMDL
MODEL       61
REMARK 921   NORMALIZED FREE ENERGY PREDICTED BY IDOCK:   -5.82 KCAL/MOL
REMARK 922        TOTAL FREE ENERGY PREDICTED BY IDOCK:   -9.11 KCAL/MOL
REMARK 923 INTER-LIGAND FREE ENERGY PREDICTED BY IDOCK:   -8.00 KCAL/MOL
REMARK 924 INTRA-LIGAND FREE ENERGY PREDICTED BY IDOCK:   -1.11 KCAL/MOL
REMARK 927      BINDING AFFINITY PREDICTED BY RF-SCORE:    0.00 PKD
ROOT
HETATM    1  O   HOH     4     -10.659   2.574  64.135  1.00  0.00    -0.399 OA 
HETATM    2  H2  HOH     4     -10.219   2.661  64.973  1.00  0.00     0.000 HD 
HETATM    3 NA   UNL    13     -10.999   5.104  70.725  1.00  0.00    -0.230 Na 
HETATM    4  H1  HOH     4     -11.477   3.047  64.237  1.00  0.00     0.000 HD 
HETATM    5 NA   UNL    14      -9.188   1.467  66.547  1.00  0.00    -0.109 Na 
HETATM    6 FE   UNL    15      -9.950   2.030  69.550  1.00  0.00    -0.117 Fe 
HETATM    7 FE   UNL    16     -10.878   4.721  65.774  1.00  0.00    -0.215 Fe 
HETATM    8 FE   UNL    17      -7.436   2.994  66.880  1.00  0.00    -0.060 Fe 
HETATM    9 FE   UNL    18      -9.742   5.337  64.032  1.00  0.00    -0.361 Fe 
HETATM   10 FE   UNL    19      -5.824   6.536  66.903  1.00  0.00    -0.010 Fe 
HETATM   11  O   UNL    20      -8.488   5.713  66.443  1.00  0.00    -0.116 OA 
HETATM   12  C   UNL    20      -9.329   6.835  66.414  1.00  0.00    -0.136 C  
HETATM   13  H   UNL    20      -8.857   4.915  66.081  1.00  0.00     0.000 HD 
ENDROOT
BRANCH  12  14
HETATM   14  C   UNL    20      -8.730   8.133  67.003  1.00  0.00    -0.131 C  
HETATM   15  O   UNL    20      -9.437   9.262  66.553  1.00  0.00    -0.171 OA 
HETATM   16  C   UNL    20      -9.126  10.325  67.417  1.00  0.00    -0.138 C  
HETATM   17  C   UNL    20      -8.573   8.234  68.536  1.00  0.00    -0.133 C  
HETATM   18  H   UNL    20      -7.176   7.960  69.869  1.00  0.00     0.000 HD 
HETATM   19  C   UNL    20      -8.880   9.719  68.842  1.00  0.00    -0.140 C  
HETATM   20  H   UNL    20      -9.834   9.438  70.566  1.00  0.00     0.000 HD 
HETATM   21  O   UNL    20      -7.272   7.897  68.926  1.00  0.00    -0.072 OA 
HETATM   22  O   UNL    20      -9.982   9.805  69.703  1.00  0.00    -0.195 OA 
BRANCH  16  23
HETATM   23  O   UNL    20     -10.085  11.395  67.275  1.00  0.00    -0.188 OA 
BRANCH  23  24
HETATM   24  C   UNL    20      -9.739  12.642  66.629  1.00  0.00    -0.249 C  
HETATM   25  O   UNL    20     -10.222  12.616  65.298  1.00  0.00    -0.286 OA 
HETATM   26  C   UNL    20     -11.642  12.688  65.212  1.00  0.00    -0.351 C  
HETATM   27  H   UNL    20      -9.824  15.046  68.842  1.00  0.00     0.000 HD 
HETATM   28  C   UNL    20     -12.207  13.984  65.865  1.00  0.00    -0.456 C  
HETATM   29  O   UNL    20     -13.609  14.052  65.777  1.00  0.00    -0.576 OA 
HETATM   30  C   UNL    20     -11.733  14.092  67.307  1.00  0.00    -0.392 C  
HETATM   31  O   UNL    20      -9.547  14.221  68.459  1.00  0.00    -0.216 OA 
HETATM   32  H   UNL    20     -13.953  14.842  66.174  1.00  0.00     0.000 HD 
HETATM   33  O   UNL    20     -12.123  15.328  67.837  1.00  0.00    -0.447 OA 
HETATM   34  C   UNL    20     -10.192  13.985  67.253  1.00  0.00    -0.260 C  
HETATM   35  H   UNL    20     -11.827  15.396  68.738  1.00  0.00     0.000 HD 
BRANCH  26  36
HETATM   36  C   UNL    20     -12.017  12.716  63.709  1.00  0.00    -0.510 C  
HETATM   37  O   UNL    20     -12.296  14.025  63.308  1.00  0.00    -1.133 OA 
HETATM   38  H   UNL    20     -12.525  14.042  62.386  1.00  0.00     0.000 HD 
ENDBRANCH  26  36
ENDBRANCH  23  24
ENDBRANCH  16  23
BRANCH  16  39
HETATM   39  C   UNL    20      -7.757  10.910  66.949  1.00  0.00    -0.135 C  
HETATM   40  O   UNL    20      -6.745  10.603  67.869  1.00  0.00    -0.064 OA 
HETATM   41  H   UNL    20      -5.912  10.959  67.584  1.00  0.00     0.000 HD 
ENDBRANCH  16  39
ENDBRANCH  12  14
TORSDOF 5
ENDMDL
MODEL       62
REMARK 921   NORMALIZED FREE ENERGY PREDICTED BY IDOCK:   -5.81 KCAL/MOL
REMARK 922        TOTAL FREE ENERGY PREDICTED BY IDOCK:   -9.09 KCAL/MOL
REMARK 923 INTER-LIGAND FREE ENERGY PREDICTED BY IDOCK:   -7.73 KCAL/MOL
REMARK 924 INTRA-LIGAND FREE ENERGY PREDICTED BY IDOCK:   -1.36 KCAL/MOL
REMARK 927      BINDING AFFINITY PREDICTED BY RF-SCORE:    0.00 PKD
ROOT
HETATM    1  O   HOH     4      -6.507  18.260  68.876  1.00  0.00    -0.213 OA 
HETATM    2  H2  HOH     4      -6.674  17.345  69.074  1.00  0.00     0.000 HD 
HETATM    3 NA   UNL    13      -5.640  11.549  66.838  1.00  0.00    -0.046 Na 
HETATM    4  H1  HOH     4      -6.050  18.253  68.044  1.00  0.00     0.000 HD 
HETATM    5 NA   UNL    14      -6.468  15.834  70.699  1.00  0.00    -0.144 Na 
HETATM    6 FE   UNL    15      -5.281  13.018  69.943  1.00  0.00    -0.076 Fe 
HETATM    7 FE   UNL    16      -6.947  16.339  67.017  1.00  0.00    -0.112 Fe 
HETATM    8 FE   UNL    17      -8.573  14.851  70.362  1.00  0.00    -0.409 Fe 
HETATM    9 FE   UNL    18      -8.678  17.646  67.032  1.00  0.00    -0.209 Fe 
HETATM   10 FE   UNL    19     -11.666  13.819  68.239  1.00  0.00    -0.237 Fe 
HETATM   11  O   UNL    20      -9.208  14.992  67.488  1.00  0.00    -0.183 OA 
HETATM   12  C   UNL    20      -9.094  14.995  66.089  1.00  0.00    -0.202 C  
HETATM   13  H   UNL    20      -8.607  15.568  67.948  1.00  0.00     0.000 HD 
ENDROOT
BRANCH  12  14
HETATM   14  C   UNL    20     -10.071  14.059  65.340  1.00  0.00    -0.319 C  
HETATM   15  O   UNL    20      -9.515  12.777  65.180  1.00  0.00     0.072 OA 
HETATM   16  C   UNL    20     -10.569  11.896  64.884  1.00  0.00    -0.287 C  
HETATM   17  C   UNL    20     -11.504  13.904  65.895  1.00  0.00    -0.325 C  
HETATM   18  H   UNL    20     -13.272  14.660  65.565  1.00  0.00     0.000 HD 
HETATM   19  C   UNL    20     -11.846  12.419  65.627  1.00  0.00    -0.409 C  
HETATM   20  H   UNL    20     -12.886  12.089  67.292  1.00  0.00     0.000 HD 
HETATM   21  O   UNL    20     -12.391  14.755  65.224  1.00  0.00    -0.253 OA 
HETATM   22  O   UNL    20     -12.113  11.772  66.841  1.00  0.00    -0.566 OA 
BRANCH  16  23
HETATM   23  O   UNL    20     -10.161  10.527  65.089  1.00  0.00    -0.305 OA 
BRANCH  23  24
HETATM   24  C   UNL    20      -9.172  10.171  66.084  1.00  0.00    -0.159 C  
HETATM   25  O   UNL    20      -9.756   9.272  67.008  1.00  0.00    -0.163 OA 
HETATM   26  C   UNL    20     -10.014   7.984  66.456  1.00  0.00    -0.213 C  
HETATM   27  H   UNL    20      -6.224  10.106  64.674  1.00  0.00     0.000 HD 
HETATM   28  C   UNL    20      -8.719   7.300  65.928  1.00  0.00    -0.131 C  
HETATM   29  O   UNL    20      -8.977   6.029  65.385  1.00  0.00    -0.323 OA 
HETATM   30  C   UNL    20      -8.022   8.205  64.922  1.00  0.00    -0.145 C  
HETATM   31  O   UNL    20      -7.053  10.482  64.945  1.00  0.00    -0.088 OA 
HETATM   32  H   UNL    20      -8.187   5.611  65.063  1.00  0.00     0.000 HD 
HETATM   33  O   UNL    20      -6.789   7.647  64.565  1.00  0.00    -0.053 OA 
HETATM   34  C   UNL    20      -7.820   9.558  65.642  1.00  0.00    -0.101 C  
HETATM   35  H   UNL    20      -6.353   8.212  63.937  1.00  0.00     0.000 HD 
BRANCH  26  36
HETATM   36  C   UNL    20     -10.586   7.097  67.590  1.00  0.00    -0.248 C  
HETATM   37  O   UNL    20     -11.298   6.024  67.047  1.00  0.00    -0.543 OA 
HETATM   38  H   UNL    20     -11.649   5.480  67.742  1.00  0.00     0.000 HD 
ENDBRANCH  26  36
ENDBRANCH  23  24
ENDBRANCH  16  23
BRANCH  16  39
HETATM   39  C   UNL    20     -10.865  12.033  63.359  1.00  0.00    -0.405 C  
HETATM   40  O   UNL    20     -12.135  11.526  63.051  1.00  0.00    -0.939 OA 
HETATM   41  H   UNL    20     -12.315  11.610  62.122  1.00  0.00     0.000 HD 
ENDBRANCH  16  39
ENDBRANCH  12  14
TORSDOF 5
ENDMDL
MODEL       63
REMARK 921   NORMALIZED FREE ENERGY PREDICTED BY IDOCK:   -5.79 KCAL/MOL
REMARK 922        TOTAL FREE ENERGY PREDICTED BY IDOCK:   -9.08 KCAL/MOL
REMARK 923 INTER-LIGAND FREE ENERGY PREDICTED BY IDOCK:   -8.09 KCAL/MOL
REMARK 924 INTRA-LIGAND FREE ENERGY PREDICTED BY IDOCK:   -0.99 KCAL/MOL
REMARK 927      BINDING AFFINITY PREDICTED BY RF-SCORE:    0.00 PKD
ROOT
HETATM    1  O   HOH     4     -11.849  17.280  73.052  1.00  0.00    -0.072 OA 
HETATM    2  H2  HOH     4     -12.268  16.502  72.702  1.00  0.00     0.000 HD 
HETATM    3 NA   UNL    13     -11.236  10.372  71.692  1.00  0.00    -0.308 Na 
HETATM    4  H1  HOH     4     -10.977  16.998  73.300  1.00  0.00     0.000 HD 
HETATM    5 NA   UNL    14     -14.133  15.293  72.856  1.00  0.00    -0.421 Na 
HETATM    6 FE   UNL    15     -13.840  12.165  73.082  1.00  0.00    -0.474 Fe 
HETATM    7 FE   UNL    16     -10.557  15.293  71.739  1.00  0.00    -0.337 Fe 
HETATM    8 FE   UNL    17     -14.365  14.936  70.547  1.00  0.00    -0.590 Fe 
HETATM    9 FE   UNL    18     -10.559  17.038  70.451  1.00  0.00    -0.232 Fe 
HETATM   10 FE   UNL    19     -13.046  14.529  66.909  1.00  0.00    -0.633 Fe 
HETATM   11  O   UNL    20     -11.670  14.777  69.364  1.00  0.00    -0.289 OA 
HETATM   12  C   UNL    20     -10.306  14.512  69.169  1.00  0.00    -0.189 C  
HETATM   13  H   UNL    20     -11.889  15.217  70.178  1.00  0.00     0.000 HD 
ENDROOT
BRANCH  12  14
HETATM   14  C   UNL    20      -9.949  13.796  67.846  1.00  0.00    -0.240 C  
HETATM   15  O   UNL    20      -9.749  12.420  68.056  1.00  0.00    -0.198 OA 
HETATM   16  C   UNL    20      -9.842  11.785  66.807  1.00  0.00    -0.198 C  
HETATM   17  C   UNL    20     -10.900  13.973  66.641  1.00  0.00    -0.297 C  
HETATM   18  H   UNL    20     -11.023  15.090  65.047  1.00  0.00     0.000 HD 
HETATM   19  C   UNL    20     -10.870  12.593  65.941  1.00  0.00    -0.270 C  
HETATM   20  H   UNL    20     -12.783  12.538  65.396  1.00  0.00     0.000 HD 
HETATM   21  O   UNL    20     -10.438  14.982  65.788  1.00  0.00    -0.297 OA 
HETATM   22  O   UNL    20     -12.161  12.049  65.920  1.00  0.00    -0.546 OA 
BRANCH  16  23
HETATM   23  O   UNL    20     -10.041  10.365  66.969  1.00  0.00    -0.197 OA 
BRANCH  23  24
HETATM   24  C   UNL    20      -9.097   9.547  67.699  1.00  0.00    -0.120 C  
HETATM   25  O   UNL    20      -9.683   9.157  68.927  1.00  0.00    -0.157 OA 
HETATM   26  C   UNL    20     -10.743   8.218  68.772  1.00  0.00    -0.042 C  
HETATM   27  H   UNL    20      -7.336   7.800  65.570  1.00  0.00     0.000 HD 
HETATM   28  C   UNL    20     -10.275   6.910  68.069  1.00  0.00    -0.176 C  
HETATM   29  O   UNL    20     -11.323   5.986  67.919  1.00  0.00    -0.346 OA 
HETATM   30  C   UNL    20      -9.626   7.240  66.732  1.00  0.00    -0.185 C  
HETATM   31  O   UNL    20      -7.692   8.584  65.972  1.00  0.00    -0.090 OA 
HETATM   32  H   UNL    20     -11.037   5.188  67.490  1.00  0.00     0.000 HD 
HETATM   33  O   UNL    20      -9.080   6.077  66.177  1.00  0.00    -0.150 OA 
HETATM   34  C   UNL    20      -8.516   8.269  67.044  1.00  0.00    -0.122 C  
HETATM   35  H   UNL    20      -8.675   6.282  65.342  1.00  0.00     0.000 HD 
BRANCH  26  36
HETATM   36  C   UNL    20     -11.240   7.838  70.190  1.00  0.00    -0.159 C  
HETATM   37  O   UNL    20     -12.268   8.699  70.585  1.00  0.00    -0.490 OA 
HETATM   38  H   UNL    20     -12.572   8.466  71.455  1.00  0.00     0.000 HD 
ENDBRANCH  26  36
ENDBRANCH  23  24
ENDBRANCH  16  23
BRANCH  16  39
HETATM   39  C   UNL    20      -8.458  11.949  66.106  1.00  0.00     0.112 C  
HETATM   40  O   UNL    20      -8.403  11.190  64.928  1.00  0.00    -0.375 OA 
HETATM   41  H   UNL    20      -7.561  11.290  64.502  1.00  0.00     0.000 HD 
ENDBRANCH  16  39
ENDBRANCH  12  14
TORSDOF 5
ENDMDL
MODEL       64
REMARK 921   NORMALIZED FREE ENERGY PREDICTED BY IDOCK:   -5.78 KCAL/MOL
REMARK 922        TOTAL FREE ENERGY PREDICTED BY IDOCK:   -9.05 KCAL/MOL
REMARK 923 INTER-LIGAND FREE ENERGY PREDICTED BY IDOCK:   -7.97 KCAL/MOL
REMARK 924 INTRA-LIGAND FREE ENERGY PREDICTED BY IDOCK:   -1.08 KCAL/MOL
REMARK 927      BINDING AFFINITY PREDICTED BY RF-SCORE:    0.00 PKD
ROOT
HETATM    1  O   HOH     4     -10.067  20.708  65.146  1.00  0.00    -0.228 OA 
HETATM    2  H2  HOH     4      -9.969  20.372  66.030  1.00  0.00     0.000 HD 
HETATM    3 NA   UNL    13      -6.331  16.564  69.485  1.00  0.00    -0.136 Na 
HETATM    4  H1  HOH     4      -9.380  20.284  64.645  1.00  0.00     0.000 HD 
HETATM    5 NA   UNL    14      -9.827  21.033  68.153  1.00  0.00    -0.316 Na 
HETATM    6 FE   UNL    15      -7.570  19.755  69.941  1.00  0.00    -0.330 Fe 
HETATM    7 FE   UNL    16      -9.167  18.227  65.760  1.00  0.00    -0.268 Fe 
HETATM    8 FE   UNL    17     -11.224  19.351  69.009  1.00  0.00    -0.276 Fe 
HETATM    9 FE   UNL    18     -11.134  18.011  64.873  1.00  0.00    -0.517 Fe 
HETATM   10 FE   UNL    19     -12.864  15.822  69.026  1.00  0.00    -0.570 Fe 
HETATM   11  O   UNL    20     -10.851  16.925  67.377  1.00  0.00    -0.278 OA 
HETATM   12  C   UNL    20     -10.278  15.913  66.592  1.00  0.00    -0.288 C  
HETATM   13  H   UNL    20     -10.677  17.814  67.089  1.00  0.00     0.000 HD 
ENDROOT
BRANCH  12  14
HETATM   14  C   UNL    20     -10.561  14.467  67.059  1.00  0.00    -0.274 C  
HETATM   15  O   UNL    20     -10.043  13.533  66.144  1.00  0.00    -0.290 OA 
HETATM   16  C   UNL    20      -9.962  12.296  66.806  1.00  0.00    -0.205 C  
HETATM   17  C   UNL    20     -10.114  14.058  68.480  1.00  0.00    -0.236 C  
HETATM   18  H   UNL    20     -10.903  13.911  70.258  1.00  0.00     0.000 HD 
HETATM   19  C   UNL    20      -9.663  12.587  68.317  1.00  0.00    -0.220 C  
HETATM   20  H   UNL    20      -8.132  12.643  69.587  1.00  0.00     0.000 HD 
HETATM   21  O   UNL    20     -11.178  14.163  69.385  1.00  0.00    -0.256 OA 
HETATM   22  O   UNL    20      -8.313  12.467  68.672  1.00  0.00    -0.107 OA 
BRANCH  16  23
HETATM   23  O   UNL    20      -9.095  11.391  66.091  1.00  0.00    -0.199 OA 
BRANCH  23  24
HETATM   24  C   UNL    20      -8.197  10.494  66.786  1.00  0.00    -0.126 C  
HETATM   25  O   UNL    20      -8.934   9.376  67.247  1.00  0.00    -0.129 OA 
HETATM   26  C   UNL    20      -9.367   8.515  66.198  1.00  0.00    -0.214 C  
HETATM   27  H   UNL    20      -5.256  10.624  65.366  1.00  0.00     0.000 HD 
HETATM   28  C   UNL    20      -8.176   7.951  65.369  1.00  0.00    -0.138 C  
HETATM   29  O   UNL    20      -8.607   7.101  64.335  1.00  0.00    -0.350 OA 
HETATM   30  C   UNL    20      -7.325   9.093  64.833  1.00  0.00    -0.101 C  
HETATM   31  O   UNL    20      -6.026  10.959  65.810  1.00  0.00    -0.136 OA 
HETATM   32  H   UNL    20      -7.881   6.756  63.830  1.00  0.00     0.000 HD 
HETATM   33  O   UNL    20      -6.180   8.576  64.215  1.00  0.00    -0.066 OA 
HETATM   34  C   UNL    20      -6.941   9.947  66.063  1.00  0.00    -0.104 C  
HETATM   35  H   UNL    20      -5.649   9.289  63.880  1.00  0.00     0.000 HD 
BRANCH  26  36
HETATM   36  C   UNL    20     -10.096   7.314  66.852  1.00  0.00    -0.247 C  
HETATM   37  O   UNL    20     -10.969   7.767  67.845  1.00  0.00    -0.476 OA 
HETATM   38  H   UNL    20     -11.417   7.030  68.246  1.00  0.00     0.000 HD 
ENDBRANCH  26  36
ENDBRANCH  23  24
ENDBRANCH  16  23
BRANCH  16  39
HETATM   39  C   UNL    20     -11.385  11.658  66.757  1.00  0.00    -0.286 C  
HETATM   40  O   UNL    20     -11.538  10.705  67.775  1.00  0.00    -0.603 OA 
HETATM   41  H   UNL    20     -12.404  10.317  67.746  1.00  0.00     0.000 HD 
ENDBRANCH  16  39
ENDBRANCH  12  14
TORSDOF 5
ENDMDL
MODEL       65
REMARK 921   NORMALIZED FREE ENERGY PREDICTED BY IDOCK:   -5.76 KCAL/MOL
REMARK 922        TOTAL FREE ENERGY PREDICTED BY IDOCK:   -9.03 KCAL/MOL
REMARK 923 INTER-LIGAND FREE ENERGY PREDICTED BY IDOCK:   -7.70 KCAL/MOL
REMARK 924 INTRA-LIGAND FREE ENERGY PREDICTED BY IDOCK:   -1.33 KCAL/MOL
REMARK 927      BINDING AFFINITY PREDICTED BY RF-SCORE:    0.00 PKD
ROOT
HETATM    1  O   HOH     4     -13.411   9.025  72.966  1.00  0.00    -0.847 OA 
HETATM    2  H2  HOH     4     -12.620   8.811  72.485  1.00  0.00     0.000 HD 
HETATM    3 NA   UNL    13      -6.941  11.129  71.053  1.00  0.00    -0.096 Na 
HETATM    4  H1  HOH     4     -13.260   9.897  73.312  1.00  0.00     0.000 HD 
HETATM    5 NA   UNL    14     -11.087   7.212  72.245  1.00  0.00    -0.215 Na 
HETATM    6 FE   UNL    15      -8.059   8.073  72.210  1.00  0.00    -0.086 Fe 
HETATM    7 FE   UNL    16     -11.861  10.832  71.673  1.00  0.00    -0.308 Fe 
HETATM    8 FE   UNL    17     -10.980   7.348  69.904  1.00  0.00    -0.216 Fe 
HETATM    9 FE   UNL    18     -13.722  10.656  70.573  1.00  0.00    -0.332 Fe 
HETATM   10 FE   UNL    19     -11.262   9.170  66.477  1.00  0.00    -0.101 Fe 
HETATM   11  O   UNL    20     -11.449  10.150  69.122  1.00  0.00    -0.408 OA 
HETATM   12  C   UNL    20     -11.457  11.553  69.105  1.00  0.00    -0.297 C  
HETATM   13  H   UNL    20     -11.740   9.749  69.933  1.00  0.00     0.000 HD 
ENDROOT
BRANCH  12  14
HETATM   14  C   UNL    20     -10.983  12.207  67.786  1.00  0.00    -0.233 C  
HETATM   15  O   UNL    20     -11.014  13.609  67.880  1.00  0.00    -0.249 OA 
HETATM   16  C   UNL    20     -10.207  14.118  66.849  1.00  0.00    -0.267 C  
HETATM   17  C   UNL    20      -9.612  11.786  67.214  1.00  0.00    -0.176 C  
HETATM   18  H   UNL    20      -8.920  10.537  65.884  1.00  0.00     0.000 HD 
HETATM   19  C   UNL    20      -9.049  13.091  66.605  1.00  0.00    -0.176 C  
HETATM   20  H   UNL    20      -7.140  12.800  67.086  1.00  0.00     0.000 HD 
HETATM   21  O   UNL    20      -9.764  10.796  66.235  1.00  0.00    -0.191 OA 
HETATM   22  O   UNL    20      -7.842  13.422  67.234  1.00  0.00    -0.157 OA 
BRANCH  16  23
HETATM   23  O   UNL    20      -9.867  15.498  67.101  1.00  0.00    -0.231 OA 
BRANCH  23  24
HETATM   24  C   UNL    20     -10.862  16.547  67.044  1.00  0.00    -0.113 C  
HETATM   25  O   UNL    20     -10.931  17.182  68.307  1.00  0.00    -0.352 OA 
HETATM   26  C   UNL    20      -9.779  17.963  68.609  1.00  0.00    -0.353 C  
HETATM   27  H   UNL    20     -10.865  17.845  64.044  1.00  0.00     0.000 HD 
HETATM   28  C   UNL    20      -9.537  19.087  67.560  1.00  0.00    -0.305 C  
HETATM   29  O   UNL    20      -8.399  19.856  67.862  1.00  0.00    -0.301 OA 
HETATM   30  C   UNL    20      -9.451  18.488  66.163  1.00  0.00    -0.165 C  
HETATM   31  O   UNL    20     -10.938  17.160  64.698  1.00  0.00    -1.005 OA 
HETATM   32  H   UNL    20      -8.252  20.542  67.222  1.00  0.00     0.000 HD 
HETATM   33  O   UNL    20      -9.379  19.516  65.215  1.00  0.00     0.127 OA 
HETATM   34  C   UNL    20     -10.745  17.664  65.977  1.00  0.00    -0.117 C  
HETATM   35  H   UNL    20      -9.326  19.143  64.343  1.00  0.00     0.000 HD 
BRANCH  26  36
HETATM   36  C   UNL    20     -10.023  18.643  69.980  1.00  0.00     1.025 C  
HETATM   37  O   UNL    20     -10.341  19.991  69.797  1.00  0.00    -0.590 OA 
HETATM   38  H   UNL    20     -10.491  20.408  70.637  1.00  0.00     0.000 HD 
ENDBRANCH  26  36
ENDBRANCH  23  24
ENDBRANCH  16  23
BRANCH  16  39
HETATM   39  C   UNL    20     -11.072  14.119  65.550  1.00  0.00    -0.310 C  
HETATM   40  O   UNL    20     -10.264  13.966  64.415  1.00  0.00    -0.654 OA 
HETATM   41  H   UNL    20     -10.790  13.966  63.624  1.00  0.00     0.000 HD 
ENDBRANCH  16  39
ENDBRANCH  12  14
TORSDOF 5
ENDMDL
MODEL       66
REMARK 921   NORMALIZED FREE ENERGY PREDICTED BY IDOCK:   -5.73 KCAL/MOL
REMARK 922        TOTAL FREE ENERGY PREDICTED BY IDOCK:   -8.99 KCAL/MOL
REMARK 923 INTER-LIGAND FREE ENERGY PREDICTED BY IDOCK:   -8.27 KCAL/MOL
REMARK 924 INTRA-LIGAND FREE ENERGY PREDICTED BY IDOCK:   -0.72 KCAL/MOL
REMARK 927      BINDING AFFINITY PREDICTED BY RF-SCORE:    0.00 PKD
ROOT
HETATM    1  O   HOH     4      -7.557  19.146  69.076  1.00  0.00    -0.345 OA 
HETATM    2  H2  HOH     4      -8.419  18.746  69.108  1.00  0.00     0.000 HD 
HETATM    3 NA   UNL    13     -11.483  13.824  71.567  1.00  0.00    -0.446 Na 
HETATM    4  H1  HOH     4      -6.997  18.564  69.577  1.00  0.00     0.000 HD 
HETATM    5 NA   UNL    14     -10.554  19.209  69.544  1.00  0.00    -0.516 Na 
HETATM    6 FE   UNL    15     -12.145  17.208  71.383  1.00  0.00    -0.555 Fe 
HETATM    7 FE   UNL    16      -8.012  16.478  69.203  1.00  0.00    -0.180 Fe 
HETATM    8 FE   UNL    17     -11.425  17.982  67.741  1.00  0.00    -0.349 Fe 
HETATM    9 FE   UNL    18      -7.240  16.919  67.225  1.00  0.00    -0.124 Fe 
HETATM   10 FE   UNL    19     -11.400  15.120  65.105  1.00  0.00    -0.312 Fe 
HETATM   11  O   UNL    20      -9.675  15.656  67.279  1.00  0.00    -0.217 OA 
HETATM   12  C   UNL    20      -8.816  14.565  67.480  1.00  0.00    -0.188 C  
HETATM   13  H   UNL    20      -9.414  16.466  67.703  1.00  0.00     0.000 HD 
ENDROOT
BRANCH  12  14
HETATM   14  C   UNL    20      -9.241  13.248  66.790  1.00  0.00    -0.233 C  
HETATM   15  O   UNL    20      -9.050  12.148  67.646  1.00  0.00    -0.169 OA 
HETATM   16  C   UNL    20      -9.815  11.084  67.142  1.00  0.00    -0.184 C  
HETATM   17  C   UNL    20     -10.663  13.161  66.194  1.00  0.00    -0.278 C  
HETATM   18  H   UNL    20     -11.519  13.385  64.456  1.00  0.00     0.000 HD 
HETATM   19  C   UNL    20     -11.087  11.697  66.462  1.00  0.00    -0.301 C  
HETATM   20  H   UNL    20     -13.006  12.051  66.853  1.00  0.00     0.000 HD 
HETATM   21  O   UNL    20     -10.645  13.438  64.822  1.00  0.00    -0.358 OA 
HETATM   22  O   UNL    20     -12.235  11.679  67.265  1.00  0.00    -0.414 OA 
BRANCH  16  23
HETATM   23  O   UNL    20      -9.991  10.061  68.145  1.00  0.00    -0.147 OA 
BRANCH  23  24
HETATM   24  C   UNL    20      -9.692  10.308  69.539  1.00  0.00    -0.211 C  
HETATM   25  O   UNL    20     -10.860  10.788  70.179  1.00  0.00    -0.234 OA 
HETATM   26  C   UNL    20     -11.871   9.795  70.323  1.00  0.00    -0.144 C  
HETATM   27  H   UNL    20      -7.495   8.114  70.559  1.00  0.00     0.000 HD 
HETATM   28  C   UNL    20     -11.382   8.571  71.152  1.00  0.00    -0.270 C  
HETATM   29  O   UNL    20     -12.383   7.594  71.293  1.00  0.00    -0.314 OA 
HETATM   30  C   UNL    20     -10.120   7.990  70.530  1.00  0.00    -0.192 C  
HETATM   31  O   UNL    20      -7.843   8.814  70.019  1.00  0.00    -0.085 OA 
HETATM   32  H   UNL    20     -12.084   6.847  71.799  1.00  0.00     0.000 HD 
HETATM   33  O   UNL    20      -9.607   6.986  71.360  1.00  0.00    -0.163 OA 
HETATM   34  C   UNL    20      -9.124   9.167  70.419  1.00  0.00    -0.233 C  
HETATM   35  H   UNL    20      -8.819   6.624  70.972  1.00  0.00     0.000 HD 
BRANCH  26  36
HETATM   36  C   UNL    20     -13.052  10.441  71.091  1.00  0.00    -0.383 C  
HETATM   37  O   UNL    20     -12.645  11.645  71.673  1.00  0.00    -0.277 OA 
HETATM   38  H   UNL    20     -13.369  12.042  72.144  1.00  0.00     0.000 HD 
ENDBRANCH  26  36
ENDBRANCH  23  24
ENDBRANCH  16  23
BRANCH  16  39
HETATM   39  C   UNL    20      -8.984  10.425  65.997  1.00  0.00    -0.159 C  
HETATM   40  O   UNL    20      -9.749  10.310  64.828  1.00  0.00    -0.287 OA 
HETATM   41  H   UNL    20      -9.243   9.910  64.132  1.00  0.00     0.000 HD 
ENDBRANCH  16  39
ENDBRANCH  12  14
TORSDOF 5
ENDMDL
MODEL       67
REMARK 921   NORMALIZED FREE ENERGY PREDICTED BY IDOCK:   -5.68 KCAL/MOL
REMARK 922        TOTAL FREE ENERGY PREDICTED BY IDOCK:   -8.93 KCAL/MOL
REMARK 923 INTER-LIGAND FREE ENERGY PREDICTED BY IDOCK:   -8.05 KCAL/MOL
REMARK 924 INTRA-LIGAND FREE ENERGY PREDICTED BY IDOCK:   -0.87 KCAL/MOL
REMARK 927      BINDING AFFINITY PREDICTED BY RF-SCORE:    0.00 PKD
ROOT
HETATM    1  O   HOH     4      -7.591  19.216  67.997  1.00  0.00    -0.262 OA 
HETATM    2  H2  HOH     4      -7.618  18.309  68.280  1.00  0.00     0.000 HD 
HETATM    3 NA   UNL    13      -5.966  12.516  66.442  1.00  0.00    -0.234 Na 
HETATM    4  H1  HOH     4      -7.196  19.192  67.133  1.00  0.00     0.000 HD 
HETATM    5 NA   UNL    14      -7.097  16.990  69.999  1.00  0.00    -0.209 Na 
HETATM    6 FE   UNL    15      -5.594  14.294  69.379  1.00  0.00    -0.084 Fe 
HETATM    7 FE   UNL    16      -7.895  17.093  66.340  1.00  0.00    -0.159 Fe 
HETATM    8 FE   UNL    17      -9.068  15.717  69.915  1.00  0.00    -0.225 Fe 
HETATM    9 FE   UNL    18      -9.781  18.162  66.390  1.00  0.00    -0.263 Fe 
HETATM   10 FE   UNL    19     -12.133  14.107  68.139  1.00  0.00    -0.271 Fe 
HETATM   11  O   UNL    20      -9.914  15.514  67.099  1.00  0.00    -0.237 OA 
HETATM   12  C   UNL    20      -9.899  15.405  65.700  1.00  0.00    -0.352 C  
HETATM   13  H   UNL    20      -9.366  16.202  67.461  1.00  0.00     0.000 HD 
ENDROOT
BRANCH  12  14
HETATM   14  C   UNL    20     -10.790  14.287  65.110  1.00  0.00    -0.378 C  
HETATM   15  O   UNL    20     -10.046  13.113  64.894  1.00  0.00    -0.283 OA 
HETATM   16  C   UNL    20     -10.959  12.054  64.763  1.00  0.00    -0.311 C  
HETATM   17  C   UNL    20     -12.085  13.911  65.864  1.00  0.00    -0.433 C  
HETATM   18  H   UNL    20     -13.986  14.339  65.775  1.00  0.00     0.000 HD 
HETATM   19  C   UNL    20     -12.194  12.380  65.670  1.00  0.00    -0.250 C  
HETATM   20  H   UNL    20     -12.925  11.943  67.469  1.00  0.00     0.000 HD 
HETATM   21  O   UNL    20     -13.190  14.571  65.312  1.00  0.00    -0.512 OA 
HETATM   22  O   UNL    20     -12.177  11.746  66.919  1.00  0.00    -0.391 OA 
BRANCH  16  23
HETATM   23  O   UNL    20     -10.294  10.784  64.929  1.00  0.00    -0.312 OA 
BRANCH  23  24
HETATM   24  C   UNL    20      -8.851  10.676  64.916  1.00  0.00    -0.190 C  
HETATM   25  O   UNL    20      -8.345  11.166  66.144  1.00  0.00    -0.169 OA 
HETATM   26  C   UNL    20      -8.637  10.320  67.252  1.00  0.00    -0.125 C  
HETATM   27  H   UNL    20      -8.000   8.022  63.209  1.00  0.00     0.000 HD 
HETATM   28  C   UNL    20      -8.054   8.888  67.071  1.00  0.00    -0.109 C  
HETATM   29  O   UNL    20      -8.344   8.057  68.167  1.00  0.00    -0.125 OA 
HETATM   30  C   UNL    20      -8.550   8.283  65.765  1.00  0.00    -0.161 C  
HETATM   31  O   UNL    20      -8.409   8.865  63.364  1.00  0.00    -0.184 OA 
HETATM   32  H   UNL    20      -7.987   7.184  68.057  1.00  0.00     0.000 HD 
HETATM   33  O   UNL    20      -7.907   7.060  65.541  1.00  0.00    -0.101 OA 
HETATM   34  C   UNL    20      -8.183   9.302  64.662  1.00  0.00    -0.148 C  
HETATM   35  H   UNL    20      -8.216   6.682  64.726  1.00  0.00     0.000 HD 
BRANCH  26  36
HETATM   36  C   UNL    20      -7.971  10.946  68.504  1.00  0.00    -0.134 C  
HETATM   37  O   UNL    20      -8.634  12.123  68.862  1.00  0.00    -0.363 OA 
HETATM   38  H   UNL    20      -8.226  12.506  69.630  1.00  0.00     0.000 HD 
ENDBRANCH  26  36
ENDBRANCH  23  24
ENDBRANCH  16  23
BRANCH  16  39
HETATM   39  C   UNL    20     -11.479  12.078  63.292  1.00  0.00    -0.310 C  
HETATM   40  O   UNL    20     -12.880  12.034  63.259  1.00  0.00    -0.771 OA 
HETATM   41  H   UNL    20     -13.196  12.049  62.363  1.00  0.00     0.000 HD 
ENDBRANCH  16  39
ENDBRANCH  12  14
TORSDOF 5
ENDMDL
MODEL       68
REMARK 921   NORMALIZED FREE ENERGY PREDICTED BY IDOCK:   -5.68 KCAL/MOL
REMARK 922        TOTAL FREE ENERGY PREDICTED BY IDOCK:   -8.93 KCAL/MOL
REMARK 923 INTER-LIGAND FREE ENERGY PREDICTED BY IDOCK:   -7.87 KCAL/MOL
REMARK 924 INTRA-LIGAND FREE ENERGY PREDICTED BY IDOCK:   -1.05 KCAL/MOL
REMARK 927      BINDING AFFINITY PREDICTED BY RF-SCORE:    0.00 PKD
ROOT
HETATM    1  O   HOH     4     -10.351   7.551  70.558  1.00  0.00    -0.210 OA 
HETATM    2  H2  HOH     4      -9.740   8.208  70.245  1.00  0.00     0.000 HD 
HETATM    3 NA   UNL    13      -8.791  14.434  70.191  1.00  0.00    -0.355 Na 
HETATM    4  H1  HOH     4     -11.047   8.043  70.978  1.00  0.00     0.000 HD 
HETATM    5 NA   UNL    14      -7.575   8.735  70.247  1.00  0.00    -0.051 Na 
HETATM    6 FE   UNL    15      -6.789  11.712  70.907  1.00  0.00    -0.224 Fe 
HETATM    7 FE   UNL    16     -11.051  10.034  69.730  1.00  0.00    -0.198 Fe 
HETATM    8 FE   UNL    17      -7.499   9.391  67.994  1.00  0.00    -0.073 Fe 
HETATM    9 FE   UNL    18     -11.771   8.621  68.251  1.00  0.00    -0.344 Fe 
HETATM   10 FE   UNL    19      -9.007  10.801  64.696  1.00  0.00    -0.165 Fe 
HETATM   11  O   UNL    20     -10.104  10.577  67.291  1.00  0.00    -0.185 OA 
HETATM   12  C   UNL    20     -11.316  11.281  67.353  1.00  0.00    -0.276 C  
HETATM   13  H   UNL    20      -9.953   9.959  67.997  1.00  0.00     0.000 HD 
ENDROOT
BRANCH  12  14
HETATM   14  C   UNL    20     -11.562  12.287  66.204  1.00  0.00    -0.390 C  
HETATM   15  O   UNL    20     -10.930  13.516  66.468  1.00  0.00    -0.288 OA 
HETATM   16  C   UNL    20     -10.839  14.212  65.252  1.00  0.00    -0.349 C  
HETATM   17  C   UNL    20     -11.204  11.854  64.766  1.00  0.00    -0.297 C  
HETATM   18  H   UNL    20     -12.116  11.112  63.209  1.00  0.00     0.000 HD 
HETATM   19  C   UNL    20     -10.670  13.150  64.111  1.00  0.00    -0.374 C  
HETATM   20  H   UNL    20      -9.243  12.312  63.004  1.00  0.00     0.000 HD 
HETATM   21  O   UNL    20     -12.336  11.378  64.094  1.00  0.00     0.061 OA 
HETATM   22  O   UNL    20      -9.346  12.955  63.695  1.00  0.00     0.481 OA 
BRANCH  16  23
HETATM   23  O   UNL    20      -9.876  15.283  65.348  1.00  0.00    -0.332 OA 
BRANCH  23  24
HETATM   24  C   UNL    20      -9.337  15.704  66.623  1.00  0.00    -0.265 C  
HETATM   25  O   UNL    20      -8.036  16.223  66.420  1.00  0.00    -0.290 OA 
HETATM   26  C   UNL    20      -8.028  17.471  65.732  1.00  0.00     0.164 C  
HETATM   27  H   UNL    20     -11.774  16.831  68.487  1.00  0.00     0.000 HD 
HETATM   28  C   UNL    20      -8.829  18.568  66.492  1.00  0.00    -0.293 C  
HETATM   29  O   UNL    20      -8.818  19.798  65.811  1.00  0.00    -0.375 OA 
HETATM   30  C   UNL    20     -10.250  18.089  66.755  1.00  0.00    -0.364 C  
HETATM   31  O   UNL    20     -11.300  16.200  67.959  1.00  0.00    -0.326 OA 
HETATM   32  H   UNL    20      -9.307  20.468  66.275  1.00  0.00     0.000 HD 
HETATM   33  O   UNL    20     -10.916  19.019  67.562  1.00  0.00    -0.443 OA 
HETATM   34  C   UNL    20     -10.110  16.734  67.484  1.00  0.00    -0.276 C  
HETATM   35  H   UNL    20     -11.803  18.720  67.727  1.00  0.00     0.000 HD 
BRANCH  26  36
HETATM   36  C   UNL    20      -6.554  17.943  65.641  1.00  0.00    -0.159 C  
HETATM   37  O   UNL    20      -6.418  18.899  64.631  1.00  0.00    -0.500 OA 
HETATM   38  H   UNL    20      -5.514  19.188  64.575  1.00  0.00     0.000 HD 
ENDBRANCH  26  36
ENDBRANCH  23  24
ENDBRANCH  16  23
BRANCH  16  39
HETATM   39  C   UNL    20     -12.220  14.895  65.010  1.00  0.00    -0.169 C  
HETATM   40  O   UNL    20     -12.551  14.881  63.648  1.00  0.00    -1.006 OA 
HETATM   41  H   UNL    20     -13.392  15.297  63.501  1.00  0.00     0.000 HD 
ENDBRANCH  16  39
ENDBRANCH  12  14
TORSDOF 5
ENDMDL
MODEL       69
REMARK 921   NORMALIZED FREE ENERGY PREDICTED BY IDOCK:   -5.65 KCAL/MOL
REMARK 922        TOTAL FREE ENERGY PREDICTED BY IDOCK:   -8.89 KCAL/MOL
REMARK 923 INTER-LIGAND FREE ENERGY PREDICTED BY IDOCK:   -8.11 KCAL/MOL
REMARK 924 INTRA-LIGAND FREE ENERGY PREDICTED BY IDOCK:   -0.78 KCAL/MOL
REMARK 927      BINDING AFFINITY PREDICTED BY RF-SCORE:    0.00 PKD
ROOT
HETATM    1  O   HOH     4     -13.939  14.092  72.697  1.00  0.00    -0.654 OA 
HETATM    2  H2  HOH     4     -13.366  14.116  71.939  1.00  0.00     0.000 HD 
HETATM    3 NA   UNL    13     -13.028  12.207  65.947  1.00  0.00    -0.186 Na 
HETATM    4  H1  HOH     4     -14.690  13.580  72.421  1.00  0.00     0.000 HD 
HETATM    5 NA   UNL    14     -12.196  15.522  70.666  1.00  0.00    -0.254 Na 
HETATM    6 FE   UNL    15     -12.424  15.210  67.541  1.00  0.00    -0.451 Fe 
HETATM    7 FE   UNL    16     -13.724  12.107  70.864  1.00  0.00    -0.096 Fe 
HETATM    8 FE   UNL    17     -10.298  14.151  70.496  1.00  0.00    -0.414 Fe 
HETATM    9 FE   UNL    18     -12.833  11.396  72.710  1.00  0.00    -0.349 Fe 
HETATM   10 FE   UNL    19      -8.428  10.739  70.432  1.00  0.00    -0.340 Fe 
HETATM   11  O   UNL    20     -11.188  11.341  70.515  1.00  0.00    -0.420 OA 
HETATM   12  C   UNL    20     -11.932  10.170  70.307  1.00  0.00    -0.233 C  
HETATM   13  H   UNL    20     -11.671  12.074  70.879  1.00  0.00     0.000 HD 
ENDROOT
BRANCH  12  14
HETATM   14  C   UNL    20     -11.146   8.977  69.715  1.00  0.00    -0.104 C  
HETATM   15  O   UNL    20     -11.023   9.099  68.319  1.00  0.00    -0.103 OA 
HETATM   16  C   UNL    20      -9.983   8.247  67.912  1.00  0.00    -0.183 C  
HETATM   17  C   UNL    20      -9.753   8.658  70.301  1.00  0.00    -0.174 C  
HETATM   18  H   UNL    20      -8.982   7.447  71.623  1.00  0.00     0.000 HD 
HETATM   19  C   UNL    20      -8.933   8.195  69.074  1.00  0.00    -0.144 C  
HETATM   20  H   UNL    20      -7.196   9.013  69.600  1.00  0.00     0.000 HD 
HETATM   21  O   UNL    20      -9.839   7.644  71.263  1.00  0.00    -0.172 OA 
HETATM   22  O   UNL    20      -7.833   9.044  68.896  1.00  0.00    -0.092 OA 
BRANCH  16  23
HETATM   23  O   UNL    20      -9.531   8.591  66.585  1.00  0.00    -0.173 OA 
BRANCH  23  24
HETATM   24  C   UNL    20      -8.702   9.752  66.345  1.00  0.00    -0.131 C  
HETATM   25  O   UNL    20      -7.885   9.504  65.216  1.00  0.00    -0.105 OA 
HETATM   26  C   UNL    20      -8.610   9.472  63.991  1.00  0.00    -0.207 C  
HETATM   27  H   UNL    20     -10.368  12.439  67.176  1.00  0.00     0.000 HD 
HETATM   28  C   UNL    20      -9.358  10.809  63.713  1.00  0.00    -0.266 C  
HETATM   29  O   UNL    20     -10.072  10.773  62.502  1.00  0.00    -0.707 OA 
HETATM   30  C   UNL    20     -10.265  11.154  64.885  1.00  0.00    -0.303 C  
HETATM   31  O   UNL    20      -9.965  11.588  67.303  1.00  0.00    -0.189 OA 
HETATM   32  H   UNL    20     -10.528  11.589  62.332  1.00  0.00     0.000 HD 
HETATM   33  O   UNL    20     -10.819  12.425  64.691  1.00  0.00    -0.284 OA 
HETATM   34  C   UNL    20      -9.359  11.140  66.138  1.00  0.00    -0.206 C  
HETATM   35  H   UNL    20     -11.385  12.640  65.423  1.00  0.00     0.000 HD 
BRANCH  26  36
HETATM   36  C   UNL    20      -7.586   9.258  62.848  1.00  0.00    -0.106 C  
HETATM   37  O   UNL    20      -6.919  10.455  62.572  1.00  0.00    -0.131 OA 
HETATM   38  H   UNL    20      -6.290  10.325  61.872  1.00  0.00     0.000 HD 
ENDBRANCH  26  36
ENDBRANCH  23  24
ENDBRANCH  16  23
BRANCH  16  39
HETATM   39  C   UNL    20     -10.585   6.812  67.803  1.00  0.00    -0.249 C  
HETATM   40  O   UNL    20     -11.608   6.772  66.846  1.00  0.00    -0.683 OA 
HETATM   41  H   UNL    20     -11.974   5.898  66.779  1.00  0.00     0.000 HD 
ENDBRANCH  16  39
ENDBRANCH  12  14
TORSDOF 5
ENDMDL
MODEL       70
REMARK 921   NORMALIZED FREE ENERGY PREDICTED BY IDOCK:   -5.65 KCAL/MOL
REMARK 922        TOTAL FREE ENERGY PREDICTED BY IDOCK:   -8.88 KCAL/MOL
REMARK 923 INTER-LIGAND FREE ENERGY PREDICTED BY IDOCK:   -7.20 KCAL/MOL
REMARK 924 INTRA-LIGAND FREE ENERGY PREDICTED BY IDOCK:   -1.69 KCAL/MOL
REMARK 927      BINDING AFFINITY PREDICTED BY RF-SCORE:    0.00 PKD
ROOT
HETATM    1  O   HOH     4     -12.676  11.525  62.658  1.00  0.00    -0.779 OA 
HETATM    2  H2  HOH     4     -12.479  12.072  63.410  1.00  0.00     0.000 HD 
HETATM    3 NA   UNL    13      -7.857  15.552  65.899  1.00  0.00    -0.257 Na 
HETATM    4  H1  HOH     4     -11.873  11.505  62.151  1.00  0.00     0.000 HD 
HETATM    5 NA   UNL    14     -13.256  13.808  64.570  1.00  0.00    -0.620 Na 
HETATM    6 FE   UNL    15     -11.224  16.086  65.344  1.00  0.00    -0.315 Fe 
HETATM    7 FE   UNL    16     -10.238  11.717  63.825  1.00  0.00    -0.236 Fe 
HETATM    8 FE   UNL    17     -12.784  12.900  66.683  1.00  0.00    -0.333 Fe 
HETATM    9 FE   UNL    18     -11.023   9.744  64.265  1.00  0.00    -0.226 Fe 
HETATM   10 FE   UNL    19     -10.812  10.659  69.179  1.00  0.00    -0.166 Fe 
HETATM   11  O   UNL    20     -10.351  11.253  66.455  1.00  0.00    -0.224 OA 
HETATM   12  C   UNL    20      -9.087  10.775  66.076  1.00  0.00    -0.185 C  
HETATM   13  H   UNL    20     -10.938  11.469  65.740  1.00  0.00     0.000 HD 
ENDROOT
BRANCH  12  14
HETATM   14  C   UNL    20      -8.131  10.423  67.239  1.00  0.00    -0.114 C  
HETATM   15  O   UNL    20      -8.846   9.929  68.346  1.00  0.00    -0.118 OA 
HETATM   16  C   UNL    20      -7.930   9.261  69.174  1.00  0.00    -0.097 C  
HETATM   17  C   UNL    20      -6.954   9.466  66.952  1.00  0.00    -0.081 C  
HETATM   18  H   UNL    20      -5.056   9.596  66.520  1.00  0.00     0.000 HD 
HETATM   19  C   UNL    20      -6.828   8.635  68.251  1.00  0.00    -0.066 C  
HETATM   20  H   UNL    20      -6.352   6.899  67.402  1.00  0.00     0.000 HD 
HETATM   21  O   UNL    20      -5.780  10.185  66.696  1.00  0.00    -0.048 OA 
HETATM   22  O   UNL    20      -7.020   7.278  67.961  1.00  0.00    -0.074 OA 
BRANCH  16  23
HETATM   23  O   UNL    20      -8.618   8.403  70.108  1.00  0.00    -0.125 OA 
BRANCH  23  24
HETATM   24  C   UNL    20     -10.011   8.052  69.930  1.00  0.00    -0.189 C  
HETATM   25  O   UNL    20     -10.096   6.687  69.567  1.00  0.00    -0.170 OA 
HETATM   26  C   UNL    20      -9.759   5.799  70.628  1.00  0.00    -0.178 C  
HETATM   27  H   UNL    20     -11.818   9.774  72.041  1.00  0.00     0.000 HD 
HETATM   28  C   UNL    20     -10.682   5.986  71.868  1.00  0.00    -0.234 C  
HETATM   29  O   UNL    20     -10.348   5.107  72.913  1.00  0.00    -0.178 OA 
HETATM   30  C   UNL    20     -10.651   7.437  72.328  1.00  0.00    -0.232 C  
HETATM   31  O   UNL    20     -11.201   9.634  71.332  1.00  0.00    -0.365 OA 
HETATM   32  H   UNL    20     -10.911   5.221  73.670  1.00  0.00     0.000 HD 
HETATM   33  O   UNL    20     -11.592   7.626  73.348  1.00  0.00    -0.641 OA 
HETATM   34  C   UNL    20     -11.017   8.281  71.086  1.00  0.00    -0.245 C  
HETATM   35  H   UNL    20     -11.573   8.531  73.635  1.00  0.00     0.000 HD 
BRANCH  26  36
HETATM   36  C   UNL    20      -9.959   4.353  70.107  1.00  0.00    -0.179 C  
HETATM   37  O   UNL    20      -9.194   3.460  70.863  1.00  0.00    -0.104 OA 
HETATM   38  H   UNL    20      -9.316   2.574  70.543  1.00  0.00     0.000 HD 
ENDBRANCH  26  36
ENDBRANCH  23  24
ENDBRANCH  16  23
BRANCH  16  39
HETATM   39  C   UNL    20      -7.213  10.347  70.034  1.00  0.00    -0.135 C  
HETATM   40  O   UNL    20      -6.982   9.878  71.336  1.00  0.00    -0.283 OA 
HETATM   41  H   UNL    20      -6.546  10.540  71.859  1.00  0.00     0.000 HD 
ENDBRANCH  16  39
ENDBRANCH  12  14
TORSDOF 5
ENDMDL
MODEL       71
REMARK 921   NORMALIZED FREE ENERGY PREDICTED BY IDOCK:   -5.63 KCAL/MOL
REMARK 922        TOTAL FREE ENERGY PREDICTED BY IDOCK:   -8.86 KCAL/MOL
REMARK 923 INTER-LIGAND FREE ENERGY PREDICTED BY IDOCK:   -7.82 KCAL/MOL
REMARK 924 INTRA-LIGAND FREE ENERGY PREDICTED BY IDOCK:   -1.04 KCAL/MOL
REMARK 927      BINDING AFFINITY PREDICTED BY RF-SCORE:    0.00 PKD
ROOT
HETATM    1  O   HOH     4     -12.147  15.411  68.733  1.00  0.00    -0.552 OA 
HETATM    2  H2  HOH     4     -11.735  15.143  67.920  1.00  0.00     0.000 HD 
HETATM    3 NA   UNL    13     -12.326  10.990  63.223  1.00  0.00    -0.626 Na 
HETATM    4  H1  HOH     4     -12.873  14.809  68.850  1.00  0.00     0.000 HD 
HETATM    5 NA   UNL    14     -10.997  15.949  65.978  1.00  0.00    -0.306 Na 
HETATM    6 FE   UNL    15     -11.778  14.397  63.352  1.00  0.00    -0.609 Fe 
HETATM    7 FE   UNL    16     -12.059  12.863  67.816  1.00  0.00    -0.277 Fe 
HETATM    8 FE   UNL    17      -9.022  14.680  65.941  1.00  0.00    -0.277 Fe 
HETATM    9 FE   UNL    18     -10.759  12.982  69.548  1.00  0.00    -0.302 Fe 
HETATM   10 FE   UNL    19      -6.820  11.588  66.796  1.00  0.00    -0.088 Fe 
HETATM   11  O   UNL    20      -9.565  12.093  67.243  1.00  0.00    -0.181 OA 
HETATM   12  C   UNL    20     -10.196  10.917  67.675  1.00  0.00    -0.183 C  
HETATM   13  H   UNL    20     -10.051  12.896  67.391  1.00  0.00     0.000 HD 
ENDROOT
BRANCH  12  14
HETATM   14  C   UNL    20      -9.406   9.610  67.435  1.00  0.00    -0.134 C  
HETATM   15  O   UNL    20      -9.414   8.799  68.585  1.00  0.00    -0.141 OA 
HETATM   16  C   UNL    20      -9.059   7.500  68.186  1.00  0.00    -0.128 C  
HETATM   17  C   UNL    20      -9.791   8.737  66.220  1.00  0.00    -0.272 C  
HETATM   18  H   UNL    20      -9.191   8.468  64.384  1.00  0.00     0.000 HD 
HETATM   19  C   UNL    20      -9.598   7.289  66.729  1.00  0.00    -0.185 C  
HETATM   20  H   UNL    20     -11.142   6.471  65.777  1.00  0.00     0.000 HD 
HETATM   21  O   UNL    20      -8.954   9.005  65.130  1.00  0.00    -0.200 OA 
HETATM   22  O   UNL    20     -10.815   6.599  66.659  1.00  0.00    -0.265 OA 
BRANCH  16  23
HETATM   23  O   UNL    20      -9.416   6.539  69.202  1.00  0.00    -0.136 OA 
BRANCH  23  24
HETATM   24  C   UNL    20      -8.855   6.602  70.535  1.00  0.00    -0.152 C  
HETATM   25  O   UNL    20      -9.523   7.615  71.264  1.00  0.00    -0.153 OA 
HETATM   26  C   UNL    20     -10.870   7.282  71.587  1.00  0.00    -0.220 C  
HETATM   27  H   UNL    20      -7.969   3.594  71.457  1.00  0.00     0.000 HD 
HETATM   28  C   UNL    20     -10.968   5.983  72.439  1.00  0.00    -0.260 C  
HETATM   29  O   UNL    20     -12.299   5.659  72.757  1.00  0.00    -0.522 OA 
HETATM   30  C   UNL    20     -10.270   4.835  71.724  1.00  0.00    -0.188 C  
HETATM   31  O   UNL    20      -7.979   4.372  70.911  1.00  0.00    -0.066 OA 
HETATM   32  H   UNL    20     -12.359   4.867  73.277  1.00  0.00     0.000 HD 
HETATM   33  O   UNL    20     -10.237   3.713  72.560  1.00  0.00    -0.165 OA 
HETATM   34  C   UNL    20      -8.838   5.334  71.424  1.00  0.00    -0.134 C  
HETATM   35  H   UNL    20      -9.801   2.996  72.114  1.00  0.00     0.000 HD 
BRANCH  26  36
HETATM   36  C   UNL    20     -11.446   8.446  72.434  1.00  0.00    -0.380 C  
HETATM   37  O   UNL    20     -12.839   8.351  72.493  1.00  0.00    -0.541 OA 
HETATM   38  H   UNL    20     -13.193   9.064  73.012  1.00  0.00     0.000 HD 
ENDBRANCH  26  36
ENDBRANCH  23  24
ENDBRANCH  16  23
BRANCH  16  39
HETATM   39  C   UNL    20      -7.502   7.462  68.085  1.00  0.00    -0.105 C  
HETATM   40  O   UNL    20      -7.090   6.556  67.098  1.00  0.00    -0.072 OA 
HETATM   41  H   UNL    20      -6.142   6.533  67.036  1.00  0.00     0.000 HD 
ENDBRANCH  16  39
ENDBRANCH  12  14
TORSDOF 5
ENDMDL
MODEL       72
REMARK 921   NORMALIZED FREE ENERGY PREDICTED BY IDOCK:   -5.58 KCAL/MOL
REMARK 922        TOTAL FREE ENERGY PREDICTED BY IDOCK:   -8.80 KCAL/MOL
REMARK 923 INTER-LIGAND FREE ENERGY PREDICTED BY IDOCK:   -7.29 KCAL/MOL
REMARK 924 INTRA-LIGAND FREE ENERGY PREDICTED BY IDOCK:   -1.50 KCAL/MOL
REMARK 927      BINDING AFFINITY PREDICTED BY RF-SCORE:    0.00 PKD
ROOT
HETATM    1  O   HOH     4      -6.296  17.713  67.566  1.00  0.00    -0.155 OA 
HETATM    2  H2  HOH     4      -7.220  17.597  67.753  1.00  0.00     0.000 HD 
HETATM    3 NA   UNL    13     -11.115  15.254  72.113  1.00  0.00    -0.341 Na 
HETATM    4  H1  HOH     4      -5.844  17.304  68.295  1.00  0.00     0.000 HD 
HETATM    5 NA   UNL    14      -9.144  18.717  67.860  1.00  0.00    -0.261 Na 
HETATM    6 FE   UNL    15     -10.987  18.231  70.367  1.00  0.00    -0.458 Fe 
HETATM    7 FE   UNL    16      -7.344  15.598  68.897  1.00  0.00    -0.110 Fe 
HETATM    8 FE   UNL    17     -10.430  17.062  66.803  1.00  0.00    -0.275 Fe 
HETATM    9 FE   UNL    18      -6.667  14.887  66.963  1.00  0.00    -0.170 Fe 
HETATM   10 FE   UNL    19     -11.300  13.407  65.789  1.00  0.00    -0.293 Fe 
HETATM   11  O   UNL    20      -9.315  14.430  67.521  1.00  0.00    -0.190 OA 
HETATM   12  C   UNL    20      -8.718  13.375  68.228  1.00  0.00    -0.172 C  
HETATM   13  H   UNL    20      -8.837  15.251  67.530  1.00  0.00     0.000 HD 
ENDROOT
BRANCH  12  14
HETATM   14  C   UNL    20      -9.495  12.038  68.213  1.00  0.00    -0.199 C  
HETATM   15  O   UNL    20      -8.853  11.075  69.011  1.00  0.00    -0.145 OA 
HETATM   16  C   UNL    20      -9.789  10.064  69.284  1.00  0.00    -0.214 C  
HETATM   17  C   UNL    20     -10.994  12.061  68.585  1.00  0.00    -0.240 C  
HETATM   18  H   UNL    20     -12.712  12.123  67.664  1.00  0.00     0.000 HD 
HETATM   19  C   UNL    20     -11.203  10.735  69.354  1.00  0.00    -0.276 C  
HETATM   20  H   UNL    20     -12.505  11.418  70.696  1.00  0.00     0.000 HD 
HETATM   21  O   UNL    20     -11.791  12.109  67.435  1.00  0.00    -0.515 OA 
HETATM   22  O   UNL    20     -11.648  11.011  70.654  1.00  0.00    -0.312 OA 
BRANCH  16  23
HETATM   23  O   UNL    20      -9.353   9.251  70.395  1.00  0.00    -0.211 OA 
BRANCH  23  24
HETATM   24  C   UNL    20      -9.631   7.833  70.451  1.00  0.00    -0.175 C  
HETATM   25  O   UNL    20      -8.435   7.144  70.767  1.00  0.00    -0.130 OA 
HETATM   26  C   UNL    20      -8.000   7.356  72.107  1.00  0.00    -0.093 C  
HETATM   27  H   UNL    20     -12.665   7.389  71.583  1.00  0.00     0.000 HD 
HETATM   28  C   UNL    20      -9.062   6.902  73.150  1.00  0.00    -0.132 C  
HETATM   29  O   UNL    20      -8.629   7.111  74.471  1.00  0.00    -0.181 OA 
HETATM   30  C   UNL    20     -10.389   7.597  72.882  1.00  0.00    -0.322 C  
HETATM   31  O   UNL    20     -11.991   7.716  70.999  1.00  0.00    -0.299 OA 
HETATM   32  H   UNL    20      -9.277   6.833  75.108  1.00  0.00     0.000 HD 
HETATM   33  O   UNL    20     -11.373   7.075  73.730  1.00  0.00    -0.403 OA 
HETATM   34  C   UNL    20     -10.730   7.300  71.404  1.00  0.00    -0.227 C  
HETATM   35  H   UNL    20     -12.201   7.509  73.562  1.00  0.00     0.000 HD 
BRANCH  26  36
HETATM   36  C   UNL    20      -6.729   6.497  72.325  1.00  0.00    -0.067 C  
HETATM   37  O   UNL    20      -7.079   5.241  72.829  1.00  0.00    -0.083 OA 
HETATM   38  H   UNL    20      -6.299   4.714  72.962  1.00  0.00     0.000 HD 
ENDBRANCH  26  36
ENDBRANCH  23  24
ENDBRANCH  16  23
BRANCH  16  39
HETATM   39  C   UNL    20      -9.815   9.118  68.044  1.00  0.00    -0.168 C  
HETATM   40  O   UNL    20     -11.128   8.931  67.589  1.00  0.00    -0.478 OA 
HETATM   41  H   UNL    20     -11.144   8.355  66.834  1.00  0.00     0.000 HD 
ENDBRANCH  16  39
ENDBRANCH  12  14
TORSDOF 5
ENDMDL
MODEL       73
REMARK 921   NORMALIZED FREE ENERGY PREDICTED BY IDOCK:   -5.53 KCAL/MOL
REMARK 922        TOTAL FREE ENERGY PREDICTED BY IDOCK:   -8.73 KCAL/MOL
REMARK 923 INTER-LIGAND FREE ENERGY PREDICTED BY IDOCK:   -7.09 KCAL/MOL
REMARK 924 INTRA-LIGAND FREE ENERGY PREDICTED BY IDOCK:   -1.64 KCAL/MOL
REMARK 927      BINDING AFFINITY PREDICTED BY RF-SCORE:    0.00 PKD
ROOT
HETATM    1  O   HOH     4      -7.228   2.214  64.889  1.00  0.00    -0.051 OA 
HETATM    2  H2  HOH     4      -7.972   2.657  65.280  1.00  0.00     0.000 HD 
HETATM    3 NA   UNL    13     -10.658   8.338  65.709  1.00  0.00    -0.449 Na 
HETATM    4  H1  HOH     4      -6.741   2.896  64.443  1.00  0.00     0.000 HD 
HETATM    5 NA   UNL    14     -10.189   2.534  65.468  1.00  0.00    -0.363 Na 
HETATM    6 FE   UNL    15     -11.850   5.171  65.015  1.00  0.00    -0.719 Fe 
HETATM    7 FE   UNL    16      -7.200   4.772  65.782  1.00  0.00    -0.061 Fe 
HETATM    8 FE   UNL    17     -10.255   3.084  67.750  1.00  0.00    -0.221 Fe 
HETATM    9 FE   UNL    18      -5.980   3.592  67.132  1.00  0.00    -0.018 Fe 
HETATM   10 FE   UNL    19      -8.934   4.789  70.988  1.00  0.00    -0.104 Fe 
HETATM   11  O   UNL    20      -8.049   4.957  68.310  1.00  0.00    -0.085 OA 
HETATM   12  C   UNL    20      -7.100   5.983  68.190  1.00  0.00    -0.078 C  
HETATM   13  H   UNL    20      -8.077   4.339  67.588  1.00  0.00     0.000 HD 
ENDROOT
BRANCH  12  14
HETATM   14  C   UNL    20      -7.054   6.988  69.364  1.00  0.00    -0.079 C  
HETATM   15  O   UNL    20      -8.272   7.681  69.480  1.00  0.00    -0.125 OA 
HETATM   16  C   UNL    20      -8.314   8.246  70.766  1.00  0.00    -0.123 C  
HETATM   17  C   UNL    20      -6.657   6.461  70.761  1.00  0.00    -0.053 C  
HETATM   18  H   UNL    20      -5.053   6.357  71.866  1.00  0.00     0.000 HD 
HETATM   19  C   UNL    20      -7.539   7.283  71.730  1.00  0.00    -0.086 C  
HETATM   20  H   UNL    20      -7.892   5.835  73.050  1.00  0.00     0.000 HD 
HETATM   21  O   UNL    20      -5.297   6.681  71.007  1.00  0.00    -0.022 OA 
HETATM   22  O   UNL    20      -8.361   6.419  72.466  1.00  0.00    -0.116 OA 
BRANCH  16  23
HETATM   23  O   UNL    20      -9.662   8.632  71.109  1.00  0.00    -0.187 OA 
BRANCH  23  24
HETATM   24  C   UNL    20     -10.726   8.621  70.130  1.00  0.00    -0.234 C  
HETATM   25  O   UNL    20     -11.897   8.102  70.733  1.00  0.00    -0.260 OA 
HETATM   26  C   UNL    20     -12.470   8.979  71.698  1.00  0.00    -0.351 C  
HETATM   27  H   UNL    20     -10.358  11.180  68.130  1.00  0.00     0.000 HD 
HETATM   28  C   UNL    20     -12.859  10.356  71.086  1.00  0.00    -0.414 C  
HETATM   29  O   UNL    20     -13.426  11.218  72.041  1.00  0.00    -0.451 OA 
HETATM   30  C   UNL    20     -11.650  10.988  70.411  1.00  0.00    -0.293 C  
HETATM   31  O   UNL    20     -10.112  10.376  68.572  1.00  0.00    -0.159 OA 
HETATM   32  H   UNL    20     -13.663  12.058  71.667  1.00  0.00     0.000 HD 
HETATM   33  O   UNL    20     -12.043  12.153  69.740  1.00  0.00    -0.290 OA 
HETATM   34  C   UNL    20     -11.126   9.933  69.410  1.00  0.00    -0.199 C  
HETATM   35  H   UNL    20     -11.289  12.547  69.318  1.00  0.00     0.000 HD 
BRANCH  26  36
HETATM   36  C   UNL    20     -13.768   8.312  72.220  1.00  0.00    -0.219 C  
HETATM   37  O   UNL    20     -14.069   8.787  73.500  1.00  0.00    -1.099 OA 
HETATM   38  H   UNL    20     -14.865   8.378  73.820  1.00  0.00     0.000 HD 
ENDBRANCH  26  36
ENDBRANCH  23  24
ENDBRANCH  16  23
BRANCH  16  39
HETATM   39  C   UNL    20      -7.488   9.568  70.713  1.00  0.00    -0.076 C  
HETATM   40  O   UNL    20      -7.573  10.158  69.444  1.00  0.00    -0.103 OA 
HETATM   41  H   UNL    20      -7.070  10.962  69.412  1.00  0.00     0.000 HD 
ENDBRANCH  16  39
ENDBRANCH  12  14
TORSDOF 5
ENDMDL
MODEL       74
REMARK 921   NORMALIZED FREE ENERGY PREDICTED BY IDOCK:   -5.52 KCAL/MOL
REMARK 922        TOTAL FREE ENERGY PREDICTED BY IDOCK:   -8.72 KCAL/MOL
REMARK 923 INTER-LIGAND FREE ENERGY PREDICTED BY IDOCK:   -7.64 KCAL/MOL
REMARK 924 INTRA-LIGAND FREE ENERGY PREDICTED BY IDOCK:   -1.08 KCAL/MOL
REMARK 927      BINDING AFFINITY PREDICTED BY RF-SCORE:    0.00 PKD
ROOT
HETATM    1  O   HOH     4     -10.328   4.004  73.032  1.00  0.00    -0.154 OA 
HETATM    2  H2  HOH     4     -10.498   4.939  73.012  1.00  0.00     0.000 HD 
HETATM    3 NA   UNL    13     -14.365   9.190  70.435  1.00  0.00    -0.609 Na 
HETATM    4  H1  HOH     4     -10.960   3.625  72.433  1.00  0.00     0.000 HD 
HETATM    5 NA   UNL    14     -10.840   6.691  74.345  1.00  0.00    -0.309 Na 
HETATM    6 FE   UNL    15     -13.224   8.625  73.645  1.00  0.00    -0.608 Fe 
HETATM    7 FE   UNL    16     -11.237   5.355  70.867  1.00  0.00    -0.245 Fe 
HETATM    8 FE   UNL    17      -9.497   8.176  73.118  1.00  0.00    -0.161 Fe 
HETATM    9 FE   UNL    18      -9.195   4.751  70.454  1.00  0.00    -0.103 Fe 
HETATM   10 FE   UNL    19      -7.806   9.523  69.882  1.00  0.00    -0.064 Fe 
HETATM   11  O   UNL    20      -9.682   7.445  70.268  1.00  0.00    -0.172 OA 
HETATM   12  C   UNL    20     -10.166   7.011  69.025  1.00  0.00    -0.187 C  
HETATM   13  H   UNL    20      -9.845   6.859  70.999  1.00  0.00     0.000 HD 
ENDROOT
BRANCH  12  14
HETATM   14  C   UNL    20      -9.902   7.964  67.837  1.00  0.00    -0.165 C  
HETATM   15  O   UNL    20     -10.442   9.238  68.085  1.00  0.00    -0.207 OA 
HETATM   16  C   UNL    20      -9.828  10.136  67.196  1.00  0.00    -0.187 C  
HETATM   17  C   UNL    20      -8.446   8.137  67.351  1.00  0.00    -0.126 C  
HETATM   18  H   UNL    20      -7.290   7.408  65.959  1.00  0.00     0.000 HD 
HETATM   19  C   UNL    20      -8.367   9.628  66.945  1.00  0.00    -0.117 C  
HETATM   20  H   UNL    20      -6.506   9.966  67.565  1.00  0.00     0.000 HD 
HETATM   21  O   UNL    20      -8.185   7.302  66.258  1.00  0.00    -0.112 OA 
HETATM   22  O   UNL    20      -7.391  10.273  67.717  1.00  0.00    -0.086 OA 
BRANCH  16  23
HETATM   23  O   UNL    20     -10.022  11.498  67.631  1.00  0.00    -0.180 OA 
BRANCH  23  24
HETATM   24  C   UNL    20      -9.570  12.619  66.836  1.00  0.00    -0.232 C  
HETATM   25  O   UNL    20     -10.633  13.050  66.006  1.00  0.00    -0.272 OA 
HETATM   26  C   UNL    20     -11.690  13.678  66.724  1.00  0.00    -0.392 C  
HETATM   27  H   UNL    20      -7.437  14.371  68.587  1.00  0.00     0.000 HD 
HETATM   28  C   UNL    20     -11.205  14.931  67.511  1.00  0.00    -0.328 C  
HETATM   29  O   UNL    20     -12.252  15.549  68.218  1.00  0.00    -0.462 OA 
HETATM   30  C   UNL    20     -10.054  14.556  68.433  1.00  0.00    -0.241 C  
HETATM   31  O   UNL    20      -7.789  13.599  68.159  1.00  0.00    -0.121 OA 
HETATM   32  H   UNL    20     -11.956  16.313  68.697  1.00  0.00     0.000 HD 
HETATM   33  O   UNL    20      -9.532  15.712  69.025  1.00  0.00    -0.209 OA 
HETATM   34  C   UNL    20      -8.996  13.878  67.534  1.00  0.00    -0.197 C  
HETATM   35  H   UNL    20      -8.813  15.478  69.601  1.00  0.00     0.000 HD 
BRANCH  26  36
HETATM   36  C   UNL    20     -12.741  14.150  65.688  1.00  0.00    -0.441 C  
HETATM   37  O   UNL    20     -12.443  13.623  64.428  1.00  0.00    -0.588 OA 
HETATM   38  H   UNL    20     -13.088  13.912  63.793  1.00  0.00     0.000 HD 
ENDBRANCH  26  36
ENDBRANCH  23  24
ENDBRANCH  16  23
BRANCH  16  39
HETATM   39  C   UNL    20     -10.574  10.009  65.831  1.00  0.00     0.071 C  
HETATM   40  O   UNL    20      -9.698   9.582  64.823  1.00  0.00    -0.441 OA 
HETATM   41  H   UNL    20     -10.152   9.505  63.993  1.00  0.00     0.000 HD 
ENDBRANCH  16  39
ENDBRANCH  12  14
TORSDOF 5
ENDMDL
MODEL       75
REMARK 921   NORMALIZED FREE ENERGY PREDICTED BY IDOCK:   -5.50 KCAL/MOL
REMARK 922        TOTAL FREE ENERGY PREDICTED BY IDOCK:   -8.70 KCAL/MOL
REMARK 923 INTER-LIGAND FREE ENERGY PREDICTED BY IDOCK:   -7.56 KCAL/MOL
REMARK 924 INTRA-LIGAND FREE ENERGY PREDICTED BY IDOCK:   -1.14 KCAL/MOL
REMARK 927      BINDING AFFINITY PREDICTED BY RF-SCORE:    0.00 PKD
ROOT
HETATM    1  O   HOH     4      -9.785   1.868  65.328  1.00  0.00    -0.337 OA 
HETATM    2  H2  HOH     4      -9.903   2.807  65.240  1.00  0.00     0.000 HD 
HETATM    3 NA   UNL    13      -6.721   8.232  65.561  1.00  0.00    -0.049 Na 
HETATM    4  H1  HOH     4      -8.872   1.757  65.567  1.00  0.00     0.000 HD 
HETATM    5 NA   UNL    14     -10.720   4.352  63.857  1.00  0.00    -0.256 Na 
HETATM    6 FE   UNL    15      -8.954   6.896  63.290  1.00  0.00    -0.345 Fe 
HETATM    7 FE   UNL    16      -8.443   3.731  66.767  1.00  0.00    -0.097 Fe 
HETATM    8 FE   UNL    17     -11.742   5.640  65.533  1.00  0.00    -0.665 Fe 
HETATM    9 FE   UNL    18      -9.810   2.721  68.113  1.00  0.00    -0.184 Fe 
HETATM   10 FE   UNL    19     -12.121   7.037  69.145  1.00  0.00    -0.502 Fe 
HETATM   11  O   UNL    20     -10.101   5.446  67.973  1.00  0.00    -0.161 OA 
HETATM   12  C   UNL    20      -9.009   5.349  68.850  1.00  0.00    -0.117 C  
HETATM   13  H   UNL    20     -10.118   4.808  67.269  1.00  0.00     0.000 HD 
ENDROOT
BRANCH  12  14
HETATM   14  C   UNL    20      -8.981   6.387  69.995  1.00  0.00    -0.146 C  
HETATM   15  O   UNL    20      -9.048   7.697  69.488  1.00  0.00    -0.146 OA 
HETATM   16  C   UNL    20      -9.430   8.539  70.546  1.00  0.00    -0.170 C  
HETATM   17  C   UNL    20     -10.018   6.249  71.131  1.00  0.00    -0.181 C  
HETATM   18  H   UNL    20     -10.106   5.491  72.926  1.00  0.00     0.000 HD 
HETATM   19  C   UNL    20     -10.367   7.712  71.493  1.00  0.00    -0.196 C  
HETATM   20  H   UNL    20     -12.303   7.434  71.862  1.00  0.00     0.000 HD 
HETATM   21  O   UNL    20      -9.468   5.575  72.228  1.00  0.00    -0.145 OA 
HETATM   22  O   UNL    20     -11.735   7.934  71.289  1.00  0.00    -0.278 OA 
BRANCH  16  23
HETATM   23  O   UNL    20      -9.899   9.808  70.045  1.00  0.00    -0.227 OA 
BRANCH  23  24
HETATM   24  C   UNL    20     -11.104   9.911  69.252  1.00  0.00    -0.181 C  
HETATM   25  O   UNL    20     -11.701  11.173  69.488  1.00  0.00    -0.273 OA 
HETATM   26  C   UNL    20     -10.960  12.258  68.938  1.00  0.00    -0.219 C  
HETATM   27  H   UNL    20     -10.671   8.290  66.446  1.00  0.00     0.000 HD 
HETATM   28  C   UNL    20     -10.784  12.132  67.396  1.00  0.00    -0.234 C  
HETATM   29  O   UNL    20     -10.054  13.205  66.858  1.00  0.00    -0.238 OA 
HETATM   30  C   UNL    20     -10.146  10.794  67.051  1.00  0.00    -0.208 C  
HETATM   31  O   UNL    20     -10.713   8.409  67.388  1.00  0.00    -0.269 OA 
HETATM   32  H   UNL    20      -9.947  13.128  65.917  1.00  0.00     0.000 HD 
HETATM   33  O   UNL    20     -10.126  10.628  65.661  1.00  0.00    -0.249 OA 
HETATM   34  C   UNL    20     -11.035   9.718  67.716  1.00  0.00    -0.180 C  
HETATM   35  H   UNL    20      -9.728   9.793  65.446  1.00  0.00     0.000 HD 
BRANCH  26  36
HETATM   36  C   UNL    20     -11.760  13.556  69.216  1.00  0.00    -0.330 C  
HETATM   37  O   UNL    20     -11.530  13.991  70.524  1.00  0.00    -0.499 OA 
HETATM   38  H   UNL    20     -12.020  14.787  70.695  1.00  0.00     0.000 HD 
ENDBRANCH  26  36
ENDBRANCH  23  24
ENDBRANCH  16  23
BRANCH  16  39
HETATM   39  C   UNL    20      -8.142   8.850  71.370  1.00  0.00    -0.108 C  
HETATM   40  O   UNL    20      -7.535  10.030  70.917  1.00  0.00    -0.371 OA 
HETATM   41  H   UNL    20      -6.751  10.220  71.419  1.00  0.00     0.000 HD 
ENDBRANCH  16  39
ENDBRANCH  12  14
TORSDOF 5
ENDMDL
MODEL       76
REMARK 921   NORMALIZED FREE ENERGY PREDICTED BY IDOCK:   -5.50 KCAL/MOL
REMARK 922        TOTAL FREE ENERGY PREDICTED BY IDOCK:   -8.69 KCAL/MOL
REMARK 923 INTER-LIGAND FREE ENERGY PREDICTED BY IDOCK:   -7.39 KCAL/MOL
REMARK 924 INTRA-LIGAND FREE ENERGY PREDICTED BY IDOCK:   -1.30 KCAL/MOL
REMARK 927      BINDING AFFINITY PREDICTED BY RF-SCORE:    0.00 PKD
ROOT
HETATM    1  O   HOH     4      -7.561  18.892  68.972  1.00  0.00    -0.314 OA 
HETATM    2  H2  HOH     4      -8.439  18.541  69.063  1.00  0.00     0.000 HD 
HETATM    3 NA   UNL    13     -11.550  13.557  71.330  1.00  0.00    -0.437 Na 
HETATM    4  H1  HOH     4      -6.991  18.226  69.338  1.00  0.00     0.000 HD 
HETATM    5 NA   UNL    14     -10.476  19.074  69.795  1.00  0.00    -0.520 Na 
HETATM    6 FE   UNL    15     -11.989  16.973  71.586  1.00  0.00    -0.603 Fe 
HETATM    7 FE   UNL    16      -8.186  16.258  68.868  1.00  0.00    -0.152 Fe 
HETATM    8 FE   UNL    17     -11.626  18.112  67.988  1.00  0.00    -0.223 Fe 
HETATM    9 FE   UNL    18      -7.609  16.875  66.871  1.00  0.00    -0.132 Fe 
HETATM   10 FE   UNL    19     -12.094  15.571  65.079  1.00  0.00    -0.302 Fe 
HETATM   11  O   UNL    20     -10.106  15.756  67.078  1.00  0.00    -0.251 OA 
HETATM   12  C   UNL    20      -9.309  14.602  67.058  1.00  0.00    -0.232 C  
HETATM   13  H   UNL    20      -9.743  16.497  67.552  1.00  0.00     0.000 HD 
ENDROOT
BRANCH  12  14
HETATM   14  C   UNL    20      -9.898  13.398  66.288  1.00  0.00    -0.290 C  
HETATM   15  O   UNL    20      -9.046  12.282  66.371  1.00  0.00    -0.211 OA 
HETATM   16  C   UNL    20      -9.802  11.149  66.027  1.00  0.00    -0.228 C  
HETATM   17  C   UNL    20     -11.333  12.943  66.634  1.00  0.00    -0.317 C  
HETATM   18  H   UNL    20     -13.141  13.213  65.951  1.00  0.00     0.000 HD 
HETATM   19  C   UNL    20     -11.275  11.403  66.499  1.00  0.00    -0.209 C  
HETATM   20  H   UNL    20     -12.489  10.964  68.014  1.00  0.00     0.000 HD 
HETATM   21  O   UNL    20     -12.258  13.493  65.739  1.00  0.00    -0.407 OA 
HETATM   22  O   UNL    20     -11.597  10.810  67.727  1.00  0.00    -0.521 OA 
BRANCH  16  23
HETATM   23  O   UNL    20      -9.135   9.943  66.455  1.00  0.00    -0.147 OA 
BRANCH  23  24
HETATM   24  C   UNL    20      -9.354   8.678  65.787  1.00  0.00    -0.158 C  
HETATM   25  O   UNL    20      -8.214   8.370  65.007  1.00  0.00    -0.139 OA 
HETATM   26  C   UNL    20      -7.071   8.033  65.787  1.00  0.00    -0.063 C  
HETATM   27  H   UNL    20     -11.153   6.752  67.721  1.00  0.00     0.000 HD 
HETATM   28  C   UNL    20      -7.327   6.802  66.706  1.00  0.00    -0.081 C  
HETATM   29  O   UNL    20      -6.196   6.472  67.473  1.00  0.00    -0.029 OA 
HETATM   30  C   UNL    20      -8.545   7.050  67.584  1.00  0.00    -0.122 C  
HETATM   31  O   UNL    20     -10.944   7.526  67.211  1.00  0.00    -0.264 OA 
HETATM   32  H   UNL    20      -6.352   5.721  68.033  1.00  0.00     0.000 HD 
HETATM   33  O   UNL    20      -8.852   5.885  68.298  1.00  0.00    -0.112 OA 
HETATM   34  C   UNL    20      -9.694   7.416  66.618  1.00  0.00    -0.194 C  
HETATM   35  H   UNL    20      -9.613   6.040  68.847  1.00  0.00     0.000 HD 
BRANCH  26  36
HETATM   36  C   UNL    20      -5.931   7.660  64.806  1.00  0.00    -0.038 C  
HETATM   37  O   UNL    20      -6.088   6.343  64.366  1.00  0.00    -0.028 OA 
HETATM   38  H   UNL    20      -5.389   6.114  63.764  1.00  0.00     0.000 HD 
ENDBRANCH  26  36
ENDBRANCH  23  24
ENDBRANCH  16  23
BRANCH  16  39
HETATM   39  C   UNL    20      -9.848  11.086  64.469  1.00  0.00    -0.290 C  
HETATM   40  O   UNL    20      -8.554  11.136  63.930  1.00  0.00    -0.378 OA 
HETATM   41  H   UNL    20      -8.583  11.097  62.982  1.00  0.00     0.000 HD 
ENDBRANCH  16  39
ENDBRANCH  12  14
TORSDOF 5
ENDMDL
MODEL       77
REMARK 921   NORMALIZED FREE ENERGY PREDICTED BY IDOCK:   -5.48 KCAL/MOL
REMARK 922        TOTAL FREE ENERGY PREDICTED BY IDOCK:   -8.67 KCAL/MOL
REMARK 923 INTER-LIGAND FREE ENERGY PREDICTED BY IDOCK:   -7.17 KCAL/MOL
REMARK 924 INTRA-LIGAND FREE ENERGY PREDICTED BY IDOCK:   -1.50 KCAL/MOL
REMARK 927      BINDING AFFINITY PREDICTED BY RF-SCORE:    0.00 PKD
ROOT
HETATM    1  O   HOH     4     -14.237  13.445  72.437  1.00  0.00    -0.637 OA 
HETATM    2  H2  HOH     4     -13.863  12.604  72.201  1.00  0.00     0.000 HD 
HETATM    3 NA   UNL    13      -8.392   9.485  72.116  1.00  0.00     0.027 Na 
HETATM    4  H1  HOH     4     -13.500  13.967  72.733  1.00  0.00     0.000 HD 
HETATM    5 NA   UNL    14     -14.131  10.414  72.514  1.00  0.00    -0.482 Na 
HETATM    6 FE   UNL    15     -11.577   8.706  73.201  1.00  0.00    -0.322 Fe 
HETATM    7 FE   UNL    16     -11.741  13.093  71.444  1.00  0.00    -0.388 Fe 
HETATM    8 FE   UNL    17     -13.726   9.813  70.281  1.00  0.00    -0.569 Fe 
HETATM    9 FE   UNL    18     -12.925  14.072  69.913  1.00  0.00    -0.332 Fe 
HETATM   10 FE   UNL    19     -12.145  10.270  66.755  1.00  0.00     0.321 Fe 
HETATM   11  O   UNL    20     -11.762  11.703  69.161  1.00  0.00    -0.271 OA 
HETATM   12  C   UNL    20     -10.675  12.579  69.019  1.00  0.00    -0.097 C  
HETATM   13  H   UNL    20     -12.335  11.878  69.898  1.00  0.00     0.000 HD 
ENDROOT
BRANCH  12  14
HETATM   14  C   UNL    20      -9.742  12.295  67.819  1.00  0.00    -0.199 C  
HETATM   15  O   UNL    20      -9.509  10.915  67.679  1.00  0.00    -0.157 OA 
HETATM   16  C   UNL    20      -9.023  10.700  66.379  1.00  0.00    -0.162 C  
HETATM   17  C   UNL    20     -10.134  12.867  66.439  1.00  0.00    -0.269 C  
HETATM   18  H   UNL    20      -9.709  14.425  65.345  1.00  0.00     0.000 HD 
HETATM   19  C   UNL    20      -9.686  11.771  65.444  1.00  0.00    -0.217 C  
HETATM   20  H   UNL    20     -11.197  11.951  64.162  1.00  0.00     0.000 HD 
HETATM   21  O   UNL    20      -9.468  14.074  66.194  1.00  0.00    -0.263 OA 
HETATM   22  O   UNL    20     -10.796  11.303  64.728  1.00  0.00    -0.302 OA 
BRANCH  16  23
HETATM   23  O   UNL    20      -9.128   9.307  66.018  1.00  0.00    -0.161 OA 
BRANCH  23  24
HETATM   24  C   UNL    20      -8.375   8.286  66.713  1.00  0.00    -0.107 C  
HETATM   25  O   UNL    20      -9.184   7.737  67.737  1.00  0.00    -0.136 OA 
HETATM   26  C   UNL    20     -10.260   6.945  67.241  1.00  0.00    -0.220 C  
HETATM   27  H   UNL    20      -6.393   6.794  64.584  1.00  0.00     0.000 HD 
HETATM   28  C   UNL    20      -9.762   5.748  66.380  1.00  0.00    -0.147 C  
HETATM   29  O   UNL    20     -10.827   4.968  65.894  1.00  0.00    -0.616 OA 
HETATM   30  C   UNL    20      -8.877   6.251  65.248  1.00  0.00     0.073 C  
HETATM   31  O   UNL    20      -6.762   7.522  65.070  1.00  0.00    -0.046 OA 
HETATM   32  H   UNL    20     -10.523   4.238  65.369  1.00  0.00     0.000 HD 
HETATM   33  O   UNL    20      -8.319   5.161  64.569  1.00  0.00    -0.127 OA 
HETATM   34  C   UNL    20      -7.773   7.098  65.921  1.00  0.00    -0.101 C  
HETATM   35  H   UNL    20      -7.767   5.475  63.863  1.00  0.00     0.000 HD 
BRANCH  26  36
HETATM   36  C   UNL    20     -11.012   6.364  68.465  1.00  0.00    -0.319 C  
HETATM   37  O   UNL    20     -11.366   7.392  69.343  1.00  0.00    -0.457 OA 
HETATM   38  H   UNL    20     -11.828   7.036  70.094  1.00  0.00     0.000 HD 
ENDBRANCH  26  36
ENDBRANCH  23  24
ENDBRANCH  16  23
BRANCH  16  39
HETATM   39  C   UNL    20      -7.498  11.025  66.401  1.00  0.00    -0.131 C  
HETATM   40  O   UNL    20      -6.931  10.845  65.131  1.00  0.00    -0.360 OA 
HETATM   41  H   UNL    20      -6.003  11.043  65.145  1.00  0.00     0.000 HD 
ENDBRANCH  16  39
ENDBRANCH  12  14
TORSDOF 5
ENDMDL
MODEL       78
REMARK 921   NORMALIZED FREE ENERGY PREDICTED BY IDOCK:   -5.47 KCAL/MOL
REMARK 922        TOTAL FREE ENERGY PREDICTED BY IDOCK:   -8.65 KCAL/MOL
REMARK 923 INTER-LIGAND FREE ENERGY PREDICTED BY IDOCK:   -6.82 KCAL/MOL
REMARK 924 INTRA-LIGAND FREE ENERGY PREDICTED BY IDOCK:   -1.83 KCAL/MOL
REMARK 927      BINDING AFFINITY PREDICTED BY RF-SCORE:    0.00 PKD
ROOT
HETATM    1  O   HOH     4      -5.989   3.305  67.896  1.00  0.00    -0.025 OA 
HETATM    2  H2  HOH     4      -6.629   3.881  68.299  1.00  0.00     0.000 HD 
HETATM    3 NA   UNL    13     -12.340   6.352  67.329  1.00  0.00    -0.504 Na 
HETATM    4  H1  HOH     4      -6.369   3.062  67.060  1.00  0.00     0.000 HD 
HETATM    5 NA   UNL    14      -7.743   4.212  70.200  1.00  0.00    -0.045 Na 
HETATM    6 FE   UNL    15     -10.834   4.781  70.010  1.00  0.00    -0.256 Fe 
HETATM    7 FE   UNL    16      -7.636   4.969  66.532  1.00  0.00    -0.076 Fe 
HETATM    8 FE   UNL    17      -7.484   6.546  70.212  1.00  0.00    -0.072 Fe 
HETATM    9 FE   UNL    18      -5.622   5.754  66.363  1.00  0.00    -0.010 Fe 
HETATM   10 FE   UNL    19      -7.012  10.033  68.551  1.00  0.00    -0.059 Fe 
HETATM   11  O   UNL    20      -7.471   7.485  67.418  1.00  0.00    -0.098 OA 
HETATM   12  C   UNL    20      -7.745   7.621  66.049  1.00  0.00    -0.090 C  
HETATM   13  H   UNL    20      -7.243   6.608  67.705  1.00  0.00     0.000 HD 
ENDROOT
BRANCH  12  14
HETATM   14  C   UNL    20      -8.115   9.047  65.582  1.00  0.00    -0.115 C  
HETATM   15  O   UNL    20      -9.139   9.588  66.379  1.00  0.00    -0.147 OA 
HETATM   16  C   UNL    20      -9.135  10.979  66.183  1.00  0.00    -0.192 C  
HETATM   17  C   UNL    20      -6.984  10.093  65.464  1.00  0.00    -0.131 C  
HETATM   18  H   UNL    20      -5.828  10.824  64.073  1.00  0.00     0.000 HD 
HETATM   19  C   UNL    20      -7.654  11.414  65.911  1.00  0.00     0.278 C  
HETATM   20  H   UNL    20      -6.089  12.187  66.867  1.00  0.00     0.000 HD 
HETATM   21  O   UNL    20      -6.523  10.181  64.145  1.00  0.00    -0.128 OA 
HETATM   22  O   UNL    20      -6.986  11.924  67.032  1.00  0.00    -0.141 OA 
BRANCH  16  23
HETATM   23  O   UNL    20      -9.869  11.644  67.233  1.00  0.00    -0.186 OA 
BRANCH  23  24
HETATM   24  C   UNL    20     -11.302  11.828  67.155  1.00  0.00    -0.322 C  
HETATM   25  O   UNL    20     -11.919  11.044  68.159  1.00  0.00    -0.610 OA 
HETATM   26  C   UNL    20     -11.686  11.530  69.477  1.00  0.00    -0.346 C  
HETATM   27  H   UNL    20     -11.930  14.895  66.213  1.00  0.00     0.000 HD 
HETATM   28  C   UNL    20     -12.207  12.985  69.669  1.00  0.00    -0.158 C  
HETATM   29  O   UNL    20     -11.977  13.461  70.972  1.00  0.00    -0.461 OA 
HETATM   30  C   UNL    20     -11.590  13.902  68.623  1.00  0.00    -0.328 C  
HETATM   31  O   UNL    20     -11.561  14.021  66.151  1.00  0.00    -0.342 OA 
HETATM   32  H   UNL    20     -12.294  14.349  71.089  1.00  0.00     0.000 HD 
HETATM   33  O   UNL    20     -12.173  15.172  68.711  1.00  0.00    -0.573 OA 
HETATM   34  C   UNL    20     -11.903  13.253  67.255  1.00  0.00    -0.372 C  
HETATM   35  H   UNL    20     -11.788  15.745  68.057  1.00  0.00     0.000 HD 
BRANCH  26  36
HETATM   36  C   UNL    20     -12.469  10.618  70.455  1.00  0.00    -0.358 C  
HETATM   37  O   UNL    20     -11.823  10.576  71.694  1.00  0.00    -0.187 OA 
HETATM   38  H   UNL    20     -12.302  10.017  72.294  1.00  0.00     0.000 HD 
ENDBRANCH  26  36
ENDBRANCH  23  24
ENDBRANCH  16  23
BRANCH  16  39
HETATM   39  C   UNL    20      -9.921  11.257  64.865  1.00  0.00    -0.274 C  
HETATM   40  O   UNL    20      -9.463  12.431  64.250  1.00  0.00    -0.495 OA 
HETATM   41  H   UNL    20      -9.941  12.600  63.448  1.00  0.00     0.000 HD 
ENDBRANCH  16  39
ENDBRANCH  12  14
TORSDOF 5
ENDMDL
MODEL       79
REMARK 921   NORMALIZED FREE ENERGY PREDICTED BY IDOCK:   -5.46 KCAL/MOL
REMARK 922        TOTAL FREE ENERGY PREDICTED BY IDOCK:   -8.64 KCAL/MOL
REMARK 923 INTER-LIGAND FREE ENERGY PREDICTED BY IDOCK:   -7.37 KCAL/MOL
REMARK 924 INTRA-LIGAND FREE ENERGY PREDICTED BY IDOCK:   -1.28 KCAL/MOL
REMARK 927      BINDING AFFINITY PREDICTED BY RF-SCORE:    0.00 PKD
ROOT
HETATM    1  O   HOH     4     -12.868  14.458  65.921  1.00  0.00    -0.416 OA 
HETATM    2  H2  HOH     4     -12.587  14.087  66.750  1.00  0.00     0.000 HD 
HETATM    3 NA   UNL    13      -7.410  13.017  70.172  1.00  0.00    -0.329 Na 
HETATM    4  H1  HOH     4     -12.066  14.723  65.486  1.00  0.00     0.000 HD 
HETATM    5 NA   UNL    14     -12.985  14.182  68.941  1.00  0.00    -0.536 Na 
HETATM    6 FE   UNL    15     -10.508  14.371  70.875  1.00  0.00    -0.452 Fe 
HETATM    7 FE   UNL    16     -10.528  13.148  66.308  1.00  0.00    -0.256 Fe 
HETATM    8 FE   UNL    17     -12.871  11.863  69.293  1.00  0.00    -0.133 Fe 
HETATM    9 FE   UNL    18     -11.793  11.884  65.080  1.00  0.00    -0.324 Fe 
HETATM   10 FE   UNL    19     -11.650   8.251  68.516  1.00  0.00    -0.414 Fe 
HETATM   11  O   UNL    20     -10.901  10.741  67.409  1.00  0.00    -0.252 OA 
HETATM   12  C   UNL    20      -9.773  10.574  66.593  1.00  0.00    -0.189 C  
HETATM   13  H   UNL    20     -11.376  11.556  67.289  1.00  0.00     0.000 HD 
ENDROOT
BRANCH  12  14
HETATM   14  C   UNL    20      -9.000   9.249  66.788  1.00  0.00    -0.131 C  
HETATM   15  O   UNL    20      -9.182   8.748  68.090  1.00  0.00    -0.140 OA 
HETATM   16  C   UNL    20      -8.819   7.391  68.073  1.00  0.00    -0.126 C  
HETATM   17  C   UNL    20      -9.250   8.103  65.784  1.00  0.00    -0.034 C  
HETATM   18  H   UNL    20      -8.425   7.390  64.167  1.00  0.00     0.000 HD 
HETATM   19  C   UNL    20      -9.170   6.826  66.653  1.00  0.00    -0.159 C  
HETATM   20  H   UNL    20     -10.602   5.795  65.732  1.00  0.00     0.000 HD 
HETATM   21  O   UNL    20      -8.270   8.095  64.784  1.00  0.00    -0.149 OA 
HETATM   22  O   UNL    20     -10.389   6.138  66.592  1.00  0.00    -0.201 OA 
BRANCH  16  23
HETATM   23  O   UNL    20      -9.335   6.710  69.236  1.00  0.00    -0.143 OA 
BRANCH  23  24
HETATM   24  C   UNL    20      -8.987   7.130  70.576  1.00  0.00    -0.155 C  
HETATM   25  O   UNL    20      -9.891   8.139  70.989  1.00  0.00    -0.175 OA 
HETATM   26  C   UNL    20     -11.208   7.652  71.225  1.00  0.00    -0.254 C  
HETATM   27  H   UNL    20      -7.821   4.560  72.225  1.00  0.00     0.000 HD 
HETATM   28  C   UNL    20     -11.242   6.550  72.324  1.00  0.00    -0.273 C  
HETATM   29  O   UNL    20     -12.544   6.074  72.556  1.00  0.00    -0.540 OA 
HETATM   30  C   UNL    20     -10.291   5.419  71.959  1.00  0.00    -0.213 C  
HETATM   31  O   UNL    20      -7.864   5.201  71.525  1.00  0.00    -0.105 OA 
HETATM   32  H   UNL    20     -12.564   5.401  73.227  1.00  0.00     0.000 HD 
HETATM   33  O   UNL    20     -10.218   4.507  73.018  1.00  0.00    -0.152 OA 
HETATM   34  C   UNL    20      -8.917   6.085  71.717  1.00  0.00    -0.138 C  
HETATM   35  H   UNL    20      -9.624   3.801  72.790  1.00  0.00     0.000 HD 
BRANCH  26  36
HETATM   36  C   UNL    20     -12.061   8.845  71.728  1.00  0.00    -0.362 C  
HETATM   37  O   UNL    20     -12.434   9.655  70.653  1.00  0.00    -0.463 OA 
HETATM   38  H   UNL    20     -12.957  10.387  70.961  1.00  0.00     0.000 HD 
ENDBRANCH  26  36
ENDBRANCH  23  24
ENDBRANCH  16  23
BRANCH  16  39
HETATM   39  C   UNL    20      -7.265   7.332  68.194  1.00  0.00    -0.091 C  
HETATM   40  O   UNL    20      -6.726   8.620  68.321  1.00  0.00    -0.063 OA 
HETATM   41  H   UNL    20      -5.780   8.583  68.395  1.00  0.00     0.000 HD 
ENDBRANCH  16  39
ENDBRANCH  12  14
TORSDOF 5
ENDMDL
MODEL       80
REMARK 921   NORMALIZED FREE ENERGY PREDICTED BY IDOCK:   -5.44 KCAL/MOL
REMARK 922        TOTAL FREE ENERGY PREDICTED BY IDOCK:   -8.62 KCAL/MOL
REMARK 923 INTER-LIGAND FREE ENERGY PREDICTED BY IDOCK:   -7.26 KCAL/MOL
REMARK 924 INTRA-LIGAND FREE ENERGY PREDICTED BY IDOCK:   -1.36 KCAL/MOL
REMARK 927      BINDING AFFINITY PREDICTED BY RF-SCORE:    0.00 PKD
ROOT
HETATM    1  O   HOH     4     -10.761  15.898  64.420  1.00  0.00    -0.803 OA 
HETATM    2  H2  HOH     4     -10.879  15.534  65.290  1.00  0.00     0.000 HD 
HETATM    3 NA   UNL    13      -7.651  14.007  70.477  1.00  0.00    -0.340 Na 
HETATM    4  H1  HOH     4      -9.826  16.046  64.340  1.00  0.00     0.000 HD 
HETATM    5 NA   UNL    14     -12.092  15.772  67.144  1.00  0.00    -0.124 Na 
HETATM    6 FE   UNL    15     -10.576  15.750  69.903  1.00  0.00    -0.197 Fe 
HETATM    7 FE   UNL    16      -8.950  14.337  65.694  1.00  0.00    -0.435 Fe 
HETATM    8 FE   UNL    17     -12.422  13.474  67.497  1.00  0.00    -0.325 Fe 
HETATM    9 FE   UNL    18      -9.778  13.180  64.056  1.00  0.00    -0.491 Fe 
HETATM   10 FE   UNL    19     -11.464   9.712  67.244  1.00  0.00    -0.304 Fe 
HETATM   11  O   UNL    20     -10.029  12.043  66.541  1.00  0.00    -0.199 OA 
HETATM   12  C   UNL    20      -8.702  11.706  66.238  1.00  0.00    -0.136 C  
HETATM   13  H   UNL    20     -10.311  12.902  66.247  1.00  0.00     0.000 HD 
ENDROOT
BRANCH  12  14
HETATM   14  C   UNL    20      -8.243  10.309  66.715  1.00  0.00    -0.124 C  
HETATM   15  O   UNL    20      -8.671  10.062  68.032  1.00  0.00    -0.124 OA 
HETATM   16  C   UNL    20      -8.594   8.676  68.247  1.00  0.00    -0.138 C  
HETATM   17  C   UNL    20      -8.608   9.085  65.846  1.00  0.00    -0.154 C  
HETATM   18  H   UNL    20      -7.767   7.985  64.472  1.00  0.00     0.000 HD 
HETATM   19  C   UNL    20      -8.890   7.969  66.879  1.00  0.00    -0.132 C  
HETATM   20  H   UNL    20     -10.388   7.089  65.908  1.00  0.00     0.000 HD 
HETATM   21  O   UNL    20      -7.543   8.738  65.006  1.00  0.00    -0.094 OA 
HETATM   22  O   UNL    20     -10.209   7.518  66.736  1.00  0.00    -0.263 OA 
BRANCH  16  23
HETATM   23  O   UNL    20      -9.368   8.295  69.404  1.00  0.00    -0.154 OA 
BRANCH  23  24
HETATM   24  C   UNL    20      -9.172   7.021  70.061  1.00  0.00    -0.148 C  
HETATM   25  O   UNL    20      -8.322   7.207  71.177  1.00  0.00    -0.112 OA 
HETATM   26  C   UNL    20      -8.937   7.931  72.239  1.00  0.00    -0.156 C  
HETATM   27  H   UNL    20     -11.905   5.250  69.781  1.00  0.00     0.000 HD 
HETATM   28  C   UNL    20     -10.219   7.223  72.769  1.00  0.00    -0.224 C  
HETATM   29  O   UNL    20     -10.822   7.939  73.818  1.00  0.00    -0.223 OA 
HETATM   30  C   UNL    20     -11.193   6.981  71.626  1.00  0.00    -0.245 C  
HETATM   31  O   UNL    20     -11.154   5.748  69.481  1.00  0.00    -0.366 OA 
HETATM   32  H   UNL    20     -11.604   7.508  74.142  1.00  0.00     0.000 HD 
HETATM   33  O   UNL    20     -12.274   6.218  72.084  1.00  0.00    -0.433 OA 
HETATM   34  C   UNL    20     -10.397   6.209  70.549  1.00  0.00    -0.215 C  
HETATM   35  H   UNL    20     -12.882   6.067  71.370  1.00  0.00     0.000 HD 
BRANCH  26  36
HETATM   36  C   UNL    20      -7.920   8.000  73.406  1.00  0.00    -0.183 C  
HETATM   37  O   UNL    20      -6.796   8.734  73.020  1.00  0.00    -0.303 OA 
HETATM   38  H   UNL    20      -6.172   8.777  73.736  1.00  0.00     0.000 HD 
ENDBRANCH  26  36
ENDBRANCH  23  24
ENDBRANCH  16  23
BRANCH  16  39
HETATM   39  C   UNL    20      -7.109   8.349  68.595  1.00  0.00    -0.072 C  
HETATM   40  O   UNL    20      -6.705   9.036  69.748  1.00  0.00    -0.047 OA 
HETATM   41  H   UNL    20      -5.801   8.836  69.960  1.00  0.00     0.000 HD 
ENDBRANCH  16  39
ENDBRANCH  12  14
TORSDOF 5
ENDMDL
MODEL       81
REMARK 921   NORMALIZED FREE ENERGY PREDICTED BY IDOCK:   -5.42 KCAL/MOL
REMARK 922        TOTAL FREE ENERGY PREDICTED BY IDOCK:   -8.59 KCAL/MOL
REMARK 923 INTER-LIGAND FREE ENERGY PREDICTED BY IDOCK:   -7.10 KCAL/MOL
REMARK 924 INTRA-LIGAND FREE ENERGY PREDICTED BY IDOCK:   -1.49 KCAL/MOL
REMARK 927      BINDING AFFINITY PREDICTED BY RF-SCORE:    0.00 PKD
ROOT
HETATM    1  O   HOH     4      -9.811   1.489  64.580  1.00  0.00    -0.311 OA 
HETATM    2  H2  HOH     4     -10.008   2.414  64.485  1.00  0.00     0.000 HD 
HETATM    3 NA   UNL    13      -7.293   8.090  64.766  1.00  0.00    -0.064 Na 
HETATM    4  H1  HOH     4      -8.893   1.457  64.820  1.00  0.00     0.000 HD 
HETATM    5 NA   UNL    14     -10.950   3.874  63.090  1.00  0.00    -0.189 Na 
HETATM    6 FE   UNL    15      -9.403   6.554  62.505  1.00  0.00    -0.350 Fe 
HETATM    7 FE   UNL    16      -8.633   3.469  66.005  1.00  0.00    -0.101 Fe 
HETATM    8 FE   UNL    17     -12.078   5.085  64.755  1.00  0.00    -0.702 Fe 
HETATM    9 FE   UNL    18      -9.912   2.358  67.359  1.00  0.00    -0.347 Fe 
HETATM   10 FE   UNL    19     -12.578   6.472  68.356  1.00  0.00    -0.149 Fe 
HETATM   11  O   UNL    20     -10.430   5.048  67.198  1.00  0.00    -0.194 OA 
HETATM   12  C   UNL    20      -9.336   5.050  68.076  1.00  0.00    -0.125 C  
HETATM   13  H   UNL    20     -10.393   4.405  66.499  1.00  0.00     0.000 HD 
ENDROOT
BRANCH  12  14
HETATM   14  C   UNL    20      -9.396   6.095  69.213  1.00  0.00    -0.134 C  
HETATM   15  O   UNL    20      -9.658   7.379  68.703  1.00  0.00    -0.145 OA 
HETATM   16  C   UNL    20     -10.102   8.174  69.772  1.00  0.00    -0.197 C  
HETATM   17  C   UNL    20     -10.356   5.834  70.395  1.00  0.00    -0.244 C  
HETATM   18  H   UNL    20     -10.265   5.090  72.196  1.00  0.00     0.000 HD 
HETATM   19  C   UNL    20     -10.879   7.242  70.764  1.00  0.00    -0.241 C  
HETATM   20  H   UNL    20     -12.744   6.714  71.219  1.00  0.00     0.000 HD 
HETATM   21  O   UNL    20      -9.674   5.251  71.469  1.00  0.00    -0.153 OA 
HETATM   22  O   UNL    20     -12.273   7.279  70.618  1.00  0.00    -0.250 OA 
BRANCH  16  23
HETATM   23  O   UNL    20     -10.756   9.365  69.285  1.00  0.00    -0.227 OA 
BRANCH  23  24
HETATM   24  C   UNL    20     -10.066  10.635  69.217  1.00  0.00    -0.206 C  
HETATM   25  O   UNL    20      -9.072  10.562  68.212  1.00  0.00    -0.137 OA 
HETATM   26  C   UNL    20      -9.607  10.510  66.893  1.00  0.00    -0.175 C  
HETATM   27  H   UNL    20     -12.181  13.031  69.902  1.00  0.00     0.000 HD 
HETATM   28  C   UNL    20     -10.483  11.754  66.562  1.00  0.00    -0.230 C  
HETATM   29  O   UNL    20     -11.008  11.700  65.259  1.00  0.00    -0.298 OA 
HETATM   30  C   UNL    20     -11.583  11.910  67.601  1.00  0.00    -0.312 C  
HETATM   31  O   UNL    20     -11.688  12.233  70.052  1.00  0.00    -0.306 OA 
HETATM   32  H   UNL    20     -11.541  12.459  65.057  1.00  0.00     0.000 HD 
HETATM   33  O   UNL    20     -12.272  13.108  67.380  1.00  0.00    -0.293 OA 
HETATM   34  C   UNL    20     -10.869  11.937  68.972  1.00  0.00    -0.190 C  
HETATM   35  H   UNL    20     -12.959  13.206  68.028  1.00  0.00     0.000 HD 
BRANCH  26  36
HETATM   36  C   UNL    20      -8.413  10.498  65.905  1.00  0.00    -0.162 C  
HETATM   37  O   UNL    20      -8.863  10.224  64.611  1.00  0.00    -0.173 OA 
HETATM   38  H   UNL    20      -8.130  10.217  64.005  1.00  0.00     0.000 HD 
ENDBRANCH  26  36
ENDBRANCH  23  24
ENDBRANCH  16  23
BRANCH  16  39
HETATM   39  C   UNL    20      -8.833   8.663  70.537  1.00  0.00    -0.163 C  
HETATM   40  O   UNL    20      -9.117   8.865  71.895  1.00  0.00    -0.331 OA 
HETATM   41  H   UNL    20      -8.344   9.162  72.360  1.00  0.00     0.000 HD 
ENDBRANCH  16  39
ENDBRANCH  12  14
TORSDOF 5
ENDMDL
MODEL       82
REMARK 921   NORMALIZED FREE ENERGY PREDICTED BY IDOCK:   -5.41 KCAL/MOL
REMARK 922        TOTAL FREE ENERGY PREDICTED BY IDOCK:   -8.57 KCAL/MOL
REMARK 923 INTER-LIGAND FREE ENERGY PREDICTED BY IDOCK:   -7.46 KCAL/MOL
REMARK 924 INTRA-LIGAND FREE ENERGY PREDICTED BY IDOCK:   -1.11 KCAL/MOL
REMARK 927      BINDING AFFINITY PREDICTED BY RF-SCORE:    0.00 PKD
ROOT
HETATM    1  O   HOH     4      -6.269  18.037  68.824  1.00  0.00    -0.195 OA 
HETATM    2  H2  HOH     4      -7.133  18.012  68.431  1.00  0.00     0.000 HD 
HETATM    3 NA   UNL    13     -13.004  16.023  69.551  1.00  0.00    -0.523 Na 
HETATM    4  H1  HOH     4      -6.361  17.579  69.652  1.00  0.00     0.000 HD 
HETATM    5 NA   UNL    14      -8.667  19.314  67.473  1.00  0.00    -0.270 Na 
HETATM    6 FE   UNL    15     -11.658  18.989  68.403  1.00  0.00    -0.091 Fe 
HETATM    7 FE   UNL    16      -8.052  16.024  69.156  1.00  0.00    -0.152 Fe 
HETATM    8 FE   UNL    17      -9.211  17.804  65.760  1.00  0.00    -0.245 Fe 
HETATM    9 FE   UNL    18      -6.427  15.268  67.935  1.00  0.00    -0.086 Fe 
HETATM   10 FE   UNL    19      -9.593  14.263  64.193  1.00  0.00    -0.397 Fe 
HETATM   11  O   UNL    20      -8.926  15.069  66.818  1.00  0.00    -0.233 OA 
HETATM   12  C   UNL    20      -8.936  13.954  67.670  1.00  0.00    -0.192 C  
HETATM   13  H   UNL    20      -8.484  15.839  67.158  1.00  0.00     0.000 HD 
ENDROOT
BRANCH  12  14
HETATM   14  C   UNL    20      -9.654  12.701  67.119  1.00  0.00    -0.207 C  
HETATM   15  O   UNL    20      -9.270  11.548  67.828  1.00  0.00    -0.157 OA 
HETATM   16  C   UNL    20     -10.230  10.556  67.571  1.00  0.00    -0.206 C  
HETATM   17  C   UNL    20     -11.196  12.724  67.026  1.00  0.00    -0.292 C  
HETATM   18  H   UNL    20     -12.558  13.088  65.677  1.00  0.00     0.000 HD 
HETATM   19  C   UNL    20     -11.609  11.275  67.372  1.00  0.00    -0.130 C  
HETATM   20  H   UNL    20     -13.264  11.713  68.388  1.00  0.00     0.000 HD 
HETATM   21  O   UNL    20     -11.610  13.073  65.735  1.00  0.00    -0.326 OA 
HETATM   22  O   UNL    20     -12.428  11.278  68.509  1.00  0.00    -0.434 OA 
BRANCH  16  23
HETATM   23  O   UNL    20     -10.138   9.493  68.544  1.00  0.00    -0.166 OA 
BRANCH  23  24
HETATM   24  C   UNL    20     -10.014   9.769  69.958  1.00  0.00    -0.254 C  
HETATM   25  O   UNL    20     -11.187   9.328  70.615  1.00  0.00    -0.248 OA 
HETATM   26  C   UNL    20     -11.310   7.909  70.658  1.00  0.00    -0.259 C  
HETATM   27  H   UNL    20      -6.879   9.452  70.831  1.00  0.00     0.000 HD 
HETATM   28  C   UNL    20     -10.112   7.236  71.390  1.00  0.00    -0.187 C  
HETATM   29  O   UNL    20     -10.237   5.837  71.431  1.00  0.00    -0.201 OA 
HETATM   30  C   UNL    20      -8.800   7.660  70.744  1.00  0.00    -0.144 C  
HETATM   31  O   UNL    20      -7.619   9.798  70.345  1.00  0.00    -0.159 OA 
HETATM   32  H   UNL    20      -9.506   5.426  71.878  1.00  0.00     0.000 HD 
HETATM   33  O   UNL    20      -7.727   7.168  71.496  1.00  0.00    -0.087 OA 
HETATM   34  C   UNL    20      -8.808   9.206  70.750  1.00  0.00    -0.239 C  
HETATM   35  H   UNL    20      -6.908   7.433  71.094  1.00  0.00     0.000 HD 
BRANCH  26  36
HETATM   36  C   UNL    20     -12.596   7.577  71.456  1.00  0.00    -0.355 C  
HETATM   37  O   UNL    20     -12.277   7.304  72.789  1.00  0.00    -0.507 OA 
HETATM   38  H   UNL    20     -13.065   7.100  73.279  1.00  0.00     0.000 HD 
ENDBRANCH  26  36
ENDBRANCH  23  24
ENDBRANCH  16  23
BRANCH  16  39
HETATM   39  C   UNL    20      -9.870   9.914  66.196  1.00  0.00    -0.260 C  
HETATM   40  O   UNL    20      -9.775   8.520  66.307  1.00  0.00    -0.259 OA 
HETATM   41  H   UNL    20      -9.556   8.129  65.470  1.00  0.00     0.000 HD 
ENDBRANCH  16  39
ENDBRANCH  12  14
TORSDOF 5
ENDMDL
MODEL       83
REMARK 921   NORMALIZED FREE ENERGY PREDICTED BY IDOCK:   -5.41 KCAL/MOL
REMARK 922        TOTAL FREE ENERGY PREDICTED BY IDOCK:   -8.57 KCAL/MOL
REMARK 923 INTER-LIGAND FREE ENERGY PREDICTED BY IDOCK:   -7.17 KCAL/MOL
REMARK 924 INTRA-LIGAND FREE ENERGY PREDICTED BY IDOCK:   -1.40 KCAL/MOL
REMARK 927      BINDING AFFINITY PREDICTED BY RF-SCORE:    0.00 PKD
ROOT
HETATM    1  O   HOH     4     -11.711  13.304  62.822  1.00  0.00    -0.632 OA 
HETATM    2  H2  HOH     4     -11.803  13.325  63.768  1.00  0.00     0.000 HD 
HETATM    3 NA   UNL    13      -8.637  14.833  68.999  1.00  0.00    -0.140 Na 
HETATM    4  H1  HOH     4     -10.822  13.594  62.655  1.00  0.00     0.000 HD 
HETATM    5 NA   UNL    14     -13.144  14.066  65.386  1.00  0.00    -0.436 Na 
HETATM    6 FE   UNL    15     -11.816  15.525  67.840  1.00  0.00    -0.319 Fe 
HETATM    7 FE   UNL    16      -9.699  12.838  64.575  1.00  0.00    -0.320 Fe 
HETATM    8 FE   UNL    17     -13.023  12.119  66.692  1.00  0.00     0.250 Fe 
HETATM    9 FE   UNL    18     -10.181  10.954  63.613  1.00  0.00    -0.232 Fe 
HETATM   10 FE   UNL    19     -11.313   8.889  68.027  1.00  0.00    -0.436 Fe 
HETATM   11  O   UNL    20     -10.340  10.947  66.352  1.00  0.00    -0.237 OA 
HETATM   12  C   UNL    20      -8.957  10.796  66.175  1.00  0.00    -0.177 C  
HETATM   13  H   UNL    20     -10.772  11.523  65.732  1.00  0.00     0.000 HD 
ENDROOT
BRANCH  12  14
HETATM   14  C   UNL    20      -8.254   9.859  67.185  1.00  0.00    -0.121 C  
HETATM   15  O   UNL    20      -9.024   9.710  68.352  1.00  0.00    -0.123 OA 
HETATM   16  C   UNL    20      -8.557   8.566  69.020  1.00  0.00    -0.130 C  
HETATM   17  C   UNL    20      -7.824   8.457  66.701  1.00  0.00    -0.093 C  
HETATM   18  H   UNL    20      -6.211   7.591  66.028  1.00  0.00     0.000 HD 
HETATM   19  C   UNL    20      -8.063   7.552  67.932  1.00  0.00    -0.119 C  
HETATM   20  H   UNL    20      -8.692   5.939  66.950  1.00  0.00     0.000 HD 
HETATM   21  O   UNL    20      -6.475   8.453  66.325  1.00  0.00    -0.052 OA 
HETATM   22  O   UNL    20      -8.991   6.553  67.609  1.00  0.00    -0.116 OA 
BRANCH  16  23
HETATM   23  O   UNL    20      -9.520   8.117  69.998  1.00  0.00    -0.166 OA 
BRANCH  23  24
HETATM   24  C   UNL    20      -9.765   8.859  71.215  1.00  0.00    -0.289 C  
HETATM   25  O   UNL    20     -10.177  10.171  70.877  1.00  0.00     0.029 OA 
HETATM   26  C   UNL    20     -11.479  10.221  70.300  1.00  0.00    -0.317 C  
HETATM   27  H   UNL    20     -10.932   6.818  73.486  1.00  0.00     0.000 HD 
HETATM   28  C   UNL    20     -12.568   9.645  71.251  1.00  0.00    -0.352 C  
HETATM   29  O   UNL    20     -13.851   9.699  70.679  1.00  0.00    -0.537 OA 
HETATM   30  C   UNL    20     -12.202   8.229  71.668  1.00  0.00    -0.313 C  
HETATM   31  O   UNL    20     -10.312   7.150  72.847  1.00  0.00    -0.205 OA 
HETATM   32  H   UNL    20     -14.516   9.348  71.259  1.00  0.00     0.000 HD 
HETATM   33  O   UNL    20     -13.107   7.775  72.635  1.00  0.00    -0.456 OA 
HETATM   34  C   UNL    20     -10.775   8.318  72.258  1.00  0.00    -0.329 C  
HETATM   35  H   UNL    20     -12.879   6.890  72.895  1.00  0.00     0.000 HD 
BRANCH  26  36
HETATM   36  C   UNL    20     -11.817  11.712  70.044  1.00  0.00    -0.355 C  
HETATM   37  O   UNL    20     -12.167  11.902  68.704  1.00  0.00    -0.358 OA 
HETATM   38  H   UNL    20     -12.374  12.816  68.547  1.00  0.00     0.000 HD 
ENDBRANCH  26  36
ENDBRANCH  23  24
ENDBRANCH  16  23
BRANCH  16  39
HETATM   39  C   UNL    20      -7.292   8.992  69.827  1.00  0.00    -0.058 C  
HETATM   40  O   UNL    20      -6.202   8.167  69.515  1.00  0.00    -0.033 OA 
HETATM   41  H   UNL    20      -5.431   8.427  70.006  1.00  0.00     0.000 HD 
ENDBRANCH  16  39
ENDBRANCH  12  14
TORSDOF 5
ENDMDL
MODEL       84
REMARK 921   NORMALIZED FREE ENERGY PREDICTED BY IDOCK:   -5.39 KCAL/MOL
REMARK 922        TOTAL FREE ENERGY PREDICTED BY IDOCK:   -8.55 KCAL/MOL
REMARK 923 INTER-LIGAND FREE ENERGY PREDICTED BY IDOCK:   -7.44 KCAL/MOL
REMARK 924 INTRA-LIGAND FREE ENERGY PREDICTED BY IDOCK:   -1.11 KCAL/MOL
REMARK 927      BINDING AFFINITY PREDICTED BY RF-SCORE:    0.00 PKD
ROOT
HETATM    1  O   HOH     4      -6.553  19.976  66.461  1.00  0.00    -0.194 OA 
HETATM    2  H2  HOH     4      -7.488  19.869  66.591  1.00  0.00     0.000 HD 
HETATM    3 NA   UNL    13     -11.651  17.067  70.397  1.00  0.00    -0.472 Na 
HETATM    4  H1  HOH     4      -6.149  19.449  67.141  1.00  0.00     0.000 HD 
HETATM    5 NA   UNL    14      -9.379  21.032  66.781  1.00  0.00    -0.477 Na 
HETATM    6 FE   UNL    15     -11.351  20.258  69.111  1.00  0.00    -0.409 Fe 
HETATM    7 FE   UNL    16      -7.727  17.732  67.424  1.00  0.00    -0.181 Fe 
HETATM    8 FE   UNL    17     -10.666  19.597  65.441  1.00  0.00    -0.408 Fe 
HETATM    9 FE   UNL    18      -6.984  17.283  65.437  1.00  0.00    -0.211 Fe 
HETATM   10 FE   UNL    19     -11.601  16.162  63.869  1.00  0.00    -0.561 Fe 
HETATM   11  O   UNL    20      -9.667  16.849  65.812  1.00  0.00    -0.517 OA 
HETATM   12  C   UNL    20      -9.137  15.681  66.382  1.00  0.00    -0.320 C  
HETATM   13  H   UNL    20      -9.165  17.642  65.961  1.00  0.00     0.000 HD 
ENDROOT
BRANCH  12  14
HETATM   14  C   UNL    20      -9.953  14.391  66.139  1.00  0.00    -0.311 C  
HETATM   15  O   UNL    20      -9.129  13.253  66.213  1.00  0.00    -0.126 OA 
HETATM   16  C   UNL    20      -9.965  12.140  66.398  1.00  0.00    -0.225 C  
HETATM   17  C   UNL    20     -11.205  14.145  67.009  1.00  0.00    -0.318 C  
HETATM   18  H   UNL    20     -13.133  14.408  66.877  1.00  0.00     0.000 HD 
HETATM   19  C   UNL    20     -11.206  12.614  67.230  1.00  0.00    -0.298 C  
HETATM   20  H   UNL    20     -11.874  12.623  69.105  1.00  0.00     0.000 HD 
HETATM   21  O   UNL    20     -12.364  14.560  66.342  1.00  0.00    -0.350 OA 
HETATM   22  O   UNL    20     -11.122  12.336  68.601  1.00  0.00    -0.220 OA 
BRANCH  16  23
HETATM   23  O   UNL    20      -9.207  11.006  66.870  1.00  0.00    -0.153 OA 
BRANCH  23  24
HETATM   24  C   UNL    20      -9.009   9.832  66.048  1.00  0.00    -0.155 C  
HETATM   25  O   UNL    20      -7.631   9.713  65.747  1.00  0.00    -0.099 OA 
HETATM   26  C   UNL    20      -6.836   9.353  66.873  1.00  0.00    -0.080 C  
HETATM   27  H   UNL    20     -11.166   7.540  66.931  1.00  0.00     0.000 HD 
HETATM   28  C   UNL    20      -7.274   7.994  67.494  1.00  0.00    -0.088 C  
HETATM   29  O   UNL    20      -6.487   7.642  68.604  1.00  0.00    -0.045 OA 
HETATM   30  C   UNL    20      -8.753   8.034  67.849  1.00  0.00    -0.128 C  
HETATM   31  O   UNL    20     -10.873   8.389  66.621  1.00  0.00    -0.089 OA 
HETATM   32  H   UNL    20      -6.754   6.813  68.982  1.00  0.00     0.000 HD 
HETATM   33  O   UNL    20      -9.170   6.765  68.269  1.00  0.00    -0.125 OA 
HETATM   34  C   UNL    20      -9.487   8.448  66.553  1.00  0.00    -0.220 C  
HETATM   35  H   UNL    20     -10.093   6.790  68.491  1.00  0.00     0.000 HD 
BRANCH  26  36
HETATM   36  C   UNL    20      -5.375   9.197  66.381  1.00  0.00    -0.037 C  
HETATM   37  O   UNL    20      -5.151   7.887  65.949  1.00  0.00    -0.024 OA 
HETATM   38  H   UNL    20      -4.255   7.791  65.647  1.00  0.00     0.000 HD 
ENDBRANCH  26  36
ENDBRANCH  23  24
ENDBRANCH  16  23
BRANCH  16  39
HETATM   39  C   UNL    20     -10.509  11.738  64.992  1.00  0.00    -0.285 C  
HETATM   40  O   UNL    20     -11.877  12.029  64.887  1.00  0.00    -0.319 OA 
HETATM   41  H   UNL    20     -12.208  11.784  64.031  1.00  0.00     0.000 HD 
ENDBRANCH  16  39
ENDBRANCH  12  14
TORSDOF 5
ENDMDL
MODEL       85
REMARK 921   NORMALIZED FREE ENERGY PREDICTED BY IDOCK:   -5.37 KCAL/MOL
REMARK 922        TOTAL FREE ENERGY PREDICTED BY IDOCK:   -8.52 KCAL/MOL
REMARK 923 INTER-LIGAND FREE ENERGY PREDICTED BY IDOCK:   -7.30 KCAL/MOL
REMARK 924 INTRA-LIGAND FREE ENERGY PREDICTED BY IDOCK:   -1.22 KCAL/MOL
REMARK 927      BINDING AFFINITY PREDICTED BY RF-SCORE:    0.00 PKD
ROOT
HETATM    1  O   HOH     4      -9.750   1.516  69.283  1.00  0.00    -0.064 OA 
HETATM    2  H2  HOH     4      -9.928   2.072  70.034  1.00  0.00     0.000 HD 
HETATM    3 NA   UNL    13     -13.490   6.946  71.829  1.00  0.00    -0.311 Na 
HETATM    4  H1  HOH     4     -10.297   1.861  68.587  1.00  0.00     0.000 HD 
HETATM    5 NA   UNL    14     -10.456   1.984  72.197  1.00  0.00    -0.126 Na 
HETATM    6 FE   UNL    15     -12.756   3.873  73.224  1.00  0.00    -0.169 Fe 
HETATM    7 FE   UNL    16     -10.395   4.144  69.136  1.00  0.00    -0.186 Fe 
HETATM    8 FE   UNL    17      -8.986   3.691  72.859  1.00  0.00    -0.088 Fe 
HETATM    9 FE   UNL    18      -8.311   3.947  68.571  1.00  0.00    -0.076 Fe 
HETATM   10 FE   UNL    19      -6.918   6.944  72.327  1.00  0.00    -0.057 Fe 
HETATM   11  O   UNL    20      -8.802   5.650  70.665  1.00  0.00    -0.135 OA 
HETATM   12  C   UNL    20      -9.121   6.480  69.579  1.00  0.00    -0.140 C  
HETATM   13  H   UNL    20      -9.049   4.737  70.568  1.00  0.00     0.000 HD 
ENDROOT
BRANCH  12  14
HETATM   14  C   UNL    20      -8.720   7.965  69.735  1.00  0.00    -0.137 C  
HETATM   15  O   UNL    20      -8.812   8.643  68.506  1.00  0.00    -0.140 OA 
HETATM   16  C   UNL    20      -8.844  10.019  68.786  1.00  0.00    -0.137 C  
HETATM   17  C   UNL    20      -9.440   8.806  70.812  1.00  0.00    -0.206 C  
HETATM   18  H   UNL    20      -9.125   9.381  72.649  1.00  0.00     0.000 HD 
HETATM   19  C   UNL    20      -9.569  10.205  70.163  1.00  0.00     0.026 C  
HETATM   20  H   UNL    20     -11.363  10.665  70.894  1.00  0.00     0.000 HD 
HETATM   21  O   UNL    20      -8.682   8.863  71.987  1.00  0.00    -0.365 OA 
HETATM   22  O   UNL    20     -10.923  10.552  70.060  1.00  0.00    -0.277 OA 
BRANCH  16  23
HETATM   23  O   UNL    20      -9.325  10.760  67.645  1.00  0.00    -0.146 OA 
BRANCH  23  24
HETATM   24  C   UNL    20     -10.296  10.198  66.731  1.00  0.00    -0.222 C  
HETATM   25  O   UNL    20     -11.367  11.112  66.583  1.00  0.00    -0.314 OA 
HETATM   26  C   UNL    20     -11.011  12.287  65.860  1.00  0.00    -0.302 C  
HETATM   27  H   UNL    20      -8.730   8.424  64.476  1.00  0.00     0.000 HD 
HETATM   28  C   UNL    20     -10.501  11.964  64.425  1.00  0.00    -0.311 C  
HETATM   29  O   UNL    20     -10.152  13.126  63.715  1.00  0.00    -0.731 OA 
HETATM   30  C   UNL    20      -9.342  10.980  64.491  1.00  0.00    -0.198 C  
HETATM   31  O   UNL    20      -8.999   8.685  65.349  1.00  0.00    -0.189 OA 
HETATM   32  H   UNL    20      -9.841  12.929  62.839  1.00  0.00     0.000 HD 
HETATM   33  O   UNL    20      -8.988  10.585  63.195  1.00  0.00    -0.187 OA 
HETATM   34  C   UNL    20      -9.859   9.773  65.307  1.00  0.00    -0.265 C  
HETATM   35  H   UNL    20      -8.264   9.971  63.236  1.00  0.00     0.000 HD 
BRANCH  26  36
HETATM   36  C   UNL    20     -12.287  13.155  65.723  1.00  0.00    -0.435 C  
HETATM   37  O   UNL    20     -13.170  12.569  64.812  1.00  0.00    -0.839 OA 
HETATM   38  H   UNL    20     -13.953  13.101  64.727  1.00  0.00     0.000 HD 
ENDBRANCH  26  36
ENDBRANCH  23  24
ENDBRANCH  16  23
BRANCH  16  39
HETATM   39  C   UNL    20      -7.369  10.476  69.004  1.00  0.00    -0.103 C  
HETATM   40  O   UNL    20      -7.153  10.838  70.342  1.00  0.00    -0.473 OA 
HETATM   41  H   UNL    20      -6.255  11.116  70.474  1.00  0.00     0.000 HD 
ENDBRANCH  16  39
ENDBRANCH  12  14
TORSDOF 5
ENDMDL
MODEL       86
REMARK 921   NORMALIZED FREE ENERGY PREDICTED BY IDOCK:   -5.36 KCAL/MOL
REMARK 922        TOTAL FREE ENERGY PREDICTED BY IDOCK:   -8.51 KCAL/MOL
REMARK 923 INTER-LIGAND FREE ENERGY PREDICTED BY IDOCK:   -7.09 KCAL/MOL
REMARK 924 INTRA-LIGAND FREE ENERGY PREDICTED BY IDOCK:   -1.42 KCAL/MOL
REMARK 927      BINDING AFFINITY PREDICTED BY RF-SCORE:    0.00 PKD
ROOT
HETATM    1  O   HOH     4     -12.498  14.151  63.109  1.00  0.00    -1.126 OA 
HETATM    2  H2  HOH     4     -11.967  14.260  63.890  1.00  0.00     0.000 HD 
HETATM    3 NA   UNL    13      -6.426  12.569  66.361  1.00  0.00    -0.332 Na 
HETATM    4  H1  HOH     4     -11.999  13.566  62.552  1.00  0.00     0.000 HD 
HETATM    5 NA   UNL    14     -11.128  15.823  65.238  1.00  0.00    -0.298 Na 
HETATM    6 FE   UNL    15      -8.101  15.575  66.068  1.00  0.00    -0.244 Fe 
HETATM    7 FE   UNL    16     -10.854  12.255  64.130  1.00  0.00    -0.265 Fe 
HETATM    8 FE   UNL    17     -11.595  14.678  67.234  1.00  0.00    -0.289 Fe 
HETATM    9 FE   UNL    18     -12.895  11.597  64.453  1.00  0.00    -0.303 Fe 
HETATM   10 FE   UNL    19     -12.174  11.499  69.403  1.00  0.00    -0.247 Fe 
HETATM   11  O   UNL    20     -11.352  11.787  66.714  1.00  0.00    -0.319 OA 
HETATM   12  C   UNL    20     -10.926  10.546  66.217  1.00  0.00     0.101 C  
HETATM   13  H   UNL    20     -11.533  12.451  66.058  1.00  0.00     0.000 HD 
ENDROOT
BRANCH  12  14
HETATM   14  C   UNL    20     -10.632   9.466  67.283  1.00  0.00    -0.244 C  
HETATM   15  O   UNL    20     -10.592   8.185  66.703  1.00  0.00    -0.272 OA 
HETATM   16  C   UNL    20      -9.931   7.335  67.606  1.00  0.00    -0.162 C  
HETATM   17  C   UNL    20      -9.381   9.639  68.172  1.00  0.00    -0.132 C  
HETATM   18  H   UNL    20      -8.950  10.333  69.944  1.00  0.00     0.000 HD 
HETATM   19  C   UNL    20      -8.865   8.194  68.370  1.00  0.00    -0.133 C  
HETATM   20  H   UNL    20      -6.919   8.606  68.323  1.00  0.00     0.000 HD 
HETATM   21  O   UNL    20      -9.720  10.227  69.397  1.00  0.00    -0.213 OA 
HETATM   22  O   UNL    20      -7.564   8.086  67.861  1.00  0.00    -0.107 OA 
BRANCH  16  23
HETATM   23  O   UNL    20      -9.501   6.125  66.946  1.00  0.00    -0.127 OA 
BRANCH  23  24
HETATM   24  C   UNL    20     -10.271   4.903  67.029  1.00  0.00    -0.187 C  
HETATM   25  O   UNL    20     -10.736   4.567  65.735  1.00  0.00    -0.280 OA 
HETATM   26  C   UNL    20      -9.699   4.138  64.857  1.00  0.00    -0.191 C  
HETATM   27  H   UNL    20      -8.991   2.997  69.355  1.00  0.00     0.000 HD 
HETATM   28  C   UNL    20      -8.949   2.886  65.398  1.00  0.00    -0.144 C  
HETATM   29  O   UNL    20      -7.928   2.465  64.528  1.00  0.00    -0.076 OA 
HETATM   30  C   UNL    20      -8.414   3.161  66.796  1.00  0.00    -0.104 C  
HETATM   31  O   UNL    20      -9.384   3.779  68.987  1.00  0.00    -0.148 OA 
HETATM   32  H   UNL    20      -7.471   1.700  64.858  1.00  0.00     0.000 HD 
HETATM   33  O   UNL    20      -7.871   1.986  67.330  1.00  0.00    -0.064 OA 
HETATM   34  C   UNL    20      -9.630   3.627  67.629  1.00  0.00    -0.140 C  
HETATM   35  H   UNL    20      -7.537   2.158  68.202  1.00  0.00     0.000 HD 
BRANCH  26  36
HETATM   36  C   UNL    20     -10.361   3.746  63.511  1.00  0.00    -0.220 C  
HETATM   37  O   UNL    20     -11.047   2.537  63.649  1.00  0.00    -0.487 OA 
HETATM   38  H   UNL    20     -11.453   2.296  62.824  1.00  0.00     0.000 HD 
ENDBRANCH  26  36
ENDBRANCH  23  24
ENDBRANCH  16  23
BRANCH  16  39
HETATM   39  C   UNL    20     -10.981   6.894  68.672  1.00  0.00    -0.145 C  
HETATM   40  O   UNL    20     -10.359   6.610  69.896  1.00  0.00    -0.188 OA 
HETATM   41  H   UNL    20     -10.999   6.342  70.544  1.00  0.00     0.000 HD 
ENDBRANCH  16  39
ENDBRANCH  12  14
TORSDOF 5
ENDMDL
MODEL       87
REMARK 921   NORMALIZED FREE ENERGY PREDICTED BY IDOCK:   -5.34 KCAL/MOL
REMARK 922        TOTAL FREE ENERGY PREDICTED BY IDOCK:   -8.49 KCAL/MOL
REMARK 923 INTER-LIGAND FREE ENERGY PREDICTED BY IDOCK:   -7.08 KCAL/MOL
REMARK 924 INTRA-LIGAND FREE ENERGY PREDICTED BY IDOCK:   -1.41 KCAL/MOL
REMARK 927      BINDING AFFINITY PREDICTED BY RF-SCORE:    0.00 PKD
ROOT
HETATM    1  O   HOH     4     -10.440  20.262  69.548  1.00  0.00    -0.528 OA 
HETATM    2  H2  HOH     4      -9.733  19.671  69.314  1.00  0.00     0.000 HD 
HETATM    3 NA   UNL    13      -6.249  17.854  64.392  1.00  0.00    -0.041 Na 
HETATM    4  H1  HOH     4     -10.688  20.683  68.734  1.00  0.00     0.000 HD 
HETATM    5 NA   UNL    14      -7.670  19.078  69.910  1.00  0.00    -0.130 Na 
HETATM    6 FE   UNL    15      -5.512  18.786  67.635  1.00  0.00    -0.152 Fe 
HETATM    7 FE   UNL    16     -10.211  19.006  67.158  1.00  0.00    -0.291 Fe 
HETATM    8 FE   UNL    17      -8.012  16.770  69.650  1.00  0.00    -0.230 Fe 
HETATM    9 FE   UNL    18     -11.888  18.118  68.209  1.00  0.00     0.068 Fe 
HETATM   10 FE   UNL    19      -9.691  13.624  68.093  1.00  0.00    -0.181 Fe 
HETATM   11  O   UNL    20      -9.921  16.364  67.442  1.00  0.00    -0.242 OA 
HETATM   12  C   UNL    20     -10.625  16.505  66.236  1.00  0.00    -0.223 C  
HETATM   13  H   UNL    20      -9.845  17.154  67.965  1.00  0.00     0.000 HD 
ENDROOT
BRANCH  12  14
HETATM   14  C   UNL    20     -10.750  15.221  65.384  1.00  0.00    -0.391 C  
HETATM   15  O   UNL    20     -10.026  14.162  65.961  1.00  0.00    -0.301 OA 
HETATM   16  C   UNL    20     -10.503  12.968  65.396  1.00  0.00    -0.296 C  
HETATM   17  C   UNL    20     -12.166  14.711  65.036  1.00  0.00    -0.322 C  
HETATM   18  H   UNL    20     -13.423  14.833  63.550  1.00  0.00     0.000 HD 
HETATM   19  C   UNL    20     -12.025  13.171  65.079  1.00  0.00    -0.383 C  
HETATM   20  H   UNL    20     -13.812  12.769  65.856  1.00  0.00     0.000 HD 
HETATM   21  O   UNL    20     -12.552  15.147  63.763  1.00  0.00    -0.752 OA 
HETATM   22  O   UNL    20     -12.890  12.646  66.048  1.00  0.00    -0.161 OA 
BRANCH  16  23
HETATM   23  O   UNL    20     -10.107  11.832  66.193  1.00  0.00    -0.212 OA 
BRANCH  23  24
HETATM   24  C   UNL    20      -8.898  11.091  65.908  1.00  0.00    -0.195 C  
HETATM   25  O   UNL    20      -8.084  11.080  67.066  1.00  0.00    -0.125 OA 
HETATM   26  C   UNL    20      -8.613  10.279  68.119  1.00  0.00    -0.119 C  
HETATM   27  H   UNL    20      -9.599   8.678  63.818  1.00  0.00     0.000 HD 
HETATM   28  C   UNL    20      -8.799   8.793  67.693  1.00  0.00    -0.135 C  
HETATM   29  O   UNL    20      -9.320   8.006  68.734  1.00  0.00    -0.147 OA 
HETATM   30  C   UNL    20      -9.666   8.712  66.445  1.00  0.00    -0.263 C  
HETATM   31  O   UNL    20      -9.542   9.574  64.128  1.00  0.00    -0.022 OA 
HETATM   32  H   UNL    20      -9.433   7.099  68.475  1.00  0.00     0.000 HD 
HETATM   33  O   UNL    20      -9.707   7.390  65.987  1.00  0.00    -0.423 OA 
HETATM   34  C   UNL    20      -8.991   9.630  65.401  1.00  0.00    -0.190 C  
HETATM   35  H   UNL    20     -10.248   7.339  65.208  1.00  0.00     0.000 HD 
BRANCH  26  36
HETATM   36  C   UNL    20      -7.594  10.310  69.285  1.00  0.00    -0.125 C  
HETATM   37  O   UNL    20      -6.520  11.145  68.962  1.00  0.00    -0.055 OA 
HETATM   38  H   UNL    20      -5.895  11.164  69.677  1.00  0.00     0.000 HD 
ENDBRANCH  26  36
ENDBRANCH  23  24
ENDBRANCH  16  23
BRANCH  16  39
HETATM   39  C   UNL    20      -9.790  12.797  64.019  1.00  0.00     0.083 C  
HETATM   40  O   UNL    20     -10.719  12.507  63.010  1.00  0.00    -0.597 OA 
HETATM   41  H   UNL    20     -10.285  12.403  62.171  1.00  0.00     0.000 HD 
ENDBRANCH  16  39
ENDBRANCH  12  14
TORSDOF 5
ENDMDL
MODEL       88
REMARK 921   NORMALIZED FREE ENERGY PREDICTED BY IDOCK:   -5.34 KCAL/MOL
REMARK 922        TOTAL FREE ENERGY PREDICTED BY IDOCK:   -8.48 KCAL/MOL
REMARK 923 INTER-LIGAND FREE ENERGY PREDICTED BY IDOCK:   -7.82 KCAL/MOL
REMARK 924 INTRA-LIGAND FREE ENERGY PREDICTED BY IDOCK:   -0.67 KCAL/MOL
REMARK 927      BINDING AFFINITY PREDICTED BY RF-SCORE:    0.00 PKD
ROOT
HETATM    1  O   HOH     4     -13.786  15.685  70.646  1.00  0.00    -0.847 OA 
HETATM    2  H2  HOH     4     -12.967  15.806  70.179  1.00  0.00     0.000 HD 
HETATM    3 NA   UNL    13     -10.355  14.992  64.506  1.00  0.00    -0.356 Na 
HETATM    4  H1  HOH     4     -14.371  15.283  70.014  1.00  0.00     0.000 HD 
HETATM    5 NA   UNL    14     -11.408  17.335  69.737  1.00  0.00    -0.346 Na 
HETATM    6 FE   UNL    15     -10.424  17.609  66.758  1.00  0.00    -0.287 Fe 
HETATM    7 FE   UNL    16     -12.876  14.053  68.683  1.00  0.00    -0.501 Fe 
HETATM    8 FE   UNL    17      -9.581  15.890  70.031  1.00  0.00    -0.229 Fe 
HETATM    9 FE   UNL    18     -12.753  12.962  70.553  1.00  0.00    -0.290 Fe 
HETATM   10 FE   UNL    19      -7.808  12.427  70.017  1.00  0.00    -0.160 Fe 
HETATM   11  O   UNL    20     -10.394  13.191  69.171  1.00  0.00    -0.434 OA 
HETATM   12  C   UNL    20     -10.995  12.130  68.477  1.00  0.00    -0.238 C  
HETATM   13  H   UNL    20     -10.984  13.877  69.461  1.00  0.00     0.000 HD 
ENDROOT
BRANCH  12  14
HETATM   14  C   UNL    20     -10.036  11.013  68.006  1.00  0.00    -0.173 C  
HETATM   15  O   UNL    20      -9.825  10.068  69.026  1.00  0.00    -0.179 OA 
HETATM   16  C   UNL    20      -9.308   8.909  68.425  1.00  0.00    -0.136 C  
HETATM   17  C   UNL    20     -10.380  10.257  66.703  1.00  0.00    -0.219 C  
HETATM   18  H   UNL    20      -9.897  10.335  64.815  1.00  0.00     0.000 HD 
HETATM   19  C   UNL    20      -9.925   8.806  66.987  1.00  0.00    -0.240 C  
HETATM   20  H   UNL    20     -11.398   7.879  66.021  1.00  0.00     0.000 HD 
HETATM   21  O   UNL    20      -9.686  10.800  65.616  1.00  0.00    -0.211 OA 
HETATM   22  O   UNL    20     -11.024   7.942  66.891  1.00  0.00    -0.188 OA 
BRANCH  16  23
HETATM   23  O   UNL    20      -9.429   7.777  69.312  1.00  0.00    -0.155 OA 
BRANCH  23  24
HETATM   24  C   UNL    20     -10.672   7.050  69.447  1.00  0.00    -0.238 C  
HETATM   25  O   UNL    20     -10.397   5.662  69.404  1.00  0.00    -0.221 OA 
HETATM   26  C   UNL    20      -9.715   5.186  70.560  1.00  0.00    -0.193 C  
HETATM   27  H   UNL    20     -12.676   8.728  71.411  1.00  0.00     0.000 HD 
HETATM   28  C   UNL    20     -10.523   5.437  71.867  1.00  0.00    -0.224 C  
HETATM   29  O   UNL    20      -9.847   4.965  73.005  1.00  0.00    -0.144 OA 
HETATM   30  C   UNL    20     -10.864   6.915  71.994  1.00  0.00    -0.225 C  
HETATM   31  O   UNL    20     -12.119   8.576  70.656  1.00  0.00    -0.141 OA 
HETATM   32  H   UNL    20     -10.340   5.118  73.802  1.00  0.00     0.000 HD 
HETATM   33  O   UNL    20     -11.712   7.108  73.091  1.00  0.00    -0.531 OA 
HETATM   34  C   UNL    20     -11.580   7.297  70.678  1.00  0.00    -0.290 C  
HETATM   35  H   UNL    20     -11.925   8.031  73.170  1.00  0.00     0.000 HD 
BRANCH  26  36
HETATM   36  C   UNL    20      -9.542   3.654  70.401  1.00  0.00    -0.184 C  
HETATM   37  O   UNL    20      -8.434   3.217  71.133  1.00  0.00    -0.065 OA 
HETATM   38  H   UNL    20      -8.328   2.278  71.035  1.00  0.00     0.000 HD 
ENDBRANCH  26  36
ENDBRANCH  23  24
ENDBRANCH  16  23
BRANCH  16  39
HETATM   39  C   UNL    20      -7.778   9.139  68.227  1.00  0.00    -0.091 C  
HETATM   40  O   UNL    20      -7.399   8.859  66.906  1.00  0.00    -0.081 OA 
HETATM   41  H   UNL    20      -6.467   9.000  66.786  1.00  0.00     0.000 HD 
ENDBRANCH  16  39
ENDBRANCH  12  14
TORSDOF 5
ENDMDL
MODEL       89
REMARK 921   NORMALIZED FREE ENERGY PREDICTED BY IDOCK:   -5.28 KCAL/MOL
REMARK 922        TOTAL FREE ENERGY PREDICTED BY IDOCK:   -8.41 KCAL/MOL
REMARK 923 INTER-LIGAND FREE ENERGY PREDICTED BY IDOCK:   -6.57 KCAL/MOL
REMARK 924 INTRA-LIGAND FREE ENERGY PREDICTED BY IDOCK:   -1.83 KCAL/MOL
REMARK 927      BINDING AFFINITY PREDICTED BY RF-SCORE:    0.00 PKD
ROOT
HETATM    1  O   HOH     4     -13.209  10.966  72.690  1.00  0.00    -0.358 OA 
HETATM    2  H2  HOH     4     -12.966  11.875  72.558  1.00  0.00     0.000 HD 
HETATM    3 NA   UNL    13     -14.316  16.870  68.968  1.00  0.00     1.037 Na 
HETATM    4  H1  HOH     4     -13.859  10.785  72.021  1.00  0.00     0.000 HD 
HETATM    5 NA   UNL    14     -12.705  13.799  73.651  1.00  0.00    -0.443 Na 
HETATM    6 FE   UNL    15     -13.942  16.395  72.368  1.00  0.00    -0.409 Fe 
HETATM    7 FE   UNL    16     -13.178  12.218  70.287  1.00  0.00    -0.034 Fe 
HETATM    8 FE   UNL    17     -10.716  14.411  72.563  1.00  0.00    -0.121 Fe 
HETATM    9 FE   UNL    18     -11.546  10.789  70.304  1.00  0.00    -0.203 Fe 
HETATM   10 FE   UNL    19      -8.216  14.452  69.582  1.00  0.00    -0.263 Fe 
HETATM   11  O   UNL    20     -10.825  13.388  69.801  1.00  0.00    -0.439 OA 
HETATM   12  C   UNL    20     -11.283  13.000  68.533  1.00  0.00    -0.274 C  
HETATM   13  H   UNL    20     -11.312  13.037  70.538  1.00  0.00     0.000 HD 
ENDROOT
BRANCH  12  14
HETATM   14  C   UNL    20     -10.492  13.571  67.334  1.00  0.00    -0.247 C  
HETATM   15  O   UNL    20     -10.213  14.937  67.521  1.00  0.00    -0.232 OA 
HETATM   16  C   UNL    20      -9.174  15.279  66.640  1.00  0.00    -0.274 C  
HETATM   17  C   UNL    20      -9.186  12.859  66.916  1.00  0.00    -0.234 C  
HETATM   18  H   UNL    20      -8.619  11.534  65.602  1.00  0.00     0.000 HD 
HETATM   19  C   UNL    20      -8.259  14.017  66.475  1.00  0.00     0.589 C  
HETATM   20  H   UNL    20      -6.555  13.265  67.177  1.00  0.00     0.000 HD 
HETATM   21  O   UNL    20      -9.421  11.971  65.860  1.00  0.00    -0.234 OA 
HETATM   22  O   UNL    20      -7.109  14.029  67.276  1.00  0.00    -0.135 OA 
BRANCH  16  23
HETATM   23  O   UNL    20      -8.566  16.529  67.028  1.00  0.00    -0.175 OA 
BRANCH  23  24
HETATM   24  C   UNL    20      -8.986  17.239  68.216  1.00  0.00    -0.262 C  
HETATM   25  O   UNL    20      -7.849  17.507  69.015  1.00  0.00    -0.226 OA 
HETATM   26  C   UNL    20      -6.980  18.483  68.449  1.00  0.00    -0.264 C  
HETATM   27  H   UNL    20     -11.519  19.164  67.463  1.00  0.00     0.000 HD 
HETATM   28  C   UNL    20      -7.694  19.848  68.221  1.00  0.00    -0.260 C  
HETATM   29  O   UNL    20      -6.832  20.808  67.663  1.00  0.00    -0.308 OA 
HETATM   30  C   UNL    20      -8.938  19.650  67.366  1.00  0.00    -0.315 C  
HETATM   31  O   UNL    20     -11.036  18.350  67.545  1.00  0.00    -0.354 OA 
HETATM   32  H   UNL    20      -7.268  21.641  67.524  1.00  0.00     0.000 HD 
HETATM   33  O   UNL    20      -9.650  20.853  67.289  1.00  0.00    -0.618 OA 
HETATM   34  C   UNL    20      -9.774  18.566  68.083  1.00  0.00    -0.339 C  
HETATM   35  H   UNL    20     -10.426  20.730  66.755  1.00  0.00     0.000 HD 
BRANCH  26  36
HETATM   36  C   UNL    20      -5.825  18.719  69.456  1.00  0.00    -0.248 C  
HETATM   37  O   UNL    20      -5.544  17.538  70.148  1.00  0.00    -0.233 OA 
HETATM   38  H   UNL    20      -4.836  17.682  70.765  1.00  0.00     0.000 HD 
ENDBRANCH  26  36
ENDBRANCH  23  24
ENDBRANCH  16  23
BRANCH  16  39
HETATM   39  C   UNL    20      -9.823  15.532  65.244  1.00  0.00    -0.166 C  
HETATM   40  O   UNL    20     -10.784  16.550  65.319  1.00  0.00    -0.531 OA 
HETATM   41  H   UNL    20     -11.179  16.704  64.469  1.00  0.00     0.000 HD 
ENDBRANCH  16  39
ENDBRANCH  12  14
TORSDOF 5
ENDMDL
MODEL       90
REMARK 921   NORMALIZED FREE ENERGY PREDICTED BY IDOCK:   -5.28 KCAL/MOL
REMARK 922        TOTAL FREE ENERGY PREDICTED BY IDOCK:   -8.40 KCAL/MOL
REMARK 923 INTER-LIGAND FREE ENERGY PREDICTED BY IDOCK:   -7.06 KCAL/MOL
REMARK 924 INTRA-LIGAND FREE ENERGY PREDICTED BY IDOCK:   -1.34 KCAL/MOL
REMARK 927      BINDING AFFINITY PREDICTED BY RF-SCORE:    0.00 PKD
ROOT
HETATM    1  O   HOH     4      -5.938  17.227  68.485  1.00  0.00    -0.150 OA 
HETATM    2  H2  HOH     4      -6.785  17.138  68.062  1.00  0.00     0.000 HD 
HETATM    3 NA   UNL    13     -12.710  15.345  69.221  1.00  0.00    -0.463 Na 
HETATM    4  H1  HOH     4      -6.069  16.906  69.369  1.00  0.00     0.000 HD 
HETATM    5 NA   UNL    14      -8.267  18.271  66.844  1.00  0.00    -0.210 Na 
HETATM    6 FE   UNL    15     -11.297  18.093  67.679  1.00  0.00    -0.394 Fe 
HETATM    7 FE   UNL    16      -7.745  15.290  69.052  1.00  0.00    -0.113 Fe 
HETATM    8 FE   UNL    17      -8.743  16.508  65.368  1.00  0.00    -0.259 Fe 
HETATM    9 FE   UNL    18      -6.073  14.351  68.038  1.00  0.00    -0.080 Fe 
HETATM   10 FE   UNL    19      -9.076  12.763  64.366  1.00  0.00    -0.433 Fe 
HETATM   11  O   UNL    20      -8.521  13.975  66.858  1.00  0.00    -0.361 OA 
HETATM   12  C   UNL    20      -8.575  13.009  67.874  1.00  0.00    -0.189 C  
HETATM   13  H   UNL    20      -8.090  14.790  67.090  1.00  0.00     0.000 HD 
ENDROOT
BRANCH  12  14
HETATM   14  C   UNL    20      -9.275  11.683  67.496  1.00  0.00    -0.172 C  
HETATM   15  O   UNL    20      -9.276  10.788  68.581  1.00  0.00    -0.168 OA 
HETATM   16  C   UNL    20     -10.254   9.814  68.322  1.00  0.00    -0.183 C  
HETATM   17  C   UNL    20     -10.707  11.752  66.919  1.00  0.00    -0.250 C  
HETATM   18  H   UNL    20     -11.561  11.748  65.166  1.00  0.00     0.000 HD 
HETATM   19  C   UNL    20     -11.403  10.502  67.507  1.00  0.00    -0.101 C  
HETATM   20  H   UNL    20     -13.199  11.312  67.786  1.00  0.00     0.000 HD 
HETATM   21  O   UNL    20     -10.681  11.706  65.520  1.00  0.00    -0.269 OA 
HETATM   22  O   UNL    20     -12.503  10.896  68.280  1.00  0.00    -0.165 OA 
BRANCH  16  23
HETATM   23  O   UNL    20     -10.595   9.099  69.529  1.00  0.00    -0.218 OA 
BRANCH  23  24
HETATM   24  C   UNL    20     -10.006   7.815  69.841  1.00  0.00    -0.191 C  
HETATM   25  O   UNL    20      -8.860   8.020  70.646  1.00  0.00    -0.139 OA 
HETATM   26  C   UNL    20      -9.169   8.467  71.963  1.00  0.00    -0.256 C  
HETATM   27  H   UNL    20     -12.389   5.594  70.116  1.00  0.00     0.000 HD 
HETATM   28  C   UNL    20     -10.076   7.461  72.730  1.00  0.00    -0.224 C  
HETATM   29  O   UNL    20     -10.377   7.905  74.029  1.00  0.00    -0.076 OA 
HETATM   30  C   UNL    20     -11.339   7.181  71.929  1.00  0.00    -0.260 C  
HETATM   31  O   UNL    20     -11.865   6.264  69.692  1.00  0.00    -0.290 OA 
HETATM   32  H   UNL    20     -10.930   7.291  74.497  1.00  0.00     0.000 HD 
HETATM   33  O   UNL    20     -12.076   6.168  72.554  1.00  0.00    -0.514 OA 
HETATM   34  C   UNL    20     -10.861   6.723  70.532  1.00  0.00    -0.258 C  
HETATM   35  H   UNL    20     -12.865   5.993  72.055  1.00  0.00     0.000 HD 
BRANCH  26  36
HETATM   36  C   UNL    20      -7.833   8.585  72.740  1.00  0.00    -0.011 C  
HETATM   37  O   UNL    20      -7.556   7.385  73.402  1.00  0.00    -0.087 OA 
HETATM   38  H   UNL    20      -6.737   7.457  73.878  1.00  0.00     0.000 HD 
ENDBRANCH  26  36
ENDBRANCH  23  24
ENDBRANCH  16  23
BRANCH  16  39
HETATM   39  C   UNL    20      -9.610   8.762  67.367  1.00  0.00    -0.161 C  
HETATM   40  O   UNL    20     -10.598   8.060  66.661  1.00  0.00    -0.418 OA 
HETATM   41  H   UNL    20     -10.205   7.420  66.080  1.00  0.00     0.000 HD 
ENDBRANCH  16  39
ENDBRANCH  12  14
TORSDOF 5
ENDMDL
MODEL       91
REMARK 921   NORMALIZED FREE ENERGY PREDICTED BY IDOCK:   -5.25 KCAL/MOL
REMARK 922        TOTAL FREE ENERGY PREDICTED BY IDOCK:   -8.37 KCAL/MOL
REMARK 923 INTER-LIGAND FREE ENERGY PREDICTED BY IDOCK:   -6.93 KCAL/MOL
REMARK 924 INTRA-LIGAND FREE ENERGY PREDICTED BY IDOCK:   -1.44 KCAL/MOL
REMARK 927      BINDING AFFINITY PREDICTED BY RF-SCORE:    0.00 PKD
ROOT
HETATM    1  O   HOH     4     -13.766  15.700  70.717  1.00  0.00    -0.843 OA 
HETATM    2  H2  HOH     4     -12.957  15.826  70.234  1.00  0.00     0.000 HD 
HETATM    3 NA   UNL    13     -10.465  15.066  64.500  1.00  0.00    -0.352 Na 
HETATM    4  H1  HOH     4     -14.364  15.304  70.095  1.00  0.00     0.000 HD 
HETATM    5 NA   UNL    14     -11.409  17.360  69.773  1.00  0.00    -0.348 Na 
HETATM    6 FE   UNL    15     -10.488  17.663  66.777  1.00  0.00    -0.287 Fe 
HETATM    7 FE   UNL    16     -12.897  14.087  68.720  1.00  0.00    -0.484 Fe 
HETATM    8 FE   UNL    17      -9.575  15.914  70.015  1.00  0.00    -0.229 Fe 
HETATM    9 FE   UNL    18     -12.734  12.979  70.577  1.00  0.00    -0.290 Fe 
HETATM   10 FE   UNL    19      -7.801  12.452  69.932  1.00  0.00    -0.290 Fe 
HETATM   11  O   UNL    20     -10.405  13.222  69.148  1.00  0.00    -0.430 OA 
HETATM   12  C   UNL    20     -11.020  12.168  68.457  1.00  0.00    -0.238 C  
HETATM   13  H   UNL    20     -10.989  13.906  69.457  1.00  0.00     0.000 HD 
ENDROOT
BRANCH  12  14
HETATM   14  C   UNL    20     -10.070  11.056  67.955  1.00  0.00    -0.179 C  
HETATM   15  O   UNL    20      -9.700  10.198  69.007  1.00  0.00    -0.184 OA 
HETATM   16  C   UNL    20      -9.203   9.017  68.431  1.00  0.00    -0.136 C  
HETATM   17  C   UNL    20     -10.525  10.192  66.758  1.00  0.00    -0.204 C  
HETATM   18  H   UNL    20     -10.266  10.148  64.825  1.00  0.00     0.000 HD 
HETATM   19  C   UNL    20      -9.975   8.785  67.087  1.00  0.00    -0.230 C  
HETATM   20  H   UNL    20     -11.503   7.734  66.366  1.00  0.00     0.000 HD 
HETATM   21  O   UNL    20      -9.986  10.679  65.561  1.00  0.00    -0.241 OA 
HETATM   22  O   UNL    20     -11.036   7.875  67.180  1.00  0.00    -0.219 OA 
BRANCH  16  23
HETATM   23  O   UNL    20      -9.169   7.950  69.403  1.00  0.00    -0.146 OA 
BRANCH  23  24
HETATM   24  C   UNL    20      -8.092   6.985  69.431  1.00  0.00    -0.130 C  
HETATM   25  O   UNL    20      -7.771   6.697  70.779  1.00  0.00    -0.094 OA 
HETATM   26  C   UNL    20      -8.779   5.950  71.452  1.00  0.00    -0.133 C  
HETATM   27  H   UNL    20      -8.407   4.969  66.876  1.00  0.00     0.000 HD 
HETATM   28  C   UNL    20      -9.060   4.583  70.762  1.00  0.00    -0.127 C  
HETATM   29  O   UNL    20     -10.055   3.848  71.430  1.00  0.00    -0.157 OA 
HETATM   30  C   UNL    20      -9.415   4.801  69.298  1.00  0.00    -0.153 C  
HETATM   31  O   UNL    20      -8.307   5.801  67.324  1.00  0.00    -0.105 OA 
HETATM   32  H   UNL    20     -10.226   3.014  71.009  1.00  0.00     0.000 HD 
HETATM   33  O   UNL    20      -9.523   3.563  68.652  1.00  0.00    -0.167 OA 
HETATM   34  C   UNL    20      -8.254   5.628  68.700  1.00  0.00    -0.103 C  
HETATM   35  H   UNL    20      -9.744   3.698  67.738  1.00  0.00     0.000 HD 
BRANCH  26  36
HETATM   36  C   UNL    20      -8.264   5.657  72.884  1.00  0.00    -0.119 C  
HETATM   37  O   UNL    20      -9.342   5.527  73.764  1.00  0.00    -0.136 OA 
HETATM   38  H   UNL    20      -9.026   5.347  74.643  1.00  0.00     0.000 HD 
ENDBRANCH  26  36
ENDBRANCH  23  24
ENDBRANCH  16  23
BRANCH  16  39
HETATM   39  C   UNL    20      -7.717   9.290  68.040  1.00  0.00    -0.088 C  
HETATM   40  O   UNL    20      -7.466   8.880  66.723  1.00  0.00    -0.082 OA 
HETATM   41  H   UNL    20      -6.562   9.047  66.485  1.00  0.00     0.000 HD 
ENDBRANCH  16  39
ENDBRANCH  12  14
TORSDOF 5
ENDMDL
MODEL       92
REMARK 921   NORMALIZED FREE ENERGY PREDICTED BY IDOCK:   -5.25 KCAL/MOL
REMARK 922        TOTAL FREE ENERGY PREDICTED BY IDOCK:   -8.37 KCAL/MOL
REMARK 923 INTER-LIGAND FREE ENERGY PREDICTED BY IDOCK:   -8.52 KCAL/MOL
REMARK 924 INTRA-LIGAND FREE ENERGY PREDICTED BY IDOCK:    0.16 KCAL/MOL
REMARK 927      BINDING AFFINITY PREDICTED BY RF-SCORE:    0.00 PKD
ROOT
HETATM    1  O   HOH     4     -12.674   7.227  70.434  1.00  0.00    -0.523 OA 
HETATM    2  H2  HOH     4     -11.955   7.560  69.909  1.00  0.00     0.000 HD 
HETATM    3 NA   UNL    13      -7.104  11.569  70.164  1.00  0.00    -0.230 Na 
HETATM    4  H1  HOH     4     -12.618   7.700  71.256  1.00  0.00     0.000 HD 
HETATM    5 NA   UNL    14     -10.236   6.890  68.660  1.00  0.00    -0.145 Na 
HETATM    6 FE   UNL    15      -7.456   8.298  69.113  1.00  0.00    -0.069 Fe 
HETATM    7 FE   UNL    16     -11.712   9.757  70.568  1.00  0.00    -0.225 Fe 
HETATM    8 FE   UNL    17     -10.567   8.467  66.952  1.00  0.00    -0.209 Fe 
HETATM    9 FE   UNL    18     -13.678   9.849  69.658  1.00  0.00    -0.555 Fe 
HETATM   10 FE   UNL    19     -11.758  11.878  65.508  1.00  0.00    -0.315 Fe 
HETATM   11  O   UNL    20     -11.643  10.927  68.167  1.00  0.00    -0.431 OA 
HETATM   12  C   UNL    20     -11.897  11.983  69.056  1.00  0.00    -0.315 C  
HETATM   13  H   UNL    20     -11.714  10.055  68.537  1.00  0.00     0.000 HD 
ENDROOT
BRANCH  12  14
HETATM   14  C   UNL    20     -11.783  13.403  68.454  1.00  0.00    -0.355 C  
HETATM   15  O   UNL    20     -10.746  14.128  69.069  1.00  0.00    -0.245 OA 
HETATM   16  C   UNL    20     -10.431  15.207  68.228  1.00  0.00    -0.241 C  
HETATM   17  C   UNL    20     -11.630  13.537  66.923  1.00  0.00    -0.363 C  
HETATM   18  H   UNL    20     -12.775  13.866  65.379  1.00  0.00     0.000 HD 
HETATM   19  C   UNL    20     -10.676  14.742  66.751  1.00  0.00    -0.309 C  
HETATM   20  H   UNL    20      -9.667  14.051  65.181  1.00  0.00     0.000 HD 
HETATM   21  O   UNL    20     -12.869  13.783  66.320  1.00  0.00    -0.297 OA 
HETATM   22  O   UNL    20      -9.519  14.333  66.075  1.00  0.00    -0.268 OA 
BRANCH  16  23
HETATM   23  O   UNL    20      -9.145  15.764  68.573  1.00  0.00    -0.182 OA 
BRANCH  23  24
HETATM   24  C   UNL    20      -8.205  16.187  67.558  1.00  0.00    -0.150 C  
HETATM   25  O   UNL    20      -8.676  17.384  66.968  1.00  0.00    -0.221 OA 
HETATM   26  C   UNL    20      -8.607  18.508  67.841  1.00  0.00    -0.287 C  
HETATM   27  H   UNL    20      -5.185  15.363  68.498  1.00  0.00     0.000 HD 
HETATM   28  C   UNL    20      -7.154  18.792  68.322  1.00  0.00    -0.256 C  
HETATM   29  O   UNL    20      -7.089  19.903  69.182  1.00  0.00    -0.327 OA 
HETATM   30  C   UNL    20      -6.566  17.548  68.972  1.00  0.00    -0.243 C  
HETATM   31  O   UNL    20      -6.096  15.222  68.270  1.00  0.00    -0.102 OA 
HETATM   32  H   UNL    20      -6.203  20.076  69.475  1.00  0.00     0.000 HD 
HETATM   33  O   UNL    20      -5.215  17.768  69.268  1.00  0.00    -0.171 OA 
HETATM   34  C   UNL    20      -6.719  16.416  67.931  1.00  0.00    -0.135 C  
HETATM   35  H   UNL    20      -4.848  16.991  69.674  1.00  0.00     0.000 HD 
BRANCH  26  36
HETATM   36  C   UNL    20      -9.091  19.747  67.045  1.00  0.00    -0.340 C  
HETATM   37  O   UNL    20     -10.398  20.074  67.413  1.00  0.00    -0.410 OA 
HETATM   38  H   UNL    20     -10.695  20.833  66.925  1.00  0.00     0.000 HD 
ENDBRANCH  26  36
ENDBRANCH  23  24
ENDBRANCH  16  23
BRANCH  16  39
HETATM   39  C   UNL    20     -11.477  16.329  68.511  1.00  0.00    -0.272 C  
HETATM   40  O   UNL    20     -11.152  17.028  69.682  1.00  0.00    -0.332 OA 
HETATM   41  H   UNL    20     -11.789  17.711  69.854  1.00  0.00     0.000 HD 
ENDBRANCH  16  39
ENDBRANCH  12  14
TORSDOF 5
ENDMDL
MODEL       93
REMARK 921   NORMALIZED FREE ENERGY PREDICTED BY IDOCK:   -5.23 KCAL/MOL
REMARK 922        TOTAL FREE ENERGY PREDICTED BY IDOCK:   -8.34 KCAL/MOL
REMARK 923 INTER-LIGAND FREE ENERGY PREDICTED BY IDOCK:   -7.72 KCAL/MOL
REMARK 924 INTRA-LIGAND FREE ENERGY PREDICTED BY IDOCK:   -0.62 KCAL/MOL
REMARK 927      BINDING AFFINITY PREDICTED BY RF-SCORE:    0.00 PKD
ROOT
HETATM    1  O   HOH     4     -10.827  17.237  64.729  1.00  0.00    -0.863 OA 
HETATM    2  H2  HOH     4     -11.021  16.307  64.688  1.00  0.00     0.000 HD 
HETATM    3 NA   UNL    13     -12.990  11.519  68.274  1.00  0.00     0.129 Na 
HETATM    4  H1  HOH     4     -10.969  17.478  65.636  1.00  0.00     0.000 HD 
HETATM    5 NA   UNL    14     -12.193  14.807  63.530  1.00  0.00    -0.618 Na 
HETATM    6 FE   UNL    15     -13.870  12.688  65.146  1.00  0.00    -0.473 Fe 
HETATM    7 FE   UNL    16     -10.417  15.488  66.757  1.00  0.00    -0.252 Fe 
HETATM    8 FE   UNL    17     -10.499  13.182  63.483  1.00  0.00    -0.375 Fe 
HETATM    9 FE   UNL    18      -8.474  16.089  66.005  1.00  0.00    -0.220 Fe 
HETATM   10 FE   UNL    19      -7.355  11.349  64.860  1.00  0.00    -0.342 Fe 
HETATM   11  O   UNL    20      -8.956  13.388  65.985  1.00  0.00    -0.438 OA 
HETATM   12  C   UNL    20      -8.603  13.576  67.330  1.00  0.00    -0.208 C  
HETATM   13  H   UNL    20      -9.467  14.088  65.595  1.00  0.00     0.000 HD 
ENDROOT
BRANCH  12  14
HETATM   14  C   UNL    20      -7.771  12.438  67.966  1.00  0.00    -0.135 C  
HETATM   15  O   UNL    20      -8.435  11.891  69.079  1.00  0.00     0.067 OA 
HETATM   16  C   UNL    20      -7.854  10.640  69.342  1.00  0.00    -0.121 C  
HETATM   17  C   UNL    20      -7.305  11.279  67.057  1.00  0.00    -0.136 C  
HETATM   18  H   UNL    20      -5.707  10.777  66.058  1.00  0.00     0.000 HD 
HETATM   19  C   UNL    20      -7.394  10.034  67.971  1.00  0.00    -0.087 C  
HETATM   20  H   UNL    20      -8.011   8.742  66.589  1.00  0.00     0.000 HD 
HETATM   21  O   UNL    20      -5.993  11.489  66.616  1.00  0.00    -0.141 OA 
HETATM   22  O   UNL    20      -8.290   9.109  67.420  1.00  0.00    -0.114 OA 
BRANCH  16  23
HETATM   23  O   UNL    20      -8.708   9.850  70.196  1.00  0.00    -0.200 OA 
BRANCH  23  24
HETATM   24  C   UNL    20      -9.654   8.900  69.651  1.00  0.00    -0.169 C  
HETATM   25  O   UNL    20      -9.710   7.771  70.503  1.00  0.00    -0.175 OA 
HETATM   26  C   UNL    20     -10.335   8.039  71.754  1.00  0.00    -0.217 C  
HETATM   27  H   UNL    20     -12.070  10.533  68.175  1.00  0.00     0.000 HD 
HETATM   28  C   UNL    20     -11.799   8.542  71.586  1.00  0.00    -0.311 C  
HETATM   29  O   UNL    20     -12.413   8.804  72.823  1.00  0.00    -0.417 OA 
HETATM   30  C   UNL    20     -11.832   9.762  70.677  1.00  0.00    -0.281 C  
HETATM   31  O   UNL    20     -11.175  10.265  68.344  1.00  0.00    -0.265 OA 
HETATM   32  H   UNL    20     -13.307   9.111  72.720  1.00  0.00     0.000 HD 
HETATM   33  O   UNL    20     -13.160  10.117  70.415  1.00  0.00    -0.590 OA 
HETATM   34  C   UNL    20     -11.114   9.337  69.375  1.00  0.00    -0.043 C  
HETATM   35  H   UNL    20     -13.181  10.878  69.847  1.00  0.00     0.000 HD 
BRANCH  26  36
HETATM   36  C   UNL    20     -10.382   6.708  72.547  1.00  0.00    -0.195 C  
HETATM   37  O   UNL    20     -10.422   6.968  73.919  1.00  0.00    -0.375 OA 
HETATM   38  H   UNL    20     -10.451   6.152  74.405  1.00  0.00     0.000 HD 
ENDBRANCH  26  36
ENDBRANCH  23  24
ENDBRANCH  16  23
BRANCH  16  39
HETATM   39  C   UNL    20      -6.552  10.903  70.161  1.00  0.00    -0.120 C  
HETATM   40  O   UNL    20      -5.463  10.224  69.596  1.00  0.00    -0.037 OA 
HETATM   41  H   UNL    20      -4.671  10.385  70.095  1.00  0.00     0.000 HD 
ENDBRANCH  16  39
ENDBRANCH  12  14
TORSDOF 5
ENDMDL
MODEL       94
REMARK 921   NORMALIZED FREE ENERGY PREDICTED BY IDOCK:   -5.21 KCAL/MOL
REMARK 922        TOTAL FREE ENERGY PREDICTED BY IDOCK:   -8.32 KCAL/MOL
REMARK 923 INTER-LIGAND FREE ENERGY PREDICTED BY IDOCK:   -7.04 KCAL/MOL
REMARK 924 INTRA-LIGAND FREE ENERGY PREDICTED BY IDOCK:   -1.28 KCAL/MOL
REMARK 927      BINDING AFFINITY PREDICTED BY RF-SCORE:    0.00 PKD
ROOT
HETATM    1  O   HOH     4     -13.216   7.533  71.088  1.00  0.00    -0.539 OA 
HETATM    2  H2  HOH     4     -12.850   8.388  71.283  1.00  0.00     0.000 HD 
HETATM    3 NA   UNL    13     -13.744  14.515  70.132  1.00  0.00    -0.544 Na 
HETATM    4  H1  HOH     4     -13.945   7.705  70.503  1.00  0.00     0.000 HD 
HETATM    5 NA   UNL    14     -12.198   9.673  72.982  1.00  0.00    -0.083 Na 
HETATM    6 FE   UNL    15     -13.136  12.679  72.993  1.00  0.00    -0.425 Fe 
HETATM    7 FE   UNL    16     -13.215   9.634  69.376  1.00  0.00    -0.084 Fe 
HETATM    8 FE   UNL    17     -10.248  10.460  71.939  1.00  0.00     0.222 Fe 
HETATM    9 FE   UNL    18     -11.826   8.157  68.604  1.00  0.00    -0.173 Fe 
HETATM   10 FE   UNL    19      -8.055  11.433  68.876  1.00  0.00    -0.113 Fe 
HETATM   11  O   UNL    20     -10.765  10.649  69.043  1.00  0.00    -0.193 OA 
HETATM   12  C   UNL    20     -11.392  10.852  67.805  1.00  0.00    -0.292 C  
HETATM   13  H   UNL    20     -11.230  10.084  69.650  1.00  0.00     0.000 HD 
ENDROOT
BRANCH  12  14
HETATM   14  C   UNL    20     -10.636  11.771  66.818  1.00  0.00    -0.238 C  
HETATM   15  O   UNL    20     -10.544  13.081  67.320  1.00  0.00    -0.240 OA 
HETATM   16  C   UNL    20      -9.525  13.735  66.608  1.00  0.00    -0.279 C  
HETATM   17  C   UNL    20      -9.234  11.332  66.340  1.00  0.00    -0.192 C  
HETATM   18  H   UNL    20      -8.449  10.417  64.807  1.00  0.00     0.000 HD 
HETATM   19  C   UNL    20      -8.448  12.660  66.230  1.00  0.00     0.385 C  
HETATM   20  H   UNL    20      -6.689  11.974  66.860  1.00  0.00     0.000 HD 
HETATM   21  O   UNL    20      -9.311  10.686  65.100  1.00  0.00    -0.186 OA 
HETATM   22  O   UNL    20      -7.342  12.625  67.088  1.00  0.00    -0.127 OA 
BRANCH  16  23
HETATM   23  O   UNL    20      -9.100  14.926  67.303  1.00  0.00    -0.185 OA 
BRANCH  23  24
HETATM   24  C   UNL    20      -8.119  15.825  66.735  1.00  0.00    -0.262 C  
HETATM   25  O   UNL    20      -8.794  16.859  66.043  1.00  0.00    -0.464 OA 
HETATM   26  C   UNL    20      -9.476  17.764  66.906  1.00  0.00    -0.271 C  
HETATM   27  H   UNL    20      -5.537  15.981  68.734  1.00  0.00     0.000 HD 
HETATM   28  C   UNL    20      -8.512  18.459  67.912  1.00  0.00    -0.261 C  
HETATM   29  O   UNL    20      -9.189  19.352  68.761  1.00  0.00    -0.368 OA 
HETATM   30  C   UNL    20      -7.740  17.413  68.703  1.00  0.00    -0.273 C  
HETATM   31  O   UNL    20      -6.181  15.567  68.171  1.00  0.00    -0.110 OA 
HETATM   32  H   UNL    20      -8.601  19.776  69.374  1.00  0.00     0.000 HD 
HETATM   33  O   UNL    20      -6.776  18.044  69.498  1.00  0.00    -0.209 OA 
HETATM   34  C   UNL    20      -7.069  16.500  67.653  1.00  0.00    -0.133 C  
HETATM   35  H   UNL    20      -6.294  17.391  69.992  1.00  0.00     0.000 HD 
BRANCH  26  36
HETATM   36  C   UNL    20     -10.107  18.867  66.019  1.00  0.00    -0.329 C  
HETATM   37  O   UNL    20     -11.036  19.604  66.758  1.00  0.00    -0.377 OA 
HETATM   38  H   UNL    20     -11.423  20.281  66.214  1.00  0.00     0.000 HD 
ENDBRANCH  26  36
ENDBRANCH  23  24
ENDBRANCH  16  23
BRANCH  16  39
HETATM   39  C   UNL    20     -10.147  14.221  65.263  1.00  0.00    -0.349 C  
HETATM   40  O   UNL    20     -11.288  15.003  65.495  1.00  0.00    -0.347 OA 
HETATM   41  H   UNL    20     -11.666  15.299  64.676  1.00  0.00     0.000 HD 
ENDBRANCH  16  39
ENDBRANCH  12  14
TORSDOF 5
ENDMDL
MODEL       95
REMARK 921   NORMALIZED FREE ENERGY PREDICTED BY IDOCK:   -5.19 KCAL/MOL
REMARK 922        TOTAL FREE ENERGY PREDICTED BY IDOCK:   -8.29 KCAL/MOL
REMARK 923 INTER-LIGAND FREE ENERGY PREDICTED BY IDOCK:   -6.49 KCAL/MOL
REMARK 924 INTRA-LIGAND FREE ENERGY PREDICTED BY IDOCK:   -1.80 KCAL/MOL
REMARK 927      BINDING AFFINITY PREDICTED BY RF-SCORE:    0.00 PKD
ROOT
HETATM    1  O   HOH     4     -14.223  12.906  72.589  1.00  0.00    -0.676 OA 
HETATM    2  H2  HOH     4     -13.819  12.075  72.366  1.00  0.00     0.000 HD 
HETATM    3 NA   UNL    13      -8.240   9.153  72.341  1.00  0.00    -0.113 Na 
HETATM    4  H1  HOH     4     -13.506  13.458  72.880  1.00  0.00     0.000 HD 
HETATM    5 NA   UNL    14     -14.009   9.882  72.710  1.00  0.00    -0.545 Na 
HETATM    6 FE   UNL    15     -11.398   8.276  73.428  1.00  0.00    -0.356 Fe 
HETATM    7 FE   UNL    16     -11.712  12.629  71.608  1.00  0.00    -0.174 Fe 
HETATM    8 FE   UNL    17     -13.576   9.264  70.486  1.00  0.00    -0.519 Fe 
HETATM    9 FE   UNL    18     -12.925  13.543  70.060  1.00  0.00    -0.275 Fe 
HETATM   10 FE   UNL    19     -12.000   9.728  66.959  1.00  0.00    -0.036 Fe 
HETATM   11  O   UNL    20     -11.676  11.207  69.345  1.00  0.00    -0.273 OA 
HETATM   12  C   UNL    20     -10.620  12.119  69.194  1.00  0.00    -0.004 C  
HETATM   13  H   UNL    20     -12.257  11.372  70.079  1.00  0.00     0.000 HD 
ENDROOT
BRANCH  12  14
HETATM   14  C   UNL    20      -9.674  11.852  68.001  1.00  0.00    -0.191 C  
HETATM   15  O   UNL    20      -9.238  10.515  67.995  1.00  0.00    -0.138 OA 
HETATM   16  C   UNL    20      -8.745  10.239  66.709  1.00  0.00    -0.126 C  
HETATM   17  C   UNL    20     -10.169  12.211  66.583  1.00  0.00    -0.201 C  
HETATM   18  H   UNL    20     -10.001  13.691  65.323  1.00  0.00     0.000 HD 
HETATM   19  C   UNL    20      -9.576  11.094  65.691  1.00  0.00    -0.224 C  
HETATM   20  H   UNL    20     -11.116  10.913  64.444  1.00  0.00     0.000 HD 
HETATM   21  O   UNL    20      -9.696  13.471  66.196  1.00  0.00    -0.284 OA 
HETATM   22  O   UNL    20     -10.613  10.395  65.061  1.00  0.00    -0.190 OA 
BRANCH  16  23
HETATM   23  O   UNL    20      -8.645   8.815  66.496  1.00  0.00    -0.112 OA 
BRANCH  23  24
HETATM   24  C   UNL    20      -9.085   7.866  67.495  1.00  0.00    -0.133 C  
HETATM   25  O   UNL    20      -9.781   6.815  66.852  1.00  0.00    -0.153 OA 
HETATM   26  C   UNL    20      -8.936   5.970  66.077  1.00  0.00    -0.147 C  
HETATM   27  H   UNL    20      -6.872   7.752  69.899  1.00  0.00     0.000 HD 
HETATM   28  C   UNL    20      -7.820   5.304  66.935  1.00  0.00    -0.100 C  
HETATM   29  O   UNL    20      -6.989   4.470  66.167  1.00  0.00    -0.060 OA 
HETATM   30  C   UNL    20      -7.018   6.370  67.667  1.00  0.00    -0.078 C  
HETATM   31  O   UNL    20      -7.506   8.152  69.315  1.00  0.00    -0.085 OA 
HETATM   32  H   UNL    20      -6.309   4.064  66.691  1.00  0.00     0.000 HD 
HETATM   33  O   UNL    20      -6.116   5.758  68.546  1.00  0.00    -0.022 OA 
HETATM   34  C   UNL    20      -8.052   7.214  68.448  1.00  0.00    -0.124 C  
HETATM   35  H   UNL    20      -5.615   6.424  69.003  1.00  0.00     0.000 HD 
BRANCH  26  36
HETATM   36  C   UNL    20      -9.818   4.838  65.492  1.00  0.00    -0.145 C  
HETATM   37  O   UNL    20     -11.165   5.089  65.768  1.00  0.00    -0.804 OA 
HETATM   38  H   UNL    20     -11.707   4.395  65.409  1.00  0.00     0.000 HD 
ENDBRANCH  26  36
ENDBRANCH  23  24
ENDBRANCH  16  23
BRANCH  16  39
HETATM   39  C   UNL    20      -7.286  10.787  66.651  1.00  0.00    -0.134 C  
HETATM   40  O   UNL    20      -6.560  10.390  67.782  1.00  0.00    -0.064 OA 
HETATM   41  H   UNL    20      -5.671  10.723  67.747  1.00  0.00     0.000 HD 
ENDBRANCH  16  39
ENDBRANCH  12  14
TORSDOF 5
ENDMDL
MODEL       96
REMARK 921   NORMALIZED FREE ENERGY PREDICTED BY IDOCK:   -5.16 KCAL/MOL
REMARK 922        TOTAL FREE ENERGY PREDICTED BY IDOCK:   -8.26 KCAL/MOL
REMARK 923 INTER-LIGAND FREE ENERGY PREDICTED BY IDOCK:   -6.66 KCAL/MOL
REMARK 924 INTRA-LIGAND FREE ENERGY PREDICTED BY IDOCK:   -1.60 KCAL/MOL
REMARK 927      BINDING AFFINITY PREDICTED BY RF-SCORE:    0.00 PKD
ROOT
HETATM    1  O   HOH     4     -13.211  15.445  70.227  1.00  0.00    -0.679 OA 
HETATM    2  H2  HOH     4     -12.520  15.624  69.600  1.00  0.00     0.000 HD 
HETATM    3 NA   UNL    13     -10.448  13.886  63.912  1.00  0.00    -0.486 Na 
HETATM    4  H1  HOH     4     -13.725  14.749  69.834  1.00  0.00     0.000 HD 
HETATM    5 NA   UNL    14     -11.525  17.296  68.513  1.00  0.00    -0.298 Na 
HETATM    6 FE   UNL    15     -11.007  16.938  65.427  1.00  0.00    -0.331 Fe 
HETATM    7 FE   UNL    16     -12.102  13.595  68.587  1.00  0.00    -0.264 Fe 
HETATM    8 FE   UNL    17      -9.340  16.488  68.803  1.00  0.00    -0.185 Fe 
HETATM    9 FE   UNL    18     -11.460  13.149  70.610  1.00  0.00    -0.427 Fe 
HETATM   10 FE   UNL    19      -6.663  13.709  69.304  1.00  0.00    -0.084 Fe 
HETATM   11  O   UNL    20      -9.438  13.543  68.797  1.00  0.00    -0.388 OA 
HETATM   12  C   UNL    20      -9.786  12.214  68.509  1.00  0.00    -0.149 C  
HETATM   13  H   UNL    20     -10.163  14.117  69.016  1.00  0.00     0.000 HD 
ENDROOT
BRANCH  12  14
HETATM   14  C   UNL    20      -8.607  11.279  68.153  1.00  0.00    -0.150 C  
HETATM   15  O   UNL    20      -9.046   9.952  68.001  1.00  0.00    -0.122 OA 
HETATM   16  C   UNL    20      -8.051   9.257  67.295  1.00  0.00    -0.113 C  
HETATM   17  C   UNL    20      -7.727  11.644  66.937  1.00  0.00    -0.147 C  
HETATM   18  H   UNL    20      -6.034  12.553  66.598  1.00  0.00     0.000 HD 
HETATM   19  C   UNL    20      -7.370  10.274  66.315  1.00  0.00    -0.118 C  
HETATM   20  H   UNL    20      -7.437  10.832  64.405  1.00  0.00     0.000 HD 
HETATM   21  O   UNL    20      -6.576  12.329  67.345  1.00  0.00    -0.126 OA 
HETATM   22  O   UNL    20      -7.849  10.216  64.999  1.00  0.00    -0.134 OA 
BRANCH  16  23
HETATM   23  O   UNL    20      -8.572   8.023  66.759  1.00  0.00    -0.123 OA 
BRANCH  23  24
HETATM   24  C   UNL    20      -7.777   6.815  66.727  1.00  0.00    -0.106 C  
HETATM   25  O   UNL    20      -8.641   5.696  66.793  1.00  0.00    -0.111 OA 
HETATM   26  C   UNL    20      -9.410   5.507  65.609  1.00  0.00    -0.047 C  
HETATM   27  H   UNL    20      -5.149   7.323  64.851  1.00  0.00     0.000 HD 
HETATM   28  C   UNL    20      -8.516   5.303  64.351  1.00  0.00    -0.126 C  
HETATM   29  O   UNL    20      -9.279   5.116  63.185  1.00  0.00    -0.351 OA 
HETATM   30  C   UNL    20      -7.548   6.468  64.204  1.00  0.00    -0.100 C  
HETATM   31  O   UNL    20      -5.749   7.475  65.572  1.00  0.00    -0.036 OA 
HETATM   32  H   UNL    20      -8.733   4.991  62.418  1.00  0.00     0.000 HD 
HETATM   33  O   UNL    20      -6.654   6.206  63.159  1.00  0.00    -0.037 OA 
HETATM   34  C   UNL    20      -6.798   6.567  65.552  1.00  0.00    -0.048 C  
HETATM   35  H   UNL    20      -6.050   6.934  63.067  1.00  0.00     0.000 HD 
BRANCH  26  36
HETATM   36  C   UNL    20     -10.253   4.221  65.801  1.00  0.00    -0.186 C  
HETATM   37  O   UNL    20     -11.490   4.358  65.166  1.00  0.00    -1.069 OA 
HETATM   38  H   UNL    20     -12.007   3.569  65.284  1.00  0.00     0.000 HD 
ENDBRANCH  26  36
ENDBRANCH  23  24
ENDBRANCH  16  23
BRANCH  16  39
HETATM   39  C   UNL    20      -6.956   8.849  68.329  1.00  0.00    -0.076 C  
HETATM   40  O   UNL    20      -5.703   9.351  67.952  1.00  0.00    -0.041 OA 
HETATM   41  H   UNL    20      -5.037   9.103  68.581  1.00  0.00     0.000 HD 
ENDBRANCH  16  39
ENDBRANCH  12  14
TORSDOF 5
ENDMDL
MODEL       97
REMARK 921   NORMALIZED FREE ENERGY PREDICTED BY IDOCK:   -5.15 KCAL/MOL
REMARK 922        TOTAL FREE ENERGY PREDICTED BY IDOCK:   -8.25 KCAL/MOL
REMARK 923 INTER-LIGAND FREE ENERGY PREDICTED BY IDOCK:   -7.19 KCAL/MOL
REMARK 924 INTRA-LIGAND FREE ENERGY PREDICTED BY IDOCK:   -1.06 KCAL/MOL
REMARK 927      BINDING AFFINITY PREDICTED BY RF-SCORE:    0.00 PKD
ROOT
HETATM    1  O   HOH     4     -12.294  16.045  63.772  1.00  0.00    -1.167 OA 
HETATM    2  H2  HOH     4     -11.686  16.362  64.430  1.00  0.00     0.000 HD 
HETATM    3 NA   UNL    13      -5.524  16.781  65.660  1.00  0.00    -0.056 Na 
HETATM    4  H1  HOH     4     -11.748  15.645  63.105  1.00  0.00     0.000 HD 
HETATM    5 NA   UNL    14     -11.183  18.173  65.628  1.00  0.00    -0.331 Na 
HETATM    6 FE   UNL    15      -8.154  19.014  65.813  1.00  0.00    -0.275 Fe 
HETATM    7 FE   UNL    16      -9.927  14.873  64.374  1.00  0.00    -0.318 Fe 
HETATM    8 FE   UNL    17     -10.811  17.019  67.639  1.00  0.00    -0.301 Fe 
HETATM    9 FE   UNL    18     -11.505  13.568  65.085  1.00  0.00    -0.295 Fe 
HETATM   10 FE   UNL    19      -9.807  13.928  69.778  1.00  0.00    -0.397 Fe 
HETATM   11  O   UNL    20      -9.698  14.369  66.988  1.00  0.00    -0.241 OA 
HETATM   12  C   UNL    20      -8.981  13.331  66.375  1.00  0.00     0.029 C  
HETATM   13  H   UNL    20     -10.226  14.903  66.405  1.00  0.00     0.000 HD 
ENDROOT
BRANCH  12  14
HETATM   14  C   UNL    20      -8.123  12.462  67.323  1.00  0.00    -0.182 C  
HETATM   15  O   UNL    20      -8.888  11.423  67.884  1.00  0.00    -0.139 OA 
HETATM   16  C   UNL    20      -7.993  10.462  68.380  1.00  0.00    -0.110 C  
HETATM   17  C   UNL    20      -6.811  11.860  66.775  1.00  0.00    -0.005 C  
HETATM   18  H   UNL    20      -4.908  12.290  66.783  1.00  0.00     0.000 HD 
HETATM   19  C   UNL    20      -6.727  10.474  67.457  1.00  0.00    -0.070 C  
HETATM   20  H   UNL    20      -5.947   9.477  65.921  1.00  0.00     0.000 HD 
HETATM   21  O   UNL    20      -5.715  12.660  67.120  1.00  0.00    -0.307 OA 
HETATM   22  O   UNL    20      -6.714   9.469  66.480  1.00  0.00    -0.073 OA 
BRANCH  16  23
HETATM   23  O   UNL    20      -8.669   9.207  68.611  1.00  0.00    -0.127 OA 
BRANCH  23  24
HETATM   24  C   UNL    20     -10.112   9.121  68.659  1.00  0.00    -0.194 C  
HETATM   25  O   UNL    20     -10.535   8.064  67.819  1.00  0.00    -0.226 OA 
HETATM   26  C   UNL    20     -10.203   6.774  68.324  1.00  0.00    -0.175 C  
HETATM   27  H   UNL    20     -11.127   9.952  71.653  1.00  0.00     0.000 HD 
HETATM   28  C   UNL    20     -10.832   6.509  69.723  1.00  0.00    -0.295 C  
HETATM   29  O   UNL    20     -10.503   5.235  70.217  1.00  0.00    -0.279 OA 
HETATM   30  C   UNL    20     -10.427   7.607  70.695  1.00  0.00    -0.216 C  
HETATM   31  O   UNL    20     -10.687  10.064  70.819  1.00  0.00    -0.303 OA 
HETATM   32  H   UNL    20     -10.887   5.072  71.070  1.00  0.00     0.000 HD 
HETATM   33  O   UNL    20     -11.112   7.439  71.904  1.00  0.00    -0.233 OA 
HETATM   34  C   UNL    20     -10.829   8.938  70.020  1.00  0.00    -0.227 C  
HETATM   35  H   UNL    20     -10.859   8.125  72.512  1.00  0.00     0.000 HD 
BRANCH  26  36
HETATM   36  C   UNL    20     -10.781   5.726  67.340  1.00  0.00    -0.248 C  
HETATM   37  O   UNL    20     -10.270   5.938  66.057  1.00  0.00    -0.404 OA 
HETATM   38  H   UNL    20     -10.624   5.295  65.454  1.00  0.00     0.000 HD 
ENDBRANCH  26  36
ENDBRANCH  23  24
ENDBRANCH  16  23
BRANCH  16  39
HETATM   39  C   UNL    20      -7.518  10.959  69.780  1.00  0.00     0.053 C  
HETATM   40  O   UNL    20      -6.186  10.586  70.015  1.00  0.00    -0.072 OA 
HETATM   41  H   UNL    20      -5.897  10.889  70.867  1.00  0.00     0.000 HD 
ENDBRANCH  16  39
ENDBRANCH  12  14
TORSDOF 5
ENDMDL
MODEL       98
REMARK 921   NORMALIZED FREE ENERGY PREDICTED BY IDOCK:   -5.15 KCAL/MOL
REMARK 922        TOTAL FREE ENERGY PREDICTED BY IDOCK:   -8.24 KCAL/MOL
REMARK 923 INTER-LIGAND FREE ENERGY PREDICTED BY IDOCK:   -7.43 KCAL/MOL
REMARK 924 INTRA-LIGAND FREE ENERGY PREDICTED BY IDOCK:   -0.81 KCAL/MOL
REMARK 927      BINDING AFFINITY PREDICTED BY RF-SCORE:    0.00 PKD
ROOT
HETATM    1  O   HOH     4     -13.921   7.854  71.100  1.00  0.00    -0.596 OA 
HETATM    2  H2  HOH     4     -13.182   7.634  70.544  1.00  0.00     0.000 HD 
HETATM    3 NA   UNL    13      -6.977   8.560  69.991  1.00  0.00    -0.039 Na 
HETATM    4  H1  HOH     4     -13.563   8.423  71.771  1.00  0.00     0.000 HD 
HETATM    5 NA   UNL    14     -12.147   5.899  69.603  1.00  0.00    -0.351 Na 
HETATM    6 FE   UNL    15      -9.008   5.772  69.815  1.00  0.00    -0.114 Fe 
HETATM    7 FE   UNL    16     -11.817   9.491  70.617  1.00  0.00    -0.242 Fe 
HETATM    8 FE   UNL    17     -11.798   6.940  67.528  1.00  0.00    -0.541 Fe 
HETATM    9 FE   UNL    18     -13.546  10.332  69.614  1.00  0.00    -0.583 Fe 
HETATM   10 FE   UNL    19     -11.249   9.996  65.182  1.00  0.00     0.032 Fe 
HETATM   11  O   UNL    20     -11.387   9.820  67.999  1.00  0.00    -0.524 OA 
HETATM   12  C   UNL    20     -10.999  11.043  68.567  1.00  0.00    -0.228 C  
HETATM   13  H   UNL    20     -11.851   9.228  68.581  1.00  0.00     0.000 HD 
ENDROOT
BRANCH  12  14
HETATM   14  C   UNL    20     -10.245  12.007  67.622  1.00  0.00    -0.199 C  
HETATM   15  O   UNL    20      -9.874  13.184  68.296  1.00  0.00    -0.223 OA 
HETATM   16  C   UNL    20      -8.870  13.806  67.536  1.00  0.00    -0.197 C  
HETATM   17  C   UNL    20      -9.012  11.470  66.863  1.00  0.00    -0.179 C  
HETATM   18  H   UNL    20      -8.603  10.737  65.102  1.00  0.00     0.000 HD 
HETATM   19  C   UNL    20      -8.044  12.676  66.831  1.00  0.00    -0.008 C  
HETATM   20  H   UNL    20      -6.350  11.655  67.057  1.00  0.00     0.000 HD 
HETATM   21  O   UNL    20      -9.361  11.067  65.569  1.00  0.00    -0.202 OA 
HETATM   22  O   UNL    20      -6.851  12.340  67.484  1.00  0.00    -0.107 OA 
BRANCH  16  23
HETATM   23  O   UNL    20      -8.166  14.787  68.327  1.00  0.00    -0.130 OA 
BRANCH  23  24
HETATM   24  C   UNL    20      -6.760  15.058  68.121  1.00  0.00    -0.128 C  
HETATM   25  O   UNL    20      -6.616  15.892  66.986  1.00  0.00    -0.269 OA 
HETATM   26  C   UNL    20      -7.087  17.220  67.199  1.00  0.00    -0.173 C  
HETATM   27  H   UNL    20      -5.269  15.200  71.026  1.00  0.00     0.000 HD 
HETATM   28  C   UNL    20      -6.342  17.929  68.368  1.00  0.00    -0.191 C  
HETATM   29  O   UNL    20      -6.809  19.239  68.573  1.00  0.00    -0.261 OA 
HETATM   30  C   UNL    20      -6.446  17.094  69.636  1.00  0.00    -0.170 C  
HETATM   31  O   UNL    20      -5.783  14.813  70.327  1.00  0.00    -0.121 OA 
HETATM   32  H   UNL    20      -6.354  19.672  69.286  1.00  0.00     0.000 HD 
HETATM   33  O   UNL    20      -5.654  17.665  70.639  1.00  0.00    -0.240 OA 
HETATM   34  C   UNL    20      -5.921  15.689  69.260  1.00  0.00    -0.112 C  
HETATM   35  H   UNL    20      -5.719  17.144  71.431  1.00  0.00     0.000 HD 
BRANCH  26  36
HETATM   36  C   UNL    20      -6.808  18.026  65.905  1.00  0.00    -0.297 C  
HETATM   37  O   UNL    20      -7.721  19.077  65.787  1.00  0.00    -0.454 OA 
HETATM   38  H   UNL    20      -7.550  19.571  64.994  1.00  0.00     0.000 HD 
ENDBRANCH  26  36
ENDBRANCH  23  24
ENDBRANCH  16  23
BRANCH  16  39
HETATM   39  C   UNL    20      -9.583  14.600  66.399  1.00  0.00    -0.301 C  
HETATM   40  O   UNL    20     -10.311  15.677  66.924  1.00  0.00    -0.279 OA 
HETATM   41  H   UNL    20     -10.744  16.161  66.232  1.00  0.00     0.000 HD 
ENDBRANCH  16  39
ENDBRANCH  12  14
TORSDOF 5
ENDMDL
MODEL       99
REMARK 921   NORMALIZED FREE ENERGY PREDICTED BY IDOCK:   -5.15 KCAL/MOL
REMARK 922        TOTAL FREE ENERGY PREDICTED BY IDOCK:   -8.24 KCAL/MOL
REMARK 923 INTER-LIGAND FREE ENERGY PREDICTED BY IDOCK:   -6.95 KCAL/MOL
REMARK 924 INTRA-LIGAND FREE ENERGY PREDICTED BY IDOCK:   -1.29 KCAL/MOL
REMARK 927      BINDING AFFINITY PREDICTED BY RF-SCORE:    0.00 PKD
ROOT
HETATM    1  O   HOH     4     -12.679  13.917  62.759  1.00  0.00    -0.720 OA 
HETATM    2  H2  HOH     4     -12.473  13.832  63.683  1.00  0.00     0.000 HD 
HETATM    3 NA   UNL    13      -7.799  14.769  67.799  1.00  0.00    -0.102 Na 
HETATM    4  H1  HOH     4     -11.877  14.228  62.356  1.00  0.00     0.000 HD 
HETATM    5 NA   UNL    14     -13.224  14.383  65.707  1.00  0.00    -0.477 Na 
HETATM    6 FE   UNL    15     -11.159  15.568  67.767  1.00  0.00    -0.256 Fe 
HETATM    7 FE   UNL    16     -10.237  13.270  63.739  1.00  0.00    -0.393 Fe 
HETATM    8 FE   UNL    17     -12.762  12.304  66.695  1.00  0.00    -0.206 Fe 
HETATM    9 FE   UNL    18     -11.049  11.503  62.779  1.00  0.00    -0.518 Fe 
HETATM   10 FE   UNL    19     -10.818   8.955  67.079  1.00  0.00    -0.240 Fe 
HETATM   11  O   UNL    20     -10.352  11.191  65.415  1.00  0.00    -0.255 OA 
HETATM   12  C   UNL    20      -9.096  11.068  64.801  1.00  0.00    -0.137 C  
HETATM   13  H   UNL    20     -10.937  11.830  65.025  1.00  0.00     0.000 HD 
ENDROOT
BRANCH  12  14
HETATM   14  C   UNL    20      -8.144  10.029  65.436  1.00  0.00    -0.143 C  
HETATM   15  O   UNL    20      -8.709   9.471  66.597  1.00  0.00    -0.132 OA 
HETATM   16  C   UNL    20      -8.013   8.284  66.875  1.00  0.00    -0.099 C  
HETATM   17  C   UNL    20      -7.621   8.879  64.546  1.00  0.00    -0.109 C  
HETATM   18  H   UNL    20      -6.032   8.474  63.491  1.00  0.00     0.000 HD 
HETATM   19  C   UNL    20      -7.564   7.667  65.506  1.00  0.00    -0.092 C  
HETATM   20  H   UNL    20      -8.130   6.276  64.199  1.00  0.00     0.000 HD 
HETATM   21  O   UNL    20      -6.353   9.181  64.038  1.00  0.00    -0.085 OA 
HETATM   22  O   UNL    20      -8.401   6.650  65.029  1.00  0.00    -0.133 OA 
BRANCH  16  23
HETATM   23  O   UNL    20      -8.759   7.458  67.795  1.00  0.00    -0.126 OA 
BRANCH  23  24
HETATM   24  C   UNL    20      -8.507   7.492  69.219  1.00  0.00    -0.136 C  
HETATM   25  O   UNL    20      -9.181   8.605  69.776  1.00  0.00    -0.150 OA 
HETATM   26  C   UNL    20     -10.598   8.458  69.788  1.00  0.00    -0.221 C  
HETATM   27  H   UNL    20      -8.253   4.426  70.325  1.00  0.00     0.000 HD 
HETATM   28  C   UNL    20     -11.054   7.210  70.599  1.00  0.00    -0.267 C  
HETATM   29  O   UNL    20     -12.453   7.069  70.610  1.00  0.00    -0.588 OA 
HETATM   30  C   UNL    20     -10.371   5.960  70.063  1.00  0.00    -0.244 C  
HETATM   31  O   UNL    20      -8.039   5.181  69.789  1.00  0.00    -0.080 OA 
HETATM   32  H   UNL    20     -12.732   6.308  71.105  1.00  0.00     0.000 HD 
HETATM   33  O   UNL    20     -10.674   4.870  70.888  1.00  0.00    -0.085 OA 
HETATM   34  C   UNL    20      -8.856   6.261  70.093  1.00  0.00    -0.149 C  
HETATM   35  H   UNL    20     -10.248   4.089  70.554  1.00  0.00     0.000 HD 
BRANCH  26  36
HETATM   36  C   UNL    20     -11.191   9.712  70.479  1.00  0.00    -0.297 C  
HETATM   37  O   UNL    20     -11.527   9.416  71.803  1.00  0.00    -0.380 OA 
HETATM   38  H   UNL    20     -11.890  10.184  72.227  1.00  0.00     0.000 HD 
ENDBRANCH  26  36
ENDBRANCH  23  24
ENDBRANCH  16  23
BRANCH  16  39
HETATM   39  C   UNL    20      -6.704   8.685  67.623  1.00  0.00    -0.066 C  
HETATM   40  O   UNL    20      -6.864   9.911  68.284  1.00  0.00    -0.063 OA 
HETATM   41  H   UNL    20      -6.067  10.155  68.739  1.00  0.00     0.000 HD 
ENDBRANCH  16  39
ENDBRANCH  12  14
TORSDOF 5
ENDMDL
MODEL      100
REMARK 921   NORMALIZED FREE ENERGY PREDICTED BY IDOCK:   -5.14 KCAL/MOL
REMARK 922        TOTAL FREE ENERGY PREDICTED BY IDOCK:   -8.23 KCAL/MOL
REMARK 923 INTER-LIGAND FREE ENERGY PREDICTED BY IDOCK:   -6.90 KCAL/MOL
REMARK 924 INTRA-LIGAND FREE ENERGY PREDICTED BY IDOCK:   -1.33 KCAL/MOL
REMARK 927      BINDING AFFINITY PREDICTED BY RF-SCORE:    0.00 PKD
ROOT
HETATM    1  O   HOH     4     -12.458  14.027  62.707  1.00  0.00    -0.867 OA 
HETATM    2  H2  HOH     4     -11.951  14.312  63.458  1.00  0.00     0.000 HD 
HETATM    3 NA   UNL    13      -6.840  12.809  66.818  1.00  0.00    -0.225 Na 
HETATM    4  H1  HOH     4     -12.027  13.235  62.406  1.00  0.00     0.000 HD 
HETATM    5 NA   UNL    14     -10.949  16.104  64.323  1.00  0.00    -0.397 Na 
HETATM    6 FE   UNL    15      -8.032  15.750  65.456  1.00  0.00    -0.131 Fe 
HETATM    7 FE   UNL    16     -11.162  12.364  64.409  1.00  0.00    -0.280 Fe 
HETATM    8 FE   UNL    17     -11.670  15.728  66.526  1.00  0.00    -0.224 Fe 
HETATM    9 FE   UNL    18     -13.291  12.111  64.737  1.00  0.00    -0.505 Fe 
HETATM   10 FE   UNL    19     -12.812  13.514  69.515  1.00  0.00    -0.281 Fe 
HETATM   11  O   UNL    20     -11.839  12.817  66.955  1.00  0.00    -0.372 OA 
HETATM   12  C   UNL    20     -11.582  11.438  66.908  1.00  0.00    -0.004 C  
HETATM   13  H   UNL    20     -11.889  13.253  66.112  1.00  0.00     0.000 HD 
ENDROOT
BRANCH  12  14
HETATM   14  C   UNL    20     -11.500  10.729  68.280  1.00  0.00    -0.280 C  
HETATM   15  O   UNL    20     -11.243   9.355  68.120  1.00  0.00    -0.027 OA 
HETATM   16  C   UNL    20     -10.780   8.868  69.353  1.00  0.00    -0.181 C  
HETATM   17  C   UNL    20     -10.521  11.289  69.334  1.00  0.00    -0.050 C  
HETATM   18  H   UNL    20     -10.583  12.481  70.878  1.00  0.00     0.000 HD 
HETATM   19  C   UNL    20      -9.988  10.027  70.052  1.00  0.00    -0.222 C  
HETATM   20  H   UNL    20      -8.117  10.652  70.321  1.00  0.00     0.000 HD 
HETATM   21  O   UNL    20     -11.185  12.136  70.229  1.00  0.00     0.146 OA 
HETATM   22  O   UNL    20      -8.597   9.950  69.898  1.00  0.00    -0.194 OA 
BRANCH  16  23
HETATM   23  O   UNL    20     -10.131   7.590  69.186  1.00  0.00    -0.181 OA 
BRANCH  23  24
HETATM   24  C   UNL    20     -10.889   6.359  69.115  1.00  0.00    -0.322 C  
HETATM   25  O   UNL    20     -10.962   5.945  67.763  1.00  0.00    -0.279 OA 
HETATM   26  C   UNL    20      -9.716   5.489  67.245  1.00  0.00    -0.139 C  
HETATM   27  H   UNL    20     -10.324   4.606  71.815  1.00  0.00     0.000 HD 
HETATM   28  C   UNL    20      -9.150   4.282  68.049  1.00  0.00    -0.131 C  
HETATM   29  O   UNL    20      -7.921   3.834  67.533  1.00  0.00    -0.088 OA 
HETATM   30  C   UNL    20      -9.038   4.643  69.523  1.00  0.00    -0.110 C  
HETATM   31  O   UNL    20     -10.598   5.360  71.306  1.00  0.00    -0.235 OA 
HETATM   32  H   UNL    20      -7.576   3.097  68.024  1.00  0.00     0.000 HD 
HETATM   33  O   UNL    20      -8.668   3.509  70.257  1.00  0.00    -0.060 OA 
HETATM   34  C   UNL    20     -10.443   5.130  69.945  1.00  0.00    -0.226 C  
HETATM   35  H   UNL    20      -8.598   3.734  71.177  1.00  0.00     0.000 HD 
BRANCH  26  36
HETATM   36  C   UNL    20      -9.963   5.012  65.791  1.00  0.00    -0.123 C  
HETATM   37  O   UNL    20     -11.329   4.798  65.582  1.00  0.00    -0.900 OA 
HETATM   38  H   UNL    20     -11.480   4.505  64.690  1.00  0.00     0.000 HD 
ENDBRANCH  26  36
ENDBRANCH  23  24
ENDBRANCH  16  23
BRANCH  16  39
HETATM   39  C   UNL    20     -12.035   8.601  70.241  1.00  0.00     0.277 C  
HETATM   40  O   UNL    20     -11.752   8.851  71.591  1.00  0.00    -0.294 OA 
HETATM   41  H   UNL    20     -12.516   8.689  72.131  1.00  0.00     0.000 HD 
ENDBRANCH  16  39
ENDBRANCH  12  14
TORSDOF 5
ENDMDL
MODEL      101
REMARK 921   NORMALIZED FREE ENERGY PREDICTED BY IDOCK:   -5.13 KCAL/MOL
REMARK 922        TOTAL FREE ENERGY PREDICTED BY IDOCK:   -8.21 KCAL/MOL
REMARK 923 INTER-LIGAND FREE ENERGY PREDICTED BY IDOCK:   -7.66 KCAL/MOL
REMARK 924 INTRA-LIGAND FREE ENERGY PREDICTED BY IDOCK:   -0.56 KCAL/MOL
REMARK 927      BINDING AFFINITY PREDICTED BY RF-SCORE:    0.00 PKD
ROOT
HETATM    1  O   HOH     4     -12.514  15.759  68.303  1.00  0.00    -0.191 OA 
HETATM    2  H2  HOH     4     -12.099  15.457  67.503  1.00  0.00     0.000 HD 
HETATM    3 NA   UNL    13     -12.565  10.995  63.083  1.00  0.00    -0.672 Na 
HETATM    4  H1  HOH     4     -13.215  15.138  68.465  1.00  0.00     0.000 HD 
HETATM    5 NA   UNL    14     -11.410  16.167  65.506  1.00  0.00    -0.308 Na 
HETATM    6 FE   UNL    15     -12.152  14.422  62.992  1.00  0.00    -0.790 Fe 
HETATM    7 FE   UNL    16     -12.332  13.163  67.547  1.00  0.00    -0.314 Fe 
HETATM    8 FE   UNL    17      -9.386  14.977  65.527  1.00  0.00    -0.266 Fe 
HETATM    9 FE   UNL    18     -11.023  13.444  69.253  1.00  0.00    -0.221 Fe 
HETATM   10 FE   UNL    19      -7.056  12.034  66.549  1.00  0.00    -0.148 Fe 
HETATM   11  O   UNL    20      -9.814  12.458  66.995  1.00  0.00    -0.206 OA 
HETATM   12  C   UNL    20     -10.394  11.287  67.507  1.00  0.00    -0.194 C  
HETATM   13  H   UNL    20     -10.331  13.249  67.098  1.00  0.00     0.000 HD 
ENDROOT
BRANCH  12  14
HETATM   14  C   UNL    20      -9.555  10.000  67.341  1.00  0.00    -0.154 C  
HETATM   15  O   UNL    20      -9.386   9.347  68.575  1.00  0.00    -0.137 OA 
HETATM   16  C   UNL    20      -8.996   8.025  68.302  1.00  0.00    -0.132 C  
HETATM   17  C   UNL    20     -10.014   8.959  66.297  1.00  0.00    -0.266 C  
HETATM   18  H   UNL    20      -9.602   8.483  64.450  1.00  0.00     0.000 HD 
HETATM   19  C   UNL    20      -9.676   7.600  66.955  1.00  0.00    -0.195 C  
HETATM   20  H   UNL    20     -11.261   6.592  66.297  1.00  0.00     0.000 HD 
HETATM   21  O   UNL    20      -9.319   9.123  65.092  1.00  0.00    -0.218 OA 
HETATM   22  O   UNL    20     -10.848   6.849  67.113  1.00  0.00    -0.329 OA 
BRANCH  16  23
HETATM   23  O   UNL    20      -9.179   7.189  69.464  1.00  0.00    -0.149 OA 
BRANCH  23  24
HETATM   24  C   UNL    20     -10.465   6.609  69.785  1.00  0.00    -0.211 C  
HETATM   25  O   UNL    20     -10.300   5.219  69.999  1.00  0.00    -0.267 OA 
HETATM   26  C   UNL    20      -9.594   4.915  71.199  1.00  0.00    -0.170 C  
HETATM   27  H   UNL    20     -12.227   8.793  71.462  1.00  0.00     0.000 HD 
HETATM   28  C   UNL    20     -10.309   5.477  72.462  1.00  0.00    -0.203 C  
HETATM   29  O   UNL    20      -9.611   5.173  73.644  1.00  0.00    -0.132 OA 
HETATM   30  C   UNL    20     -10.530   6.976  72.314  1.00  0.00    -0.208 C  
HETATM   31  O   UNL    20     -11.725   8.454  70.730  1.00  0.00    -0.276 OA 
HETATM   32  H   UNL    20     -10.047   5.516  74.415  1.00  0.00     0.000 HD 
HETATM   33  O   UNL    20     -11.300   7.445  73.385  1.00  0.00    -0.589 OA 
HETATM   34  C   UNL    20     -11.284   7.161  70.978  1.00  0.00    -0.269 C  
HETATM   35  H   UNL    20     -11.437   8.380  73.293  1.00  0.00     0.000 HD 
BRANCH  26  36
HETATM   36  C   UNL    20      -9.547   3.371  71.332  1.00  0.00    -0.166 C  
HETATM   37  O   UNL    20     -10.483   2.943  72.278  1.00  0.00    -0.099 OA 
HETATM   38  H   UNL    20     -10.454   1.996  72.360  1.00  0.00     0.000 HD 
ENDBRANCH  26  36
ENDBRANCH  23  24
ENDBRANCH  16  23
BRANCH  16  39
HETATM   39  C   UNL    20      -7.461   8.049  68.027  1.00  0.00    -0.097 C  
HETATM   40  O   UNL    20      -7.078   6.952  67.242  1.00  0.00    -0.078 OA 
HETATM   41  H   UNL    20      -6.144   6.967  67.074  1.00  0.00     0.000 HD 
ENDBRANCH  16  39
ENDBRANCH  12  14
TORSDOF 5
ENDMDL
MODEL      102
REMARK 921   NORMALIZED FREE ENERGY PREDICTED BY IDOCK:   -5.10 KCAL/MOL
REMARK 922        TOTAL FREE ENERGY PREDICTED BY IDOCK:   -8.18 KCAL/MOL
REMARK 923 INTER-LIGAND FREE ENERGY PREDICTED BY IDOCK:   -6.72 KCAL/MOL
REMARK 924 INTRA-LIGAND FREE ENERGY PREDICTED BY IDOCK:   -1.45 KCAL/MOL
REMARK 927      BINDING AFFINITY PREDICTED BY RF-SCORE:    0.00 PKD
ROOT
HETATM    1  O   HOH     4     -10.967   5.376  71.370  1.00  0.00    -0.190 OA 
HETATM    2  H2  HOH     4     -10.844   6.318  71.365  1.00  0.00     0.000 HD 
HETATM    3 NA   UNL    13     -13.463  11.620  69.197  1.00  0.00     0.600 Na 
HETATM    4  H1  HOH     4     -11.741   5.225  70.841  1.00  0.00     0.000 HD 
HETATM    5 NA   UNL    14     -10.498   8.051  72.723  1.00  0.00    -0.198 Na 
HETATM    6 FE   UNL    15     -12.234  10.639  72.272  1.00  0.00    -0.319 Fe 
HETATM    7 FE   UNL    16     -11.631   7.004  69.309  1.00  0.00    -0.347 Fe 
HETATM    8 FE   UNL    17      -8.895   9.092  71.359  1.00  0.00    -0.131 Fe 
HETATM    9 FE   UNL    18      -9.924   5.819  68.686  1.00  0.00    -0.119 Fe 
HETATM   10 FE   UNL    19      -7.206   9.957  67.962  1.00  0.00    -0.073 Fe 
HETATM   11  O   UNL    20      -9.579   8.538  68.547  1.00  0.00    -0.148 OA 
HETATM   12  C   UNL    20     -10.295   8.309  67.362  1.00  0.00    -0.280 C  
HETATM   13  H   UNL    20      -9.839   8.007  69.291  1.00  0.00     0.000 HD 
ENDROOT
BRANCH  12  14
HETATM   14  C   UNL    20      -9.872   9.171  66.150  1.00  0.00    -0.293 C  
HETATM   15  O   UNL    20     -10.217  10.520  66.348  1.00  0.00    -0.226 OA 
HETATM   16  C   UNL    20      -9.461  11.285  65.444  1.00  0.00    -0.225 C  
HETATM   17  C   UNL    20      -8.399   9.107  65.688  1.00  0.00    -0.125 C  
HETATM   18  H   UNL    20      -7.346   8.167  64.342  1.00  0.00     0.000 HD 
HETATM   19  C   UNL    20      -8.090  10.554  65.239  1.00  0.00    -0.131 C  
HETATM   20  H   UNL    20      -6.208  10.629  65.884  1.00  0.00     0.000 HD 
HETATM   21  O   UNL    20      -8.251   8.206  64.626  1.00  0.00    -0.154 OA 
HETATM   22  O   UNL    20      -7.039  11.071  66.009  1.00  0.00    -0.105 OA 
BRANCH  16  23
HETATM   23  O   UNL    20      -9.454  12.675  65.833  1.00  0.00    -0.202 OA 
BRANCH  23  24
HETATM   24  C   UNL    20      -9.359  13.072  67.221  1.00  0.00    -0.220 C  
HETATM   25  O   UNL    20      -8.355  14.063  67.345  1.00  0.00    -0.175 OA 
HETATM   26  C   UNL    20      -8.720  15.311  66.764  1.00  0.00    -0.270 C  
HETATM   27  H   UNL    20     -12.329  12.918  68.576  1.00  0.00     0.000 HD 
HETATM   28  C   UNL    20     -10.011  15.904  67.402  1.00  0.00    -0.239 C  
HETATM   29  O   UNL    20     -10.367  17.136  66.826  1.00  0.00    -0.311 OA 
HETATM   30  C   UNL    20     -11.148  14.896  67.312  1.00  0.00    -0.336 C  
HETATM   31  O   UNL    20     -11.559  12.595  68.123  1.00  0.00    -0.295 OA 
HETATM   32  H   UNL    20     -11.154  17.498  67.215  1.00  0.00     0.000 HD 
HETATM   33  O   UNL    20     -12.259  15.379  68.015  1.00  0.00    -0.407 OA 
HETATM   34  C   UNL    20     -10.614  13.599  67.960  1.00  0.00    -0.249 C  
HETATM   35  H   UNL    20     -12.969  14.750  67.959  1.00  0.00     0.000 HD 
BRANCH  26  36
HETATM   36  C   UNL    20      -7.563  16.306  67.031  1.00  0.00    -0.215 C  
HETATM   37  O   UNL    20      -7.531  17.284  66.034  1.00  0.00    -0.353 OA 
HETATM   38  H   UNL    20      -6.821  17.895  66.198  1.00  0.00     0.000 HD 
ENDBRANCH  26  36
ENDBRANCH  23  24
ENDBRANCH  16  23
BRANCH  16  39
HETATM   39  C   UNL    20     -10.197  11.227  64.070  1.00  0.00    -0.348 C  
HETATM   40  O   UNL    20      -9.512  11.981  63.106  1.00  0.00    -0.637 OA 
HETATM   41  H   UNL    20      -9.960  11.945  62.270  1.00  0.00     0.000 HD 
ENDBRANCH  16  39
ENDBRANCH  12  14
TORSDOF 5
ENDMDL
MODEL      103
REMARK 921   NORMALIZED FREE ENERGY PREDICTED BY IDOCK:   -5.06 KCAL/MOL
REMARK 922        TOTAL FREE ENERGY PREDICTED BY IDOCK:   -8.13 KCAL/MOL
REMARK 923 INTER-LIGAND FREE ENERGY PREDICTED BY IDOCK:   -6.80 KCAL/MOL
REMARK 924 INTRA-LIGAND FREE ENERGY PREDICTED BY IDOCK:   -1.33 KCAL/MOL
REMARK 927      BINDING AFFINITY PREDICTED BY RF-SCORE:    0.00 PKD
ROOT
HETATM    1  O   HOH     4     -13.403  14.022  65.849  1.00  0.00    -0.609 OA 
HETATM    2  H2  HOH     4     -12.670  13.639  65.381  1.00  0.00     0.000 HD 
HETATM    3 NA   UNL    13      -9.726   8.146  64.473  1.00  0.00    -0.143 Na 
HETATM    4  H1  HOH     4     -13.774  13.307  66.353  1.00  0.00     0.000 HD 
HETATM    5 NA   UNL    14     -11.772  13.485  63.348  1.00  0.00    -0.392 Na 
HETATM    6 FE   UNL    15     -10.845  10.641  62.364  1.00  0.00    -0.710 Fe 
HETATM    7 FE   UNL    16     -11.880  11.984  66.778  1.00  0.00    -0.289 Fe 
HETATM    8 FE   UNL    17      -9.553  13.779  64.056  1.00  0.00    -0.550 Fe 
HETATM    9 FE   UNL    18     -11.434  13.736  67.976  1.00  0.00    -0.230 Fe 
HETATM   10 FE   UNL    19      -6.625  13.556  66.609  1.00  0.00    -0.262 Fe 
HETATM   11  O   UNL    20      -9.275  12.583  66.735  1.00  0.00    -0.209 OA 
HETATM   12  C   UNL    20      -9.414  11.737  67.846  1.00  0.00    -0.191 C  
HETATM   13  H   UNL    20     -10.088  12.893  66.352  1.00  0.00     0.000 HD 
ENDROOT
BRANCH  12  14
HETATM   14  C   UNL    20      -8.092  11.234  68.470  1.00  0.00    -0.148 C  
HETATM   15  O   UNL    20      -8.343  10.413  69.584  1.00  0.00    -0.152 OA 
HETATM   16  C   UNL    20      -7.172   9.678  69.837  1.00  0.00    -0.106 C  
HETATM   17  C   UNL    20      -7.078  10.516  67.552  1.00  0.00    -0.089 C  
HETATM   18  H   UNL    20      -5.472  10.966  66.540  1.00  0.00     0.000 HD 
HETATM   19  C   UNL    20      -6.469   9.422  68.459  1.00  0.00    -0.053 C  
HETATM   20  H   UNL    20      -6.295   8.004  67.074  1.00  0.00     0.000 HD 
HETATM   21  O   UNL    20      -6.096  11.407  67.105  1.00  0.00    -0.076 OA 
HETATM   22  O   UNL    20      -6.722   8.159  67.908  1.00  0.00    -0.062 OA 
BRANCH  16  23
HETATM   23  O   UNL    20      -7.453   8.549  70.691  1.00  0.00    -0.056 OA 
BRANCH  23  24
HETATM   24  C   UNL    20      -8.570   8.554  71.610  1.00  0.00    -0.187 C  
HETATM   25  O   UNL    20      -9.648   7.848  71.024  1.00  0.00    -0.159 OA 
HETATM   26  C   UNL    20      -9.420   6.445  70.933  1.00  0.00    -0.175 C  
HETATM   27  H   UNL    20      -7.427   8.468  74.671  1.00  0.00     0.000 HD 
HETATM   28  C   UNL    20      -9.170   5.797  72.326  1.00  0.00    -0.145 C  
HETATM   29  O   UNL    20      -8.946   4.412  72.232  1.00  0.00    -0.117 OA 
HETATM   30  C   UNL    20      -8.019   6.501  73.031  1.00  0.00    -0.104 C  
HETATM   31  O   UNL    20      -7.538   8.806  73.791  1.00  0.00    -0.402 OA 
HETATM   32  H   UNL    20      -8.794   4.017  73.082  1.00  0.00     0.000 HD 
HETATM   33  O   UNL    20      -7.898   6.010  74.337  1.00  0.00    -0.100 OA 
HETATM   34  C   UNL    20      -8.389   8.002  73.046  1.00  0.00    -0.185 C  
HETATM   35  H   UNL    20      -7.180   6.449  74.777  1.00  0.00     0.000 HD 
BRANCH  26  36
HETATM   36  C   UNL    20     -10.698   5.803  70.337  1.00  0.00    -0.302 C  
HETATM   37  O   UNL    20     -11.620   6.797  69.997  1.00  0.00    -0.483 OA 
HETATM   38  H   UNL    20     -12.404   6.403  69.632  1.00  0.00     0.000 HD 
ENDBRANCH  26  36
ENDBRANCH  23  24
ENDBRANCH  16  23
BRANCH  16  39
HETATM   39  C   UNL    20      -6.217  10.606  70.649  1.00  0.00    -0.044 C  
HETATM   40  O   UNL    20      -5.473   9.863  71.577  1.00  0.00    -0.075 OA 
HETATM   41  H   UNL    20      -4.891  10.428  72.072  1.00  0.00     0.000 HD 
ENDBRANCH  16  39
ENDBRANCH  12  14
TORSDOF 5
ENDMDL
MODEL      104
REMARK 921   NORMALIZED FREE ENERGY PREDICTED BY IDOCK:   -5.06 KCAL/MOL
REMARK 922        TOTAL FREE ENERGY PREDICTED BY IDOCK:   -8.13 KCAL/MOL
REMARK 923 INTER-LIGAND FREE ENERGY PREDICTED BY IDOCK:   -6.46 KCAL/MOL
REMARK 924 INTRA-LIGAND FREE ENERGY PREDICTED BY IDOCK:   -1.67 KCAL/MOL
REMARK 927      BINDING AFFINITY PREDICTED BY RF-SCORE:    0.00 PKD
ROOT
HETATM    1  O   HOH     4     -12.158  15.962  68.710  1.00  0.00    -0.526 OA 
HETATM    2  H2  HOH     4     -11.525  15.362  68.331  1.00  0.00     0.000 HD 
HETATM    3 NA   UNL    13     -11.156  10.227  64.703  1.00  0.00    -0.230 Na 
HETATM    4  H1  HOH     4     -13.006  15.624  68.446  1.00  0.00     0.000 HD 
HETATM    5 NA   UNL    14      -9.658  15.316  67.117  1.00  0.00    -0.199 Na 
HETATM    6 FE   UNL    15      -9.507  13.262  64.735  1.00  0.00    -0.460 Fe 
HETATM    7 FE   UNL    16     -12.588  13.315  68.322  1.00  0.00    -0.303 Fe 
HETATM    8 FE   UNL    17      -8.597  13.656  68.394  1.00  0.00    -0.134 Fe 
HETATM    9 FE   UNL    18     -12.424  13.648  70.459  1.00  0.00    -0.268 Fe 
HETATM   10 FE   UNL    19      -8.508  10.546  70.731  1.00  0.00    -0.253 Fe 
HETATM   11  O   UNL    20     -10.662  11.820  69.418  1.00  0.00    -0.426 OA 
HETATM   12  C   UNL    20     -11.816  11.029  69.529  1.00  0.00    -0.333 C  
HETATM   13  H   UNL    20     -10.808  12.722  69.158  1.00  0.00     0.000 HD 
ENDROOT
BRANCH  12  14
HETATM   14  C   UNL    20     -11.579   9.561  69.952  1.00  0.00     0.015 C  
HETATM   15  O   UNL    20     -10.663   8.931  69.092  1.00  0.00    -0.217 OA 
HETATM   16  C   UNL    20     -10.188   7.784  69.749  1.00  0.00    -0.211 C  
HETATM   17  C   UNL    20     -11.151   9.282  71.410  1.00  0.00    -0.367 C  
HETATM   18  H   UNL    20     -11.995   8.769  73.092  1.00  0.00     0.000 HD 
HETATM   19  C   UNL    20     -10.168   8.094  71.285  1.00  0.00    -0.195 C  
HETATM   20  H   UNL    20      -8.900   8.657  72.712  1.00  0.00     0.000 HD 
HETATM   21  O   UNL    20     -12.258   8.941  72.196  1.00  0.00    -0.356 OA 
HETATM   22  O   UNL    20      -8.912   8.469  71.781  1.00  0.00    -0.180 OA 
BRANCH  16  23
HETATM   23  O   UNL    20      -8.980   7.301  69.124  1.00  0.00    -0.136 OA 
BRANCH  23  24
HETATM   24  C   UNL    20      -9.007   6.238  68.143  1.00  0.00    -0.115 C  
HETATM   25  O   UNL    20      -9.173   6.807  66.857  1.00  0.00    -0.133 OA 
HETATM   26  C   UNL    20      -8.026   7.521  66.405  1.00  0.00    -0.107 C  
HETATM   27  H   UNL    20      -7.028   3.831  69.129  1.00  0.00     0.000 HD 
HETATM   28  C   UNL    20      -6.760   6.618  66.331  1.00  0.00    -0.053 C  
HETATM   29  O   UNL    20      -5.631   7.326  65.882  1.00  0.00    -0.030 OA 
HETATM   30  C   UNL    20      -6.508   5.961  67.680  1.00  0.00    -0.047 C  
HETATM   31  O   UNL    20      -7.754   4.442  69.185  1.00  0.00    -0.055 OA 
HETATM   32  H   UNL    20      -4.859   6.774  65.837  1.00  0.00     0.000 HD 
HETATM   33  O   UNL    20      -5.458   5.041  67.565  1.00  0.00    -0.011 OA 
HETATM   34  C   UNL    20      -7.824   5.242  68.052  1.00  0.00    -0.091 C  
HETATM   35  H   UNL    20      -5.301   4.631  68.407  1.00  0.00     0.000 HD 
BRANCH  26  36
HETATM   36  C   UNL    20      -8.328   8.027  64.971  1.00  0.00    -0.113 C  
HETATM   37  O   UNL    20      -9.190   9.126  65.022  1.00  0.00    -0.371 OA 
HETATM   38  H   UNL    20      -9.375   9.437  64.143  1.00  0.00     0.000 HD 
ENDBRANCH  26  36
ENDBRANCH  23  24
ENDBRANCH  16  23
BRANCH  16  39
HETATM   39  C   UNL    20     -11.256   6.665  69.544  1.00  0.00    -0.326 C  
HETATM   40  O   UNL    20     -11.426   5.918  70.718  1.00  0.00    -0.230 OA 
HETATM   41  H   UNL    20     -12.076   5.237  70.593  1.00  0.00     0.000 HD 
ENDBRANCH  16  39
ENDBRANCH  12  14
TORSDOF 5
ENDMDL
MODEL      105
REMARK 921   NORMALIZED FREE ENERGY PREDICTED BY IDOCK:   -5.05 KCAL/MOL
REMARK 922        TOTAL FREE ENERGY PREDICTED BY IDOCK:   -8.11 KCAL/MOL
REMARK 923 INTER-LIGAND FREE ENERGY PREDICTED BY IDOCK:   -6.97 KCAL/MOL
REMARK 924 INTRA-LIGAND FREE ENERGY PREDICTED BY IDOCK:   -1.13 KCAL/MOL
REMARK 927      BINDING AFFINITY PREDICTED BY RF-SCORE:    0.00 PKD
ROOT
HETATM    1  O   HOH     4     -11.214  16.516  64.131  1.00  0.00    -1.355 OA 
HETATM    2  H2  HOH     4     -11.090  16.241  65.033  1.00  0.00     0.000 HD 
HETATM    3 NA   UNL    13      -6.580  14.603  69.112  1.00  0.00    -0.086 Na 
HETATM    4  H1  HOH     4     -10.345  16.505  63.749  1.00  0.00     0.000 HD 
HETATM    5 NA   UNL    14     -11.595  16.809  67.127  1.00  0.00    -0.094 Na 
HETATM    6 FE   UNL    15      -9.282  16.748  69.263  1.00  0.00    -0.232 Fe 
HETATM    7 FE   UNL    16      -9.306  14.782  64.963  1.00  0.00    -0.379 Fe 
HETATM    8 FE   UNL    17     -12.086  14.628  67.843  1.00  0.00    -0.295 Fe 
HETATM    9 FE   UNL    18     -10.762  13.656  63.816  1.00  0.00    -0.436 Fe 
HETATM   10 FE   UNL    19     -11.756  10.752  67.767  1.00  0.00    -0.267 Fe 
HETATM   11  O   UNL    20     -10.339  12.762  66.376  1.00  0.00    -0.251 OA 
HETATM   12  C   UNL    20      -9.236  12.194  65.720  1.00  0.00    -0.014 C  
HETATM   13  H   UNL    20     -10.587  13.631  66.081  1.00  0.00     0.000 HD 
ENDROOT
BRANCH  12  14
HETATM   14  C   UNL    20      -8.833  10.780  66.199  1.00  0.00    -0.177 C  
HETATM   15  O   UNL    20      -8.939  10.673  67.597  1.00  0.00    -0.138 OA 
HETATM   16  C   UNL    20      -8.966   9.305  67.914  1.00  0.00    -0.127 C  
HETATM   17  C   UNL    20      -9.540   9.564  65.561  1.00  0.00    -0.279 C  
HETATM   18  H   UNL    20      -9.203   8.280  64.132  1.00  0.00     0.000 HD 
HETATM   19  C   UNL    20      -9.676   8.560  66.731  1.00  0.00    -0.236 C  
HETATM   20  H   UNL    20     -11.460   7.829  66.239  1.00  0.00     0.000 HD 
HETATM   21  O   UNL    20      -8.768   9.028  64.523  1.00  0.00    -0.177 OA 
HETATM   22  O   UNL    20     -11.030   8.280  66.955  1.00  0.00    -0.134 OA 
BRANCH  16  23
HETATM   23  O   UNL    20      -9.460   9.102  69.255  1.00  0.00    -0.153 OA 
BRANCH  23  24
HETATM   24  C   UNL    20     -10.293   7.968  69.592  1.00  0.00    -0.220 C  
HETATM   25  O   UNL    20      -9.507   6.792  69.542  1.00  0.00    -0.149 OA 
HETATM   26  C   UNL    20      -8.552   6.708  70.595  1.00  0.00    -0.142 C  
HETATM   27  H   UNL    20     -12.524   8.905  71.789  1.00  0.00     0.000 HD 
HETATM   28  C   UNL    20      -9.220   6.736  72.001  1.00  0.00    -0.141 C  
HETATM   29  O   UNL    20      -8.274   6.651  73.037  1.00  0.00    -0.113 OA 
HETATM   30  C   UNL    20     -10.091   7.976  72.141  1.00  0.00    -0.234 C  
HETATM   31  O   UNL    20     -12.054   8.918  70.964  1.00  0.00    -0.288 OA 
HETATM   32  H   UNL    20      -8.682   6.667  73.895  1.00  0.00     0.000 HD 
HETATM   33  O   UNL    20     -10.799   7.918  73.347  1.00  0.00    -0.271 OA 
HETATM   34  C   UNL    20     -11.061   7.948  70.937  1.00  0.00    -0.255 C  
HETATM   35  H   UNL    20     -11.343   8.692  73.434  1.00  0.00     0.000 HD 
BRANCH  26  36
HETATM   36  C   UNL    20      -7.817   5.351  70.450  1.00  0.00    -0.088 C  
HETATM   37  O   UNL    20      -6.818   5.448  69.477  1.00  0.00    -0.053 OA 
HETATM   38  H   UNL    20      -6.368   4.616  69.388  1.00  0.00     0.000 HD 
ENDBRANCH  26  36
ENDBRANCH  23  24
ENDBRANCH  16  23
BRANCH  16  39
HETATM   39  C   UNL    20      -7.488   8.807  67.919  1.00  0.00    -0.093 C  
HETATM   40  O   UNL    20      -7.409   7.478  67.478  1.00  0.00    -0.096 OA 
HETATM   41  H   UNL    20      -6.509   7.175  67.481  1.00  0.00     0.000 HD 
ENDBRANCH  16  39
ENDBRANCH  12  14
TORSDOF 5
ENDMDL
MODEL      106
REMARK 921   NORMALIZED FREE ENERGY PREDICTED BY IDOCK:   -5.04 KCAL/MOL
REMARK 922        TOTAL FREE ENERGY PREDICTED BY IDOCK:   -8.10 KCAL/MOL
REMARK 923 INTER-LIGAND FREE ENERGY PREDICTED BY IDOCK:   -6.95 KCAL/MOL
REMARK 924 INTRA-LIGAND FREE ENERGY PREDICTED BY IDOCK:   -1.14 KCAL/MOL
REMARK 927      BINDING AFFINITY PREDICTED BY RF-SCORE:    0.00 PKD
ROOT
HETATM    1  O   HOH     4     -12.238  16.238  63.676  1.00  0.00    -1.104 OA 
HETATM    2  H2  HOH     4     -11.680  16.490  64.403  1.00  0.00     0.000 HD 
HETATM    3 NA   UNL    13      -5.679  16.320  66.306  1.00  0.00    -0.074 Na 
HETATM    4  H1  HOH     4     -11.660  15.796  63.065  1.00  0.00     0.000 HD 
HETATM    5 NA   UNL    14     -11.148  18.233  65.685  1.00  0.00    -0.379 Na 
HETATM    6 FE   UNL    15      -8.094  18.787  66.217  1.00  0.00    -0.226 Fe 
HETATM    7 FE   UNL    16     -10.069  14.844  64.508  1.00  0.00    -0.351 Fe 
HETATM    8 FE   UNL    17     -11.109  17.029  67.701  1.00  0.00    -0.323 Fe 
HETATM    9 FE   UNL    18     -11.829  13.684  65.016  1.00  0.00    -0.317 Fe 
HETATM   10 FE   UNL    19     -10.634  13.836  69.872  1.00  0.00    -0.396 Fe 
HETATM   11  O   UNL    20     -10.178  14.293  67.121  1.00  0.00    -0.251 OA 
HETATM   12  C   UNL    20      -9.495  13.199  66.568  1.00  0.00    -0.243 C  
HETATM   13  H   UNL    20     -10.586  14.880  66.495  1.00  0.00     0.000 HD 
ENDROOT
BRANCH  12  14
HETATM   14  C   UNL    20      -8.831  12.245  67.586  1.00  0.00    -0.175 C  
HETATM   15  O   UNL    20      -9.282  10.925  67.407  1.00  0.00    -0.147 OA 
HETATM   16  C   UNL    20      -8.366  10.076  68.050  1.00  0.00    -0.117 C  
HETATM   17  C   UNL    20      -7.288  12.226  67.671  1.00  0.00    -0.127 C  
HETATM   18  H   UNL    20      -5.889  13.037  68.762  1.00  0.00     0.000 HD 
HETATM   19  C   UNL    20      -6.951  10.742  67.948  1.00  0.00    -0.073 C  
HETATM   20  H   UNL    20      -5.294  10.644  66.851  1.00  0.00     0.000 HD 
HETATM   21  O   UNL    20      -6.838  13.049  68.710  1.00  0.00    -0.093 OA 
HETATM   22  O   UNL    20      -6.151  10.240  66.913  1.00  0.00    -0.057 OA 
BRANCH  16  23
HETATM   23  O   UNL    20      -8.525   8.715  67.595  1.00  0.00    -0.123 OA 
BRANCH  23  24
HETATM   24  C   UNL    20      -8.361   7.592  68.493  1.00  0.00    -0.129 C  
HETATM   25  O   UNL    20      -9.387   6.650  68.239  1.00  0.00    -0.122 OA 
HETATM   26  C   UNL    20      -9.241   5.981  66.990  1.00  0.00    -0.121 C  
HETATM   27  H   UNL    20      -5.172   7.122  69.033  1.00  0.00     0.000 HD 
HETATM   28  C   UNL    20      -7.894   5.208  66.889  1.00  0.00    -0.100 C  
HETATM   29  O   UNL    20      -7.755   4.548  65.655  1.00  0.00    -0.091 OA 
HETATM   30  C   UNL    20      -6.729   6.152  67.151  1.00  0.00    -0.057 C  
HETATM   31  O   UNL    20      -5.993   7.599  69.019  1.00  0.00    -0.032 OA 
HETATM   32  H   UNL    20      -6.932   4.077  65.594  1.00  0.00     0.000 HD 
HETATM   33  O   UNL    20      -5.536   5.422  67.202  1.00  0.00    -0.011 OA 
HETATM   34  C   UNL    20      -7.022   6.814  68.517  1.00  0.00    -0.076 C  
HETATM   35  H   UNL    20      -4.808   6.011  67.366  1.00  0.00     0.000 HD 
BRANCH  26  36
HETATM   36  C   UNL    20     -10.388   4.945  66.880  1.00  0.00    -0.186 C  
HETATM   37  O   UNL    20     -11.162   5.203  65.745  1.00  0.00    -0.808 OA 
HETATM   38  H   UNL    20     -11.865   4.567  65.678  1.00  0.00     0.000 HD 
ENDBRANCH  26  36
ENDBRANCH  23  24
ENDBRANCH  16  23
BRANCH  16  39
HETATM   39  C   UNL    20      -8.737  10.069  69.566  1.00  0.00    -0.192 C  
HETATM   40  O   UNL    20      -7.639  10.455  70.348  1.00  0.00    -0.451 OA 
HETATM   41  H   UNL    20      -7.865  10.451  71.271  1.00  0.00     0.000 HD 
ENDBRANCH  16  39
ENDBRANCH  12  14
TORSDOF 5
ENDMDL
MODEL      107
REMARK 921   NORMALIZED FREE ENERGY PREDICTED BY IDOCK:   -5.03 KCAL/MOL
REMARK 922        TOTAL FREE ENERGY PREDICTED BY IDOCK:   -8.09 KCAL/MOL
REMARK 923 INTER-LIGAND FREE ENERGY PREDICTED BY IDOCK:   -6.71 KCAL/MOL
REMARK 924 INTRA-LIGAND FREE ENERGY PREDICTED BY IDOCK:   -1.38 KCAL/MOL
REMARK 927      BINDING AFFINITY PREDICTED BY RF-SCORE:    0.00 PKD
ROOT
HETATM    1  O   HOH     4     -10.393  20.131  70.042  1.00  0.00    -0.624 OA 
HETATM    2  H2  HOH     4      -9.665  19.578  69.782  1.00  0.00     0.000 HD 
HETATM    3 NA   UNL    13      -6.604  17.529  64.674  1.00  0.00     0.141 Na 
HETATM    4  H1  HOH     4     -10.771  20.438  69.226  1.00  0.00     0.000 HD 
HETATM    5 NA   UNL    14      -7.500  19.226  70.176  1.00  0.00    -0.132 Na 
HETATM    6 FE   UNL    15      -5.596  18.867  67.694  1.00  0.00    -0.159 Fe 
HETATM    7 FE   UNL    16     -10.319  18.645  67.777  1.00  0.00    -0.293 Fe 
HETATM    8 FE   UNL    17      -7.649  16.883  70.189  1.00  0.00     0.023 Fe 
HETATM    9 FE   UNL    18     -11.773  17.741  69.108  1.00  0.00     0.089 Fe 
HETATM   10 FE   UNL    19      -9.187  13.458  69.167  1.00  0.00    -0.327 Fe 
HETATM   11  O   UNL    20      -9.749  16.083  68.282  1.00  0.00    -0.210 OA 
HETATM   12  C   UNL    20     -10.594  16.032  67.164  1.00  0.00    -0.305 C  
HETATM   13  H   UNL    20      -9.689  16.928  68.712  1.00  0.00     0.000 HD 
ENDROOT
BRANCH  12  14
HETATM   14  C   UNL    20     -10.693  14.657  66.465  1.00  0.00    -0.312 C  
HETATM   15  O   UNL    20      -9.653  13.806  66.880  1.00  0.00    -0.244 OA 
HETATM   16  C   UNL    20     -10.026  12.493  66.549  1.00  0.00    -0.244 C  
HETATM   17  C   UNL    20     -12.026  13.882  66.561  1.00  0.00    -0.439 C  
HETATM   18  H   UNL    20     -13.631  13.624  65.483  1.00  0.00     0.000 HD 
HETATM   19  C   UNL    20     -11.587  12.402  66.660  1.00  0.00    -0.385 C  
HETATM   20  H   UNL    20     -12.994  11.799  67.932  1.00  0.00     0.000 HD 
HETATM   21  O   UNL    20     -12.811  14.101  65.423  1.00  0.00    -0.637 OA 
HETATM   22  O   UNL    20     -12.048  11.854  67.864  1.00  0.00    -0.558 OA 
BRANCH  16  23
HETATM   23  O   UNL    20      -9.223  11.536  67.273  1.00  0.00    -0.164 OA 
BRANCH  23  24
HETATM   24  C   UNL    20      -7.832  11.311  66.945  1.00  0.00    -0.156 C  
HETATM   25  O   UNL    20      -7.060  12.372  67.476  1.00  0.00    -0.119 OA 
HETATM   26  C   UNL    20      -6.976  12.351  68.898  1.00  0.00    -0.091 C  
HETATM   27  H   UNL    20      -7.250   8.095  66.937  1.00  0.00     0.000 HD 
HETATM   28  C   UNL    20      -6.346  11.032  69.433  1.00  0.00    -0.083 C  
HETATM   29  O   UNL    20      -6.264  11.016  70.836  1.00  0.00    -0.362 OA 
HETATM   30  C   UNL    20      -7.119   9.832  68.905  1.00  0.00    -0.067 C  
HETATM   31  O   UNL    20      -7.671   8.906  66.678  1.00  0.00    -0.097 OA 
HETATM   32  H   UNL    20      -5.879  10.211  71.162  1.00  0.00     0.000 HD 
HETATM   33  O   UNL    20      -6.461   8.652  69.270  1.00  0.00    -0.041 OA 
HETATM   34  C   UNL    20      -7.145   9.989  67.368  1.00  0.00    -0.084 C  
HETATM   35  H   UNL    20      -6.944   7.903  68.941  1.00  0.00     0.000 HD 
BRANCH  26  36
HETATM   36  C   UNL    20      -6.055  13.521  69.327  1.00  0.00    -0.097 C  
HETATM   37  O   UNL    20      -6.392  13.949  70.615  1.00  0.00    -0.388 OA 
HETATM   38  H   UNL    20      -5.827  14.667  70.878  1.00  0.00     0.000 HD 
ENDBRANCH  26  36
ENDBRANCH  23  24
ENDBRANCH  16  23
BRANCH  16  39
HETATM   39  C   UNL    20      -9.683  12.287  65.041  1.00  0.00    -0.059 C  
HETATM   40  O   UNL    20     -10.172  11.055  64.583  1.00  0.00    -0.284 OA 
HETATM   41  H   UNL    20      -9.963  10.930  63.665  1.00  0.00     0.000 HD 
ENDBRANCH  16  39
ENDBRANCH  12  14
TORSDOF 5
ENDMDL
MODEL      108
REMARK 921   NORMALIZED FREE ENERGY PREDICTED BY IDOCK:   -5.02 KCAL/MOL
REMARK 922        TOTAL FREE ENERGY PREDICTED BY IDOCK:   -8.08 KCAL/MOL
REMARK 923 INTER-LIGAND FREE ENERGY PREDICTED BY IDOCK:   -7.09 KCAL/MOL
REMARK 924 INTRA-LIGAND FREE ENERGY PREDICTED BY IDOCK:   -0.99 KCAL/MOL
REMARK 927      BINDING AFFINITY PREDICTED BY RF-SCORE:    0.00 PKD
ROOT
HETATM    1  O   HOH     4      -8.547   6.688  67.803  1.00  0.00    -0.121 OA 
HETATM    2  H2  HOH     4      -8.996   7.452  67.457  1.00  0.00     0.000 HD 
HETATM    3 NA   UNL    13      -8.314  12.084  63.245  1.00  0.00    -0.371 Na 
HETATM    4  H1  HOH     4      -7.713   6.667  67.350  1.00  0.00     0.000 HD 
HETATM    5 NA   UNL    14     -10.943   8.103  66.591  1.00  0.00    -0.304 Na 
HETATM    6 FE   UNL    15     -10.873   9.891  64.000  1.00  0.00    -0.364 Fe 
HETATM    7 FE   UNL    16      -7.313   8.951  66.968  1.00  0.00    -0.073 Fe 
HETATM    8 FE   UNL    17     -11.056  10.124  67.780  1.00  0.00    -0.197 Fe 
HETATM    9 FE   UNL    18      -7.120   8.856  69.126  1.00  0.00    -0.053 Fe 
HETATM   10 FE   UNL    19      -9.548  13.202  69.622  1.00  0.00    -0.323 Fe 
HETATM   11  O   UNL    20      -8.311  11.129  68.154  1.00  0.00    -0.124 OA 
HETATM   12  C   UNL    20      -6.958  11.439  67.948  1.00  0.00    -0.073 C  
HETATM   13  H   UNL    20      -8.549  10.220  68.005  1.00  0.00     0.000 HD 
ENDROOT
BRANCH  12  14
HETATM   14  C   UNL    20      -6.570  12.916  68.189  1.00  0.00    -0.093 C  
HETATM   15  O   UNL    20      -7.232  13.765  67.284  1.00  0.00    -0.136 OA 
HETATM   16  C   UNL    20      -7.169  15.068  67.805  1.00  0.00    -0.168 C  
HETATM   17  C   UNL    20      -6.740  13.493  69.612  1.00  0.00     0.039 C  
HETATM   18  H   UNL    20      -5.635  13.801  71.190  1.00  0.00     0.000 HD 
HETATM   19  C   UNL    20      -7.189  14.953  69.368  1.00  0.00    -0.182 C  
HETATM   20  H   UNL    20      -8.461  15.091  70.892  1.00  0.00     0.000 HD 
HETATM   21  O   UNL    20      -5.530  13.447  70.315  1.00  0.00    -0.105 OA 
HETATM   22  O   UNL    20      -8.448  15.161  69.945  1.00  0.00    -0.074 OA 
BRANCH  16  23
HETATM   23  O   UNL    20      -8.138  15.922  67.161  1.00  0.00    -0.170 OA 
BRANCH  23  24
HETATM   24  C   UNL    20      -9.502  16.012  67.635  1.00  0.00    -0.216 C  
HETATM   25  O   UNL    20      -9.983  17.322  67.395  1.00  0.00    -0.263 OA 
HETATM   26  C   UNL    20     -10.191  17.602  66.014  1.00  0.00    -0.297 C  
HETATM   27  H   UNL    20     -10.972  13.126  67.196  1.00  0.00     0.000 HD 
HETATM   28  C   UNL    20     -11.214  16.626  65.362  1.00  0.00     0.162 C  
HETATM   29  O   UNL    20     -11.418  16.906  64.000  1.00  0.00    -1.363 OA 
HETATM   30  C   UNL    20     -10.771  15.185  65.575  1.00  0.00    -0.365 C  
HETATM   31  O   UNL    20     -10.316  13.730  67.524  1.00  0.00    -0.239 OA 
HETATM   32  H   UNL    20     -12.042  16.311  63.602  1.00  0.00     0.000 HD 
HETATM   33  O   UNL    20     -11.767  14.315  65.116  1.00  0.00    -0.340 OA 
HETATM   34  C   UNL    20     -10.570  15.027  67.100  1.00  0.00    -0.295 C  
HETATM   35  H   UNL    20     -11.491  13.416  65.249  1.00  0.00     0.000 HD 
BRANCH  26  36
HETATM   36  C   UNL    20     -10.775  19.034  65.912  1.00  0.00    -0.327 C  
HETATM   37  O   UNL    20     -10.489  19.752  67.076  1.00  0.00    -0.433 OA 
HETATM   38  H   UNL    20     -10.847  20.631  67.013  1.00  0.00     0.000 HD 
ENDBRANCH  26  36
ENDBRANCH  23  24
ENDBRANCH  16  23
BRANCH  16  39
HETATM   39  C   UNL    20      -5.769  15.644  67.428  1.00  0.00     0.027 C  
HETATM   40  O   UNL    20      -5.871  16.535  66.350  1.00  0.00    -0.245 OA 
HETATM   41  H   UNL    20      -5.019  16.885  66.120  1.00  0.00     0.000 HD 
ENDBRANCH  16  39
ENDBRANCH  12  14
TORSDOF 5
ENDMDL
MODEL      109
REMARK 921   NORMALIZED FREE ENERGY PREDICTED BY IDOCK:   -4.99 KCAL/MOL
REMARK 922        TOTAL FREE ENERGY PREDICTED BY IDOCK:   -8.03 KCAL/MOL
REMARK 923 INTER-LIGAND FREE ENERGY PREDICTED BY IDOCK:   -7.40 KCAL/MOL
REMARK 924 INTRA-LIGAND FREE ENERGY PREDICTED BY IDOCK:   -0.63 KCAL/MOL
REMARK 927      BINDING AFFINITY PREDICTED BY RF-SCORE:    0.00 PKD
ROOT
HETATM    1  O   HOH     4     -10.369   5.686  73.376  1.00  0.00    -0.192 OA 
HETATM    2  H2  HOH     4     -10.001   5.504  72.519  1.00  0.00     0.000 HD 
HETATM    3 NA   UNL    13      -5.514   7.472  68.561  1.00  0.00    -0.018 Na 
HETATM    4  H1  HOH     4      -9.884   6.436  73.698  1.00  0.00     0.000 HD 
HETATM    5 NA   UNL    14      -9.182   3.847  71.275  1.00  0.00    -0.091 Na 
HETATM    6 FE   UNL    15      -6.495   4.369  69.718  1.00  0.00    -0.024 Fe 
HETATM    7 FE   UNL    16      -9.360   7.564  71.705  1.00  0.00    -0.138 Fe 
HETATM    8 FE   UNL    17     -10.261   4.495  69.293  1.00  0.00    -0.169 Fe 
HETATM    9 FE   UNL    18     -11.510   7.838  71.778  1.00  0.00    -0.241 Fe 
HETATM   10 FE   UNL    19     -11.865   7.061  66.848  1.00  0.00    -0.543 Fe 
HETATM   11  O   UNL    20     -10.464   7.435  69.274  1.00  0.00    -0.213 OA 
HETATM   12  C   UNL    20     -10.185   8.798  69.452  1.00  0.00    -0.210 C  
HETATM   13  H   UNL    20     -10.376   6.894  70.051  1.00  0.00     0.000 HD 
ENDROOT
BRANCH  12  14
HETATM   14  C   UNL    20     -10.328   9.678  68.189  1.00  0.00    -0.209 C  
HETATM   15  O   UNL    20     -10.259  11.044  68.517  1.00  0.00    -0.177 OA 
HETATM   16  C   UNL    20      -9.981  11.748  67.333  1.00  0.00    -0.184 C  
HETATM   17  C   UNL    20      -9.375   9.413  67.002  1.00  0.00    -0.148 C  
HETATM   18  H   UNL    20      -9.401   8.429  65.318  1.00  0.00     0.000 HD 
HETATM   19  C   UNL    20      -9.095  10.822  66.430  1.00  0.00    -0.171 C  
HETATM   20  H   UNL    20      -7.185  10.533  65.951  1.00  0.00     0.000 HD 
HETATM   21  O   UNL    20      -9.987   8.592  66.047  1.00  0.00    -0.191 OA 
HETATM   22  O   UNL    20      -7.722  11.094  66.498  1.00  0.00    -0.150 OA 
BRANCH  16  23
HETATM   23  O   UNL    20      -9.512  13.080  67.630  1.00  0.00    -0.189 OA 
BRANCH  23  24
HETATM   24  C   UNL    20      -8.800  13.869  66.648  1.00  0.00    -0.081 C  
HETATM   25  O   UNL    20      -9.703  14.248  65.626  1.00  0.00    -0.288 OA 
HETATM   26  C   UNL    20     -10.666  15.208  66.051  1.00  0.00    -0.329 C  
HETATM   27  H   UNL    20      -6.493  15.621  68.162  1.00  0.00     0.000 HD 
HETATM   28  C   UNL    20     -10.004  16.519  66.567  1.00  0.00    -0.285 C  
HETATM   29  O   UNL    20     -10.957  17.463  66.985  1.00  0.00    -0.117 OA 
HETATM   30  C   UNL    20      -9.010  16.201  67.676  1.00  0.00    -0.191 C  
HETATM   31  O   UNL    20      -6.957  14.837  67.892  1.00  0.00    -0.126 OA 
HETATM   32  H   UNL    20     -10.553  18.263  67.299  1.00  0.00     0.000 HD 
HETATM   33  O   UNL    20      -8.316  17.363  68.031  1.00  0.00    -0.218 OA 
HETATM   34  C   UNL    20      -8.044  15.148  67.087  1.00  0.00    -0.214 C  
HETATM   35  H   UNL    20      -7.696  17.165  68.723  1.00  0.00     0.000 HD 
BRANCH  26  36
HETATM   36  C   UNL    20     -11.535  15.572  64.821  1.00  0.00    -0.313 C  
HETATM   37  O   UNL    20     -11.078  16.761  64.245  1.00  0.00    -1.301 OA 
HETATM   38  H   UNL    20     -11.611  16.984  63.491  1.00  0.00     0.000 HD 
ENDBRANCH  26  36
ENDBRANCH  23  24
ENDBRANCH  16  23
BRANCH  16  39
HETATM   39  C   UNL    20     -11.335  11.927  66.579  1.00  0.00    -0.341 C  
HETATM   40  O   UNL    20     -12.303  12.491  67.421  1.00  0.00    -0.338 OA 
HETATM   41  H   UNL    20     -13.127  12.600  66.961  1.00  0.00     0.000 HD 
ENDBRANCH  16  39
ENDBRANCH  12  14
TORSDOF 5
ENDMDL
MODEL      110
REMARK 921   NORMALIZED FREE ENERGY PREDICTED BY IDOCK:   -4.92 KCAL/MOL
REMARK 922        TOTAL FREE ENERGY PREDICTED BY IDOCK:   -7.95 KCAL/MOL
REMARK 923 INTER-LIGAND FREE ENERGY PREDICTED BY IDOCK:   -7.09 KCAL/MOL
REMARK 924 INTRA-LIGAND FREE ENERGY PREDICTED BY IDOCK:   -0.86 KCAL/MOL
REMARK 927      BINDING AFFINITY PREDICTED BY RF-SCORE:    0.00 PKD
ROOT
HETATM    1  O   HOH     4     -12.287  15.255  68.723  1.00  0.00    -0.586 OA 
HETATM    2  H2  HOH     4     -11.602  14.703  68.365  1.00  0.00     0.000 HD 
HETATM    3 NA   UNL    13     -10.760   9.503  64.913  1.00  0.00    -0.259 Na 
HETATM    4  H1  HOH     4     -13.100  14.832  68.473  1.00  0.00     0.000 HD 
HETATM    5 NA   UNL    14      -9.736  14.785  67.149  1.00  0.00    -0.208 Na 
HETATM    6 FE   UNL    15      -9.395  12.674  64.838  1.00  0.00    -0.405 Fe 
HETATM    7 FE   UNL    16     -12.473  12.568  68.427  1.00  0.00    -0.305 Fe 
HETATM    8 FE   UNL    17      -8.530  13.274  68.481  1.00  0.00    -0.136 Fe 
HETATM    9 FE   UNL    18     -12.344  12.987  70.551  1.00  0.00    -0.266 Fe 
HETATM   10 FE   UNL    19      -8.162  10.266  70.922  1.00  0.00    -0.218 Fe 
HETATM   11  O   UNL    20     -10.421  11.293  69.570  1.00  0.00    -0.424 OA 
HETATM   12  C   UNL    20     -11.498  10.405  69.710  1.00  0.00    -0.280 C  
HETATM   13  H   UNL    20     -10.648  12.169  69.279  1.00  0.00     0.000 HD 
ENDROOT
BRANCH  12  14
HETATM   14  C   UNL    20     -11.129   8.980  70.183  1.00  0.00    -0.207 C  
HETATM   15  O   UNL    20     -10.573   8.229  69.131  1.00  0.00    -0.219 OA 
HETATM   16  C   UNL    20      -9.899   7.138  69.703  1.00  0.00    -0.162 C  
HETATM   17  C   UNL    20     -10.217   8.835  71.421  1.00  0.00    -0.280 C  
HETATM   18  H   UNL    20     -10.418   8.530  73.337  1.00  0.00     0.000 HD 
HETATM   19  C   UNL    20      -9.341   7.603  71.092  1.00  0.00    -0.154 C  
HETATM   20  H   UNL    20      -7.653   8.258  71.917  1.00  0.00     0.000 HD 
HETATM   21  O   UNL    20     -10.978   8.619  72.576  1.00  0.00    -0.316 OA 
HETATM   22  O   UNL    20      -7.991   7.977  71.076  1.00  0.00    -0.085 OA 
BRANCH  16  23
HETATM   23  O   UNL    20      -8.987   6.547  68.754  1.00  0.00    -0.125 OA 
BRANCH  23  24
HETATM   24  C   UNL    20      -9.038   6.879  67.346  1.00  0.00    -0.122 C  
HETATM   25  O   UNL    20      -7.812   6.507  66.744  1.00  0.00    -0.101 OA 
HETATM   26  C   UNL    20      -7.634   5.097  66.651  1.00  0.00    -0.088 C  
HETATM   27  H   UNL    20     -12.102   6.490  66.274  1.00  0.00     0.000 HD 
HETATM   28  C   UNL    20      -8.761   4.414  65.821  1.00  0.00    -0.120 C  
HETATM   29  O   UNL    20      -8.581   3.023  65.730  1.00  0.00    -0.106 OA 
HETATM   30  C   UNL    20     -10.123   4.764  66.403  1.00  0.00    -0.262 C  
HETATM   31  O   UNL    20     -11.405   6.840  66.817  1.00  0.00    -0.239 OA 
HETATM   32  H   UNL    20      -9.268   2.607  65.224  1.00  0.00     0.000 HD 
HETATM   33  O   UNL    20     -11.131   4.268  65.568  1.00  0.00    -0.633 OA 
HETATM   34  C   UNL    20     -10.174   6.308  66.461  1.00  0.00    -0.100 C  
HETATM   35  H   UNL    20     -11.982   4.486  65.931  1.00  0.00     0.000 HD 
BRANCH  26  36
HETATM   36  C   UNL    20      -6.292   4.844  65.919  1.00  0.00    -0.039 C  
HETATM   37  O   UNL    20      -5.708   3.662  66.381  1.00  0.00    -0.020 OA 
HETATM   38  H   UNL    20      -4.885   3.507  65.933  1.00  0.00     0.000 HD 
ENDBRANCH  26  36
ENDBRANCH  23  24
ENDBRANCH  16  23
BRANCH  16  39
HETATM   39  C   UNL    20     -10.971   6.046  70.007  1.00  0.00    -0.380 C  
HETATM   40  O   UNL    20     -10.937   5.677  71.359  1.00  0.00    -0.250 OA 
HETATM   41  H   UNL    20     -11.590   5.013  71.544  1.00  0.00     0.000 HD 
ENDBRANCH  16  39
ENDBRANCH  12  14
TORSDOF 5
ENDMDL
MODEL      111
REMARK 921   NORMALIZED FREE ENERGY PREDICTED BY IDOCK:   -4.92 KCAL/MOL
REMARK 922        TOTAL FREE ENERGY PREDICTED BY IDOCK:   -7.94 KCAL/MOL
REMARK 923 INTER-LIGAND FREE ENERGY PREDICTED BY IDOCK:   -6.84 KCAL/MOL
REMARK 924 INTRA-LIGAND FREE ENERGY PREDICTED BY IDOCK:   -1.10 KCAL/MOL
REMARK 927      BINDING AFFINITY PREDICTED BY RF-SCORE:    0.00 PKD
ROOT
HETATM    1  O   HOH     4     -13.110  15.466  70.029  1.00  0.00    -0.647 OA 
HETATM    2  H2  HOH     4     -12.447  15.603  69.362  1.00  0.00     0.000 HD 
HETATM    3 NA   UNL    13     -10.552  13.409  63.771  1.00  0.00    -0.368 Na 
HETATM    4  H1  HOH     4     -13.621  14.727  69.721  1.00  0.00     0.000 HD 
HETATM    5 NA   UNL    14     -11.537  17.192  68.092  1.00  0.00    -0.339 Na 
HETATM    6 FE   UNL    15     -11.128  16.572  65.032  1.00  0.00    -0.337 Fe 
HETATM    7 FE   UNL    16     -12.018  13.501  68.516  1.00  0.00    -0.250 Fe 
HETATM    8 FE   UNL    17      -9.323  16.461  68.365  1.00  0.00    -0.185 Fe 
HETATM    9 FE   UNL    18     -11.289  13.251  70.543  1.00  0.00    -0.432 Fe 
HETATM   10 FE   UNL    19      -6.560  13.795  69.001  1.00  0.00    -0.076 Fe 
HETATM   11  O   UNL    20      -9.348  13.525  68.623  1.00  0.00    -0.348 OA 
HETATM   12  C   UNL    20      -9.673  12.169  68.468  1.00  0.00    -0.149 C  
HETATM   13  H   UNL    20     -10.078  14.101  68.819  1.00  0.00     0.000 HD 
ENDROOT
BRANCH  12  14
HETATM   14  C   UNL    20      -8.486  11.231  68.149  1.00  0.00    -0.145 C  
HETATM   15  O   UNL    20      -8.848   9.884  68.325  1.00  0.00    -0.118 OA 
HETATM   16  C   UNL    20      -7.902   9.101  67.643  1.00  0.00    -0.096 C  
HETATM   17  C   UNL    20      -7.790  11.374  66.777  1.00  0.00    -0.157 C  
HETATM   18  H   UNL    20      -6.220  12.264  66.038  1.00  0.00     0.000 HD 
HETATM   19  C   UNL    20      -7.420   9.921  66.397  1.00  0.00    -0.101 C  
HETATM   20  H   UNL    20      -7.761  10.070  64.442  1.00  0.00     0.000 HD 
HETATM   21  O   UNL    20      -6.647  12.176  66.881  1.00  0.00    -0.119 OA 
HETATM   22  O   UNL    20      -8.053   9.574  65.197  1.00  0.00    -0.117 OA 
BRANCH  16  23
HETATM   23  O   UNL    20      -8.400   7.762  67.439  1.00  0.00    -0.121 OA 
BRANCH  23  24
HETATM   24  C   UNL    20      -9.808   7.450  67.561  1.00  0.00    -0.158 C  
HETATM   25  O   UNL    20     -10.180   6.593  66.497  1.00  0.00    -0.154 OA 
HETATM   26  C   UNL    20      -9.634   5.283  66.611  1.00  0.00    -0.152 C  
HETATM   27  H   UNL    20     -10.594   7.317  70.731  1.00  0.00     0.000 HD 
HETATM   28  C   UNL    20     -10.072   4.573  67.926  1.00  0.00     0.019 C  
HETATM   29  O   UNL    20      -9.532   3.280  68.033  1.00  0.00    -0.195 OA 
HETATM   30  C   UNL    20      -9.708   5.432  69.128  1.00  0.00    -0.159 C  
HETATM   31  O   UNL    20     -10.264   7.706  69.930  1.00  0.00    -0.205 OA 
HETATM   32  H   UNL    20      -9.799   2.847  68.835  1.00  0.00     0.000 HD 
HETATM   33  O   UNL    20     -10.233   4.857  70.292  1.00  0.00    -0.252 OA 
HETATM   34  C   UNL    20     -10.346   6.815  68.868  1.00  0.00    -0.192 C  
HETATM   35  H   UNL    20     -10.006   5.392  71.042  1.00  0.00     0.000 HD 
BRANCH  26  36
HETATM   36  C   UNL    20     -10.176   4.448  65.422  1.00  0.00    -0.228 C  
HETATM   37  O   UNL    20     -11.573   4.496  65.400  1.00  0.00    -0.970 OA 
HETATM   38  H   UNL    20     -11.905   3.984  64.671  1.00  0.00     0.000 HD 
ENDBRANCH  26  36
ENDBRANCH  23  24
ENDBRANCH  16  23
BRANCH  16  39
HETATM   39  C   UNL    20      -6.663   8.961  68.580  1.00  0.00    -0.060 C  
HETATM   40  O   UNL    20      -5.754   8.025  68.066  1.00  0.00    -0.032 OA 
HETATM   41  H   UNL    20      -4.999   7.940  68.637  1.00  0.00     0.000 HD 
ENDBRANCH  16  39
ENDBRANCH  12  14
TORSDOF 5
ENDMDL
MODEL      112
REMARK 921   NORMALIZED FREE ENERGY PREDICTED BY IDOCK:   -4.92 KCAL/MOL
REMARK 922        TOTAL FREE ENERGY PREDICTED BY IDOCK:   -7.94 KCAL/MOL
REMARK 923 INTER-LIGAND FREE ENERGY PREDICTED BY IDOCK:   -6.58 KCAL/MOL
REMARK 924 INTRA-LIGAND FREE ENERGY PREDICTED BY IDOCK:   -1.36 KCAL/MOL
REMARK 927      BINDING AFFINITY PREDICTED BY RF-SCORE:    0.00 PKD
ROOT
HETATM    1  O   HOH     4      -9.942  12.923  63.584  1.00  0.00    -0.708 OA 
HETATM    2  H2  HOH     4     -10.437  12.925  64.395  1.00  0.00     0.000 HD 
HETATM    3 NA   UNL    13     -10.103  14.885  70.371  1.00  0.00    -0.353 Na 
HETATM    4  H1  HOH     4      -9.119  13.347  63.797  1.00  0.00     0.000 HD 
HETATM    5 NA   UNL    14     -12.437  13.445  65.230  1.00  0.00    -0.340 Na 
HETATM    6 FE   UNL    15     -12.525  15.082  67.918  1.00  0.00    -0.484 Fe 
HETATM    7 FE   UNL    16      -8.847  12.766  66.057  1.00  0.00    -0.301 Fe 
HETATM    8 FE   UNL    17     -12.623  11.535  66.582  1.00  0.00     0.058 Fe 
HETATM    9 FE   UNL    18      -8.593  10.835  65.103  1.00  0.00    -0.153 Fe 
HETATM   10 FE   UNL    19     -11.226   8.603  68.725  1.00  0.00    -0.367 Fe 
HETATM   11  O   UNL    20      -9.923  10.793  67.503  1.00  0.00    -0.169 OA 
HETATM   12  C   UNL    20      -8.594  10.858  67.948  1.00  0.00    -0.130 C  
HETATM   13  H   UNL    20     -10.119  11.298  66.722  1.00  0.00     0.000 HD 
ENDROOT
BRANCH  12  14
HETATM   14  C   UNL    20      -8.275  10.037  69.218  1.00  0.00    -0.147 C  
HETATM   15  O   UNL    20      -8.836   8.750  69.139  1.00  0.00    -0.134 OA 
HETATM   16  C   UNL    20      -8.183   7.947  70.089  1.00  0.00    -0.125 C  
HETATM   17  C   UNL    20      -6.797   9.899  69.647  1.00  0.00    -0.076 C  
HETATM   18  H   UNL    20      -5.566  10.760  70.890  1.00  0.00     0.000 HD 
HETATM   19  C   UNL    20      -6.707   8.461  70.208  1.00  0.00    -0.036 C  
HETATM   20  H   UNL    20      -4.883   8.034  69.535  1.00  0.00     0.000 HD 
HETATM   21  O   UNL    20      -6.474  10.845  70.627  1.00  0.00    -0.335 OA 
HETATM   22  O   UNL    20      -5.778   7.723  69.463  1.00  0.00    -0.023 OA 
BRANCH  16  23
HETATM   23  O   UNL    20      -8.409   6.547  69.815  1.00  0.00    -0.124 OA 
BRANCH  23  24
HETATM   24  C   UNL    20      -9.743   5.988  69.780  1.00  0.00    -0.158 C  
HETATM   25  O   UNL    20     -10.180   5.934  68.435  1.00  0.00    -0.159 OA 
HETATM   26  C   UNL    20      -9.491   4.959  67.657  1.00  0.00    -0.141 C  
HETATM   27  H   UNL    20     -10.030   3.774  72.167  1.00  0.00     0.000 HD 
HETATM   28  C   UNL    20      -9.653   3.522  68.235  1.00  0.00    -0.095 C  
HETATM   29  O   UNL    20      -8.973   2.563  67.464  1.00  0.00    -0.130 OA 
HETATM   30  C   UNL    20      -9.204   3.490  69.688  1.00  0.00    -0.153 C  
HETATM   31  O   UNL    20      -9.865   4.627  71.784  1.00  0.00    -0.167 OA 
HETATM   32  H   UNL    20      -9.072   1.687  67.816  1.00  0.00     0.000 HD 
HETATM   33  O   UNL    20      -9.488   2.235  70.240  1.00  0.00    -0.121 OA 
HETATM   34  C   UNL    20     -10.012   4.596  70.404  1.00  0.00    -0.230 C  
HETATM   35  H   UNL    20      -9.208   2.215  71.147  1.00  0.00     0.000 HD 
BRANCH  26  36
HETATM   36  C   UNL    20     -10.115   4.969  66.238  1.00  0.00    -0.247 C  
HETATM   37  O   UNL    20     -11.234   5.807  66.212  1.00  0.00    -0.756 OA 
HETATM   38  H   UNL    20     -11.617   5.813  65.342  1.00  0.00     0.000 HD 
ENDBRANCH  26  36
ENDBRANCH  23  24
ENDBRANCH  16  23
BRANCH  16  39
HETATM   39  C   UNL    20      -8.857   8.230  71.467  1.00  0.00    -0.168 C  
HETATM   40  O   UNL    20      -8.532   7.230  72.395  1.00  0.00    -0.110 OA 
HETATM   41  H   UNL    20      -8.941   7.403  73.234  1.00  0.00     0.000 HD 
ENDBRANCH  16  39
ENDBRANCH  12  14
TORSDOF 5
ENDMDL
MODEL      113
REMARK 921   NORMALIZED FREE ENERGY PREDICTED BY IDOCK:   -4.92 KCAL/MOL
REMARK 922        TOTAL FREE ENERGY PREDICTED BY IDOCK:   -7.94 KCAL/MOL
REMARK 923 INTER-LIGAND FREE ENERGY PREDICTED BY IDOCK:   -6.57 KCAL/MOL
REMARK 924 INTRA-LIGAND FREE ENERGY PREDICTED BY IDOCK:   -1.37 KCAL/MOL
REMARK 927      BINDING AFFINITY PREDICTED BY RF-SCORE:    0.00 PKD
ROOT
HETATM    1  O   HOH     4     -10.709  16.199  64.820  1.00  0.00    -0.687 OA 
HETATM    2  H2  HOH     4     -10.672  15.785  65.674  1.00  0.00     0.000 HD 
HETATM    3 NA   UNL    13      -6.571  13.593  69.922  1.00  0.00    -0.112 Na 
HETATM    4  H1  HOH     4      -9.803  16.266  64.540  1.00  0.00     0.000 HD 
HETATM    5 NA   UNL    14     -11.420  15.997  67.762  1.00  0.00    -0.312 Na 
HETATM    6 FE   UNL    15      -9.350  15.635  70.107  1.00  0.00    -0.247 Fe 
HETATM    7 FE   UNL    16      -8.839  14.389  65.574  1.00  0.00    -0.467 Fe 
HETATM    8 FE   UNL    17     -11.905  13.720  68.063  1.00  0.00    -0.248 Fe 
HETATM    9 FE   UNL    18     -10.121  13.436  64.107  1.00  0.00    -0.367 Fe 
HETATM   10 FE   UNL    19     -11.428   9.913  67.411  1.00  0.00    -0.301 Fe 
HETATM   11  O   UNL    20      -9.943  12.149  66.524  1.00  0.00    -0.206 OA 
HETATM   12  C   UNL    20      -8.757  11.714  65.914  1.00  0.00     0.002 C  
HETATM   13  H   UNL    20     -10.190  13.049  66.345  1.00  0.00     0.000 HD 
ENDROOT
BRANCH  12  14
HETATM   14  C   UNL    20      -8.356  10.250  66.205  1.00  0.00    -0.134 C  
HETATM   15  O   UNL    20      -8.399   9.981  67.585  1.00  0.00    -0.114 OA 
HETATM   16  C   UNL    20      -8.435   8.586  67.741  1.00  0.00    -0.130 C  
HETATM   17  C   UNL    20      -9.113   9.125  65.465  1.00  0.00    -0.219 C  
HETATM   18  H   UNL    20      -8.865   8.014  63.881  1.00  0.00     0.000 HD 
HETATM   19  C   UNL    20      -9.211   7.993  66.515  1.00  0.00    -0.188 C  
HETATM   20  H   UNL    20     -11.029   7.345  66.027  1.00  0.00     0.000 HD 
HETATM   21  O   UNL    20      -8.399   8.706  64.336  1.00  0.00    -0.164 OA 
HETATM   22  O   UNL    20     -10.558   7.704  66.769  1.00  0.00    -0.325 OA 
BRANCH  16  23
HETATM   23  O   UNL    20      -8.870   8.232  69.071  1.00  0.00    -0.142 OA 
BRANCH  23  24
HETATM   24  C   UNL    20      -8.143   7.274  69.876  1.00  0.00    -0.127 C  
HETATM   25  O   UNL    20      -8.256   7.642  71.238  1.00  0.00    -0.097 OA 
HETATM   26  C   UNL    20      -9.565   7.454  71.767  1.00  0.00    -0.149 C  
HETATM   27  H   UNL    20      -8.364   4.328  68.477  1.00  0.00     0.000 HD 
HETATM   28  C   UNL    20     -10.034   5.973  71.667  1.00  0.00    -0.179 C  
HETATM   29  O   UNL    20     -11.326   5.791  72.191  1.00  0.00    -0.280 OA 
HETATM   30  C   UNL    20      -9.943   5.492  70.226  1.00  0.00    -0.216 C  
HETATM   31  O   UNL    20      -8.152   5.252  68.535  1.00  0.00    -0.087 OA 
HETATM   32  H   UNL    20     -11.612   4.888  72.130  1.00  0.00     0.000 HD 
HETATM   33  O   UNL    20     -10.227   4.122  70.169  1.00  0.00    -0.062 OA 
HETATM   34  C   UNL    20      -8.489   5.767  69.780  1.00  0.00    -0.123 C  
HETATM   35  H   UNL    20     -10.170   3.822  69.270  1.00  0.00     0.000 HD 
BRANCH  26  36
HETATM   36  C   UNL    20      -9.520   7.834  73.268  1.00  0.00    -0.283 C  
HETATM   37  O   UNL    20     -10.793   7.715  73.832  1.00  0.00    -0.469 OA 
HETATM   38  H   UNL    20     -10.766   7.948  74.753  1.00  0.00     0.000 HD 
ENDBRANCH  26  36
ENDBRANCH  23  24
ENDBRANCH  16  23
BRANCH  16  39
HETATM   39  C   UNL    20      -6.967   8.073  67.617  1.00  0.00    -0.075 C  
HETATM   40  O   UNL    20      -6.907   6.924  66.816  1.00  0.00    -0.060 OA 
HETATM   41  H   UNL    20      -6.013   6.613  66.740  1.00  0.00     0.000 HD 
ENDBRANCH  16  39
ENDBRANCH  12  14
TORSDOF 5
ENDMDL
MODEL      114
REMARK 921   NORMALIZED FREE ENERGY PREDICTED BY IDOCK:   -4.91 KCAL/MOL
REMARK 922        TOTAL FREE ENERGY PREDICTED BY IDOCK:   -7.93 KCAL/MOL
REMARK 923 INTER-LIGAND FREE ENERGY PREDICTED BY IDOCK:   -6.27 KCAL/MOL
REMARK 924 INTRA-LIGAND FREE ENERGY PREDICTED BY IDOCK:   -1.66 KCAL/MOL
REMARK 927      BINDING AFFINITY PREDICTED BY RF-SCORE:    0.00 PKD
ROOT
HETATM    1  O   HOH     4      -9.192   2.734  68.436  1.00  0.00    -0.156 OA 
HETATM    2  H2  HOH     4      -9.514   3.370  67.807  1.00  0.00     0.000 HD 
HETATM    3 NA   UNL    13      -7.807   6.442  62.581  1.00  0.00    -0.056 Na 
HETATM    4  H1  HOH     4      -8.303   2.543  68.158  1.00  0.00     0.000 HD 
HETATM    5 NA   UNL    14     -11.245   3.794  66.470  1.00  0.00     0.036 Na 
HETATM    6 FE   UNL    15     -10.632   4.688  63.513  1.00  0.00    -0.363 Fe 
HETATM    7 FE   UNL    16      -7.652   4.580  67.184  1.00  0.00    -0.074 Fe 
HETATM    8 FE   UNL    17     -11.358   6.087  66.962  1.00  0.00    -0.250 Fe 
HETATM    9 FE   UNL    18      -7.794   5.150  69.272  1.00  0.00    -0.069 Fe 
HETATM   10 FE   UNL    19      -9.878   9.524  68.026  1.00  0.00    -0.139 Fe 
HETATM   11  O   UNL    20      -8.622   7.053  67.477  1.00  0.00    -0.121 OA 
HETATM   12  C   UNL    20      -7.231   7.234  67.420  1.00  0.00    -0.090 C  
HETATM   13  H   UNL    20      -8.914   6.153  67.569  1.00  0.00     0.000 HD 
ENDROOT
BRANCH  12  14
HETATM   14  C   UNL    20      -6.755   8.697  67.270  1.00  0.00    -0.063 C  
HETATM   15  O   UNL    20      -7.570   9.401  66.365  1.00  0.00    -0.096 OA 
HETATM   16  C   UNL    20      -7.357  10.772  66.585  1.00  0.00    -0.134 C  
HETATM   17  C   UNL    20      -6.600   9.548  68.550  1.00  0.00    -0.053 C  
HETATM   18  H   UNL    20      -5.174  10.075  69.773  1.00  0.00     0.000 HD 
HETATM   19  C   UNL    20      -7.045  10.963  68.110  1.00  0.00    -0.077 C  
HETATM   20  H   UNL    20      -7.957  11.485  69.800  1.00  0.00     0.000 HD 
HETATM   21  O   UNL    20      -5.269   9.551  68.986  1.00  0.00    -0.037 OA 
HETATM   22  O   UNL    20      -8.145  11.370  68.877  1.00  0.00    -0.137 OA 
BRANCH  16  23
HETATM   23  O   UNL    20      -8.414  11.554  65.991  1.00  0.00    -0.124 OA 
BRANCH  23  24
HETATM   24  C   UNL    20      -9.738  11.007  65.787  1.00  0.00    -0.224 C  
HETATM   25  O   UNL    20     -10.592  11.482  66.811  1.00  0.00    -0.229 OA 
HETATM   26  C   UNL    20     -10.888  12.872  66.699  1.00  0.00    -0.267 C  
HETATM   27  H   UNL    20     -10.280  10.709  62.577  1.00  0.00     0.000 HD 
HETATM   28  C   UNL    20     -11.578  13.221  65.348  1.00  0.00    -0.321 C  
HETATM   29  O   UNL    20     -11.869  14.592  65.242  1.00  0.00    -0.356 OA 
HETATM   30  C   UNL    20     -10.721  12.741  64.185  1.00  0.00    -0.412 C  
HETATM   31  O   UNL    20      -9.832  10.567  63.403  1.00  0.00    -0.315 OA 
HETATM   32  H   UNL    20     -12.290  14.805  64.418  1.00  0.00     0.000 HD 
HETATM   33  O   UNL    20     -11.415  12.927  62.983  1.00  0.00    -0.770 OA 
HETATM   34  C   UNL    20     -10.468  11.237  64.440  1.00  0.00    -0.345 C  
HETATM   35  H   UNL    20     -10.881  12.628  62.257  1.00  0.00     0.000 HD 
BRANCH  26  36
HETATM   36  C   UNL    20     -11.875  13.231  67.839  1.00  0.00    -0.349 C  
HETATM   37  O   UNL    20     -12.021  12.145  68.707  1.00  0.00    -0.306 OA 
HETATM   38  H   UNL    20     -12.627  12.365  69.405  1.00  0.00     0.000 HD 
ENDBRANCH  26  36
ENDBRANCH  23  24
ENDBRANCH  16  23
BRANCH  16  39
HETATM   39  C   UNL    20      -6.053  11.161  65.822  1.00  0.00     0.067 C  
HETATM   40  O   UNL    20      -5.421  12.250  66.439  1.00  0.00    -0.440 OA 
HETATM   41  H   UNL    20      -4.627  12.486  65.974  1.00  0.00     0.000 HD 
ENDBRANCH  16  39
ENDBRANCH  12  14
TORSDOF 5
ENDMDL
MODEL      115
REMARK 921   NORMALIZED FREE ENERGY PREDICTED BY IDOCK:   -4.91 KCAL/MOL
REMARK 922        TOTAL FREE ENERGY PREDICTED BY IDOCK:   -7.93 KCAL/MOL
REMARK 923 INTER-LIGAND FREE ENERGY PREDICTED BY IDOCK:   -7.05 KCAL/MOL
REMARK 924 INTRA-LIGAND FREE ENERGY PREDICTED BY IDOCK:   -0.88 KCAL/MOL
REMARK 927      BINDING AFFINITY PREDICTED BY RF-SCORE:    0.00 PKD
ROOT
HETATM    1  O   HOH     4     -12.718  11.426  62.856  1.00  0.00    -0.951 OA 
HETATM    2  H2  HOH     4     -12.521  12.015  63.575  1.00  0.00     0.000 HD 
HETATM    3 NA   UNL    13      -7.997  15.832  65.728  1.00  0.00    -0.231 Na 
HETATM    4  H1  HOH     4     -11.935  11.424  62.318  1.00  0.00     0.000 HD 
HETATM    5 NA   UNL    14     -13.344  13.760  64.691  1.00  0.00    -0.636 Na 
HETATM    6 FE   UNL    15     -11.406  16.169  65.286  1.00  0.00    -0.317 Fe 
HETATM    7 FE   UNL    16     -10.251  11.793  63.916  1.00  0.00    -0.235 Fe 
HETATM    8 FE   UNL    17     -12.747  12.972  66.820  1.00  0.00    -0.317 Fe 
HETATM    9 FE   UNL    18     -10.915   9.804  64.470  1.00  0.00    -0.145 Fe 
HETATM   10 FE   UNL    19     -10.568  10.946  69.328  1.00  0.00    -0.167 Fe 
HETATM   11  O   UNL    20     -10.241  11.441  66.565  1.00  0.00    -0.209 OA 
HETATM   12  C   UNL    20      -8.969  11.011  66.157  1.00  0.00    -0.191 C  
HETATM   13  H   UNL    20     -10.865  11.595  65.865  1.00  0.00     0.000 HD 
ENDROOT
BRANCH  12  14
HETATM   14  C   UNL    20      -7.953  10.760  67.295  1.00  0.00    -0.117 C  
HETATM   15  O   UNL    20      -8.584  10.190  68.416  1.00  0.00    -0.114 OA 
HETATM   16  C   UNL    20      -7.582   9.620  69.218  1.00  0.00    -0.091 C  
HETATM   17  C   UNL    20      -6.688   9.935  66.975  1.00  0.00    -0.075 C  
HETATM   18  H   UNL    20      -4.826  10.268  66.499  1.00  0.00     0.000 HD 
HETATM   19  C   UNL    20      -6.442   9.118  68.266  1.00  0.00    -0.055 C  
HETATM   20  H   UNL    20      -5.805   7.445  67.397  1.00  0.00     0.000 HD 
HETATM   21  O   UNL    20      -5.604  10.775  66.695  1.00  0.00    -0.056 OA 
HETATM   22  O   UNL    20      -6.495   7.749  67.974  1.00  0.00    -0.051 OA 
BRANCH  16  23
HETATM   23  O   UNL    20      -8.152   8.691  70.164  1.00  0.00    -0.102 OA 
BRANCH  23  24
HETATM   24  C   UNL    20      -9.107   7.684  69.755  1.00  0.00    -0.147 C  
HETATM   25  O   UNL    20      -9.014   6.581  70.637  1.00  0.00    -0.146 OA 
HETATM   26  C   UNL    20      -9.507   6.861  71.944  1.00  0.00    -0.141 C  
HETATM   27  H   UNL    20     -11.748   9.163  68.522  1.00  0.00     0.000 HD 
HETATM   28  C   UNL    20     -11.002   7.293  71.930  1.00  0.00    -0.230 C  
HETATM   29  O   UNL    20     -11.485   7.567  73.222  1.00  0.00    -0.613 OA 
HETATM   30  C   UNL    20     -11.194   8.482  70.999  1.00  0.00    -0.268 C  
HETATM   31  O   UNL    20     -10.828   8.940  68.595  1.00  0.00    -0.126 OA 
HETATM   32  H   UNL    20     -12.398   7.831  73.213  1.00  0.00     0.000 HD 
HETATM   33  O   UNL    20     -12.559   8.769  70.880  1.00  0.00    -0.491 OA 
HETATM   34  C   UNL    20     -10.608   8.048  69.636  1.00  0.00    -0.223 C  
HETATM   35  H   UNL    20     -12.679   9.511  70.299  1.00  0.00     0.000 HD 
BRANCH  26  36
HETATM   36  C   UNL    20      -9.402   5.555  72.771  1.00  0.00    -0.138 C  
HETATM   37  O   UNL    20      -9.370   5.852  74.136  1.00  0.00    -0.130 OA 
HETATM   38  H   UNL    20      -9.306   5.051  74.644  1.00  0.00     0.000 HD 
ENDBRANCH  26  36
ENDBRANCH  23  24
ENDBRANCH  16  23
BRANCH  16  39
HETATM   39  C   UNL    20      -6.964  10.774  70.067  1.00  0.00    -0.084 C  
HETATM   40  O   UNL    20      -6.063  10.268  71.015  1.00  0.00    -0.253 OA 
HETATM   41  H   UNL    20      -5.687  10.971  71.531  1.00  0.00     0.000 HD 
ENDBRANCH  16  39
ENDBRANCH  12  14
TORSDOF 5
ENDMDL
MODEL      116
REMARK 921   NORMALIZED FREE ENERGY PREDICTED BY IDOCK:   -4.90 KCAL/MOL
REMARK 922        TOTAL FREE ENERGY PREDICTED BY IDOCK:   -7.92 KCAL/MOL
REMARK 923 INTER-LIGAND FREE ENERGY PREDICTED BY IDOCK:   -6.19 KCAL/MOL
REMARK 924 INTRA-LIGAND FREE ENERGY PREDICTED BY IDOCK:   -1.73 KCAL/MOL
REMARK 927      BINDING AFFINITY PREDICTED BY RF-SCORE:    0.00 PKD
ROOT
HETATM    1  O   HOH     4     -11.964  12.984  63.202  1.00  0.00    -0.785 OA 
HETATM    2  H2  HOH     4     -11.736  12.895  64.120  1.00  0.00     0.000 HD 
HETATM    3 NA   UNL    13      -6.754  12.728  67.970  1.00  0.00    -0.061 Na 
HETATM    4  H1  HOH     4     -11.133  13.042  62.746  1.00  0.00     0.000 HD 
HETATM    5 NA   UNL    14     -12.191  13.737  66.132  1.00  0.00    -0.325 Na 
HETATM    6 FE   UNL    15      -9.766  14.416  68.023  1.00  0.00    -0.189 Fe 
HETATM    7 FE   UNL    16      -9.738  11.744  64.121  1.00  0.00    -0.220 Fe 
HETATM    8 FE   UNL    17     -12.255  11.666  67.237  1.00  0.00    -0.260 Fe 
HETATM    9 FE   UNL    18     -11.053  10.219  63.316  1.00  0.00    -0.416 Fe 
HETATM   10 FE   UNL    19     -11.275   7.937  67.762  1.00  0.00    -0.391 Fe 
HETATM   11  O   UNL    20     -10.316   9.868  65.935  1.00  0.00    -0.223 OA 
HETATM   12  C   UNL    20      -9.179   9.373  65.280  1.00  0.00    -0.238 C  
HETATM   13  H   UNL    20     -10.728  10.622  65.528  1.00  0.00     0.000 HD 
ENDROOT
BRANCH  12  14
HETATM   14  C   UNL    20      -8.509   8.147  65.943  1.00  0.00    -0.142 C  
HETATM   15  O   UNL    20      -8.177   8.418  67.282  1.00  0.00    -0.111 OA 
HETATM   16  C   UNL    20      -7.970   7.185  67.922  1.00  0.00    -0.115 C  
HETATM   17  C   UNL    20      -9.250   6.792  65.888  1.00  0.00     0.040 C  
HETATM   18  H   UNL    20      -9.234   5.178  64.794  1.00  0.00     0.000 HD 
HETATM   19  C   UNL    20      -8.925   6.138  67.252  1.00  0.00    -0.112 C  
HETATM   20  H   UNL    20     -10.692   5.272  67.551  1.00  0.00     0.000 HD 
HETATM   21  O   UNL    20      -8.778   6.010  64.827  1.00  0.00    -0.034 OA 
HETATM   22  O   UNL    20     -10.113   5.906  67.957  1.00  0.00    -0.138 OA 
BRANCH  16  23
HETATM   23  O   UNL    20      -8.012   7.341  69.357  1.00  0.00    -0.120 OA 
BRANCH  23  24
HETATM   24  C   UNL    20      -7.814   8.629  69.985  1.00  0.00    -0.103 C  
HETATM   25  O   UNL    20      -8.970   9.420  69.782  1.00  0.00    -0.158 OA 
HETATM   26  C   UNL    20     -10.100   8.966  70.521  1.00  0.00    -0.205 C  
HETATM   27  H   UNL    20      -5.991   8.232  72.669  1.00  0.00     0.000 HD 
HETATM   28  C   UNL    20      -9.835   8.952  72.055  1.00  0.00    -0.255 C  
HETATM   29  O   UNL    20     -10.953   8.505  72.780  1.00  0.00    -0.251 OA 
HETATM   30  C   UNL    20      -8.599   8.119  72.364  1.00  0.00    -0.185 C  
HETATM   31  O   UNL    20      -6.204   8.185  71.744  1.00  0.00    -0.039 OA 
HETATM   32  H   UNL    20     -10.791   8.497  73.716  1.00  0.00     0.000 HD 
HETATM   33  O   UNL    20      -8.285   8.232  73.724  1.00  0.00    -0.226 OA 
HETATM   34  C   UNL    20      -7.466   8.706  71.492  1.00  0.00    -0.101 C  
HETATM   35  H   UNL    20      -7.514   7.712  73.917  1.00  0.00     0.000 HD 
BRANCH  26  36
HETATM   36  C   UNL    20     -11.261   9.957  70.252  1.00  0.00    -0.301 C  
HETATM   37  O   UNL    20     -11.750   9.783  68.955  1.00  0.00    -0.455 OA 
HETATM   38  H   UNL    20     -12.462  10.390  68.790  1.00  0.00     0.000 HD 
ENDBRANCH  26  36
ENDBRANCH  23  24
ENDBRANCH  16  23
BRANCH  16  39
HETATM   39  C   UNL    20      -6.517   6.731  67.582  1.00  0.00    -0.049 C  
HETATM   40  O   UNL    20      -6.016   5.878  68.576  1.00  0.00    -0.018 OA 
HETATM   41  H   UNL    20      -5.132   5.601  68.368  1.00  0.00     0.000 HD 
ENDBRANCH  16  39
ENDBRANCH  12  14
TORSDOF 5
ENDMDL
MODEL      117
REMARK 921   NORMALIZED FREE ENERGY PREDICTED BY IDOCK:   -4.86 KCAL/MOL
REMARK 922        TOTAL FREE ENERGY PREDICTED BY IDOCK:   -7.86 KCAL/MOL
REMARK 923 INTER-LIGAND FREE ENERGY PREDICTED BY IDOCK:   -6.39 KCAL/MOL
REMARK 924 INTRA-LIGAND FREE ENERGY PREDICTED BY IDOCK:   -1.47 KCAL/MOL
REMARK 927      BINDING AFFINITY PREDICTED BY RF-SCORE:    0.00 PKD
ROOT
HETATM    1  O   HOH     4      -6.435  18.157  68.367  1.00  0.00    -0.197 OA 
HETATM    2  H2  HOH     4      -7.352  17.909  68.401  1.00  0.00     0.000 HD 
HETATM    3 NA   UNL    13     -11.295  13.989  71.359  1.00  0.00    -0.465 Na 
HETATM    4  H1  HOH     4      -6.002  17.581  68.986  1.00  0.00     0.000 HD 
HETATM    5 NA   UNL    14      -9.397  18.767  68.617  1.00  0.00    -0.275 Na 
HETATM    6 FE   UNL    15     -11.374  17.362  70.624  1.00  0.00    -0.547 Fe 
HETATM    7 FE   UNL    16      -7.334  15.649  68.863  1.00  0.00    -0.110 Fe 
HETATM    8 FE   UNL    17     -10.384  17.422  66.965  1.00  0.00    -0.270 Fe 
HETATM    9 FE   UNL    18      -6.417  15.641  66.898  1.00  0.00    -0.154 Fe 
HETATM   10 FE   UNL    19     -10.726  14.209  64.797  1.00  0.00    -0.295 Fe 
HETATM   11  O   UNL    20      -9.029  14.805  66.977  1.00  0.00    -0.212 OA 
HETATM   12  C   UNL    20      -8.373  13.638  67.396  1.00  0.00    -0.192 C  
HETATM   13  H   UNL    20      -8.654  15.620  67.291  1.00  0.00     0.000 HD 
ENDROOT
BRANCH  12  14
HETATM   14  C   UNL    20      -8.982  12.311  66.886  1.00  0.00    -0.207 C  
HETATM   15  O   UNL    20      -8.307  11.205  67.432  1.00  0.00    -0.129 OA 
HETATM   16  C   UNL    20      -9.138  10.084  67.272  1.00  0.00    -0.138 C  
HETATM   17  C   UNL    20     -10.501  12.091  67.060  1.00  0.00    -0.221 C  
HETATM   18  H   UNL    20     -12.123  12.290  65.995  1.00  0.00     0.000 HD 
HETATM   19  C   UNL    20     -10.622  10.579  67.365  1.00  0.00    -0.263 C  
HETATM   20  H   UNL    20     -12.113  10.699  68.678  1.00  0.00     0.000 HD 
HETATM   21  O   UNL    20     -11.189  12.426  65.888  1.00  0.00    -0.306 OA 
HETATM   22  O   UNL    20     -11.213  10.399  68.622  1.00  0.00    -0.256 OA 
BRANCH  16  23
HETATM   23  O   UNL    20      -8.713   9.007  68.134  1.00  0.00    -0.129 OA 
BRANCH  23  24
HETATM   24  C   UNL    20      -8.562   7.656  67.640  1.00  0.00    -0.116 C  
HETATM   25  O   UNL    20      -7.337   7.129  68.114  1.00  0.00    -0.091 OA 
HETATM   26  C   UNL    20      -7.339   6.872  69.515  1.00  0.00    -0.091 C  
HETATM   27  H   UNL    20     -11.511   6.258  67.453  1.00  0.00     0.000 HD 
HETATM   28  C   UNL    20      -8.447   5.859  69.928  1.00  0.00    -0.129 C  
HETATM   29  O   UNL    20      -8.445   5.607  71.310  1.00  0.00    -0.124 OA 
HETATM   30  C   UNL    20      -9.807   6.350  69.452  1.00  0.00    -0.149 C  
HETATM   31  O   UNL    20     -10.840   6.905  67.273  1.00  0.00    -0.309 OA 
HETATM   32  H   UNL    20      -9.121   4.989  71.562  1.00  0.00     0.000 HD 
HETATM   33  O   UNL    20     -10.773   5.367  69.697  1.00  0.00    -0.308 OA 
HETATM   34  C   UNL    20      -9.658   6.601  67.934  1.00  0.00    -0.119 C  
HETATM   35  H   UNL    20     -11.622   5.673  69.400  1.00  0.00     0.000 HD 
BRANCH  26  36
HETATM   36  C   UNL    20      -5.969   6.243  69.876  1.00  0.00    -0.018 C  
HETATM   37  O   UNL    20      -5.993   4.868  69.630  1.00  0.00    -0.016 OA 
HETATM   38  H   UNL    20      -5.153   4.482  69.850  1.00  0.00     0.000 HD 
ENDBRANCH  26  36
ENDBRANCH  23  24
ENDBRANCH  16  23
BRANCH  16  39
HETATM   39  C   UNL    20      -8.939   9.571  65.813  1.00  0.00    -0.179 C  
HETATM   40  O   UNL    20     -10.159   9.548  65.122  1.00  0.00    -0.373 OA 
HETATM   41  H   UNL    20     -10.038   9.236  64.234  1.00  0.00     0.000 HD 
ENDBRANCH  16  39
ENDBRANCH  12  14
TORSDOF 5
ENDMDL
MODEL      118
REMARK 921   NORMALIZED FREE ENERGY PREDICTED BY IDOCK:   -4.84 KCAL/MOL
REMARK 922        TOTAL FREE ENERGY PREDICTED BY IDOCK:   -7.84 KCAL/MOL
REMARK 923 INTER-LIGAND FREE ENERGY PREDICTED BY IDOCK:   -6.72 KCAL/MOL
REMARK 924 INTRA-LIGAND FREE ENERGY PREDICTED BY IDOCK:   -1.12 KCAL/MOL
REMARK 927      BINDING AFFINITY PREDICTED BY RF-SCORE:    0.00 PKD
ROOT
HETATM    1  O   HOH     4     -11.732  16.434  63.794  1.00  0.00    -1.553 OA 
HETATM    2  H2  HOH     4     -11.320  16.650  64.623  1.00  0.00     0.000 HD 
HETATM    3 NA   UNL    13      -5.697  16.734  67.460  1.00  0.00    -0.094 Na 
HETATM    4  H1  HOH     4     -11.029  16.103  63.248  1.00  0.00     0.000 HD 
HETATM    5 NA   UNL    14     -11.155  18.284  66.129  1.00  0.00    -0.338 Na 
HETATM    6 FE   UNL    15      -8.284  19.008  67.202  1.00  0.00    -0.245 Fe 
HETATM    7 FE   UNL    16      -9.601  15.128  64.840  1.00  0.00    -0.272 Fe 
HETATM    8 FE   UNL    17     -11.320  16.882  68.005  1.00  0.00    -0.338 Fe 
HETATM    9 FE   UNL    18     -11.306  13.792  64.945  1.00  0.00    -0.304 Fe 
HETATM   10 FE   UNL    19     -10.899  13.524  69.924  1.00  0.00    -0.373 Fe 
HETATM   11  O   UNL    20     -10.064  14.300  67.339  1.00  0.00    -0.243 OA 
HETATM   12  C   UNL    20      -9.207  13.325  66.807  1.00  0.00    -0.233 C  
HETATM   13  H   UNL    20     -10.422  14.917  66.710  1.00  0.00     0.000 HD 
ENDROOT
BRANCH  12  14
HETATM   14  C   UNL    20      -8.625  12.322  67.829  1.00  0.00    -0.170 C  
HETATM   15  O   UNL    20      -9.093  11.019  67.579  1.00  0.00    -0.137 OA 
HETATM   16  C   UNL    20      -8.236  10.128  68.245  1.00  0.00    -0.110 C  
HETATM   17  C   UNL    20      -7.091  12.263  68.003  1.00  0.00    -0.099 C  
HETATM   18  H   UNL    20      -5.741  13.005  69.200  1.00  0.00     0.000 HD 
HETATM   19  C   UNL    20      -6.803  10.764  68.248  1.00  0.00    -0.067 C  
HETATM   20  H   UNL    20      -5.086  10.662  67.246  1.00  0.00     0.000 HD 
HETATM   21  O   UNL    20      -6.684  13.041  69.094  1.00  0.00    -0.105 OA 
HETATM   22  O   UNL    20      -5.954  10.277  67.245  1.00  0.00    -0.052 OA 
BRANCH  16  23
HETATM   23  O   UNL    20      -8.398   8.787  67.736  1.00  0.00    -0.117 OA 
BRANCH  23  24
HETATM   24  C   UNL    20      -9.305   8.495  66.647  1.00  0.00    -0.189 C  
HETATM   25  O   UNL    20      -8.552   8.305  65.463  1.00  0.00    -0.157 OA 
HETATM   26  C   UNL    20      -7.789   7.102  65.468  1.00  0.00    -0.115 C  
HETATM   27  H   UNL    20     -11.847   6.800  67.809  1.00  0.00     0.000 HD 
HETATM   28  C   UNL    20      -8.682   5.837  65.635  1.00  0.00    -0.149 C  
HETATM   29  O   UNL    20      -7.925   4.653  65.638  1.00  0.00    -0.094 OA 
HETATM   30  C   UNL    20      -9.532   5.960  66.891  1.00  0.00    -0.135 C  
HETATM   31  O   UNL    20     -11.245   7.532  67.739  1.00  0.00     0.077 OA 
HETATM   32  H   UNL    20      -8.470   3.881  65.739  1.00  0.00     0.000 HD 
HETATM   33  O   UNL    20     -10.433   4.890  66.954  1.00  0.00    -0.221 OA 
HETATM   34  C   UNL    20     -10.287   7.302  66.761  1.00  0.00    -0.241 C  
HETATM   35  H   UNL    20     -10.964   4.967  67.739  1.00  0.00     0.000 HD 
BRANCH  26  36
HETATM   36  C   UNL    20      -7.076   6.997  64.096  1.00  0.00    -0.063 C  
HETATM   37  O   UNL    20      -5.721   6.706  64.280  1.00  0.00    -0.029 OA 
HETATM   38  H   UNL    20      -5.284   6.642  63.439  1.00  0.00     0.000 HD 
ENDBRANCH  26  36
ENDBRANCH  23  24
ENDBRANCH  16  23
BRANCH  16  39
HETATM   39  C   UNL    20      -8.695  10.080  69.736  1.00  0.00    -0.179 C  
HETATM   40  O   UNL    20      -7.591   9.974  70.593  1.00  0.00    -0.379 OA 
HETATM   41  H   UNL    20      -7.871   9.945  71.500  1.00  0.00     0.000 HD 
ENDBRANCH  16  39
ENDBRANCH  12  14
TORSDOF 5
ENDMDL
MODEL      119
REMARK 921   NORMALIZED FREE ENERGY PREDICTED BY IDOCK:   -4.84 KCAL/MOL
REMARK 922        TOTAL FREE ENERGY PREDICTED BY IDOCK:   -7.84 KCAL/MOL
REMARK 923 INTER-LIGAND FREE ENERGY PREDICTED BY IDOCK:   -6.89 KCAL/MOL
REMARK 924 INTRA-LIGAND FREE ENERGY PREDICTED BY IDOCK:   -0.95 KCAL/MOL
REMARK 927      BINDING AFFINITY PREDICTED BY RF-SCORE:    0.00 PKD
ROOT
HETATM    1  O   HOH     4      -9.699   7.584  73.966  1.00  0.00    -0.381 OA 
HETATM    2  H2  HOH     4     -10.338   7.880  73.328  1.00  0.00     0.000 HD 
HETATM    3 NA   UNL    13     -12.324   6.771  67.455  1.00  0.00    -0.522 Na 
HETATM    4  H1  HOH     4      -9.199   6.911  73.519  1.00  0.00     0.000 HD 
HETATM    5 NA   UNL    14     -12.516   8.280  73.080  1.00  0.00    -0.513 Na 
HETATM    6 FE   UNL    15     -13.925   7.181  70.487  1.00  0.00    -0.606 Fe 
HETATM    7 FE   UNL    16      -9.288   7.645  71.288  1.00  0.00    -0.140 Fe 
HETATM    8 FE   UNL    17     -12.245  10.281  71.882  1.00  0.00    -0.324 Fe 
HETATM    9 FE   UNL    18      -8.047   9.186  72.178  1.00  0.00    -0.125 Fe 
HETATM   10 FE   UNL    19     -10.366  12.722  69.504  1.00  0.00    -0.389 Fe 
HETATM   11  O   UNL    20      -9.799  10.057  70.254  1.00  0.00    -0.365 OA 
HETATM   12  C   UNL    20      -8.766   9.551  69.451  1.00  0.00    -0.165 C  
HETATM   13  H   UNL    20      -9.980   9.563  71.046  1.00  0.00     0.000 HD 
ENDROOT
BRANCH  12  14
HETATM   14  C   UNL    20      -8.471  10.352  68.162  1.00  0.00    -0.121 C  
HETATM   15  O   UNL    20      -8.915  11.681  68.284  1.00  0.00    -0.174 OA 
HETATM   16  C   UNL    20      -8.267  12.435  67.291  1.00  0.00    -0.184 C  
HETATM   17  C   UNL    20      -7.020  10.370  67.630  1.00  0.00    -0.083 C  
HETATM   18  H   UNL    20      -5.956   9.419  66.300  1.00  0.00     0.000 HD 
HETATM   19  C   UNL    20      -6.851  11.801  67.066  1.00  0.00    -0.137 C  
HETATM   20  H   UNL    20      -4.955  12.069  67.608  1.00  0.00     0.000 HD 
HETATM   21  O   UNL    20      -6.848   9.408  66.627  1.00  0.00    -0.078 OA 
HETATM   22  O   UNL    20      -5.812  12.453  67.744  1.00  0.00    -0.082 OA 
BRANCH  16  23
HETATM   23  O   UNL    20      -8.355  13.845  67.583  1.00  0.00    -0.155 OA 
BRANCH  23  24
HETATM   24  C   UNL    20      -7.788  14.839  66.696  1.00  0.00     0.462 C  
HETATM   25  O   UNL    20      -8.840  15.592  66.122  1.00  0.00    -0.321 OA 
HETATM   26  C   UNL    20      -9.494  16.448  67.053  1.00  0.00    -0.230 C  
HETATM   27  H   UNL    20      -4.920  15.832  67.910  1.00  0.00     0.000 HD 
HETATM   28  C   UNL    20      -8.516  17.473  67.700  1.00  0.00    -0.215 C  
HETATM   29  O   UNL    20      -9.166  18.317  68.618  1.00  0.00    -0.313 OA 
HETATM   30  C   UNL    20      -7.347  16.743  68.345  1.00  0.00    -0.198 C  
HETATM   31  O   UNL    20      -5.560  15.213  67.579  1.00  0.00    -0.318 OA 
HETATM   32  H   UNL    20      -8.570  18.942  69.012  1.00  0.00     0.000 HD 
HETATM   33  O   UNL    20      -6.403  17.674  68.794  1.00  0.00    -0.183 OA 
HETATM   34  C   UNL    20      -6.745  15.849  67.237  1.00  0.00    -0.186 C  
HETATM   35  H   UNL    20      -5.673  17.219  69.197  1.00  0.00     0.000 HD 
BRANCH  26  36
HETATM   36  C   UNL    20     -10.568  17.250  66.275  1.00  0.00    -0.184 C  
HETATM   37  O   UNL    20     -10.154  18.574  66.111  1.00  0.00    -0.409 OA 
HETATM   38  H   UNL    20     -10.812  19.066  65.634  1.00  0.00     0.000 HD 
ENDBRANCH  26  36
ENDBRANCH  23  24
ENDBRANCH  16  23
BRANCH  16  39
HETATM   39  C   UNL    20      -9.057  12.219  65.964  1.00  0.00    -0.012 C  
HETATM   40  O   UNL    20     -10.420  12.492  66.146  1.00  0.00    -0.242 OA 
HETATM   41  H   UNL    20     -10.901  12.361  65.338  1.00  0.00     0.000 HD 
ENDBRANCH  16  39
ENDBRANCH  12  14
TORSDOF 5
ENDMDL
MODEL      120
REMARK 921   NORMALIZED FREE ENERGY PREDICTED BY IDOCK:   -4.82 KCAL/MOL
REMARK 922        TOTAL FREE ENERGY PREDICTED BY IDOCK:   -7.82 KCAL/MOL
REMARK 923 INTER-LIGAND FREE ENERGY PREDICTED BY IDOCK:   -6.95 KCAL/MOL
REMARK 924 INTRA-LIGAND FREE ENERGY PREDICTED BY IDOCK:   -0.87 KCAL/MOL
REMARK 927      BINDING AFFINITY PREDICTED BY RF-SCORE:    0.00 PKD
ROOT
HETATM    1  O   HOH     4      -8.952   2.883  68.099  1.00  0.00    -0.116 OA 
HETATM    2  H2  HOH     4      -9.304   3.529  67.498  1.00  0.00     0.000 HD 
HETATM    3 NA   UNL    13      -7.587   7.339  62.787  1.00  0.00    -0.067 Na 
HETATM    4  H1  HOH     4      -8.023   2.847  67.904  1.00  0.00     0.000 HD 
HETATM    5 NA   UNL    14     -10.944   3.845  66.023  1.00  0.00    -0.436 Na 
HETATM    6 FE   UNL    15     -10.194   5.121  63.244  1.00  0.00    -0.364 Fe 
HETATM    7 FE   UNL    16      -7.594   5.045  67.193  1.00  0.00    -0.076 Fe 
HETATM    8 FE   UNL    17     -11.445   6.036  66.704  1.00  0.00    -0.394 Fe 
HETATM    9 FE   UNL    18      -8.016   5.369  69.296  1.00  0.00    -0.079 Fe 
HETATM   10 FE   UNL    19     -10.603   9.516  68.228  1.00  0.00    -0.171 Fe 
HETATM   11  O   UNL    20      -8.945   7.315  67.599  1.00  0.00    -0.126 OA 
HETATM   12  C   UNL    20      -7.598   7.693  67.710  1.00  0.00    -0.117 C  
HETATM   13  H   UNL    20      -9.107   6.379  67.578  1.00  0.00     0.000 HD 
ENDROOT
BRANCH  12  14
HETATM   14  C   UNL    20      -7.334   9.216  67.746  1.00  0.00    -0.084 C  
HETATM   15  O   UNL    20      -8.040   9.873  66.722  1.00  0.00    -0.115 OA 
HETATM   16  C   UNL    20      -8.093  11.236  67.055  1.00  0.00    -0.149 C  
HETATM   17  C   UNL    20      -7.583   9.969  69.071  1.00  0.00    -0.090 C  
HETATM   18  H   UNL    20      -6.543  10.585  70.602  1.00  0.00     0.000 HD 
HETATM   19  C   UNL    20      -8.141  11.339  68.618  1.00  0.00    -0.145 C  
HETATM   20  H   UNL    20      -9.455  11.584  70.093  1.00  0.00     0.000 HD 
HETATM   21  O   UNL    20      -6.390  10.122  69.788  1.00  0.00    -0.049 OA 
HETATM   22  O   UNL    20      -9.426  11.522  69.146  1.00  0.00     0.010 OA 
BRANCH  16  23
HETATM   23  O   UNL    20      -9.112  11.910  66.285  1.00  0.00    -0.213 OA 
BRANCH  23  24
HETATM   24  C   UNL    20     -10.132  12.715  66.921  1.00  0.00    -0.230 C  
HETATM   25  O   UNL    20      -9.947  14.068  66.545  1.00  0.00    -0.268 OA 
HETATM   26  C   UNL    20     -10.259  14.321  65.178  1.00  0.00    -0.385 C  
HETATM   27  H   UNL    20     -12.882  10.962  67.147  1.00  0.00     0.000 HD 
HETATM   28  C   UNL    20     -11.735  13.963  64.834  1.00  0.00    -0.368 C  
HETATM   29  O   UNL    20     -12.039  14.215  63.485  1.00  0.00    -0.894 OA 
HETATM   30  C   UNL    20     -12.022  12.516  65.210  1.00  0.00    -0.438 C  
HETATM   31  O   UNL    20     -11.964  11.167  67.284  1.00  0.00    -0.452 OA 
HETATM   32  H   UNL    20     -12.939  13.997  63.275  1.00  0.00     0.000 HD 
HETATM   33  O   UNL    20     -13.385  12.247  65.033  1.00  0.00    -0.336 OA 
HETATM   34  C   UNL    20     -11.628  12.380  66.698  1.00  0.00    -0.385 C  
HETATM   35  H   UNL    20     -13.564  11.344  65.267  1.00  0.00     0.000 HD 
BRANCH  26  36
HETATM   36  C   UNL    20     -10.073  15.840  64.932  1.00  0.00     0.214 C  
HETATM   37  O   UNL    20      -9.381  16.418  66.000  1.00  0.00    -0.320 OA 
HETATM   38  H   UNL    20      -9.267  17.349  65.849  1.00  0.00     0.000 HD 
ENDBRANCH  26  36
ENDBRANCH  23  24
ENDBRANCH  16  23
BRANCH  16  39
HETATM   39  C   UNL    20      -6.736  11.867  66.617  1.00  0.00     0.088 C  
HETATM   40  O   UNL    20      -6.711  13.241  66.898  1.00  0.00    -0.400 OA 
HETATM   41  H   UNL    20      -5.884  13.624  66.632  1.00  0.00     0.000 HD 
ENDBRANCH  16  39
ENDBRANCH  12  14
TORSDOF 5
ENDMDL
MODEL      121
REMARK 921   NORMALIZED FREE ENERGY PREDICTED BY IDOCK:   -4.81 KCAL/MOL
REMARK 922        TOTAL FREE ENERGY PREDICTED BY IDOCK:   -7.80 KCAL/MOL
REMARK 923 INTER-LIGAND FREE ENERGY PREDICTED BY IDOCK:   -7.14 KCAL/MOL
REMARK 924 INTRA-LIGAND FREE ENERGY PREDICTED BY IDOCK:   -0.67 KCAL/MOL
REMARK 927      BINDING AFFINITY PREDICTED BY RF-SCORE:    0.00 PKD
ROOT
HETATM    1  O   HOH     4     -13.235  14.116  66.037  1.00  0.00    -0.468 OA 
HETATM    2  H2  HOH     4     -12.432  13.807  65.634  1.00  0.00     0.000 HD 
HETATM    3 NA   UNL    13      -9.516   8.509  63.875  1.00  0.00    -0.401 Na 
HETATM    4  H1  HOH     4     -13.721  13.328  66.251  1.00  0.00     0.000 HD 
HETATM    5 NA   UNL    14     -11.137  14.106  63.846  1.00  0.00    -0.485 Na 
HETATM    6 FE   UNL    15     -10.106  11.543  62.335  1.00  0.00    -0.482 Fe 
HETATM    7 FE   UNL    16     -11.993  11.790  66.663  1.00  0.00    -0.320 Fe 
HETATM    8 FE   UNL    17      -9.105  14.027  65.019  1.00  0.00    -0.482 Fe 
HETATM    9 FE   UNL    18     -11.757  13.135  68.348  1.00  0.00    -0.226 Fe 
HETATM   10 FE   UNL    19      -6.776  12.920  67.933  1.00  0.00    -0.063 Fe 
HETATM   11  O   UNL    20      -9.421  12.167  67.283  1.00  0.00    -0.178 OA 
HETATM   12  C   UNL    20      -9.810  11.079  68.079  1.00  0.00    -0.171 C  
HETATM   13  H   UNL    20     -10.128  12.629  66.848  1.00  0.00     0.000 HD 
ENDROOT
BRANCH  12  14
HETATM   14  C   UNL    20      -8.660  10.327  68.788  1.00  0.00    -0.139 C  
HETATM   15  O   UNL    20      -9.162   9.437  69.754  1.00  0.00    -0.168 OA 
HETATM   16  C   UNL    20      -8.141   8.518  70.051  1.00  0.00    -0.111 C  
HETATM   17  C   UNL    20      -7.634   9.571  67.914  1.00  0.00    -0.087 C  
HETATM   18  H   UNL    20      -5.862   9.889  67.163  1.00  0.00     0.000 HD 
HETATM   19  C   UNL    20      -7.299   8.311  68.745  1.00  0.00    -0.088 C  
HETATM   20  H   UNL    20      -7.127   7.037  67.226  1.00  0.00     0.000 HD 
HETATM   21  O   UNL    20      -6.493  10.353  67.700  1.00  0.00    -0.057 OA 
HETATM   22  O   UNL    20      -7.637   7.163  68.016  1.00  0.00    -0.106 OA 
BRANCH  16  23
HETATM   23  O   UNL    20      -8.678   7.358  70.720  1.00  0.00    -0.142 OA 
BRANCH  23  24
HETATM   24  C   UNL    20      -9.879   6.701  70.251  1.00  0.00    -0.174 C  
HETATM   25  O   UNL    20      -9.797   5.322  70.563  1.00  0.00    -0.179 OA 
HETATM   26  C   UNL    20      -9.906   5.052  71.957  1.00  0.00    -0.174 C  
HETATM   27  H   UNL    20     -12.397   8.766  70.529  1.00  0.00     0.000 HD 
HETATM   28  C   UNL    20     -11.250   5.563  72.554  1.00  0.00    -0.274 C  
HETATM   29  O   UNL    20     -11.354   5.294  73.930  1.00  0.00    -0.425 OA 
HETATM   30  C   UNL    20     -11.420   7.047  72.261  1.00  0.00    -0.270 C  
HETATM   31  O   UNL    20     -11.546   8.462  70.235  1.00  0.00    -0.148 OA 
HETATM   32  H   UNL    20     -12.174   5.605  74.294  1.00  0.00     0.000 HD 
HETATM   33  O   UNL    20     -12.693   7.463  72.672  1.00  0.00    -0.432 OA 
HETATM   34  C   UNL    20     -11.266   7.196  70.731  1.00  0.00    -0.279 C  
HETATM   35  H   UNL    20     -12.799   8.389  72.490  1.00  0.00     0.000 HD 
BRANCH  26  36
HETATM   36  C   UNL    20      -9.865   3.514  72.138  1.00  0.00    -0.168 C  
HETATM   37  O   UNL    20      -9.245   3.189  73.348  1.00  0.00    -0.088 OA 
HETATM   38  H   UNL    20      -9.220   2.245  73.459  1.00  0.00     0.000 HD 
ENDBRANCH  26  36
ENDBRANCH  23  24
ENDBRANCH  16  23
BRANCH  16  39
HETATM   39  C   UNL    20      -7.191   9.207  71.079  1.00  0.00    -0.100 C  
HETATM   40  O   UNL    20      -7.764   9.216  72.358  1.00  0.00    -0.251 OA 
HETATM   41  H   UNL    20      -7.185   9.635  72.984  1.00  0.00     0.000 HD 
ENDBRANCH  16  39
ENDBRANCH  12  14
TORSDOF 5
ENDMDL
MODEL      122
REMARK 921   NORMALIZED FREE ENERGY PREDICTED BY IDOCK:   -4.76 KCAL/MOL
REMARK 922        TOTAL FREE ENERGY PREDICTED BY IDOCK:   -7.73 KCAL/MOL
REMARK 923 INTER-LIGAND FREE ENERGY PREDICTED BY IDOCK:   -6.71 KCAL/MOL
REMARK 924 INTRA-LIGAND FREE ENERGY PREDICTED BY IDOCK:   -1.02 KCAL/MOL
REMARK 927      BINDING AFFINITY PREDICTED BY RF-SCORE:    0.00 PKD
ROOT
HETATM    1  O   HOH     4     -12.718  16.088  69.893  1.00  0.00    -0.568 OA 
HETATM    2  H2  HOH     4     -12.104  15.645  69.318  1.00  0.00     0.000 HD 
HETATM    3 NA   UNL    13     -11.856  11.254  64.810  1.00  0.00    -0.225 Na 
HETATM    4  H1  HOH     4     -13.559  15.687  69.709  1.00  0.00     0.000 HD 
HETATM    5 NA   UNL    14     -10.487  16.041  67.837  1.00  0.00    -0.239 Na 
HETATM    6 FE   UNL    15     -10.550  14.435  65.129  1.00  0.00    -0.276 Fe 
HETATM    7 FE   UNL    16     -12.934  13.504  69.106  1.00  0.00    -0.205 Fe 
HETATM    8 FE   UNL    17      -9.050  14.354  68.611  1.00  0.00    -0.157 Fe 
HETATM    9 FE   UNL    18     -12.429  13.508  71.215  1.00  0.00    -0.275 Fe 
HETATM   10 FE   UNL    19      -8.228  10.948  70.303  1.00  0.00    -0.358 Fe 
HETATM   11  O   UNL    20     -10.701  12.120  69.597  1.00  0.00    -0.429 OA 
HETATM   12  C   UNL    20     -11.729  11.176  69.744  1.00  0.00    -0.345 C  
HETATM   13  H   UNL    20     -10.983  13.025  69.531  1.00  0.00     0.000 HD 
ENDROOT
BRANCH  12  14
HETATM   14  C   UNL    20     -11.271   9.704  69.853  1.00  0.00    -0.207 C  
HETATM   15  O   UNL    20     -10.670   9.274  68.655  1.00  0.00    -0.209 OA 
HETATM   16  C   UNL    20      -9.928   8.118  68.948  1.00  0.00    -0.192 C  
HETATM   17  C   UNL    20     -10.350   9.310  71.029  1.00  0.00    -0.318 C  
HETATM   18  H   UNL    20     -10.528   8.526  72.806  1.00  0.00     0.000 HD 
HETATM   19  C   UNL    20      -9.399   8.255  70.417  1.00  0.00    -0.159 C  
HETATM   20  H   UNL    20      -7.753   8.787  71.403  1.00  0.00     0.000 HD 
HETATM   21  O   UNL    20     -11.094   8.768  72.083  1.00  0.00    -0.355 OA 
HETATM   22  O   UNL    20      -8.074   8.703  70.513  1.00  0.00    -0.094 OA 
BRANCH  16  23
HETATM   23  O   UNL    20      -8.982   7.839  67.894  1.00  0.00    -0.126 OA 
BRANCH  23  24
HETATM   24  C   UNL    20      -7.714   8.531  67.811  1.00  0.00    -0.103 C  
HETATM   25  O   UNL    20      -6.779   7.696  67.154  1.00  0.00    -0.063 OA 
HETATM   26  C   UNL    20      -7.051   7.528  65.766  1.00  0.00    -0.065 C  
HETATM   27  H   UNL    20      -8.274  11.732  67.459  1.00  0.00     0.000 HD 
HETATM   28  C   UNL    20      -7.053   8.882  64.998  1.00  0.00    -0.083 C  
HETATM   29  O   UNL    20      -7.320   8.712  63.628  1.00  0.00    -0.098 OA 
HETATM   30  C   UNL    20      -8.038   9.847  65.643  1.00  0.00    -0.128 C  
HETATM   31  O   UNL    20      -8.320  10.879  67.874  1.00  0.00    -0.115 OA 
HETATM   32  H   UNL    20      -7.321   9.538  63.159  1.00  0.00     0.000 HD 
HETATM   33  O   UNL    20      -7.926  11.105  65.038  1.00  0.00    -0.342 OA 
HETATM   34  C   UNL    20      -7.639   9.922  67.134  1.00  0.00    -0.092 C  
HETATM   35  H   UNL    20      -8.541  11.707  65.440  1.00  0.00     0.000 HD 
BRANCH  26  36
HETATM   36  C   UNL    20      -5.919   6.651  65.173  1.00  0.00    -0.034 C  
HETATM   37  O   UNL    20      -5.995   5.355  65.690  1.00  0.00    -0.024 OA 
HETATM   38  H   UNL    20      -5.301   4.818  65.326  1.00  0.00     0.000 HD 
ENDBRANCH  26  36
ENDBRANCH  23  24
ENDBRANCH  16  23
BRANCH  16  39
HETATM   39  C   UNL    20     -10.930   6.922  68.955  1.00  0.00    -0.181 C  
HETATM   40  O   UNL    20     -11.477   6.723  67.680  1.00  0.00    -0.650 OA 
HETATM   41  H   UNL    20     -12.086   5.994  67.685  1.00  0.00     0.000 HD 
ENDBRANCH  16  39
ENDBRANCH  12  14
TORSDOF 5
ENDMDL
MODEL      123
REMARK 921   NORMALIZED FREE ENERGY PREDICTED BY IDOCK:   -4.76 KCAL/MOL
REMARK 922        TOTAL FREE ENERGY PREDICTED BY IDOCK:   -7.73 KCAL/MOL
REMARK 923 INTER-LIGAND FREE ENERGY PREDICTED BY IDOCK:   -6.65 KCAL/MOL
REMARK 924 INTRA-LIGAND FREE ENERGY PREDICTED BY IDOCK:   -1.08 KCAL/MOL
REMARK 927      BINDING AFFINITY PREDICTED BY RF-SCORE:    0.00 PKD
ROOT
HETATM    1  O   HOH     4     -10.180   1.712  64.622  1.00  0.00    -0.318 OA 
HETATM    2  H2  HOH     4     -10.206   2.657  64.717  1.00  0.00     0.000 HD 
HETATM    3 NA   UNL    13      -6.465   7.616  65.756  1.00  0.00    -0.037 Na 
HETATM    4  H1  HOH     4      -9.270   1.476  64.760  1.00  0.00     0.000 HD 
HETATM    5 NA   UNL    14     -10.946   4.503  63.711  1.00  0.00    -0.374 Na 
HETATM    6 FE   UNL    15      -8.967   6.940  63.473  1.00  0.00    -0.346 Fe 
HETATM    7 FE   UNL    16      -8.562   3.141  66.260  1.00  0.00    -0.095 Fe 
HETATM    8 FE   UNL    17     -11.718   5.537  65.673  1.00  0.00    -0.675 Fe 
HETATM    9 FE   UNL    18      -9.936   2.020  67.509  1.00  0.00    -0.339 Fe 
HETATM   10 FE   UNL    19     -11.716   6.252  69.498  1.00  0.00    -0.317 Fe 
HETATM   11  O   UNL    20      -9.951   4.737  67.892  1.00  0.00    -0.152 OA 
HETATM   12  C   UNL    20      -8.821   4.379  68.643  1.00  0.00    -0.104 C  
HETATM   13  H   UNL    20     -10.080   4.248  67.087  1.00  0.00     0.000 HD 
ENDROOT
BRANCH  12  14
HETATM   14  C   UNL    20      -8.611   5.174  69.952  1.00  0.00    -0.100 C  
HETATM   15  O   UNL    20      -8.206   6.493  69.679  1.00  0.00    -0.122 OA 
HETATM   16  C   UNL    20      -8.432   7.251  70.840  1.00  0.00    -0.128 C  
HETATM   17  C   UNL    20      -9.771   5.221  70.972  1.00  0.00    -0.182 C  
HETATM   18  H   UNL    20     -10.308   4.282  72.595  1.00  0.00     0.000 HD 
HETATM   19  C   UNL    20      -9.688   6.649  71.560  1.00  0.00    -0.164 C  
HETATM   20  H   UNL    20     -11.644   6.968  71.739  1.00  0.00     0.000 HD 
HETATM   21  O   UNL    20      -9.595   4.253  71.968  1.00  0.00    -0.135 OA 
HETATM   22  O   UNL    20     -10.884   7.333  71.303  1.00  0.00    -0.233 OA 
BRANCH  16  23
HETATM   23  O   UNL    20      -8.418   8.662  70.538  1.00  0.00    -0.127 OA 
BRANCH  23  24
HETATM   24  C   UNL    20      -8.005   9.156  69.242  1.00  0.00    -0.097 C  
HETATM   25  O   UNL    20      -8.644   8.392  68.237  1.00  0.00    -0.137 OA 
HETATM   26  C   UNL    20     -10.045   8.635  68.149  1.00  0.00    -0.197 C  
HETATM   27  H   UNL    20      -7.531  12.384  69.437  1.00  0.00     0.000 HD 
HETATM   28  C   UNL    20     -10.366  10.128  67.844  1.00  0.00    -0.194 C  
HETATM   29  O   UNL    20     -11.750  10.363  67.757  1.00  0.00    -0.677 OA 
HETATM   30  C   UNL    20      -9.712  11.026  68.884  1.00  0.00    -0.172 C  
HETATM   31  O   UNL    20      -7.403  11.469  69.657  1.00  0.00     0.033 OA 
HETATM   32  H   UNL    20     -11.946  11.274  67.571  1.00  0.00     0.000 HD 
HETATM   33  O   UNL    20      -9.883  12.367  68.520  1.00  0.00    -0.278 OA 
HETATM   34  C   UNL    20      -8.213  10.648  68.884  1.00  0.00    -0.145 C  
HETATM   35  H   UNL    20      -9.475  12.928  69.169  1.00  0.00     0.000 HD 
BRANCH  26  36
HETATM   36  C   UNL    20     -10.592   7.786  66.974  1.00  0.00    -0.326 C  
HETATM   37  O   UNL    20     -11.666   7.002  67.407  1.00  0.00    -0.340 OA 
HETATM   38  H   UNL    20     -12.001   6.482  66.686  1.00  0.00     0.000 HD 
ENDBRANCH  26  36
ENDBRANCH  23  24
ENDBRANCH  16  23
BRANCH  16  39
HETATM   39  C   UNL    20      -7.222   7.003  71.792  1.00  0.00    -0.078 C  
HETATM   40  O   UNL    20      -7.658   6.521  73.035  1.00  0.00    -0.093 OA 
HETATM   41  H   UNL    20      -6.921   6.369  73.615  1.00  0.00     0.000 HD 
ENDBRANCH  16  39
ENDBRANCH  12  14
TORSDOF 5
ENDMDL
MODEL      124
REMARK 921   NORMALIZED FREE ENERGY PREDICTED BY IDOCK:   -4.75 KCAL/MOL
REMARK 922        TOTAL FREE ENERGY PREDICTED BY IDOCK:   -7.73 KCAL/MOL
REMARK 923 INTER-LIGAND FREE ENERGY PREDICTED BY IDOCK:   -6.31 KCAL/MOL
REMARK 924 INTRA-LIGAND FREE ENERGY PREDICTED BY IDOCK:   -1.42 KCAL/MOL
REMARK 927      BINDING AFFINITY PREDICTED BY RF-SCORE:    0.00 PKD
ROOT
HETATM    1  O   HOH     4     -11.404  13.623  69.269  1.00  0.00    -0.260 OA 
HETATM    2  H2  HOH     4     -11.434  12.675  69.224  1.00  0.00     0.000 HD 
HETATM    3 NA   UNL    13      -8.351   7.542  71.178  1.00  0.00    -0.098 Na 
HETATM    4  H1  HOH     4     -10.618  13.821  69.764  1.00  0.00     0.000 HD 
HETATM    5 NA   UNL    14     -12.797  10.944  69.558  1.00  0.00    -0.326 Na 
HETATM    6 FE   UNL    15     -11.675   8.481  71.169  1.00  0.00    -0.250 Fe 
HETATM    7 FE   UNL    16      -9.225  12.014  69.200  1.00  0.00    -0.307 Fe 
HETATM    8 FE   UNL    17     -12.148   9.767  67.633  1.00  0.00    -0.434 Fe 
HETATM    9 FE   UNL    18      -9.328  13.061  67.303  1.00  0.00    -0.177 Fe 
HETATM   10 FE   UNL    19      -9.660   8.726  64.828  1.00  0.00    -0.396 Fe 
HETATM   11  O   UNL    20      -9.297  10.323  67.131  1.00  0.00    -0.151 OA 
HETATM   12  C   UNL    20      -7.931  10.584  67.314  1.00  0.00    -0.114 C  
HETATM   13  H   UNL    20      -9.890  10.883  67.620  1.00  0.00     0.000 HD 
ENDROOT
BRANCH  12  14
HETATM   14  C   UNL    20      -6.967   9.674  66.518  1.00  0.00    -0.085 C  
HETATM   15  O   UNL    20      -7.374   8.329  66.586  1.00  0.00    -0.080 OA 
HETATM   16  C   UNL    20      -6.731   7.642  65.544  1.00  0.00    -0.045 C  
HETATM   17  C   UNL    20      -6.684  10.024  65.041  1.00  0.00    -0.128 C  
HETATM   18  H   UNL    20      -5.324  10.972  64.013  1.00  0.00     0.000 HD 
HETATM   19  C   UNL    20      -6.560   8.645  64.351  1.00  0.00    -0.070 C  
HETATM   20  H   UNL    20      -7.434   9.136  62.632  1.00  0.00     0.000 HD 
HETATM   21  O   UNL    20      -5.497  10.757  64.922  1.00  0.00    -0.144 OA 
HETATM   22  O   UNL    20      -7.538   8.528  63.354  1.00  0.00    -0.110 OA 
BRANCH  16  23
HETATM   23  O   UNL    20      -7.376   6.375  65.295  1.00  0.00    -0.071 OA 
BRANCH  23  24
HETATM   24  C   UNL    20      -7.715   5.472  66.374  1.00  0.00    -0.099 C  
HETATM   25  O   UNL    20      -8.819   6.002  67.083  1.00  0.00    -0.110 OA 
HETATM   26  C   UNL    20     -10.036   5.959  66.345  1.00  0.00    -0.110 C  
HETATM   27  H   UNL    20      -7.114   2.404  65.420  1.00  0.00     0.000 HD 
HETATM   28  C   UNL    20     -10.427   4.509  65.935  1.00  0.00    -0.226 C  
HETATM   29  O   UNL    20     -11.630   4.471  65.208  1.00  0.00    -1.061 OA 
HETATM   30  C   UNL    20      -9.287   3.860  65.163  1.00  0.00    -0.158 C  
HETATM   31  O   UNL    20      -6.916   3.313  65.609  1.00  0.00    -0.054 OA 
HETATM   32  H   UNL    20     -11.868   3.587  64.958  1.00  0.00     0.000 HD 
HETATM   33  O   UNL    20      -9.588   2.513  64.926  1.00  0.00    -0.282 OA 
HETATM   34  C   UNL    20      -8.039   3.989  66.065  1.00  0.00    -0.101 C  
HETATM   35  H   UNL    20      -8.877   2.108  64.444  1.00  0.00     0.000 HD 
BRANCH  26  36
HETATM   36  C   UNL    20     -11.158   6.507  67.264  1.00  0.00    -0.350 C  
HETATM   37  O   UNL    20     -10.852   7.809  67.670  1.00  0.00    -0.468 OA 
HETATM   38  H   UNL    20     -11.540   8.145  68.234  1.00  0.00     0.000 HD 
ENDBRANCH  26  36
ENDBRANCH  23  24
ENDBRANCH  16  23
BRANCH  16  39
HETATM   39  C   UNL    20      -5.291   7.302  66.038  1.00  0.00    -0.024 C  
HETATM   40  O   UNL    20      -5.251   7.225  67.437  1.00  0.00    -0.018 OA 
HETATM   41  H   UNL    20      -4.374   7.018  67.738  1.00  0.00     0.000 HD 
ENDBRANCH  16  39
ENDBRANCH  12  14
TORSDOF 5
ENDMDL
MODEL      125
REMARK 921   NORMALIZED FREE ENERGY PREDICTED BY IDOCK:   -4.73 KCAL/MOL
REMARK 922        TOTAL FREE ENERGY PREDICTED BY IDOCK:   -7.69 KCAL/MOL
REMARK 923 INTER-LIGAND FREE ENERGY PREDICTED BY IDOCK:   -6.50 KCAL/MOL
REMARK 924 INTRA-LIGAND FREE ENERGY PREDICTED BY IDOCK:   -1.20 KCAL/MOL
REMARK 927      BINDING AFFINITY PREDICTED BY RF-SCORE:    0.00 PKD
ROOT
HETATM    1  O   HOH     4      -5.989  16.348  66.600  1.00  0.00    -0.310 OA 
HETATM    2  H2  HOH     4      -6.938  16.329  66.558  1.00  0.00     0.000 HD 
HETATM    3 NA   UNL    13     -12.013  15.372  70.163  1.00  0.00    -0.231 Na 
HETATM    4  H1  HOH     4      -5.777  16.118  67.497  1.00  0.00     0.000 HD 
HETATM    5 NA   UNL    14      -8.692  17.531  65.890  1.00  0.00    -0.238 Na 
HETATM    6 FE   UNL    15     -11.131  17.793  67.864  1.00  0.00    -0.349 Fe 
HETATM    7 FE   UNL    16      -7.561  14.698  68.066  1.00  0.00    -0.093 Fe 
HETATM    8 FE   UNL    17      -9.861  15.725  64.951  1.00  0.00    -0.292 Fe 
HETATM    9 FE   UNL    18      -6.520  13.484  66.601  1.00  0.00    -0.220 Fe 
HETATM   10 FE   UNL    19     -10.866  11.979  64.631  1.00  0.00    -0.258 Fe 
HETATM   11  O   UNL    20      -9.258  13.313  66.534  1.00  0.00    -0.342 OA 
HETATM   12  C   UNL    20      -8.973  12.447  67.600  1.00  0.00    -0.183 C  
HETATM   13  H   UNL    20      -8.707  14.086  66.476  1.00  0.00     0.000 HD 
ENDROOT
BRANCH  12  14
HETATM   14  C   UNL    20      -9.869  11.191  67.695  1.00  0.00    -0.174 C  
HETATM   15  O   UNL    20      -9.128  10.077  68.130  1.00  0.00    -0.121 OA 
HETATM   16  C   UNL    20     -10.043   9.113  68.583  1.00  0.00    -0.194 C  
HETATM   17  C   UNL    20     -11.160  11.276  68.538  1.00  0.00    -0.235 C  
HETATM   18  H   UNL    20     -13.061  11.601  68.244  1.00  0.00     0.000 HD 
HETATM   19  C   UNL    20     -11.273   9.876  69.185  1.00  0.00    -0.107 C  
HETATM   20  H   UNL    20     -11.995  10.461  70.945  1.00  0.00     0.000 HD 
HETATM   21  O   UNL    20     -12.267  11.549  67.725  1.00  0.00    -0.560 OA 
HETATM   22  O   UNL    20     -11.250   9.999  70.580  1.00  0.00    -0.304 OA 
BRANCH  16  23
HETATM   23  O   UNL    20      -9.380   8.121  69.394  1.00  0.00    -0.154 OA 
BRANCH  23  24
HETATM   24  C   UNL    20      -8.142   8.411  70.085  1.00  0.00    -0.108 C  
HETATM   25  O   UNL    20      -8.424   8.638  71.453  1.00  0.00    -0.158 OA 
HETATM   26  C   UNL    20      -8.816   7.459  72.151  1.00  0.00    -0.124 C  
HETATM   27  H   UNL    20      -5.726   6.700  68.700  1.00  0.00     0.000 HD 
HETATM   28  C   UNL    20      -7.722   6.352  72.101  1.00  0.00    -0.099 C  
HETATM   29  O   UNL    20      -8.112   5.192  72.791  1.00  0.00    -0.107 OA 
HETATM   30  C   UNL    20      -7.355   6.046  70.656  1.00  0.00    -0.085 C  
HETATM   31  O   UNL    20      -6.446   7.319  68.739  1.00  0.00    -0.037 OA 
HETATM   32  H   UNL    20      -7.444   4.517  72.761  1.00  0.00     0.000 HD 
HETATM   33  O   UNL    20      -6.272   5.159  70.625  1.00  0.00    -0.021 OA 
HETATM   34  C   UNL    20      -6.969   7.401  70.022  1.00  0.00    -0.060 C  
HETATM   35  H   UNL    20      -6.043   4.968  69.723  1.00  0.00     0.000 HD 
BRANCH  26  36
HETATM   36  C   UNL    20      -9.027   7.845  73.637  1.00  0.00    -0.275 C  
HETATM   37  O   UNL    20      -9.897   6.939  74.250  1.00  0.00    -0.303 OA 
HETATM   38  H   UNL    20     -10.026   7.175  75.161  1.00  0.00     0.000 HD 
ENDBRANCH  26  36
ENDBRANCH  23  24
ENDBRANCH  16  23
BRANCH  16  39
HETATM   39  C   UNL    20     -10.572   8.357  67.325  1.00  0.00    -0.257 C  
HETATM   40  O   UNL    20     -11.333   7.240  67.698  1.00  0.00    -0.500 OA 
HETATM   41  H   UNL    20     -11.655   6.780  66.933  1.00  0.00     0.000 HD 
ENDBRANCH  16  39
ENDBRANCH  12  14
TORSDOF 5
ENDMDL
MODEL      126
REMARK 921   NORMALIZED FREE ENERGY PREDICTED BY IDOCK:   -4.70 KCAL/MOL
REMARK 922        TOTAL FREE ENERGY PREDICTED BY IDOCK:   -7.66 KCAL/MOL
REMARK 923 INTER-LIGAND FREE ENERGY PREDICTED BY IDOCK:   -6.39 KCAL/MOL
REMARK 924 INTRA-LIGAND FREE ENERGY PREDICTED BY IDOCK:   -1.26 KCAL/MOL
REMARK 927      BINDING AFFINITY PREDICTED BY RF-SCORE:    0.00 PKD
ROOT
HETATM    1  O   HOH     4     -13.823  10.755  72.672  1.00  0.00    -0.229 OA 
HETATM    2  H2  HOH     4     -13.501  11.637  72.525  1.00  0.00     0.000 HD 
HETATM    3 NA   UNL    13     -14.262  16.596  68.719  1.00  0.00     0.789 Na 
HETATM    4  H1  HOH     4     -14.451  10.604  71.976  1.00  0.00     0.000 HD 
HETATM    5 NA   UNL    14     -13.140  13.571  73.571  1.00  0.00    -0.425 Na 
HETATM    6 FE   UNL    15     -14.097  16.211  72.147  1.00  0.00    -0.440 Fe 
HETATM    7 FE   UNL    16     -13.571  11.917  70.237  1.00  0.00     0.219 Fe 
HETATM    8 FE   UNL    17     -11.057  13.986  72.571  1.00  0.00     0.171 Fe 
HETATM    9 FE   UNL    18     -12.064  10.365  70.383  1.00  0.00    -0.222 Fe 
HETATM   10 FE   UNL    19      -8.415  13.725  69.725  1.00  0.00    -0.316 Fe 
HETATM   11  O   UNL    20     -11.110  12.879  69.840  1.00  0.00    -0.473 OA 
HETATM   12  C   UNL    20     -11.534  12.485  68.562  1.00  0.00    -0.305 C  
HETATM   13  H   UNL    20     -11.660  12.593  70.560  1.00  0.00     0.000 HD 
ENDROOT
BRANCH  12  14
HETATM   14  C   UNL    20     -10.640  12.950  67.390  1.00  0.00    -0.233 C  
HETATM   15  O   UNL    20     -10.259  14.294  67.550  1.00  0.00    -0.238 OA 
HETATM   16  C   UNL    20      -9.154  14.521  66.714  1.00  0.00    -0.261 C  
HETATM   17  C   UNL    20      -9.379  12.121  67.060  1.00  0.00    -0.201 C  
HETATM   18  H   UNL    20      -8.860  10.710  65.817  1.00  0.00     0.000 HD 
HETATM   19  C   UNL    20      -8.339  13.184  66.634  1.00  0.00     0.209 C  
HETATM   20  H   UNL    20      -6.740  12.320  67.444  1.00  0.00     0.000 HD 
HETATM   21  O   UNL    20      -9.635  11.220  66.019  1.00  0.00    -0.203 OA 
HETATM   22  O   UNL    20      -7.233  13.130  67.493  1.00  0.00    -0.146 OA 
BRANCH  16  23
HETATM   23  O   UNL    20      -8.464  15.730  67.097  1.00  0.00    -0.178 OA 
BRANCH  23  24
HETATM   24  C   UNL    20      -7.928  16.641  66.109  1.00  0.00    -0.202 C  
HETATM   25  O   UNL    20      -8.930  17.579  65.761  1.00  0.00    -0.512 OA 
HETATM   26  C   UNL    20      -9.224  18.503  66.805  1.00  0.00    -0.297 C  
HETATM   27  H   UNL    20      -4.746  17.097  66.702  1.00  0.00     0.000 HD 
HETATM   28  C   UNL    20      -7.974  19.327  67.232  1.00  0.00    -0.260 C  
HETATM   29  O   UNL    20      -8.269  20.238  68.261  1.00  0.00    -0.136 OA 
HETATM   30  C   UNL    20      -6.840  18.390  67.624  1.00  0.00    -0.207 C  
HETATM   31  O   UNL    20      -5.536  16.605  66.512  1.00  0.00    -0.341 OA 
HETATM   32  H   UNL    20      -7.506  20.741  68.522  1.00  0.00     0.000 HD 
HETATM   33  O   UNL    20      -5.679  19.134  67.866  1.00  0.00    -0.188 OA 
HETATM   34  C   UNL    20      -6.639  17.443  66.419  1.00  0.00    -0.257 C  
HETATM   35  H   UNL    20      -4.971  18.550  68.111  1.00  0.00     0.000 HD 
BRANCH  26  36
HETATM   36  C   UNL    20     -10.280  19.498  66.261  1.00  0.00    -0.488 C  
HETATM   37  O   UNL    20      -9.647  20.573  65.631  1.00  0.00    -0.598 OA 
HETATM   38  H   UNL    20     -10.295  21.183  65.297  1.00  0.00     0.000 HD 
ENDBRANCH  26  36
ENDBRANCH  23  24
ENDBRANCH  16  23
BRANCH  16  39
HETATM   39  C   UNL    20      -9.711  14.779  65.280  1.00  0.00    -0.082 C  
HETATM   40  O   UNL    20     -10.977  15.377  65.338  1.00  0.00    -0.346 OA 
HETATM   41  H   UNL    20     -11.316  15.534  64.464  1.00  0.00     0.000 HD 
ENDBRANCH  16  39
ENDBRANCH  12  14
TORSDOF 5
ENDMDL
MODEL      127
REMARK 921   NORMALIZED FREE ENERGY PREDICTED BY IDOCK:   -4.69 KCAL/MOL
REMARK 922        TOTAL FREE ENERGY PREDICTED BY IDOCK:   -7.65 KCAL/MOL
REMARK 923 INTER-LIGAND FREE ENERGY PREDICTED BY IDOCK:   -6.34 KCAL/MOL
REMARK 924 INTRA-LIGAND FREE ENERGY PREDICTED BY IDOCK:   -1.31 KCAL/MOL
REMARK 927      BINDING AFFINITY PREDICTED BY RF-SCORE:    0.00 PKD
ROOT
HETATM    1  O   HOH     4     -12.415  14.771  64.557  1.00  0.00    -0.542 OA 
HETATM    2  H2  HOH     4     -11.616  14.264  64.645  1.00  0.00     0.000 HD 
HETATM    3 NA   UNL    13      -9.403   8.400  64.022  1.00  0.00    -0.414 Na 
HETATM    4  H1  HOH     4     -13.082  14.139  64.316  1.00  0.00     0.000 HD 
HETATM    5 NA   UNL    14      -9.481  14.227  64.007  1.00  0.00    -0.248 Na 
HETATM    6 FE   UNL    15      -8.309  11.498  62.960  1.00  0.00    -0.342 Fe 
HETATM    7 FE   UNL    16     -12.311  12.192  65.382  1.00  0.00    -0.378 Fe 
HETATM    8 FE   UNL    17      -8.629  13.597  66.102  1.00  0.00    -0.387 Fe 
HETATM    9 FE   UNL    18     -12.859  13.406  67.093  1.00  0.00    -0.252 Fe 
HETATM   10 FE   UNL    19      -8.802  11.878  69.589  1.00  0.00    -0.339 Fe 
HETATM   11  O   UNL    20     -10.615  11.863  67.421  1.00  0.00    -0.215 OA 
HETATM   12  C   UNL    20     -11.617  10.909  67.651  1.00  0.00    -0.085 C  
HETATM   13  H   UNL    20     -10.805  12.501  66.743  1.00  0.00     0.000 HD 
ENDROOT
BRANCH  12  14
HETATM   14  C   UNL    20     -11.308   9.870  68.754  1.00  0.00     0.007 C  
HETATM   15  O   UNL    20     -10.452   8.864  68.271  1.00  0.00    -0.215 OA 
HETATM   16  C   UNL    20      -9.894   8.216  69.385  1.00  0.00    -0.182 C  
HETATM   17  C   UNL    20     -10.750  10.380  70.101  1.00  0.00    -0.233 C  
HETATM   18  H   UNL    20     -11.434  10.835  71.870  1.00  0.00     0.000 HD 
HETATM   19  C   UNL    20      -9.751   9.279  70.528  1.00  0.00    -0.260 C  
HETATM   20  H   UNL    20      -8.381  10.473  71.339  1.00  0.00     0.000 HD 
HETATM   21  O   UNL    20     -11.777  10.522  71.042  1.00  0.00    -0.338 OA 
HETATM   22  O   UNL    20      -8.468   9.829  70.647  1.00  0.00    -0.200 OA 
BRANCH  16  23
HETATM   23  O   UNL    20      -8.731   7.451  69.000  1.00  0.00    -0.132 OA 
BRANCH  23  24
HETATM   24  C   UNL    20      -8.755   6.005  68.960  1.00  0.00    -0.122 C  
HETATM   25  O   UNL    20      -9.233   5.591  67.694  1.00  0.00    -0.111 OA 
HETATM   26  C   UNL    20      -8.316   5.845  66.634  1.00  0.00    -0.110 C  
HETATM   27  H   UNL    20      -6.267   4.853  70.739  1.00  0.00     0.000 HD 
HETATM   28  C   UNL    20      -6.951   5.127  66.850  1.00  0.00    -0.064 C  
HETATM   29  O   UNL    20      -6.050   5.379  65.802  1.00  0.00    -0.031 OA 
HETATM   30  C   UNL    20      -6.363   5.517  68.198  1.00  0.00    -0.042 C  
HETATM   31  O   UNL    20      -7.061   5.344  70.566  1.00  0.00    -0.057 OA 
HETATM   32  H   UNL    20      -5.218   4.940  65.933  1.00  0.00     0.000 HD 
HETATM   33  O   UNL    20      -5.214   4.757  68.446  1.00  0.00    -0.006 OA 
HETATM   34  C   UNL    20      -7.459   5.205  69.243  1.00  0.00    -0.058 C  
HETATM   35  H   UNL    20      -4.846   5.001  69.288  1.00  0.00     0.000 HD 
BRANCH  26  36
HETATM   36  C   UNL    20      -8.942   5.285  65.332  1.00  0.00    -0.144 C  
HETATM   37  O   UNL    20      -8.769   6.196  64.286  1.00  0.00    -0.343 OA 
HETATM   38  H   UNL    20      -9.153   5.852  63.487  1.00  0.00     0.000 HD 
ENDBRANCH  26  36
ENDBRANCH  23  24
ENDBRANCH  16  23
BRANCH  16  39
HETATM   39  C   UNL    20     -10.946   7.177  69.884  1.00  0.00    -0.253 C  
HETATM   40  O   UNL    20     -11.271   7.405  71.229  1.00  0.00    -0.245 OA 
HETATM   41  H   UNL    20     -11.911   6.773  71.532  1.00  0.00     0.000 HD 
ENDBRANCH  16  39
ENDBRANCH  12  14
TORSDOF 5
ENDMDL
MODEL      128
REMARK 921   NORMALIZED FREE ENERGY PREDICTED BY IDOCK:   -4.68 KCAL/MOL
REMARK 922        TOTAL FREE ENERGY PREDICTED BY IDOCK:   -7.63 KCAL/MOL
REMARK 923 INTER-LIGAND FREE ENERGY PREDICTED BY IDOCK:   -6.45 KCAL/MOL
REMARK 924 INTRA-LIGAND FREE ENERGY PREDICTED BY IDOCK:   -1.18 KCAL/MOL
REMARK 927      BINDING AFFINITY PREDICTED BY RF-SCORE:    0.00 PKD
ROOT
HETATM    1  O   HOH     4      -6.792  15.734  69.482  1.00  0.00    -0.175 OA 
HETATM    2  H2  HOH     4      -7.467  15.455  68.875  1.00  0.00     0.000 HD 
HETATM    3 NA   UNL    13     -12.773  12.072  68.609  1.00  0.00    -0.222 Na 
HETATM    4  H1  HOH     4      -7.020  15.323  70.308  1.00  0.00     0.000 HD 
HETATM    5 NA   UNL    14      -8.900  16.243  67.360  1.00  0.00    -0.172 Na 
HETATM    6 FE   UNL    15     -11.871  15.205  67.471  1.00  0.00    -0.315 Fe 
HETATM    7 FE   UNL    16      -8.074  13.349  69.592  1.00  0.00    -0.324 Fe 
HETATM    8 FE   UNL    17      -8.537  14.533  65.793  1.00  0.00    -0.438 Fe 
HETATM    9 FE   UNL    18      -6.028  12.967  68.981  1.00  0.00    -0.067 Fe 
HETATM   10 FE   UNL    19      -7.597  10.920  64.694  1.00  0.00    -0.235 Fe 
HETATM   11  O   UNL    20      -7.957  12.045  67.262  1.00  0.00    -0.157 OA 
HETATM   12  C   UNL    20      -7.964  11.025  68.226  1.00  0.00    -0.124 C  
HETATM   13  H   UNL    20      -7.829  12.925  67.598  1.00  0.00     0.000 HD 
ENDROOT
BRANCH  12  14
HETATM   14  C   UNL    20      -8.172   9.594  67.681  1.00  0.00    -0.114 C  
HETATM   15  O   UNL    20      -8.167   8.652  68.725  1.00  0.00    -0.117 OA 
HETATM   16  C   UNL    20      -8.757   7.476  68.234  1.00  0.00    -0.123 C  
HETATM   17  C   UNL    20      -9.402   9.325  66.786  1.00  0.00    -0.156 C  
HETATM   18  H   UNL    20      -9.811   9.225  64.881  1.00  0.00     0.000 HD 
HETATM   19  C   UNL    20      -9.840   7.894  67.180  1.00  0.00    -0.208 C  
HETATM   20  H   UNL    20     -11.805   8.178  67.041  1.00  0.00     0.000 HD 
HETATM   21  O   UNL    20      -9.055   9.391  65.431  1.00  0.00    -0.197 OA 
HETATM   22  O   UNL    20     -11.149   7.924  67.679  1.00  0.00    -0.004 OA 
BRANCH  16  23
HETATM   23  O   UNL    20      -9.147   6.609  69.320  1.00  0.00    -0.138 OA 
BRANCH  23  24
HETATM   24  C   UNL    20      -8.971   6.999  70.702  1.00  0.00    -0.154 C  
HETATM   25  O   UNL    20      -9.729   8.169  70.947  1.00  0.00    -0.163 OA 
HETATM   26  C   UNL    20     -11.135   7.940  70.941  1.00  0.00    -0.255 C  
HETATM   27  H   UNL    20      -8.616   4.311  72.528  1.00  0.00     0.000 HD 
HETATM   28  C   UNL    20     -11.568   6.898  72.013  1.00  0.00    -0.285 C  
HETATM   29  O   UNL    20     -12.956   6.676  72.005  1.00  0.00    -0.522 OA 
HETATM   30  C   UNL    20     -10.795   5.601  71.822  1.00  0.00    -0.239 C  
HETATM   31  O   UNL    20      -8.414   4.926  71.833  1.00  0.00    -0.119 OA 
HETATM   32  H   UNL    20     -13.220   6.041  72.659  1.00  0.00     0.000 HD 
HETATM   33  O   UNL    20     -11.083   4.724  72.875  1.00  0.00    -0.240 OA 
HETATM   34  C   UNL    20      -9.300   5.995  71.835  1.00  0.00    -0.150 C  
HETATM   35  H   UNL    20     -10.600   3.914  72.756  1.00  0.00     0.000 HD 
BRANCH  26  36
HETATM   36  C   UNL    20     -11.827   9.284  71.285  1.00  0.00    -0.343 C  
HETATM   37  O   UNL    20     -12.291   9.897  70.118  1.00  0.00    -0.484 OA 
HETATM   38  H   UNL    20     -12.715  10.721  70.328  1.00  0.00     0.000 HD 
ENDBRANCH  26  36
ENDBRANCH  23  24
ENDBRANCH  16  23
BRANCH  16  39
HETATM   39  C   UNL    20      -7.654   6.706  67.444  1.00  0.00    -0.104 C  
HETATM   40  O   UNL    20      -8.177   5.541  66.866  1.00  0.00    -0.105 OA 
HETATM   41  H   UNL    20      -7.506   5.073  66.384  1.00  0.00     0.000 HD 
ENDBRANCH  16  39
ENDBRANCH  12  14
TORSDOF 5
ENDMDL
MODEL      129
REMARK 921   NORMALIZED FREE ENERGY PREDICTED BY IDOCK:   -4.66 KCAL/MOL
REMARK 922        TOTAL FREE ENERGY PREDICTED BY IDOCK:   -7.60 KCAL/MOL
REMARK 923 INTER-LIGAND FREE ENERGY PREDICTED BY IDOCK:   -5.75 KCAL/MOL
REMARK 924 INTRA-LIGAND FREE ENERGY PREDICTED BY IDOCK:   -1.85 KCAL/MOL
REMARK 927      BINDING AFFINITY PREDICTED BY RF-SCORE:    0.00 PKD
ROOT
HETATM    1  O   HOH     4     -11.090  16.348  69.042  1.00  0.00    -0.318 OA 
HETATM    2  H2  HOH     4     -11.336  15.432  68.982  1.00  0.00     0.000 HD 
HETATM    3 NA   UNL    13     -10.429   9.887  71.826  1.00  0.00    -0.296 Na 
HETATM    4  H1  HOH     4     -10.488  16.394  69.775  1.00  0.00     0.000 HD 
HETATM    5 NA   UNL    14     -13.114  14.098  68.825  1.00  0.00    -0.529 Na 
HETATM    6 FE   UNL    15     -13.225  11.573  70.702  1.00  0.00    -0.277 Fe 
HETATM    7 FE   UNL    16      -9.476  14.274  69.701  1.00  0.00    -0.357 Fe 
HETATM    8 FE   UNL    17     -12.178  12.659  67.223  1.00  0.00    -0.323 Fe 
HETATM    9 FE   UNL    18      -8.689  15.169  67.888  1.00  0.00    -0.144 Fe 
HETATM   10 FE   UNL    19      -9.242  10.855  65.416  1.00  0.00    -0.164 Fe 
HETATM   11  O   UNL    20      -9.277  12.494  67.717  1.00  0.00    -0.183 OA 
HETATM   12  C   UNL    20      -8.027  12.442  68.352  1.00  0.00    -0.149 C  
HETATM   13  H   UNL    20      -9.840  13.213  67.982  1.00  0.00     0.000 HD 
ENDROOT
BRANCH  12  14
HETATM   14  C   UNL    20      -7.110  11.273  67.923  1.00  0.00    -0.078 C  
HETATM   15  O   UNL    20      -7.709  10.033  68.207  1.00  0.00    -0.084 OA 
HETATM   16  C   UNL    20      -7.045   9.060  67.442  1.00  0.00    -0.079 C  
HETATM   17  C   UNL    20      -6.597  11.245  66.466  1.00  0.00    -0.108 C  
HETATM   18  H   UNL    20      -4.998  11.778  65.484  1.00  0.00     0.000 HD 
HETATM   19  C   UNL    20      -6.585   9.741  66.107  1.00  0.00    -0.080 C  
HETATM   20  H   UNL    20      -7.158   9.922  64.210  1.00  0.00     0.000 HD 
HETATM   21  O   UNL    20      -5.313  11.795  66.380  1.00  0.00    -0.303 OA 
HETATM   22  O   UNL    20      -7.436   9.509  65.018  1.00  0.00    -0.103 OA 
BRANCH  16  23
HETATM   23  O   UNL    20      -7.827   7.849  67.368  1.00  0.00    -0.116 OA 
BRANCH  23  24
HETATM   24  C   UNL    20      -9.211   7.813  67.789  1.00  0.00    -0.136 C  
HETATM   25  O   UNL    20      -9.945   7.015  66.880  1.00  0.00    -0.189 OA 
HETATM   26  C   UNL    20      -9.633   5.628  66.968  1.00  0.00    -0.136 C  
HETATM   27  H   UNL    20      -9.329   7.918  71.054  1.00  0.00     0.000 HD 
HETATM   28  C   UNL    20      -9.907   5.050  68.388  1.00  0.00    -0.147 C  
HETATM   29  O   UNL    20      -9.599   3.681  68.470  1.00  0.00    -0.162 OA 
HETATM   30  C   UNL    20      -9.151   5.856  69.434  1.00  0.00    -0.127 C  
HETATM   31  O   UNL    20      -9.109   8.216  70.179  1.00  0.00    -0.146 OA 
HETATM   32  H   UNL    20      -9.766   3.329  69.336  1.00  0.00     0.000 HD 
HETATM   33  O   UNL    20      -9.517   5.424  70.714  1.00  0.00    -0.157 OA 
HETATM   34  C   UNL    20      -9.569   7.328  69.216  1.00  0.00    -0.156 C  
HETATM   35  H   UNL    20      -9.046   5.927  71.368  1.00  0.00     0.000 HD 
BRANCH  26  36
HETATM   36  C   UNL    20     -10.552   4.879  65.970  1.00  0.00    -0.261 C  
HETATM   37  O   UNL    20      -9.997   3.638  65.644  1.00  0.00    -0.376 OA 
HETATM   38  H   UNL    20     -10.560   3.179  65.032  1.00  0.00     0.000 HD 
ENDBRANCH  26  36
ENDBRANCH  23  24
ENDBRANCH  16  23
BRANCH  16  39
HETATM   39  C   UNL    20      -5.742   8.684  68.212  1.00  0.00    -0.038 C  
HETATM   40  O   UNL    20      -6.032   8.320  69.535  1.00  0.00    -0.032 OA 
HETATM   41  H   UNL    20      -5.238   8.091  70.003  1.00  0.00     0.000 HD 
ENDBRANCH  16  39
ENDBRANCH  12  14
TORSDOF 5
ENDMDL
MODEL      130
REMARK 921   NORMALIZED FREE ENERGY PREDICTED BY IDOCK:   -4.65 KCAL/MOL
REMARK 922        TOTAL FREE ENERGY PREDICTED BY IDOCK:   -7.59 KCAL/MOL
REMARK 923 INTER-LIGAND FREE ENERGY PREDICTED BY IDOCK:   -5.78 KCAL/MOL
REMARK 924 INTRA-LIGAND FREE ENERGY PREDICTED BY IDOCK:   -1.81 KCAL/MOL
REMARK 927      BINDING AFFINITY PREDICTED BY RF-SCORE:    0.00 PKD
ROOT
HETATM    1  O   HOH     4     -12.045  15.640  63.706  1.00  0.00    -1.013 OA 
HETATM    2  H2  HOH     4     -11.745  15.342  64.557  1.00  0.00     0.000 HD 
HETATM    3 NA   UNL    13      -6.482  14.478  67.906  1.00  0.00    -0.080 Na 
HETATM    4  H1  HOH     4     -11.252  15.845  63.224  1.00  0.00     0.000 HD 
HETATM    5 NA   UNL    14     -12.070  15.648  66.740  1.00  0.00    -0.117 Na 
HETATM    6 FE   UNL    15      -9.529  15.961  68.573  1.00  0.00    -0.181 Fe 
HETATM    7 FE   UNL    16      -9.720  14.319  64.142  1.00  0.00    -0.399 Fe 
HETATM    8 FE   UNL    17     -11.990  13.371  67.304  1.00  0.00    -0.272 Fe 
HETATM    9 FE   UNL    18     -11.048  12.976  63.077  1.00  0.00    -0.489 Fe 
HETATM   10 FE   UNL    19     -10.866   9.675  66.832  1.00  0.00    -0.228 Fe 
HETATM   11  O   UNL    20     -10.104  12.034  65.475  1.00  0.00    -0.241 OA 
HETATM   12  C   UNL    20      -9.006  11.766  64.644  1.00  0.00     0.470 C  
HETATM   13  H   UNL    20     -10.567  12.844  65.293  1.00  0.00     0.000 HD 
ENDROOT
BRANCH  12  14
HETATM   14  C   UNL    20      -8.253  10.448  64.939  1.00  0.00    -0.145 C  
HETATM   15  O   UNL    20      -8.026  10.297  66.319  1.00  0.00    -0.115 OA 
HETATM   16  C   UNL    20      -7.731   8.944  66.551  1.00  0.00    -0.099 C  
HETATM   17  C   UNL    20      -8.848   9.130  64.396  1.00  0.00    -0.116 C  
HETATM   18  H   UNL    20      -8.605   7.962  62.852  1.00  0.00     0.000 HD 
HETATM   19  C   UNL    20      -8.535   8.098  65.504  1.00  0.00    -0.159 C  
HETATM   20  H   UNL    20     -10.217   7.046  65.362  1.00  0.00     0.000 HD 
HETATM   21  O   UNL    20      -8.240   8.773  63.186  1.00  0.00    -0.172 OA 
HETATM   22  O   UNL    20      -9.730   7.558  65.996  1.00  0.00    -0.005 OA 
BRANCH  16  23
HETATM   23  O   UNL    20      -7.869   8.625  67.952  1.00  0.00    -0.101 OA 
BRANCH  23  24
HETATM   24  C   UNL    20      -8.788   9.346  68.806  1.00  0.00    -0.132 C  
HETATM   25  O   UNL    20     -10.032   8.671  68.812  1.00  0.00    -0.172 OA 
HETATM   26  C   UNL    20      -9.994   7.424  69.500  1.00  0.00    -0.179 C  
HETATM   27  H   UNL    20      -7.116  10.679  71.278  1.00  0.00     0.000 HD 
HETATM   28  C   UNL    20      -9.569   7.586  70.990  1.00  0.00    -0.160 C  
HETATM   29  O   UNL    20      -9.534   6.354  71.666  1.00  0.00    -0.155 OA 
HETATM   30  C   UNL    20      -8.233   8.308  71.076  1.00  0.00    -0.112 C  
HETATM   31  O   UNL    20      -7.347  10.509  70.373  1.00  0.00    -0.205 OA 
HETATM   32  H   UNL    20      -9.276   6.452  72.574  1.00  0.00     0.000 HD 
HETATM   33  O   UNL    20      -7.931   8.578  72.417  1.00  0.00    -0.256 OA 
HETATM   34  C   UNL    20      -8.411   9.623  70.283  1.00  0.00    -0.188 C  
HETATM   35  H   UNL    20      -7.097   9.029  72.471  1.00  0.00     0.000 HD 
BRANCH  26  36
HETATM   36  C   UNL    20     -11.428   6.837  69.481  1.00  0.00    -0.190 C  
HETATM   37  O   UNL    20     -11.769   6.448  68.182  1.00  0.00    -0.469 OA 
HETATM   38  H   UNL    20     -12.649   6.088  68.170  1.00  0.00     0.000 HD 
ENDBRANCH  26  36
ENDBRANCH  23  24
ENDBRANCH  16  23
BRANCH  16  39
HETATM   39  C   UNL    20      -6.222   8.740  66.211  1.00  0.00    -0.060 C  
HETATM   40  O   UNL    20      -5.419   9.607  66.966  1.00  0.00    -0.045 OA 
HETATM   41  H   UNL    20      -4.501   9.483  66.758  1.00  0.00     0.000 HD 
ENDBRANCH  16  39
ENDBRANCH  12  14
TORSDOF 5
ENDMDL
MODEL      131
REMARK 921   NORMALIZED FREE ENERGY PREDICTED BY IDOCK:   -4.62 KCAL/MOL
REMARK 922        TOTAL FREE ENERGY PREDICTED BY IDOCK:   -7.56 KCAL/MOL
REMARK 923 INTER-LIGAND FREE ENERGY PREDICTED BY IDOCK:   -6.34 KCAL/MOL
REMARK 924 INTRA-LIGAND FREE ENERGY PREDICTED BY IDOCK:   -1.22 KCAL/MOL
REMARK 927      BINDING AFFINITY PREDICTED BY RF-SCORE:    0.00 PKD
ROOT
HETATM    1  O   HOH     4     -13.000  15.395  69.867  1.00  0.00    -0.635 OA 
HETATM    2  H2  HOH     4     -12.404  15.283  69.135  1.00  0.00     0.000 HD 
HETATM    3 NA   UNL    13     -11.621  11.879  63.894  1.00  0.00    -0.301 Na 
HETATM    4  H1  HOH     4     -13.676  14.741  69.737  1.00  0.00     0.000 HD 
HETATM    5 NA   UNL    14     -11.354  16.422  67.534  1.00  0.00    -0.316 Na 
HETATM    6 FE   UNL    15     -11.426  15.252  64.611  1.00  0.00    -0.327 Fe 
HETATM    7 FE   UNL    16     -12.489  13.030  68.648  1.00  0.00    -0.304 Fe 
HETATM    8 FE   UNL    17      -9.307  15.295  67.756  1.00  0.00    -0.181 Fe 
HETATM    9 FE   UNL    18     -11.595  12.957  70.622  1.00  0.00    -0.373 Fe 
HETATM   10 FE   UNL    19      -7.058  12.244  68.636  1.00  0.00    -0.066 Fe 
HETATM   11  O   UNL    20      -9.870  12.509  68.536  1.00  0.00    -0.291 OA 
HETATM   12  C   UNL    20     -10.467  11.244  68.651  1.00  0.00    -0.203 C  
HETATM   13  H   UNL    20     -10.448  13.249  68.683  1.00  0.00     0.000 HD 
ENDROOT
BRANCH  12  14
HETATM   14  C   UNL    20      -9.528  10.040  68.412  1.00  0.00    -0.141 C  
HETATM   15  O   UNL    20      -9.343   9.304  69.596  1.00  0.00    -0.161 OA 
HETATM   16  C   UNL    20      -8.846   8.041  69.233  1.00  0.00    -0.141 C  
HETATM   17  C   UNL    20      -9.879   9.055  67.275  1.00  0.00    -0.196 C  
HETATM   18  H   UNL    20      -9.383   8.761  65.412  1.00  0.00     0.000 HD 
HETATM   19  C   UNL    20      -9.456   7.677  67.836  1.00  0.00    -0.143 C  
HETATM   20  H   UNL    20     -10.941   6.610  67.050  1.00  0.00     0.000 HD 
HETATM   21  O   UNL    20      -9.168   9.366  66.110  1.00  0.00    -0.163 OA 
HETATM   22  O   UNL    20     -10.572   6.831  67.896  1.00  0.00    -0.196 OA 
BRANCH  16  23
HETATM   23  O   UNL    20      -8.996   7.102  70.320  1.00  0.00    -0.150 OA 
BRANCH  23  24
HETATM   24  C   UNL    20      -9.519   7.509  71.606  1.00  0.00    -0.149 C  
HETATM   25  O   UNL    20     -10.436   6.530  72.057  1.00  0.00    -0.199 OA 
HETATM   26  C   UNL    20      -9.813   5.304  72.429  1.00  0.00    -0.162 C  
HETATM   27  H   UNL    20      -7.185   9.108  73.244  1.00  0.00     0.000 HD 
HETATM   28  C   UNL    20      -8.770   5.495  73.570  1.00  0.00    -0.117 C  
HETATM   29  O   UNL    20      -8.158   4.283  73.935  1.00  0.00    -0.091 OA 
HETATM   30  C   UNL    20      -7.740   6.540  73.166  1.00  0.00    -0.096 C  
HETATM   31  O   UNL    20      -7.782   8.930  72.526  1.00  0.00    -0.362 OA 
HETATM   32  H   UNL    20      -7.522   4.400  74.631  1.00  0.00     0.000 HD 
HETATM   33  O   UNL    20      -6.896   6.810  74.249  1.00  0.00    -0.083 OA 
HETATM   34  C   UNL    20      -8.547   7.800  72.776  1.00  0.00    -0.153 C  
HETATM   35  H   UNL    20      -6.253   7.463  73.997  1.00  0.00     0.000 HD 
BRANCH  26  36
HETATM   36  C   UNL    20     -10.922   4.360  72.959  1.00  0.00    -0.204 C  
HETATM   37  O   UNL    20     -11.391   4.817  74.194  1.00  0.00    -0.311 OA 
HETATM   38  H   UNL    20     -12.071   4.238  74.519  1.00  0.00     0.000 HD 
ENDBRANCH  26  36
ENDBRANCH  23  24
ENDBRANCH  16  23
BRANCH  16  39
HETATM   39  C   UNL    20      -7.310   8.200  69.011  1.00  0.00    -0.083 C  
HETATM   40  O   UNL    20      -6.593   7.344  69.859  1.00  0.00    -0.041 OA 
HETATM   41  H   UNL    20      -5.658   7.441  69.723  1.00  0.00     0.000 HD 
ENDBRANCH  16  39
ENDBRANCH  12  14
TORSDOF 5
ENDMDL
MODEL      132
REMARK 921   NORMALIZED FREE ENERGY PREDICTED BY IDOCK:   -4.61 KCAL/MOL
REMARK 922        TOTAL FREE ENERGY PREDICTED BY IDOCK:   -7.55 KCAL/MOL
REMARK 923 INTER-LIGAND FREE ENERGY PREDICTED BY IDOCK:   -6.12 KCAL/MOL
REMARK 924 INTRA-LIGAND FREE ENERGY PREDICTED BY IDOCK:   -1.42 KCAL/MOL
REMARK 927      BINDING AFFINITY PREDICTED BY RF-SCORE:    0.00 PKD
ROOT
HETATM    1  O   HOH     4     -12.027  14.260  68.393  1.00  0.00    -0.403 OA 
HETATM    2  H2  HOH     4     -11.612  14.194  67.540  1.00  0.00     0.000 HD 
HETATM    3 NA   UNL    13     -11.353  10.492  62.452  1.00  0.00    -0.703 Na 
HETATM    4  H1  HOH     4     -12.552  13.472  68.472  1.00  0.00     0.000 HD 
HETATM    5 NA   UNL    14     -11.251  15.350  65.669  1.00  0.00    -0.308 Na 
HETATM    6 FE   UNL    15     -11.749  13.890  62.924  1.00  0.00    -0.653 Fe 
HETATM    7 FE   UNL    16     -11.306  11.933  67.206  1.00  0.00    -0.219 Fe 
HETATM    8 FE   UNL    17      -9.012  14.690  65.422  1.00  0.00    -0.467 Fe 
HETATM    9 FE   UNL    18      -9.977  12.250  68.890  1.00  0.00    -0.197 Fe 
HETATM   10 FE   UNL    19      -5.998  12.268  65.858  1.00  0.00    -0.239 Fe 
HETATM   11  O   UNL    20      -8.740  11.945  66.460  1.00  0.00    -0.201 OA 
HETATM   12  C   UNL    20      -8.996  10.605  66.787  1.00  0.00    -0.138 C  
HETATM   13  H   UNL    20      -9.416  12.564  66.711  1.00  0.00     0.000 HD 
ENDROOT
BRANCH  12  14
HETATM   14  C   UNL    20      -7.896   9.598  66.380  1.00  0.00    -0.101 C  
HETATM   15  O   UNL    20      -8.197   8.307  66.851  1.00  0.00    -0.102 OA 
HETATM   16  C   UNL    20      -7.413   7.399  66.120  1.00  0.00    -0.083 C  
HETATM   17  C   UNL    20      -7.517   9.496  64.885  1.00  0.00    -0.111 C  
HETATM   18  H   UNL    20      -6.155  10.211  63.686  1.00  0.00     0.000 HD 
HETATM   19  C   UNL    20      -7.223   7.991  64.681  1.00  0.00    -0.079 C  
HETATM   20  H   UNL    20      -7.983   7.825  62.849  1.00  0.00     0.000 HD 
HETATM   21  O   UNL    20      -6.388  10.274  64.605  1.00  0.00    -0.129 OA 
HETATM   22  O   UNL    20      -8.098   7.467  63.721  1.00  0.00    -0.111 OA 
BRANCH  16  23
HETATM   23  O   UNL    20      -7.929   6.058  66.253  1.00  0.00    -0.102 OA 
BRANCH  23  24
HETATM   24  C   UNL    20      -9.320   5.808  66.560  1.00  0.00    -0.152 C  
HETATM   25  O   UNL    20      -9.990   5.430  65.372  1.00  0.00     0.111 OA 
HETATM   26  C   UNL    20      -9.614   4.140  64.899  1.00  0.00    -0.178 C  
HETATM   27  H   UNL    20      -9.536   4.560  69.574  1.00  0.00     0.000 HD 
HETATM   28  C   UNL    20      -9.900   3.022  65.944  1.00  0.00     0.333 C  
HETATM   29  O   UNL    20      -9.529   1.750  65.474  1.00  0.00    -0.322 OA 
HETATM   30  C   UNL    20      -9.214   3.351  67.262  1.00  0.00    -0.193 C  
HETATM   31  O   UNL    20      -9.306   5.197  68.908  1.00  0.00    -0.113 OA 
HETATM   32  H   UNL    20      -9.704   1.069  66.111  1.00  0.00     0.000 HD 
HETATM   33  O   UNL    20      -9.595   2.420  68.235  1.00  0.00    -0.206 OA 
HETATM   34  C   UNL    20      -9.696   4.769  67.646  1.00  0.00    -0.160 C  
HETATM   35  H   UNL    20      -9.167   2.625  69.058  1.00  0.00     0.000 HD 
BRANCH  26  36
HETATM   36  C   UNL    20     -10.467   3.838  63.641  1.00  0.00    -0.242 C  
HETATM   37  O   UNL    20     -11.388   2.823  63.918  1.00  0.00    -0.586 OA 
HETATM   38  H   UNL    20     -11.911   2.638  63.147  1.00  0.00     0.000 HD 
ENDBRANCH  26  36
ENDBRANCH  23  24
ENDBRANCH  16  23
BRANCH  16  39
HETATM   39  C   UNL    20      -5.998   7.384  66.776  1.00  0.00    -0.039 C  
HETATM   40  O   UNL    20      -6.055   6.847  68.070  1.00  0.00    -0.030 OA 
HETATM   41  H   UNL    20      -5.193   6.838  68.469  1.00  0.00     0.000 HD 
ENDBRANCH  16  39
ENDBRANCH  12  14
TORSDOF 5
ENDMDL
MODEL      133
REMARK 921   NORMALIZED FREE ENERGY PREDICTED BY IDOCK:   -4.60 KCAL/MOL
REMARK 922        TOTAL FREE ENERGY PREDICTED BY IDOCK:   -7.53 KCAL/MOL
REMARK 923 INTER-LIGAND FREE ENERGY PREDICTED BY IDOCK:   -7.03 KCAL/MOL
REMARK 924 INTRA-LIGAND FREE ENERGY PREDICTED BY IDOCK:   -0.51 KCAL/MOL
REMARK 927      BINDING AFFINITY PREDICTED BY RF-SCORE:    0.00 PKD
ROOT
HETATM    1  O   HOH     4      -9.378   7.276  73.116  1.00  0.00    -0.147 OA 
HETATM    2  H2  HOH     4     -10.085   7.578  72.557  1.00  0.00     0.000 HD 
HETATM    3 NA   UNL    13     -12.373   6.938  66.724  1.00  0.00    -0.486 Na 
HETATM    4  H1  HOH     4      -8.853   6.708  72.565  1.00  0.00     0.000 HD 
HETATM    5 NA   UNL    14     -12.302   7.792  72.488  1.00  0.00    -0.292 Na 
HETATM    6 FE   UNL    15     -13.787   6.855  69.874  1.00  0.00    -0.310 Fe 
HETATM    7 FE   UNL    16      -9.164   7.672  70.444  1.00  0.00    -0.144 Fe 
HETATM    8 FE   UNL    17     -12.295   9.929  71.517  1.00  0.00    -0.268 Fe 
HETATM    9 FE   UNL    18      -8.005   9.217  71.432  1.00  0.00    -0.106 Fe 
HETATM   10 FE   UNL    19     -10.812  12.787  69.331  1.00  0.00    -0.214 Fe 
HETATM   11  O   UNL    20      -9.959  10.122  69.731  1.00  0.00    -0.231 OA 
HETATM   12  C   UNL    20      -8.944   9.810  68.813  1.00  0.00    -0.133 C  
HETATM   13  H   UNL    20     -10.039   9.529  70.469  1.00  0.00     0.000 HD 
ENDROOT
BRANCH  12  14
HETATM   14  C   UNL    20      -8.812  10.774  67.612  1.00  0.00    -0.132 C  
HETATM   15  O   UNL    20      -9.370  12.030  67.911  1.00  0.00    -0.177 OA 
HETATM   16  C   UNL    20      -8.863  12.948  66.978  1.00  0.00    -0.208 C  
HETATM   17  C   UNL    20      -7.410  10.995  67.004  1.00  0.00    -0.123 C  
HETATM   18  H   UNL    20      -6.354  10.307  65.515  1.00  0.00     0.000 HD 
HETATM   19  C   UNL    20      -7.413  12.488  66.601  1.00  0.00     0.426 C  
HETATM   20  H   UNL    20      -5.517  12.884  67.062  1.00  0.00     0.000 HD 
HETATM   21  O   UNL    20      -7.216  10.171  65.888  1.00  0.00    -0.108 OA 
HETATM   22  O   UNL    20      -6.396  13.163  67.290  1.00  0.00    -0.270 OA 
BRANCH  16  23
HETATM   23  O   UNL    20      -9.062  14.303  67.435  1.00  0.00    -0.180 OA 
BRANCH  23  24
HETATM   24  C   UNL    20     -10.231  15.066  67.055  1.00  0.00    -0.257 C  
HETATM   25  O   UNL    20     -11.285  14.766  67.951  1.00  0.00    -0.281 OA 
HETATM   26  C   UNL    20     -11.076  15.285  69.261  1.00  0.00    -0.274 C  
HETATM   27  H   UNL    20      -9.271  17.945  65.841  1.00  0.00     0.000 HD 
HETATM   28  C   UNL    20     -10.919  16.834  69.264  1.00  0.00    -0.197 C  
HETATM   29  O   UNL    20     -10.714  17.342  70.559  1.00  0.00     0.029 OA 
HETATM   30  C   UNL    20      -9.800  17.247  68.319  1.00  0.00    -0.304 C  
HETATM   31  O   UNL    20      -9.324  16.999  65.903  1.00  0.00    -0.498 OA 
HETATM   32  H   UNL    20     -10.619  18.287  70.560  1.00  0.00     0.000 HD 
HETATM   33  O   UNL    20      -9.764  18.643  68.217  1.00  0.00    -0.320 OA 
HETATM   34  C   UNL    20     -10.145  16.610  66.953  1.00  0.00    -0.280 C  
HETATM   35  H   UNL    20      -9.066  18.901  67.627  1.00  0.00     0.000 HD 
BRANCH  26  36
HETATM   36  C   UNL    20     -12.328  14.936  70.105  1.00  0.00    -0.327 C  
HETATM   37  O   UNL    20     -13.245  15.990  70.060  1.00  0.00    -0.567 OA 
HETATM   38  H   UNL    20     -14.013  15.776  70.577  1.00  0.00     0.000 HD 
ENDBRANCH  26  36
ENDBRANCH  23  24
ENDBRANCH  16  23
BRANCH  16  39
HETATM   39  C   UNL    20      -9.718  12.802  65.681  1.00  0.00    -0.120 C  
HETATM   40  O   UNL    20      -9.544  13.912  64.842  1.00  0.00    -0.524 OA 
HETATM   41  H   UNL    20     -10.064  13.822  64.052  1.00  0.00     0.000 HD 
ENDBRANCH  16  39
ENDBRANCH  12  14
TORSDOF 5
ENDMDL
MODEL      134
REMARK 921   NORMALIZED FREE ENERGY PREDICTED BY IDOCK:   -4.60 KCAL/MOL
REMARK 922        TOTAL FREE ENERGY PREDICTED BY IDOCK:   -7.53 KCAL/MOL
REMARK 923 INTER-LIGAND FREE ENERGY PREDICTED BY IDOCK:   -6.92 KCAL/MOL
REMARK 924 INTRA-LIGAND FREE ENERGY PREDICTED BY IDOCK:   -0.60 KCAL/MOL
REMARK 927      BINDING AFFINITY PREDICTED BY RF-SCORE:    0.00 PKD
ROOT
HETATM    1  O   HOH     4     -13.520  14.321  65.641  1.00  0.00    -0.688 OA 
HETATM    2  H2  HOH     4     -12.671  14.027  65.330  1.00  0.00     0.000 HD 
HETATM    3 NA   UNL    13      -9.457   8.781  63.982  1.00  0.00    -0.433 Na 
HETATM    4  H1  HOH     4     -14.006  13.524  65.816  1.00  0.00     0.000 HD 
HETATM    5 NA   UNL    14     -11.203  14.333  63.682  1.00  0.00    -0.570 Na 
HETATM    6 FE   UNL    15      -9.955  11.775  62.334  1.00  0.00    -0.487 Fe 
HETATM    7 FE   UNL    16     -12.294  12.038  66.435  1.00  0.00    -0.347 Fe 
HETATM    8 FE   UNL    17      -9.304  14.325  65.063  1.00  0.00    -0.475 Fe 
HETATM    9 FE   UNL    18     -12.270  13.415  68.111  1.00  0.00    -0.281 Fe 
HETATM   10 FE   UNL    19      -7.269  13.325  68.225  1.00  0.00    -0.070 Fe 
HETATM   11  O   UNL    20      -9.811  12.492  67.315  1.00  0.00    -0.201 OA 
HETATM   12  C   UNL    20     -10.255  11.407  68.085  1.00  0.00    -0.187 C  
HETATM   13  H   UNL    20     -10.480  12.929  66.799  1.00  0.00     0.000 HD 
ENDROOT
BRANCH  12  14
HETATM   14  C   UNL    20      -9.168  10.696  68.924  1.00  0.00    -0.183 C  
HETATM   15  O   UNL    20      -9.558   9.383  69.244  1.00  0.00    -0.161 OA 
HETATM   16  C   UNL    20      -8.403   8.682  69.626  1.00  0.00    -0.123 C  
HETATM   17  C   UNL    20      -7.728  10.655  68.368  1.00  0.00    -0.106 C  
HETATM   18  H   UNL    20      -6.068  11.658  68.576  1.00  0.00     0.000 HD 
HETATM   19  C   UNL    20      -7.202   9.267  68.804  1.00  0.00    -0.074 C  
HETATM   20  H   UNL    20      -6.131   8.871  67.174  1.00  0.00     0.000 HD 
HETATM   21  O   UNL    20      -6.953  11.684  68.918  1.00  0.00    -0.094 OA 
HETATM   22  O   UNL    20      -6.858   8.517  67.672  1.00  0.00    -0.068 OA 
BRANCH  16  23
HETATM   23  O   UNL    20      -8.636   7.258  69.592  1.00  0.00    -0.135 OA 
BRANCH  23  24
HETATM   24  C   UNL    20      -9.972   6.711  69.503  1.00  0.00    -0.163 C  
HETATM   25  O   UNL    20     -10.235   6.362  68.157  1.00  0.00    -0.142 OA 
HETATM   26  C   UNL    20      -9.486   5.236  67.710  1.00  0.00    -0.124 C  
HETATM   27  H   UNL    20     -10.638   5.082  72.258  1.00  0.00     0.000 HD 
HETATM   28  C   UNL    20      -9.769   3.964  68.561  1.00  0.00    -0.044 C  
HETATM   29  O   UNL    20      -9.028   2.855  68.116  1.00  0.00    -0.116 OA 
HETATM   30  C   UNL    20      -9.511   4.253  70.033  1.00  0.00    -0.184 C  
HETATM   31  O   UNL    20     -10.396   5.829  71.723  1.00  0.00    -0.207 OA 
HETATM   32  H   UNL    20      -9.201   2.078  68.635  1.00  0.00     0.000 HD 
HETATM   33  O   UNL    20      -9.906   3.152  70.803  1.00  0.00    -0.139 OA 
HETATM   34  C   UNL    20     -10.366   5.493  70.376  1.00  0.00    -0.276 C  
HETATM   35  H   UNL    20      -9.745   3.332  71.722  1.00  0.00     0.000 HD 
BRANCH  26  36
HETATM   36  C   UNL    20      -9.923   4.935  66.253  1.00  0.00    -0.234 C  
HETATM   37  O   UNL    20      -9.491   5.956  65.402  1.00  0.00    -0.365 OA 
HETATM   38  H   UNL    20      -9.759   5.771  64.509  1.00  0.00     0.000 HD 
ENDBRANCH  26  36
ENDBRANCH  23  24
ENDBRANCH  16  23
BRANCH  16  39
HETATM   39  C   UNL    20      -8.124   9.037  71.119  1.00  0.00    -0.139 C  
HETATM   40  O   UNL    20      -8.329   7.921  71.943  1.00  0.00    -0.106 OA 
HETATM   41  H   UNL    20      -8.159   8.137  72.852  1.00  0.00     0.000 HD 
ENDBRANCH  16  39
ENDBRANCH  12  14
TORSDOF 5
ENDMDL
MODEL      135
REMARK 921   NORMALIZED FREE ENERGY PREDICTED BY IDOCK:   -4.58 KCAL/MOL
REMARK 922        TOTAL FREE ENERGY PREDICTED BY IDOCK:   -7.51 KCAL/MOL
REMARK 923 INTER-LIGAND FREE ENERGY PREDICTED BY IDOCK:   -6.63 KCAL/MOL
REMARK 924 INTRA-LIGAND FREE ENERGY PREDICTED BY IDOCK:   -0.88 KCAL/MOL
REMARK 927      BINDING AFFINITY PREDICTED BY RF-SCORE:    0.00 PKD
ROOT
HETATM    1  O   HOH     4     -13.090  15.156  70.053  1.00  0.00    -0.626 OA 
HETATM    2  H2  HOH     4     -12.399  15.372  69.437  1.00  0.00     0.000 HD 
HETATM    3 NA   UNL    13     -10.177  13.781  63.763  1.00  0.00    -0.487 Na 
HETATM    4  H1  HOH     4     -13.567  14.442  69.647  1.00  0.00     0.000 HD 
HETATM    5 NA   UNL    14     -11.468  17.097  68.377  1.00  0.00    -0.331 Na 
HETATM    6 FE   UNL    15     -10.894  16.791  65.296  1.00  0.00    -0.321 Fe 
HETATM    7 FE   UNL    16     -11.877  13.373  68.413  1.00  0.00    -0.241 Fe 
HETATM    8 FE   UNL    17      -9.252  16.387  68.690  1.00  0.00    -0.178 Fe 
HETATM    9 FE   UNL    18     -11.241  12.938  70.440  1.00  0.00    -0.458 Fe 
HETATM   10 FE   UNL    19      -6.458  13.728  69.204  1.00  0.00    -0.077 Fe 
HETATM   11  O   UNL    20      -9.216  13.440  68.658  1.00  0.00    -0.353 OA 
HETATM   12  C   UNL    20      -9.499  12.100  68.354  1.00  0.00    -0.179 C  
HETATM   13  H   UNL    20      -9.969  13.979  68.872  1.00  0.00     0.000 HD 
ENDROOT
BRANCH  12  14
HETATM   14  C   UNL    20      -8.274  11.223  68.007  1.00  0.00    -0.134 C  
HETATM   15  O   UNL    20      -8.659   9.889  67.783  1.00  0.00    -0.121 OA 
HETATM   16  C   UNL    20      -7.612   9.260  67.088  1.00  0.00    -0.091 C  
HETATM   17  C   UNL    20      -7.363  11.670  66.842  1.00  0.00    -0.125 C  
HETATM   18  H   UNL    20      -5.693  12.651  66.607  1.00  0.00     0.000 HD 
HETATM   19  C   UNL    20      -6.933  10.341  66.178  1.00  0.00    -0.116 C  
HETATM   20  H   UNL    20      -6.948  10.978  64.292  1.00  0.00     0.000 HD 
HETATM   21  O   UNL    20      -6.253  12.376  67.323  1.00  0.00    -0.150 OA 
HETATM   22  O   UNL    20      -7.360  10.323  64.843  1.00  0.00    -0.143 OA 
BRANCH  16  23
HETATM   23  O   UNL    20      -8.068   8.032  66.481  1.00  0.00    -0.099 OA 
BRANCH  23  24
HETATM   24  C   UNL    20      -7.715   6.740  67.028  1.00  0.00    -0.100 C  
HETATM   25  O   UNL    20      -8.652   6.397  68.032  1.00  0.00    -0.118 OA 
HETATM   26  C   UNL    20      -9.945   6.093  67.517  1.00  0.00    -0.137 C  
HETATM   27  H   UNL    20      -6.417   4.901  64.658  1.00  0.00     0.000 HD 
HETATM   28  C   UNL    20      -9.914   4.904  66.513  1.00  0.00    -0.232 C  
HETATM   29  O   UNL    20     -11.192   4.606  66.007  1.00  0.00    -0.548 OA 
HETATM   30  C   UNL    20      -8.924   5.190  65.393  1.00  0.00    -0.156 C  
HETATM   31  O   UNL    20      -6.498   5.653  65.234  1.00  0.00    -0.037 OA 
HETATM   32  H   UNL    20     -11.173   3.880  65.395  1.00  0.00     0.000 HD 
HETATM   33  O   UNL    20      -8.796   4.058  64.579  1.00  0.00    -0.119 OA 
HETATM   34  C   UNL    20      -7.583   5.515  66.089  1.00  0.00    -0.091 C  
HETATM   35  H   UNL    20      -8.178   4.237  63.880  1.00  0.00     0.000 HD 
BRANCH  26  36
HETATM   36  C   UNL    20     -10.837   5.677  68.713  1.00  0.00    -0.140 C  
HETATM   37  O   UNL    20     -11.750   6.694  69.008  1.00  0.00    -0.608 OA 
HETATM   38  H   UNL    20     -12.297   6.439  69.741  1.00  0.00     0.000 HD 
ENDBRANCH  26  36
ENDBRANCH  23  24
ENDBRANCH  16  23
BRANCH  16  39
HETATM   39  C   UNL    20      -6.544   8.846  68.146  1.00  0.00    -0.061 C  
HETATM   40  O   UNL    20      -7.106   8.799  69.429  1.00  0.00    -0.055 OA 
HETATM   41  H   UNL    20      -6.455   8.547  70.073  1.00  0.00     0.000 HD 
ENDBRANCH  16  39
ENDBRANCH  12  14
TORSDOF 5
ENDMDL
MODEL      136
REMARK 921   NORMALIZED FREE ENERGY PREDICTED BY IDOCK:   -4.57 KCAL/MOL
REMARK 922        TOTAL FREE ENERGY PREDICTED BY IDOCK:   -7.49 KCAL/MOL
REMARK 923 INTER-LIGAND FREE ENERGY PREDICTED BY IDOCK:   -7.72 KCAL/MOL
REMARK 924 INTRA-LIGAND FREE ENERGY PREDICTED BY IDOCK:    0.23 KCAL/MOL
REMARK 927      BINDING AFFINITY PREDICTED BY RF-SCORE:    0.00 PKD
ROOT
HETATM    1  O   HOH     4     -12.576   9.079  71.774  1.00  0.00    -0.322 OA 
HETATM    2  H2  HOH     4     -11.783   9.156  71.256  1.00  0.00     0.000 HD 
HETATM    3 NA   UNL    13      -7.252  13.263  69.752  1.00  0.00    -0.255 Na 
HETATM    4  H1  HOH     4     -12.703   9.939  72.158  1.00  0.00     0.000 HD 
HETATM    5 NA   UNL    14      -9.826   8.159  70.884  1.00  0.00    -0.164 Na 
HETATM    6 FE   UNL    15      -7.251   9.969  70.790  1.00  0.00    -0.107 Fe 
HETATM    7 FE   UNL    16     -11.768  11.342  70.522  1.00  0.00    -0.247 Fe 
HETATM    8 FE   UNL    17      -9.882   8.408  68.550  1.00  0.00    -0.151 Fe 
HETATM    9 FE   UNL    18     -13.520  10.604  69.478  1.00  0.00    -0.374 Fe 
HETATM   10 FE   UNL    19     -10.911  10.161  65.232  1.00  0.00    -0.240 Fe 
HETATM   11  O   UNL    20     -11.280  10.928  67.927  1.00  0.00    -0.283 OA 
HETATM   12  C   UNL    20     -11.747  12.249  67.981  1.00  0.00    -0.356 C  
HETATM   13  H   UNL    20     -11.384  10.423  68.726  1.00  0.00     0.000 HD 
ENDROOT
BRANCH  12  14
HETATM   14  C   UNL    20     -11.578  13.070  66.682  1.00  0.00    -0.359 C  
HETATM   15  O   UNL    20     -11.567  14.449  66.956  1.00  0.00    -0.352 OA 
HETATM   16  C   UNL    20     -11.011  15.096  65.840  1.00  0.00    -0.339 C  
HETATM   17  C   UNL    20     -10.378  12.746  65.765  1.00  0.00    -0.281 C  
HETATM   18  H   UNL    20     -10.024  11.685  64.166  1.00  0.00     0.000 HD 
HETATM   19  C   UNL    20      -9.952  14.126  65.212  1.00  0.00    -0.264 C  
HETATM   20  H   UNL    20      -7.987  13.807  65.206  1.00  0.00     0.000 HD 
HETATM   21  O   UNL    20     -10.762  11.884  64.730  1.00  0.00    -0.283 OA 
HETATM   22  O   UNL    20      -8.629  14.395  65.586  1.00  0.00     1.048 OA 
BRANCH  16  23
HETATM   23  O   UNL    20     -10.604  16.439  66.179  1.00  0.00    -0.311 OA 
BRANCH  23  24
HETATM   24  C   UNL    20      -9.452  16.693  67.017  1.00  0.00    -0.230 C  
HETATM   25  O   UNL    20      -8.900  17.948  66.667  1.00  0.00    -0.254 OA 
HETATM   26  C   UNL    20      -9.719  19.050  67.047  1.00  0.00    -0.315 C  
HETATM   27  H   UNL    20      -9.973  15.382  69.966  1.00  0.00     0.000 HD 
HETATM   28  C   UNL    20      -9.977  19.091  68.582  1.00  0.00    -0.418 C  
HETATM   29  O   UNL    20     -10.785  20.180  68.953  1.00  0.00    -0.416 OA 
HETATM   30  C   UNL    20     -10.574  17.770  69.047  1.00  0.00    -0.012 C  
HETATM   31  O   UNL    20      -9.882  15.394  69.020  1.00  0.00    -0.209 OA 
HETATM   32  H   UNL    20     -10.942  20.205  69.890  1.00  0.00     0.000 HD 
HETATM   33  O   UNL    20     -10.666  17.762  70.444  1.00  0.00     0.192 OA 
HETATM   34  C   UNL    20      -9.600  16.672  68.559  1.00  0.00    -0.241 C  
HETATM   35  H   UNL    20     -11.038  16.938  70.734  1.00  0.00     0.000 HD 
BRANCH  26  36
HETATM   36  C   UNL    20      -8.964  20.347  66.662  1.00  0.00    -0.181 C  
HETATM   37  O   UNL    20      -8.254  20.154  65.474  1.00  0.00    -0.471 OA 
HETATM   38  H   UNL    20      -7.791  20.949  65.237  1.00  0.00     0.000 HD 
ENDBRANCH  26  36
ENDBRANCH  23  24
ENDBRANCH  16  23
BRANCH  16  39
HETATM   39  C   UNL    20     -12.148  15.245  64.783  1.00  0.00    -0.122 C  
HETATM   40  O   UNL    20     -11.751  16.095  63.741  1.00  0.00    -1.404 OA 
HETATM   41  H   UNL    20     -12.443  16.185  63.097  1.00  0.00     0.000 HD 
ENDBRANCH  16  39
ENDBRANCH  12  14
TORSDOF 5
ENDMDL
MODEL      137
REMARK 921   NORMALIZED FREE ENERGY PREDICTED BY IDOCK:   -4.55 KCAL/MOL
REMARK 922        TOTAL FREE ENERGY PREDICTED BY IDOCK:   -7.46 KCAL/MOL
REMARK 923 INTER-LIGAND FREE ENERGY PREDICTED BY IDOCK:   -5.96 KCAL/MOL
REMARK 924 INTRA-LIGAND FREE ENERGY PREDICTED BY IDOCK:   -1.50 KCAL/MOL
REMARK 927      BINDING AFFINITY PREDICTED BY RF-SCORE:    0.00 PKD
ROOT
HETATM    1  O   HOH     4      -9.711  20.217  65.174  1.00  0.00    -0.253 OA 
HETATM    2  H2  HOH     4      -9.654  19.900  66.068  1.00  0.00     0.000 HD 
HETATM    3 NA   UNL    13      -6.419  15.881  69.681  1.00  0.00    -0.125 Na 
HETATM    4  H1  HOH     4      -9.059  19.719  64.695  1.00  0.00     0.000 HD 
HETATM    5 NA   UNL    14      -9.479  20.606  68.175  1.00  0.00    -0.313 Na 
HETATM    6 FE   UNL    15      -7.370  19.183  70.029  1.00  0.00    -0.193 Fe 
HETATM    7 FE   UNL    16      -9.047  17.684  65.870  1.00  0.00    -0.249 Fe 
HETATM    8 FE   UNL    17     -11.033  19.083  69.056  1.00  0.00    -0.401 Fe 
HETATM    9 FE   UNL    18     -11.015  17.621  64.960  1.00  0.00    -0.439 Fe 
HETATM   10 FE   UNL    19     -12.986  15.719  69.147  1.00  0.00    -0.571 Fe 
HETATM   11  O   UNL    20     -10.862  16.587  67.497  1.00  0.00    -0.313 OA 
HETATM   12  C   UNL    20     -10.373  15.506  66.750  1.00  0.00    -0.288 C  
HETATM   13  H   UNL    20     -10.604  17.449  67.188  1.00  0.00     0.000 HD 
ENDROOT
BRANCH  12  14
HETATM   14  C   UNL    20     -10.792  14.105  67.252  1.00  0.00    -0.285 C  
HETATM   15  O   UNL    20     -10.392  13.105  66.347  1.00  0.00    -0.276 OA 
HETATM   16  C   UNL    20     -10.423  11.880  67.033  1.00  0.00    -0.224 C  
HETATM   17  C   UNL    20     -10.359  13.679  68.673  1.00  0.00    -0.219 C  
HETATM   18  H   UNL    20     -11.120  13.647  70.468  1.00  0.00     0.000 HD 
HETATM   19  C   UNL    20     -10.064  12.167  68.531  1.00  0.00    -0.187 C  
HETATM   20  H   UNL    20      -8.508  12.090  69.770  1.00  0.00     0.000 HD 
HETATM   21  O   UNL    20     -11.386  13.909  69.595  1.00  0.00    -0.252 OA 
HETATM   22  O   UNL    20      -8.726  11.916  68.862  1.00  0.00    -0.000 OA 
BRANCH  16  23
HETATM   23  O   UNL    20      -9.669  10.877  66.320  1.00  0.00    -0.191 OA 
BRANCH  23  24
HETATM   24  C   UNL    20      -8.784  11.227  65.230  1.00  0.00     0.050 C  
HETATM   25  O   UNL    20      -7.516  11.564  65.760  1.00  0.00     0.276 OA 
HETATM   26  C   UNL    20      -6.811  10.445  66.290  1.00  0.00    -0.117 C  
HETATM   27  H   UNL    20      -9.549   9.417  62.618  1.00  0.00     0.000 HD 
HETATM   28  C   UNL    20      -6.566   9.342  65.219  1.00  0.00    -0.073 C  
HETATM   29  O   UNL    20      -5.869   8.240  65.745  1.00  0.00    -0.040 OA 
HETATM   30  C   UNL    20      -7.887   8.919  64.592  1.00  0.00    -0.124 C  
HETATM   31  O   UNL    20      -9.696  10.035  63.325  1.00  0.00    -0.197 OA 
HETATM   32  H   UNL    20      -5.719   7.567  65.091  1.00  0.00     0.000 HD 
HETATM   33  O   UNL    20      -7.643   8.037  63.533  1.00  0.00    -0.117 OA 
HETATM   34  C   UNL    20      -8.545  10.220  64.078  1.00  0.00    -0.190 C  
HETATM   35  H   UNL    20      -8.467   7.773  63.141  1.00  0.00     0.000 HD 
BRANCH  26  36
HETATM   36  C   UNL    20      -5.427  10.951  66.770  1.00  0.00    -0.072 C  
HETATM   37  O   UNL    20      -5.583  11.808  67.863  1.00  0.00    -0.045 OA 
HETATM   38  H   UNL    20      -4.734  12.118  68.158  1.00  0.00     0.000 HD 
ENDBRANCH  26  36
ENDBRANCH  23  24
ENDBRANCH  16  23
BRANCH  16  39
HETATM   39  C   UNL    20     -11.904  11.389  67.026  1.00  0.00     0.280 C  
HETATM   40  O   UNL    20     -12.216  10.730  68.223  1.00  0.00    -0.815 OA 
HETATM   41  H   UNL    20     -13.118  10.432  68.219  1.00  0.00     0.000 HD 
ENDBRANCH  16  39
ENDBRANCH  12  14
TORSDOF 5
ENDMDL
MODEL      138
REMARK 921   NORMALIZED FREE ENERGY PREDICTED BY IDOCK:   -4.54 KCAL/MOL
REMARK 922        TOTAL FREE ENERGY PREDICTED BY IDOCK:   -7.45 KCAL/MOL
REMARK 923 INTER-LIGAND FREE ENERGY PREDICTED BY IDOCK:   -6.69 KCAL/MOL
REMARK 924 INTRA-LIGAND FREE ENERGY PREDICTED BY IDOCK:   -0.76 KCAL/MOL
REMARK 927      BINDING AFFINITY PREDICTED BY RF-SCORE:    0.00 PKD
ROOT
HETATM    1  O   HOH     4      -9.951   2.862  70.955  1.00  0.00    -0.057 OA 
HETATM    2  H2  HOH     4      -9.994   3.751  71.286  1.00  0.00     0.000 HD 
HETATM    3 NA   UNL    13     -12.743   9.306  70.167  1.00  0.00    -0.480 Na 
HETATM    4  H1  HOH     4     -10.505   2.860  70.183  1.00  0.00     0.000 HD 
HETATM    5 NA   UNL    14     -10.347   4.913  73.154  1.00  0.00    -0.148 Na 
HETATM    6 FE   UNL    15     -12.295   7.383  73.001  1.00  0.00    -0.493 Fe 
HETATM    7 FE   UNL    16     -10.266   5.067  69.412  1.00  0.00    -0.141 Fe 
HETATM    8 FE   UNL    17      -8.622   6.464  72.788  1.00  0.00    -0.119 Fe 
HETATM    9 FE   UNL    18      -8.278   4.284  69.040  1.00  0.00    -0.068 Fe 
HETATM   10 FE   UNL    19      -6.207   8.570  70.581  1.00  0.00    -0.033 Fe 
HETATM   11  O   UNL    20      -8.372   6.893  69.883  1.00  0.00    -0.134 OA 
HETATM   12  C   UNL    20      -8.672   7.052  68.521  1.00  0.00    -0.122 C  
HETATM   13  H   UNL    20      -8.741   6.120  70.295  1.00  0.00     0.000 HD 
ENDROOT
BRANCH  12  14
HETATM   14  C   UNL    20      -8.073   8.310  67.850  1.00  0.00    -0.127 C  
HETATM   15  O   UNL    20      -9.067   9.277  67.617  1.00  0.00    -0.125 OA 
HETATM   16  C   UNL    20      -8.419  10.505  67.405  1.00  0.00    -0.122 C  
HETATM   17  C   UNL    20      -6.871   9.000  68.533  1.00  0.00    -0.064 C  
HETATM   18  H   UNL    20      -4.927   9.000  68.382  1.00  0.00     0.000 HD 
HETATM   19  C   UNL    20      -7.113  10.505  68.272  1.00  0.00    -0.081 C  
HETATM   20  H   UNL    20      -6.442  11.181  70.020  1.00  0.00     0.000 HD 
HETATM   21  O   UNL    20      -5.665   8.576  67.962  1.00  0.00    -0.034 OA 
HETATM   22  O   UNL    20      -7.233  11.181  69.494  1.00  0.00    -0.121 OA 
BRANCH  16  23
HETATM   23  O   UNL    20      -9.345  11.602  67.547  1.00  0.00    -0.164 OA 
BRANCH  23  24
HETATM   24  C   UNL    20     -10.760  11.438  67.292  1.00  0.00    -0.241 C  
HETATM   25  O   UNL    20     -11.456  11.500  68.523  1.00  0.00    -0.239 OA 
HETATM   26  C   UNL    20     -11.467  12.802  69.099  1.00  0.00    -0.306 C  
HETATM   27  H   UNL    20     -11.482  12.790  64.405  1.00  0.00     0.000 HD 
HETATM   28  C   UNL    20     -12.127  13.856  68.162  1.00  0.00    -0.282 C  
HETATM   29  O   UNL    20     -12.137  15.140  68.735  1.00  0.00    -0.533 OA 
HETATM   30  C   UNL    20     -11.435  13.856  66.807  1.00  0.00    -0.352 C  
HETATM   31  O   UNL    20     -11.039  12.204  65.007  1.00  0.00    -0.304 OA 
HETATM   32  H   UNL    20     -12.539  15.783  68.164  1.00  0.00     0.000 HD 
HETATM   33  O   UNL    20     -12.125  14.699  65.927  1.00  0.00    -0.315 OA 
HETATM   34  C   UNL    20     -11.482  12.393  66.309  1.00  0.00    -0.371 C  
HETATM   35  H   UNL    20     -11.693  14.699  65.081  1.00  0.00     0.000 HD 
BRANCH  26  36
HETATM   36  C   UNL    20     -12.313  12.730  70.396  1.00  0.00    -0.247 C  
HETATM   37  O   UNL    20     -12.290  13.964  71.053  1.00  0.00    -0.346 OA 
HETATM   38  H   UNL    20     -12.809  13.920  71.848  1.00  0.00     0.000 HD 
ENDBRANCH  26  36
ENDBRANCH  23  24
ENDBRANCH  16  23
BRANCH  16  39
HETATM   39  C   UNL    20      -7.953  10.525  65.916  1.00  0.00    -0.154 C  
HETATM   40  O   UNL    20      -6.756  11.243  65.778  1.00  0.00    -0.366 OA 
HETATM   41  H   UNL    20      -6.473  11.255  64.872  1.00  0.00     0.000 HD 
ENDBRANCH  16  39
ENDBRANCH  12  14
TORSDOF 5
ENDMDL
MODEL      139
REMARK 921   NORMALIZED FREE ENERGY PREDICTED BY IDOCK:   -4.53 KCAL/MOL
REMARK 922        TOTAL FREE ENERGY PREDICTED BY IDOCK:   -7.44 KCAL/MOL
REMARK 923 INTER-LIGAND FREE ENERGY PREDICTED BY IDOCK:   -6.82 KCAL/MOL
REMARK 924 INTRA-LIGAND FREE ENERGY PREDICTED BY IDOCK:   -0.62 KCAL/MOL
REMARK 927      BINDING AFFINITY PREDICTED BY RF-SCORE:    0.00 PKD
ROOT
HETATM    1  O   HOH     4     -11.877  16.845  72.609  1.00  0.00    -0.469 OA 
HETATM    2  H2  HOH     4     -12.228  16.041  72.244  1.00  0.00     0.000 HD 
HETATM    3 NA   UNL    13     -10.913   9.911  71.643  1.00  0.00    -0.305 Na 
HETATM    4  H1  HOH     4     -11.035  16.602  72.977  1.00  0.00     0.000 HD 
HETATM    5 NA   UNL    14     -14.064  14.779  72.218  1.00  0.00    -0.327 Na 
HETATM    6 FE   UNL    15     -13.718  11.675  72.617  1.00  0.00    -0.563 Fe 
HETATM    7 FE   UNL    16     -10.377  14.849  71.556  1.00  0.00    -0.517 Fe 
HETATM    8 FE   UNL    17     -13.994  14.322  69.916  1.00  0.00    -0.325 Fe 
HETATM    9 FE   UNL    18     -10.264  16.540  70.203  1.00  0.00    -0.238 Fe 
HETATM   10 FE   UNL    19     -12.218  13.811  66.492  1.00  0.00    -0.328 Fe 
HETATM   11  O   UNL    20     -11.168  14.202  69.087  1.00  0.00    -0.252 OA 
HETATM   12  C   UNL    20      -9.784  13.973  69.075  1.00  0.00     0.056 C  
HETATM   13  H   UNL    20     -11.500  14.667  69.847  1.00  0.00     0.000 HD 
ENDROOT
BRANCH  12  14
HETATM   14  C   UNL    20      -9.245  13.217  67.839  1.00  0.00    -0.207 C  
HETATM   15  O   UNL    20      -8.738  11.956  68.203  1.00  0.00    -0.161 OA 
HETATM   16  C   UNL    20      -8.656  11.182  67.034  1.00  0.00    -0.147 C  
HETATM   17  C   UNL    20     -10.185  13.033  66.627  1.00  0.00    -0.257 C  
HETATM   18  H   UNL    20     -10.529  13.907  64.918  1.00  0.00     0.000 HD 
HETATM   19  C   UNL    20      -9.824  11.629  66.089  1.00  0.00    -0.223 C  
HETATM   20  H   UNL    20     -11.661  11.072  65.564  1.00  0.00     0.000 HD 
HETATM   21  O   UNL    20      -9.951  14.020  65.663  1.00  0.00    -0.311 OA 
HETATM   22  O   UNL    20     -10.954  10.801  66.137  1.00  0.00    -0.115 OA 
BRANCH  16  23
HETATM   23  O   UNL    20      -8.525   9.781  67.358  1.00  0.00    -0.121 OA 
BRANCH  23  24
HETATM   24  C   UNL    20      -9.244   9.189  68.465  1.00  0.00    -0.136 C  
HETATM   25  O   UNL    20     -10.058   8.141  67.973  1.00  0.00    -0.181 OA 
HETATM   26  C   UNL    20      -9.315   7.007  67.537  1.00  0.00    -0.123 C  
HETATM   27  H   UNL    20      -7.362   9.304  71.135  1.00  0.00     0.000 HD 
HETATM   28  C   UNL    20      -8.447   6.397  68.676  1.00  0.00    -0.123 C  
HETATM   29  O   UNL    20      -7.716   5.278  68.242  1.00  0.00    -0.079 OA 
HETATM   30  C   UNL    20      -7.536   7.464  69.266  1.00  0.00    -0.092 C  
HETATM   31  O   UNL    20      -7.842   9.647  70.390  1.00  0.00    -0.155 OA 
HETATM   32  H   UNL    20      -7.187   4.905  68.938  1.00  0.00     0.000 HD 
HETATM   33  O   UNL    20      -6.867   6.945  70.382  1.00  0.00    -0.055 OA 
HETATM   34  C   UNL    20      -8.463   8.629  69.680  1.00  0.00    -0.129 C  
HETATM   35  H   UNL    20      -6.299   7.611  70.751  1.00  0.00     0.000 HD 
BRANCH  26  36
HETATM   36  C   UNL    20     -10.333   5.927  67.091  1.00  0.00    -0.233 C  
HETATM   37  O   UNL    20     -11.620   6.469  67.047  1.00  0.00    -0.729 OA 
HETATM   38  H   UNL    20     -12.244   5.807  66.773  1.00  0.00     0.000 HD 
ENDBRANCH  26  36
ENDBRANCH  23  24
ENDBRANCH  16  23
BRANCH  16  39
HETATM   39  C   UNL    20      -7.333  11.582  66.311  1.00  0.00     0.133 C  
HETATM   40  O   UNL    20      -6.619  10.443  65.913  1.00  0.00    -0.108 OA 
HETATM   41  H   UNL    20      -5.813  10.687  65.473  1.00  0.00     0.000 HD 
ENDBRANCH  16  39
ENDBRANCH  12  14
TORSDOF 5
ENDMDL
MODEL      140
REMARK 921   NORMALIZED FREE ENERGY PREDICTED BY IDOCK:   -4.52 KCAL/MOL
REMARK 922        TOTAL FREE ENERGY PREDICTED BY IDOCK:   -7.43 KCAL/MOL
REMARK 923 INTER-LIGAND FREE ENERGY PREDICTED BY IDOCK:   -5.92 KCAL/MOL
REMARK 924 INTRA-LIGAND FREE ENERGY PREDICTED BY IDOCK:   -1.51 KCAL/MOL
REMARK 927      BINDING AFFINITY PREDICTED BY RF-SCORE:    0.00 PKD
ROOT
HETATM    1  O   HOH     4     -11.080   5.569  71.470  1.00  0.00    -0.203 OA 
HETATM    2  H2  HOH     4     -10.699   5.250  70.659  1.00  0.00     0.000 HD 
HETATM    3 NA   UNL    13      -5.146   4.455  67.797  1.00  0.00    -0.004 Na 
HETATM    4  H1  HOH     4     -10.343   5.883  71.980  1.00  0.00     0.000 HD 
HETATM    5 NA   UNL    14     -10.693   3.489  69.295  1.00  0.00     0.376 Na 
HETATM    6 FE   UNL    15      -7.909   2.438  68.265  1.00  0.00    -0.052 Fe 
HETATM    7 FE   UNL    16      -8.862   6.598  70.302  1.00  0.00    -0.133 Fe 
HETATM    8 FE   UNL    17     -10.768   4.738  67.309  1.00  0.00    -0.197 Fe 
HETATM    9 FE   UNL    18     -10.450   8.060  70.097  1.00  0.00    -0.195 Fe 
HETATM   10 FE   UNL    19     -10.096   7.878  65.110  1.00  0.00    -0.172 Fe 
HETATM   11  O   UNL    20      -9.291   7.251  67.746  1.00  0.00    -0.129 OA 
HETATM   12  C   UNL    20      -8.348   8.192  68.187  1.00  0.00    -0.129 C  
HETATM   13  H   UNL    20      -9.690   6.722  68.427  1.00  0.00     0.000 HD 
ENDROOT
BRANCH  12  14
HETATM   14  C   UNL    20      -7.698   9.053  67.079  1.00  0.00    -0.098 C  
HETATM   15  O   UNL    20      -8.678   9.725  66.326  1.00  0.00    -0.135 OA 
HETATM   16  C   UNL    20      -8.038  10.773  65.643  1.00  0.00    -0.112 C  
HETATM   17  C   UNL    20      -6.614  10.074  67.490  1.00  0.00    -0.068 C  
HETATM   18  H   UNL    20      -4.666  10.165  67.560  1.00  0.00     0.000 HD 
HETATM   19  C   UNL    20      -6.857  11.273  66.544  1.00  0.00    -0.101 C  
HETATM   20  H   UNL    20      -6.437  12.719  67.846  1.00  0.00     0.000 HD 
HETATM   21  O   UNL    20      -5.333   9.538  67.308  1.00  0.00    -0.036 OA 
HETATM   22  O   UNL    20      -7.152  12.416  67.300  1.00  0.00    -0.147 OA 
BRANCH  16  23
HETATM   23  O   UNL    20      -9.002  11.736  65.168  1.00  0.00     0.061 OA 
BRANCH  23  24
HETATM   24  C   UNL    20     -10.420  11.567  65.402  1.00  0.00    -0.281 C  
HETATM   25  O   UNL    20     -10.760  12.198  66.623  1.00  0.00    -0.233 OA 
HETATM   26  C   UNL    20     -10.696  13.620  66.560  1.00  0.00    -0.284 C  
HETATM   27  H   UNL    20     -11.980  11.584  62.529  1.00  0.00     0.000 HD 
HETATM   28  C   UNL    20     -11.649  14.206  65.476  1.00  0.00    -0.337 C  
HETATM   29  O   UNL    20     -11.583  15.609  65.418  1.00  0.00    -0.053 OA 
HETATM   30  C   UNL    20     -11.351  13.577  64.123  1.00  0.00    -0.340 C  
HETATM   31  O   UNL    20     -11.355  11.288  63.181  1.00  0.00    -0.100 OA 
HETATM   32  H   UNL    20     -12.165  15.966  64.758  1.00  0.00     0.000 HD 
HETATM   33  O   UNL    20     -12.304  13.999  63.189  1.00  0.00    -1.133 OA 
HETATM   34  C   UNL    20     -11.439  12.049  64.339  1.00  0.00    -0.343 C  
HETATM   35  H   UNL    20     -12.118  13.607  62.344  1.00  0.00     0.000 HD 
BRANCH  26  36
HETATM   36  C   UNL    20     -11.153  14.168  67.935  1.00  0.00    -0.268 C  
HETATM   37  O   UNL    20     -12.530  14.410  67.922  1.00  0.00    -0.586 OA 
HETATM   38  H   UNL    20     -12.810  14.746  68.766  1.00  0.00     0.000 HD 
ENDBRANCH  26  36
ENDBRANCH  23  24
ENDBRANCH  16  23
BRANCH  16  39
HETATM   39  C   UNL    20      -7.383  10.156  64.369  1.00  0.00    -0.116 C  
HETATM   40  O   UNL    20      -6.167  10.789  64.078  1.00  0.00    -0.370 OA 
HETATM   41  H   UNL    20      -5.768  10.413  63.302  1.00  0.00     0.000 HD 
ENDBRANCH  16  39
ENDBRANCH  12  14
TORSDOF 5
ENDMDL
MODEL      141
REMARK 921   NORMALIZED FREE ENERGY PREDICTED BY IDOCK:   -4.46 KCAL/MOL
REMARK 922        TOTAL FREE ENERGY PREDICTED BY IDOCK:   -7.35 KCAL/MOL
REMARK 923 INTER-LIGAND FREE ENERGY PREDICTED BY IDOCK:   -5.33 KCAL/MOL
REMARK 924 INTRA-LIGAND FREE ENERGY PREDICTED BY IDOCK:   -2.02 KCAL/MOL
REMARK 927      BINDING AFFINITY PREDICTED BY RF-SCORE:    0.00 PKD
ROOT
HETATM    1  O   HOH     4     -12.176  14.421  66.738  1.00  0.00    -0.473 OA 
HETATM    2  H2  HOH     4     -11.988  13.616  67.205  1.00  0.00     0.000 HD 
HETATM    3 NA   UNL    13      -7.508  10.856  70.667  1.00  0.00    -0.281 Na 
HETATM    4  H1  HOH     4     -11.392  14.949  66.831  1.00  0.00     0.000 HD 
HETATM    5 NA   UNL    14     -12.831  12.236  68.739  1.00  0.00    -0.073 Na 
HETATM    6 FE   UNL    15     -10.918  11.252  71.039  1.00  0.00    -0.380 Fe 
HETATM    7 FE   UNL    16      -9.716  13.306  66.952  1.00  0.00    -0.204 Fe 
HETATM    8 FE   UNL    17     -12.230  10.260  67.623  1.00  0.00    -0.346 Fe 
HETATM    9 FE   UNL    18     -10.361  13.083  64.894  1.00  0.00    -0.264 Fe 
HETATM   10 FE   UNL    19     -10.038   8.103  65.240  1.00  0.00    -0.393 Fe 
HETATM   11  O   UNL    20      -9.708  10.748  66.178  1.00  0.00    -0.193 OA 
HETATM   12  C   UNL    20      -8.432  11.215  65.831  1.00  0.00    -0.105 C  
HETATM   13  H   UNL    20     -10.333  11.416  66.437  1.00  0.00     0.000 HD 
ENDROOT
BRANCH  12  14
HETATM   14  C   UNL    20      -7.416  10.129  65.410  1.00  0.00    -0.144 C  
HETATM   15  O   UNL    20      -7.582   8.961  66.175  1.00  0.00    -0.089 OA 
HETATM   16  C   UNL    20      -6.945   7.914  65.490  1.00  0.00    -0.059 C  
HETATM   17  C   UNL    20      -7.351   9.730  63.919  1.00  0.00    -0.127 C  
HETATM   18  H   UNL    20      -6.282  10.173  62.348  1.00  0.00     0.000 HD 
HETATM   19  C   UNL    20      -7.069   8.209  63.955  1.00  0.00    -0.087 C  
HETATM   20  H   UNL    20      -8.186   7.701  62.388  1.00  0.00     0.000 HD 
HETATM   21  O   UNL    20      -6.322  10.419  63.265  1.00  0.00    -0.143 OA 
HETATM   22  O   UNL    20      -8.111   7.522  63.318  1.00  0.00    -0.116 OA 
BRANCH  16  23
HETATM   23  O   UNL    20      -7.390   6.634  65.986  1.00  0.00    -0.073 OA 
BRANCH  23  24
HETATM   24  C   UNL    20      -8.360   6.531  67.054  1.00  0.00    -0.113 C  
HETATM   25  O   UNL    20      -9.624   6.223  66.496  1.00  0.00    -0.157 OA 
HETATM   26  C   UNL    20      -9.703   4.901  65.973  1.00  0.00    -0.188 C  
HETATM   27  H   UNL    20      -6.892   5.316  69.710  1.00  0.00     0.000 HD 
HETATM   28  C   UNL    20      -9.423   3.820  67.059  1.00  0.00    -0.200 C  
HETATM   29  O   UNL    20      -9.503   2.516  66.540  1.00  0.00    -0.373 OA 
HETATM   30  C   UNL    20      -8.074   4.078  67.716  1.00  0.00    -0.090 C  
HETATM   31  O   UNL    20      -7.038   5.925  68.996  1.00  0.00    -0.065 OA 
HETATM   32  H   UNL    20      -9.332   1.857  67.202  1.00  0.00     0.000 HD 
HETATM   33  O   UNL    20      -7.897   3.192  68.786  1.00  0.00    -0.054 OA 
HETATM   34  C   UNL    20      -8.122   5.538  68.219  1.00  0.00    -0.096 C  
HETATM   35  H   UNL    20      -7.055   3.352  69.196  1.00  0.00     0.000 HD 
BRANCH  26  36
HETATM   36  C   UNL    20     -11.150   4.688  65.460  1.00  0.00     0.211 C  
HETATM   37  O   UNL    20     -11.128   4.059  64.212  1.00  0.00    -0.604 OA 
HETATM   38  H   UNL    20     -12.016   3.928  63.897  1.00  0.00     0.000 HD 
ENDBRANCH  26  36
ENDBRANCH  23  24
ENDBRANCH  16  23
BRANCH  16  39
HETATM   39  C   UNL    20      -5.425   8.002  65.830  1.00  0.00    -0.029 C  
HETATM   40  O   UNL    20      -5.217   7.898  67.212  1.00  0.00    -0.026 OA 
HETATM   41  H   UNL    20      -4.292   7.952  67.419  1.00  0.00     0.000 HD 
ENDBRANCH  16  39
ENDBRANCH  12  14
TORSDOF 5
ENDMDL
MODEL      142
REMARK 921   NORMALIZED FREE ENERGY PREDICTED BY IDOCK:   -4.45 KCAL/MOL
REMARK 922        TOTAL FREE ENERGY PREDICTED BY IDOCK:   -7.34 KCAL/MOL
REMARK 923 INTER-LIGAND FREE ENERGY PREDICTED BY IDOCK:   -6.01 KCAL/MOL
REMARK 924 INTRA-LIGAND FREE ENERGY PREDICTED BY IDOCK:   -1.33 KCAL/MOL
REMARK 927      BINDING AFFINITY PREDICTED BY RF-SCORE:    0.00 PKD
ROOT
HETATM    1  O   HOH     4     -12.451  15.777  69.137  1.00  0.00    -0.565 OA 
HETATM    2  H2  HOH     4     -11.800  15.220  68.725  1.00  0.00     0.000 HD 
HETATM    3 NA   UNL    13     -11.270  10.239  64.908  1.00  0.00    -0.110 Na 
HETATM    4  H1  HOH     4     -13.288  15.409  68.877  1.00  0.00     0.000 HD 
HETATM    5 NA   UNL    14      -9.957  15.303  67.474  1.00  0.00    -0.212 Na 
HETATM    6 FE   UNL    15      -9.761  13.344  65.017  1.00  0.00    -0.316 Fe 
HETATM    7 FE   UNL    16     -12.767  13.128  68.662  1.00  0.00    -0.239 Fe 
HETATM    8 FE   UNL    17      -8.795  13.651  68.671  1.00  0.00    -0.155 Fe 
HETATM    9 FE   UNL    18     -12.575  13.392  70.806  1.00  0.00    -0.279 Fe 
HETATM   10 FE   UNL    19      -8.516  10.468  70.892  1.00  0.00    -0.162 Fe 
HETATM   11  O   UNL    20     -10.753  11.686  69.667  1.00  0.00    -0.450 OA 
HETATM   12  C   UNL    20     -11.867  10.839  69.771  1.00  0.00    -0.335 C  
HETATM   13  H   UNL    20     -10.945  12.590  69.442  1.00  0.00     0.000 HD 
ENDROOT
BRANCH  12  14
HETATM   14  C   UNL    20     -11.554   9.370  70.137  1.00  0.00    -0.078 C  
HETATM   15  O   UNL    20     -10.981   8.691  69.047  1.00  0.00    -0.079 OA 
HETATM   16  C   UNL    20     -10.358   7.537  69.550  1.00  0.00    -0.216 C  
HETATM   17  C   UNL    20     -10.693   9.097  71.390  1.00  0.00    -0.343 C  
HETATM   18  H   UNL    20     -10.972   8.643  73.266  1.00  0.00     0.000 HD 
HETATM   19  C   UNL    20      -9.839   7.870  70.991  1.00  0.00    -0.170 C  
HETATM   20  H   UNL    20      -8.165   8.405  71.925  1.00  0.00     0.000 HD 
HETATM   21  O   UNL    20     -11.502   8.811  72.496  1.00  0.00    -0.306 OA 
HETATM   22  O   UNL    20      -8.480   8.203  71.052  1.00  0.00    -0.120 OA 
BRANCH  16  23
HETATM   23  O   UNL    20      -9.428   6.998  68.586  1.00  0.00    -0.137 OA 
BRANCH  23  24
HETATM   24  C   UNL    20      -8.562   7.856  67.807  1.00  0.00    -0.128 C  
HETATM   25  O   UNL    20      -7.217   7.480  68.039  1.00  0.00    -0.085 OA 
HETATM   26  C   UNL    20      -6.879   6.219  67.470  1.00  0.00    -0.063 C  
HETATM   27  H   UNL    20     -10.070   8.630  65.012  1.00  0.00     0.000 HD 
HETATM   28  C   UNL    20      -7.088   6.192  65.928  1.00  0.00    -0.070 C  
HETATM   29  O   UNL    20      -6.751   4.947  65.370  1.00  0.00    -0.049 OA 
HETATM   30  C   UNL    20      -8.517   6.588  65.587  1.00  0.00    -0.144 C  
HETATM   31  O   UNL    20      -9.953   8.570  65.953  1.00  0.00    -0.113 OA 
HETATM   32  H   UNL    20      -6.878   4.931  64.429  1.00  0.00     0.000 HD 
HETATM   33  O   UNL    20      -8.654   6.703  64.199  1.00  0.00    -0.333 OA 
HETATM   34  C   UNL    20      -8.752   7.954  66.273  1.00  0.00    -0.154 C  
HETATM   35  H   UNL    20      -9.546   6.950  63.986  1.00  0.00     0.000 HD 
BRANCH  26  36
HETATM   36  C   UNL    20      -5.374   5.973  67.746  1.00  0.00    -0.004 C  
HETATM   37  O   UNL    20      -5.158   5.807  69.117  1.00  0.00    -0.003 OA 
HETATM   38  H   UNL    20      -4.235   5.656  69.286  1.00  0.00     0.000 HD 
ENDBRANCH  26  36
ENDBRANCH  23  24
ENDBRANCH  16  23
BRANCH  16  39
HETATM   39  C   UNL    20     -11.470   6.457  69.725  1.00  0.00    -0.399 C  
HETATM   40  O   UNL    20     -11.152   5.580  70.772  1.00  0.00    -0.192 OA 
HETATM   41  H   UNL    20     -11.829   4.923  70.878  1.00  0.00     0.000 HD 
ENDBRANCH  16  39
ENDBRANCH  12  14
TORSDOF 5
ENDMDL
MODEL      143
REMARK 921   NORMALIZED FREE ENERGY PREDICTED BY IDOCK:   -4.44 KCAL/MOL
REMARK 922        TOTAL FREE ENERGY PREDICTED BY IDOCK:   -7.32 KCAL/MOL
REMARK 923 INTER-LIGAND FREE ENERGY PREDICTED BY IDOCK:   -6.67 KCAL/MOL
REMARK 924 INTRA-LIGAND FREE ENERGY PREDICTED BY IDOCK:   -0.65 KCAL/MOL
REMARK 927      BINDING AFFINITY PREDICTED BY RF-SCORE:    0.00 PKD
ROOT
HETATM    1  O   HOH     4      -6.490   2.060  69.244  1.00  0.00    -0.028 OA 
HETATM    2  H2  HOH     4      -7.285   2.472  68.925  1.00  0.00     0.000 HD 
HETATM    3 NA   UNL    13      -9.359   6.354  64.419  1.00  0.00    -0.338 Na 
HETATM    4  H1  HOH     4      -5.799   2.389  68.682  1.00  0.00     0.000 HD 
HETATM    5 NA   UNL    14      -9.375   2.011  68.305  1.00  0.00    -0.085 Na 
HETATM    6 FE   UNL    15     -10.435   3.307  65.638  1.00  0.00    -0.387 Fe 
HETATM    7 FE   UNL    16      -6.604   4.526  68.127  1.00  0.00    -0.033 Fe 
HETATM    8 FE   UNL    17     -10.346   3.853  69.389  1.00  0.00    -0.193 Fe 
HETATM    9 FE   UNL    18      -6.184   4.781  70.240  1.00  0.00    -0.015 Fe 
HETATM   10 FE   UNL    19     -10.364   7.464  70.838  1.00  0.00    -0.193 Fe 
HETATM   11  O   UNL    20      -8.419   6.082  69.323  1.00  0.00    -0.113 OA 
HETATM   12  C   UNL    20      -7.417   6.975  68.915  1.00  0.00    -0.095 C  
HETATM   13  H   UNL    20      -8.197   5.160  69.258  1.00  0.00     0.000 HD 
ENDROOT
BRANCH  12  14
HETATM   14  C   UNL    20      -7.778   8.475  69.021  1.00  0.00    -0.096 C  
HETATM   15  O   UNL    20      -8.246   8.968  67.790  1.00  0.00    -0.109 OA 
HETATM   16  C   UNL    20      -8.926  10.169  68.049  1.00  0.00    -0.125 C  
HETATM   17  C   UNL    20      -8.763   8.912  70.128  1.00  0.00    -0.161 C  
HETATM   18  H   UNL    20      -8.677   9.649  71.932  1.00  0.00     0.000 HD 
HETATM   19  C   UNL    20      -9.584  10.044  69.466  1.00  0.00    -0.230 C  
HETATM   20  H   UNL    20     -11.338   9.615  70.303  1.00  0.00     0.000 HD 
HETATM   21  O   UNL    20      -8.071   9.380  71.252  1.00  0.00    -0.319 OA 
HETATM   22  O   UNL    20     -10.939   9.691  69.444  1.00  0.00    -0.231 OA 
BRANCH  16  23
HETATM   23  O   UNL    20      -9.760  10.535  66.929  1.00  0.00    -0.171 OA 
BRANCH  23  24
HETATM   24  C   UNL    20      -9.653  11.832  66.296  1.00  0.00    -0.225 C  
HETATM   25  O   UNL    20      -8.937  11.691  65.084  1.00  0.00    -0.006 OA 
HETATM   26  C   UNL    20      -9.664  10.993  64.077  1.00  0.00    -0.288 C  
HETATM   27  H   UNL    20     -12.353  13.556  66.947  1.00  0.00     0.000 HD 
HETATM   28  C   UNL    20     -11.005  11.700  63.721  1.00  0.00    -0.422 C  
HETATM   29  O   UNL    20     -11.719  11.009  62.727  1.00  0.00    -0.435 OA 
HETATM   30  C   UNL    20     -11.843  11.893  64.977  1.00  0.00    -0.146 C  
HETATM   31  O   UNL    20     -11.567  13.059  67.142  1.00  0.00    -0.318 OA 
HETATM   32  H   UNL    20     -12.537  11.441  62.509  1.00  0.00     0.000 HD 
HETATM   33  O   UNL    20     -12.976  12.657  64.672  1.00  0.00    -0.768 OA 
HETATM   34  C   UNL    20     -10.935  12.642  65.979  1.00  0.00    -0.282 C  
HETATM   35  H   UNL    20     -13.499  12.778  65.456  1.00  0.00     0.000 HD 
BRANCH  26  36
HETATM   36  C   UNL    20      -8.788  10.974  62.799  1.00  0.00    -0.269 C  
HETATM   37  O   UNL    20      -8.508   9.656  62.429  1.00  0.00    -0.141 OA 
HETATM   38  H   UNL    20      -7.971   9.644  61.645  1.00  0.00     0.000 HD 
ENDBRANCH  26  36
ENDBRANCH  23  24
ENDBRANCH  16  23
BRANCH  16  39
HETATM   39  C   UNL    20      -7.847  11.290  68.166  1.00  0.00    -0.127 C  
HETATM   40  O   UNL    20      -8.057  12.065  69.315  1.00  0.00    -0.325 OA 
HETATM   41  H   UNL    20      -7.400  12.747  69.386  1.00  0.00     0.000 HD 
ENDBRANCH  16  39
ENDBRANCH  12  14
TORSDOF 5
ENDMDL
MODEL      144
REMARK 921   NORMALIZED FREE ENERGY PREDICTED BY IDOCK:   -4.41 KCAL/MOL
REMARK 922        TOTAL FREE ENERGY PREDICTED BY IDOCK:   -7.29 KCAL/MOL
REMARK 923 INTER-LIGAND FREE ENERGY PREDICTED BY IDOCK:   -5.94 KCAL/MOL
REMARK 924 INTRA-LIGAND FREE ENERGY PREDICTED BY IDOCK:   -1.35 KCAL/MOL
REMARK 927      BINDING AFFINITY PREDICTED BY RF-SCORE:    0.00 PKD
ROOT
HETATM    1  O   HOH     4     -12.375  14.557  67.014  1.00  0.00    -0.555 OA 
HETATM    2  H2  HOH     4     -11.847  14.251  67.743  1.00  0.00     0.000 HD 
HETATM    3 NA   UNL    13      -5.921  12.745  69.252  1.00  0.00    -0.065 Na 
HETATM    4  H1  HOH     4     -11.771  14.623  66.284  1.00  0.00     0.000 HD 
HETATM    5 NA   UNL    14     -11.380  14.686  69.878  1.00  0.00    -0.214 Na 
HETATM    6 FE   UNL    15      -8.353  14.689  70.747  1.00  0.00    -0.312 Fe 
HETATM    7 FE   UNL    16     -10.226  12.923  66.780  1.00  0.00    -0.220 Fe 
HETATM    8 FE   UNL    17     -11.406  12.446  70.579  1.00  0.00    -0.449 Fe 
HETATM    9 FE   UNL    18     -11.994  11.752  66.326  1.00  0.00    -0.338 Fe 
HETATM   10 FE   UNL    19     -10.985   8.609  70.085  1.00  0.00    -0.217 Fe 
HETATM   11  O   UNL    20     -10.429  10.774  68.356  1.00  0.00    -0.166 OA 
HETATM   12  C   UNL    20      -9.716  10.314  67.239  1.00  0.00    -0.166 C  
HETATM   13  H   UNL    20     -10.819  11.637  68.266  1.00  0.00     0.000 HD 
ENDROOT
BRANCH  12  14
HETATM   14  C   UNL    20      -9.082   8.912  67.384  1.00  0.00    -0.132 C  
HETATM   15  O   UNL    20      -8.915   8.573  68.739  1.00  0.00    -0.139 OA 
HETATM   16  C   UNL    20      -8.737   7.182  68.807  1.00  0.00    -0.124 C  
HETATM   17  C   UNL    20      -9.762   7.725  66.665  1.00  0.00    -0.222 C  
HETATM   18  H   UNL    20      -9.561   6.740  64.994  1.00  0.00     0.000 HD 
HETATM   19  C   UNL    20      -9.570   6.542  67.643  1.00  0.00    -0.122 C  
HETATM   20  H   UNL    20     -11.326   5.660  67.329  1.00  0.00     0.000 HD 
HETATM   21  O   UNL    20      -9.144   7.469  65.435  1.00  0.00     0.082 OA 
HETATM   22  O   UNL    20     -10.821   6.047  68.034  1.00  0.00    -0.283 OA 
BRANCH  16  23
HETATM   23  O   UNL    20      -8.948   6.705  70.152  1.00  0.00    -0.150 OA 
BRANCH  23  24
HETATM   24  C   UNL    20      -9.529   7.551  71.173  1.00  0.00    -0.158 C  
HETATM   25  O   UNL    20     -10.628   6.875  71.755  1.00  0.00    -0.211 OA 
HETATM   26  C   UNL    20     -10.245   5.761  72.557  1.00  0.00    -0.188 C  
HETATM   27  H   UNL    20      -7.153   9.294  72.588  1.00  0.00     0.000 HD 
HETATM   28  C   UNL    20      -9.306   6.173  73.728  1.00  0.00    -0.131 C  
HETATM   29  O   UNL    20      -8.931   5.072  74.518  1.00  0.00    -0.111 OA 
HETATM   30  C   UNL    20      -8.090   6.913  73.188  1.00  0.00    -0.105 C  
HETATM   31  O   UNL    20      -7.694   8.973  71.876  1.00  0.00    -0.340 OA 
HETATM   32  H   UNL    20      -8.358   5.324  75.233  1.00  0.00     0.000 HD 
HETATM   33  O   UNL    20      -7.328   7.405  74.254  1.00  0.00    -0.110 OA 
HETATM   34  C   UNL    20      -8.648   8.074  72.334  1.00  0.00    -0.163 C  
HETATM   35  H   UNL    20      -6.569   7.867  73.917  1.00  0.00     0.000 HD 
BRANCH  26  36
HETATM   36  C   UNL    20     -11.535   5.166  73.175  1.00  0.00    -0.272 C  
HETATM   37  O   UNL    20     -11.304   3.853  73.596  1.00  0.00    -0.238 OA 
HETATM   38  H   UNL    20     -12.096   3.488  73.975  1.00  0.00     0.000 HD 
ENDBRANCH  26  36
ENDBRANCH  23  24
ENDBRANCH  16  23
BRANCH  16  39
HETATM   39  C   UNL    20      -7.239   6.896  68.479  1.00  0.00    -0.084 C  
HETATM   40  O   UNL    20      -6.417   7.241  69.562  1.00  0.00    -0.035 OA 
HETATM   41  H   UNL    20      -5.506   7.066  69.362  1.00  0.00     0.000 HD 
ENDBRANCH  16  39
ENDBRANCH  12  14
TORSDOF 5
ENDMDL
MODEL      145
REMARK 921   NORMALIZED FREE ENERGY PREDICTED BY IDOCK:   -4.41 KCAL/MOL
REMARK 922        TOTAL FREE ENERGY PREDICTED BY IDOCK:   -7.28 KCAL/MOL
REMARK 923 INTER-LIGAND FREE ENERGY PREDICTED BY IDOCK:   -6.17 KCAL/MOL
REMARK 924 INTRA-LIGAND FREE ENERGY PREDICTED BY IDOCK:   -1.11 KCAL/MOL
REMARK 927      BINDING AFFINITY PREDICTED BY RF-SCORE:    0.00 PKD
ROOT
HETATM    1  O   HOH     4     -12.441  14.441  66.997  1.00  0.00    -0.579 OA 
HETATM    2  H2  HOH     4     -11.845  14.169  67.686  1.00  0.00     0.000 HD 
HETATM    3 NA   UNL    13      -5.747  13.028  68.769  1.00  0.00    -0.065 Na 
HETATM    4  H1  HOH     4     -11.895  14.542  66.226  1.00  0.00     0.000 HD 
HETATM    5 NA   UNL    14     -11.255  14.637  69.783  1.00  0.00    -0.216 Na 
HETATM    6 FE   UNL    15      -8.180  14.825  70.435  1.00  0.00    -0.399 Fe 
HETATM    7 FE   UNL    16     -10.219  12.939  66.608  1.00  0.00    -0.224 Fe 
HETATM    8 FE   UNL    17     -11.095  12.401  70.480  1.00  0.00    -0.485 Fe 
HETATM    9 FE   UNL    18     -11.941  11.662  66.279  1.00  0.00    -0.335 Fe 
HETATM   10 FE   UNL    19     -10.479   8.596  69.952  1.00  0.00    -0.186 Fe 
HETATM   11  O   UNL    20     -10.179  10.786  68.191  1.00  0.00    -0.163 OA 
HETATM   12  C   UNL    20      -9.521  10.367  67.025  1.00  0.00    -0.163 C  
HETATM   13  H   UNL    20     -10.626  11.623  68.131  1.00  0.00     0.000 HD 
ENDROOT
BRANCH  12  14
HETATM   14  C   UNL    20      -8.795   9.006  67.123  1.00  0.00    -0.119 C  
HETATM   15  O   UNL    20      -8.841   8.504  68.436  1.00  0.00    -0.138 OA 
HETATM   16  C   UNL    20      -8.548   7.132  68.373  1.00  0.00    -0.123 C  
HETATM   17  C   UNL    20      -9.221   7.880  66.155  1.00  0.00    -0.152 C  
HETATM   18  H   UNL    20      -8.634   7.141  64.448  1.00  0.00     0.000 HD 
HETATM   19  C   UNL    20      -9.097   6.594  67.006  1.00  0.00    -0.130 C  
HETATM   20  H   UNL    20     -10.678   5.640  66.266  1.00  0.00     0.000 HD 
HETATM   21  O   UNL    20      -8.372   7.833  65.043  1.00  0.00    -0.142 OA 
HETATM   22  O   UNL    20     -10.346   5.965  67.093  1.00  0.00    -0.178 OA 
BRANCH  16  23
HETATM   23  O   UNL    20      -8.951   6.468  69.590  1.00  0.00    -0.140 OA 
BRANCH  23  24
HETATM   24  C   UNL    20      -9.985   5.456  69.594  1.00  0.00    -0.227 C  
HETATM   25  O   UNL    20      -9.414   4.221  69.983  1.00  0.00    -0.146 OA 
HETATM   26  C   UNL    20      -9.036   4.181  71.355  1.00  0.00    -0.118 C  
HETATM   27  H   UNL    20     -12.812   6.832  70.489  1.00  0.00     0.000 HD 
HETATM   28  C   UNL    20     -10.242   4.432  72.307  1.00  0.00    -0.188 C  
HETATM   29  O   UNL    20      -9.865   4.391  73.661  1.00  0.00    -0.125 OA 
HETATM   30  C   UNL    20     -10.920   5.749  71.956  1.00  0.00    -0.260 C  
HETATM   31  O   UNL    20     -12.031   6.707  69.963  1.00  0.00    -0.340 OA 
HETATM   32  H   UNL    20     -10.601   4.544  74.241  1.00  0.00     0.000 HD 
HETATM   33  O   UNL    20     -12.085   5.894  72.718  1.00  0.00    -0.537 OA 
HETATM   34  C   UNL    20     -11.259   5.661  70.451  1.00  0.00    -0.016 C  
HETATM   35  H   UNL    20     -12.508   6.716  72.499  1.00  0.00     0.000 HD 
BRANCH  26  36
HETATM   36  C   UNL    20      -8.492   2.760  71.648  1.00  0.00    -0.064 C  
HETATM   37  O   UNL    20      -9.477   1.989  72.274  1.00  0.00    -0.081 OA 
HETATM   38  H   UNL    20      -9.143   1.118  72.453  1.00  0.00     0.000 HD 
ENDBRANCH  26  36
ENDBRANCH  23  24
ENDBRANCH  16  23
BRANCH  16  39
HETATM   39  C   UNL    20      -6.996   6.998  68.303  1.00  0.00    -0.080 C  
HETATM   40  O   UNL    20      -6.613   6.204  67.212  1.00  0.00    -0.051 OA 
HETATM   41  H   UNL    20      -5.668   6.123  67.170  1.00  0.00     0.000 HD 
ENDBRANCH  16  39
ENDBRANCH  12  14
TORSDOF 5
ENDMDL
MODEL      146
REMARK 921   NORMALIZED FREE ENERGY PREDICTED BY IDOCK:   -4.41 KCAL/MOL
REMARK 922        TOTAL FREE ENERGY PREDICTED BY IDOCK:   -7.28 KCAL/MOL
REMARK 923 INTER-LIGAND FREE ENERGY PREDICTED BY IDOCK:   -5.74 KCAL/MOL
REMARK 924 INTRA-LIGAND FREE ENERGY PREDICTED BY IDOCK:   -1.54 KCAL/MOL
REMARK 927      BINDING AFFINITY PREDICTED BY RF-SCORE:    0.00 PKD
ROOT
HETATM    1  O   HOH     4     -13.521  14.009  65.589  1.00  0.00    -0.713 OA 
HETATM    2  H2  HOH     4     -12.995  14.108  66.374  1.00  0.00     0.000 HD 
HETATM    3 NA   UNL    13      -7.260  15.884  68.278  1.00  0.00    -0.105 Na 
HETATM    4  H1  HOH     4     -12.942  14.246  64.874  1.00  0.00     0.000 HD 
HETATM    5 NA   UNL    14     -13.023  15.032  68.402  1.00  0.00    -0.488 Na 
HETATM    6 FE   UNL    15     -10.467  16.620  69.328  1.00  0.00    -0.210 Fe 
HETATM    7 FE   UNL    16     -10.846  13.595  65.713  1.00  0.00    -0.267 Fe 
HETATM    8 FE   UNL    17     -12.073  13.190  69.505  1.00  0.00    -0.239 Fe 
HETATM    9 FE   UNL    18     -11.797  11.665  65.441  1.00  0.00    -0.323 Fe 
HETATM   10 FE   UNL    19      -9.852  10.004  69.741  1.00  0.00    -0.160 Fe 
HETATM   11  O   UNL    20     -10.190  11.880  67.655  1.00  0.00    -0.196 OA 
HETATM   12  C   UNL    20      -9.227  11.656  66.659  1.00  0.00    -0.191 C  
HETATM   13  H   UNL    20     -10.926  12.424  67.397  1.00  0.00     0.000 HD 
ENDROOT
BRANCH  12  14
HETATM   14  C   UNL    20      -8.030  10.771  67.077  1.00  0.00    -0.124 C  
HETATM   15  O   UNL    20      -8.439   9.755  67.959  1.00  0.00    -0.117 OA 
HETATM   16  C   UNL    20      -7.434   8.774  67.967  1.00  0.00    -0.093 C  
HETATM   17  C   UNL    20      -7.169  10.133  65.964  1.00  0.00    -0.118 C  
HETATM   18  H   UNL    20      -5.502  10.515  65.026  1.00  0.00     0.000 HD 
HETATM   19  C   UNL    20      -6.787   8.750  66.539  1.00  0.00    -0.072 C  
HETATM   20  H   UNL    20      -6.884   7.724  64.836  1.00  0.00     0.000 HD 
HETATM   21  O   UNL    20      -6.031  10.908  65.710  1.00  0.00    -0.136 OA 
HETATM   22  O   UNL    20      -7.276   7.739  65.701  1.00  0.00    -0.065 OA 
BRANCH  16  23
HETATM   23  O   UNL    20      -7.931   7.538  68.523  1.00  0.00    -0.119 OA 
BRANCH  23  24
HETATM   24  C   UNL    20      -9.228   7.012  68.158  1.00  0.00    -0.130 C  
HETATM   25  O   UNL    20      -9.046   5.846  67.377  1.00  0.00    -0.112 OA 
HETATM   26  C   UNL    20      -8.540   4.742  68.122  1.00  0.00    -0.102 C  
HETATM   27  H   UNL    20     -11.333   7.595  70.591  1.00  0.00     0.000 HD 
HETATM   28  C   UNL    20      -9.479   4.345  69.298  1.00  0.00    -0.179 C  
HETATM   29  O   UNL    20      -8.978   3.254  70.030  1.00  0.00    -0.082 OA 
HETATM   30  C   UNL    20      -9.732   5.549  70.194  1.00  0.00    -0.182 C  
HETATM   31  O   UNL    20     -10.702   7.808  69.913  1.00  0.00    -0.243 OA 
HETATM   32  H   UNL    20      -9.551   3.012  70.748  1.00  0.00     0.000 HD 
HETATM   33  O   UNL    20     -10.689   5.221  71.162  1.00  0.00    -0.206 OA 
HETATM   34  C   UNL    20     -10.258   6.665  69.263  1.00  0.00    -0.183 C  
HETATM   35  H   UNL    20     -10.847   5.973  71.721  1.00  0.00     0.000 HD 
BRANCH  26  36
HETATM   36  C   UNL    20      -8.454   3.531  67.159  1.00  0.00    -0.105 C  
HETATM   37  O   UNL    20      -9.575   2.711  67.317  1.00  0.00    -0.403 OA 
HETATM   38  H   UNL    20      -9.523   1.969  66.726  1.00  0.00     0.000 HD 
ENDBRANCH  26  36
ENDBRANCH  23  24
ENDBRANCH  16  23
BRANCH  16  39
HETATM   39  C   UNL    20      -6.320   9.267  68.942  1.00  0.00    -0.044 C  
HETATM   40  O   UNL    20      -6.580   8.838  70.252  1.00  0.00    -0.037 OA 
HETATM   41  H   UNL    20      -5.902   9.138  70.845  1.00  0.00     0.000 HD 
ENDBRANCH  16  39
ENDBRANCH  12  14
TORSDOF 5
ENDMDL
MODEL      147
REMARK 921   NORMALIZED FREE ENERGY PREDICTED BY IDOCK:   -4.37 KCAL/MOL
REMARK 922        TOTAL FREE ENERGY PREDICTED BY IDOCK:   -7.23 KCAL/MOL
REMARK 923 INTER-LIGAND FREE ENERGY PREDICTED BY IDOCK:   -6.17 KCAL/MOL
REMARK 924 INTRA-LIGAND FREE ENERGY PREDICTED BY IDOCK:   -1.06 KCAL/MOL
REMARK 927      BINDING AFFINITY PREDICTED BY RF-SCORE:    0.00 PKD
ROOT
HETATM    1  O   HOH     4     -12.512  14.468  63.573  1.00  0.00    -1.089 OA 
HETATM    2  H2  HOH     4     -12.052  14.549  64.400  1.00  0.00     0.000 HD 
HETATM    3 NA   UNL    13      -6.612  13.032  67.187  1.00  0.00    -0.128 Na 
HETATM    4  H1  HOH     4     -11.930  13.963  63.016  1.00  0.00     0.000 HD 
HETATM    5 NA   UNL    14     -11.434  16.050  65.926  1.00  0.00    -0.268 Na 
HETATM    6 FE   UNL    15      -8.470  15.936  66.983  1.00  0.00    -0.145 Fe 
HETATM    7 FE   UNL    16     -10.820  12.608  64.582  1.00  0.00    -0.270 Fe 
HETATM    8 FE   UNL    17     -11.971  14.720  67.785  1.00  0.00    -0.291 Fe 
HETATM    9 FE   UNL    18     -12.827  11.794  64.684  1.00  0.00    -0.344 Fe 
HETATM   10 FE   UNL    19     -12.486  11.347  69.656  1.00  0.00    -0.259 Fe 
HETATM   11  O   UNL    20     -11.482  11.902  67.073  1.00  0.00    -0.350 OA 
HETATM   12  C   UNL    20     -10.930  10.736  66.521  1.00  0.00    -0.075 C  
HETATM   13  H   UNL    20     -11.658  12.603  66.456  1.00  0.00     0.000 HD 
ENDROOT
BRANCH  12  14
HETATM   14  C   UNL    20     -10.643   9.596  67.524  1.00  0.00    -0.277 C  
HETATM   15  O   UNL    20     -10.277   8.415  66.853  1.00  0.00    -0.265 OA 
HETATM   16  C   UNL    20      -9.646   7.577  67.787  1.00  0.00    -0.142 C  
HETATM   17  C   UNL    20      -9.617   9.854  68.650  1.00  0.00    -0.156 C  
HETATM   18  H   UNL    20      -9.631  10.390  70.525  1.00  0.00     0.000 HD 
HETATM   19  C   UNL    20      -8.898   8.495  68.815  1.00  0.00    -0.139 C  
HETATM   20  H   UNL    20      -7.076   9.207  69.181  1.00  0.00     0.000 HD 
HETATM   21  O   UNL    20     -10.262  10.232  69.834  1.00  0.00    -0.246 OA 
HETATM   22  O   UNL    20      -7.530   8.652  68.558  1.00  0.00    -0.090 OA 
BRANCH  16  23
HETATM   23  O   UNL    20      -8.902   6.537  67.118  1.00  0.00    -0.110 OA 
BRANCH  23  24
HETATM   24  C   UNL    20      -7.765   5.897  67.744  1.00  0.00    -0.097 C  
HETATM   25  O   UNL    20      -8.200   4.707  68.375  1.00  0.00    -0.083 OA 
HETATM   26  C   UNL    20      -8.573   3.685  67.454  1.00  0.00    -0.104 C  
HETATM   27  H   UNL    20      -5.102   6.456  65.932  1.00  0.00     0.000 HD 
HETATM   28  C   UNL    20      -7.401   3.285  66.511  1.00  0.00    -0.075 C  
HETATM   29  O   UNL    20      -7.772   2.276  65.606  1.00  0.00    -0.070 OA 
HETATM   30  C   UNL    20      -6.869   4.514  65.789  1.00  0.00    -0.058 C  
HETATM   31  O   UNL    20      -5.866   6.677  66.453  1.00  0.00    -0.020 OA 
HETATM   32  H   UNL    20      -7.057   2.031  65.030  1.00  0.00     0.000 HD 
HETATM   33  O   UNL    20      -5.726   4.170  65.057  1.00  0.00    -0.013 OA 
HETATM   34  C   UNL    20      -6.521   5.536  66.895  1.00  0.00    -0.044 C  
HETATM   35  H   UNL    20      -5.393   4.938  64.606  1.00  0.00     0.000 HD 
BRANCH  26  36
HETATM   36  C   UNL    20      -8.961   2.433  68.281  1.00  0.00    -0.142 C  
HETATM   37  O   UNL    20      -9.870   1.648  67.565  1.00  0.00    -0.389 OA 
HETATM   38  H   UNL    20     -10.107   0.880  68.072  1.00  0.00     0.000 HD 
ENDBRANCH  26  36
ENDBRANCH  23  24
ENDBRANCH  16  23
BRANCH  16  39
HETATM   39  C   UNL    20     -10.773   6.854  68.587  1.00  0.00    -0.216 C  
HETATM   40  O   UNL    20     -10.576   7.000  69.968  1.00  0.00    -0.216 OA 
HETATM   41  H   UNL    20     -11.262   6.560  70.454  1.00  0.00     0.000 HD 
ENDBRANCH  16  39
ENDBRANCH  12  14
TORSDOF 5
ENDMDL
MODEL      148
REMARK 921   NORMALIZED FREE ENERGY PREDICTED BY IDOCK:   -4.36 KCAL/MOL
REMARK 922        TOTAL FREE ENERGY PREDICTED BY IDOCK:   -7.22 KCAL/MOL
REMARK 923 INTER-LIGAND FREE ENERGY PREDICTED BY IDOCK:   -6.61 KCAL/MOL
REMARK 924 INTRA-LIGAND FREE ENERGY PREDICTED BY IDOCK:   -0.61 KCAL/MOL
REMARK 927      BINDING AFFINITY PREDICTED BY RF-SCORE:    0.00 PKD
ROOT
HETATM    1  O   HOH     4     -12.767  14.248  63.113  1.00  0.00    -0.873 OA 
HETATM    2  H2  HOH     4     -12.244  14.458  63.878  1.00  0.00     0.000 HD 
HETATM    3 NA   UNL    13      -6.735  13.098  66.612  1.00  0.00    -0.333 Na 
HETATM    4  H1  HOH     4     -12.263  13.593  62.643  1.00  0.00     0.000 HD 
HETATM    5 NA   UNL    14     -11.415  16.183  65.018  1.00  0.00    -0.327 Na 
HETATM    6 FE   UNL    15      -8.397  16.042  65.907  1.00  0.00    -0.248 Fe 
HETATM    7 FE   UNL    16     -11.139  12.500  64.393  1.00  0.00    -0.281 Fe 
HETATM    8 FE   UNL    17     -11.907  15.311  67.142  1.00  0.00    -0.338 Fe 
HETATM    9 FE   UNL    18     -13.186  11.893  64.776  1.00  0.00    -0.409 Fe 
HETATM   10 FE   UNL    19     -12.519  12.448  69.704  1.00  0.00    -0.261 Fe 
HETATM   11  O   UNL    20     -11.667  12.377  67.010  1.00  0.00    -0.381 OA 
HETATM   12  C   UNL    20     -11.240  11.081  66.685  1.00  0.00    -0.050 C  
HETATM   13  H   UNL    20     -11.839  12.949  66.271  1.00  0.00     0.000 HD 
ENDROOT
BRANCH  12  14
HETATM   14  C   UNL    20     -10.961  10.150  67.887  1.00  0.00    -0.277 C  
HETATM   15  O   UNL    20     -10.525   8.885  67.454  1.00  0.00    -0.258 OA 
HETATM   16  C   UNL    20      -9.910   8.254  68.547  1.00  0.00    -0.176 C  
HETATM   17  C   UNL    20      -9.998  10.647  68.988  1.00  0.00    -0.213 C  
HETATM   18  H   UNL    20     -10.118  11.507  70.734  1.00  0.00     0.000 HD 
HETATM   19  C   UNL    20      -9.242   9.370  69.423  1.00  0.00    -0.165 C  
HETATM   20  H   UNL    20      -7.464  10.211  69.727  1.00  0.00     0.000 HD 
HETATM   21  O   UNL    20     -10.710  11.202  70.058  1.00  0.00    -0.049 OA 
HETATM   22  O   UNL    20      -7.869   9.536  69.197  1.00  0.00    -0.076 OA 
BRANCH  16  23
HETATM   23  O   UNL    20      -9.101   7.143  68.107  1.00  0.00    -0.134 OA 
BRANCH  23  24
HETATM   24  C   UNL    20      -7.927   7.340  67.283  1.00  0.00    -0.111 C  
HETATM   25  O   UNL    20      -6.927   6.423  67.686  1.00  0.00    -0.073 OA 
HETATM   26  C   UNL    20      -7.231   5.073  67.350  1.00  0.00    -0.070 C  
HETATM   27  H   UNL    20      -8.873   8.224  64.282  1.00  0.00     0.000 HD 
HETATM   28  C   UNL    20      -7.423   4.876  65.817  1.00  0.00    -0.078 C  
HETATM   29  O   UNL    20      -7.721   3.542  65.489  1.00  0.00    -0.080 OA 
HETATM   30  C   UNL    20      -8.488   5.830  65.297  1.00  0.00    -0.148 C  
HETATM   31  O   UNL    20      -8.802   8.284  65.227  1.00  0.00    -0.138 OA 
HETATM   32  H   UNL    20      -7.838   3.422  64.554  1.00  0.00     0.000 HD 
HETATM   33  O   UNL    20      -8.549   5.749  63.901  1.00  0.00    -0.327 OA 
HETATM   34  C   UNL    20      -8.042   7.242  65.742  1.00  0.00    -0.129 C  
HETATM   35  H   UNL    20      -9.214   6.345  63.576  1.00  0.00     0.000 HD 
BRANCH  26  36
HETATM   36  C   UNL    20      -6.028   4.201  67.790  1.00  0.00    -0.027 C  
HETATM   37  O   UNL    20      -5.907   4.217  69.182  1.00  0.00    -0.020 OA 
HETATM   38  H   UNL    20      -5.170   3.683  69.452  1.00  0.00     0.000 HD 
ENDBRANCH  26  36
ENDBRANCH  23  24
ENDBRANCH  16  23
BRANCH  16  39
HETATM   39  C   UNL    20     -11.048   7.638  69.419  1.00  0.00     0.027 C  
HETATM   40  O   UNL    20     -11.562   6.479  68.821  1.00  0.00    -0.588 OA 
HETATM   41  H   UNL    20     -12.254   6.105  69.352  1.00  0.00     0.000 HD 
ENDBRANCH  16  39
ENDBRANCH  12  14
TORSDOF 5
ENDMDL
MODEL      149
REMARK 921   NORMALIZED FREE ENERGY PREDICTED BY IDOCK:   -4.33 KCAL/MOL
REMARK 922        TOTAL FREE ENERGY PREDICTED BY IDOCK:   -7.19 KCAL/MOL
REMARK 923 INTER-LIGAND FREE ENERGY PREDICTED BY IDOCK:   -5.68 KCAL/MOL
REMARK 924 INTRA-LIGAND FREE ENERGY PREDICTED BY IDOCK:   -1.51 KCAL/MOL
REMARK 927      BINDING AFFINITY PREDICTED BY RF-SCORE:    0.00 PKD
ROOT
HETATM    1  O   HOH     4     -13.975   7.419  72.099  1.00  0.00    -0.540 OA 
HETATM    2  H2  HOH     4     -13.469   8.223  72.108  1.00  0.00     0.000 HD 
HETATM    3 NA   UNL    13     -13.379  14.020  69.648  1.00  0.00    -0.390 Na 
HETATM    4  H1  HOH     4     -14.681   7.579  71.483  1.00  0.00     0.000 HD 
HETATM    5 NA   UNL    14     -12.574   9.719  73.496  1.00  0.00     0.208 Na 
HETATM    6 FE   UNL    15     -13.007  12.770  72.845  1.00  0.00    -0.419 Fe 
HETATM    7 FE   UNL    16     -13.674   9.072  69.974  1.00  0.00    -0.166 Fe 
HETATM    8 FE   UNL    17     -10.548   9.930  72.328  1.00  0.00    -0.126 Fe 
HETATM    9 FE   UNL    18     -12.566   7.255  69.555  1.00  0.00    -0.324 Fe 
HETATM   10 FE   UNL    19      -8.304   9.845  69.150  1.00  0.00    -0.095 Fe 
HETATM   11  O   UNL    20     -11.101   9.573  69.455  1.00  0.00    -0.359 OA 
HETATM   12  C   UNL    20     -11.717   9.605  68.195  1.00  0.00     1.155 C  
HETATM   13  H   UNL    20     -11.636   9.237  70.164  1.00  0.00     0.000 HD 
ENDROOT
BRANCH  12  14
HETATM   14  C   UNL    20     -10.846  10.152  67.041  1.00  0.00    -0.151 C  
HETATM   15  O   UNL    20     -10.715  11.549  67.128  1.00  0.00    -0.228 OA 
HETATM   16  C   UNL    20      -9.616  11.919  66.336  1.00  0.00    -0.225 C  
HETATM   17  C   UNL    20      -9.442   9.542  66.833  1.00  0.00    -0.158 C  
HETATM   18  H   UNL    20      -8.610   8.175  65.717  1.00  0.00     0.000 HD 
HETATM   19  C   UNL    20      -8.578  10.745  66.389  1.00  0.00    -0.158 C  
HETATM   20  H   UNL    20      -6.907  10.227  67.337  1.00  0.00     0.000 HD 
HETATM   21  O   UNL    20      -9.473   8.550  65.845  1.00  0.00    -0.208 OA 
HETATM   22  O   UNL    20      -7.535  10.938  67.305  1.00  0.00    -0.096 OA 
BRANCH  16  23
HETATM   23  O   UNL    20      -9.171  13.251  66.670  1.00  0.00    -0.250 OA 
BRANCH  23  24
HETATM   24  C   UNL    20      -9.980  14.140  67.477  1.00  0.00    -0.236 C  
HETATM   25  O   UNL    20      -9.237  14.523  68.619  1.00  0.00    -0.194 OA 
HETATM   26  C   UNL    20      -8.151  15.394  68.319  1.00  0.00    -0.136 C  
HETATM   27  H   UNL    20     -11.870  15.937  65.507  1.00  0.00     0.000 HD 
HETATM   28  C   UNL    20      -8.623  16.711  67.634  1.00  0.00    -0.200 C  
HETATM   29  O   UNL    20      -7.548  17.568  67.341  1.00  0.00    -0.190 OA 
HETATM   30  C   UNL    20      -9.436  16.389  66.389  1.00  0.00    -0.293 C  
HETATM   31  O   UNL    20     -11.515  15.144  65.890  1.00  0.00    -0.284 OA 
HETATM   32  H   UNL    20      -7.836  18.372  66.924  1.00  0.00     0.000 HD 
HETATM   33  O   UNL    20      -9.977  17.569  65.864  1.00  0.00    -0.511 OA 
HETATM   34  C   UNL    20     -10.559  15.434  66.853  1.00  0.00    -0.309 C  
HETATM   35  H   UNL    20     -10.484  17.368  65.086  1.00  0.00     0.000 HD 
BRANCH  26  36
HETATM   36  C   UNL    20      -7.476  15.777  69.661  1.00  0.00    -0.100 C  
HETATM   37  O   UNL    20      -6.144  16.138  69.443  1.00  0.00    -0.139 OA 
HETATM   38  H   UNL    20      -5.730  16.372  70.265  1.00  0.00     0.000 HD 
ENDBRANCH  26  36
ENDBRANCH  23  24
ENDBRANCH  16  23
BRANCH  16  39
HETATM   39  C   UNL    20     -10.118  11.991  64.861  1.00  0.00    -0.260 C  
HETATM   40  O   UNL    20     -11.408  12.539  64.800  1.00  0.00    -0.295 OA 
HETATM   41  H   UNL    20     -11.713  12.582  63.902  1.00  0.00     0.000 HD 
ENDBRANCH  16  39
ENDBRANCH  12  14
TORSDOF 5
ENDMDL
MODEL      150
REMARK 921   NORMALIZED FREE ENERGY PREDICTED BY IDOCK:   -4.33 KCAL/MOL
REMARK 922        TOTAL FREE ENERGY PREDICTED BY IDOCK:   -7.18 KCAL/MOL
REMARK 923 INTER-LIGAND FREE ENERGY PREDICTED BY IDOCK:   -5.34 KCAL/MOL
REMARK 924 INTRA-LIGAND FREE ENERGY PREDICTED BY IDOCK:   -1.84 KCAL/MOL
REMARK 927      BINDING AFFINITY PREDICTED BY RF-SCORE:    0.00 PKD
ROOT
HETATM    1  O   HOH     4      -7.875   4.024  73.815  1.00  0.00    -0.078 OA 
HETATM    2  H2  HOH     4      -8.321   4.823  73.560  1.00  0.00     0.000 HD 
HETATM    3 NA   UNL    13     -12.778   6.952  69.652  1.00  0.00    -0.603 Na 
HETATM    4  H1  HOH     4      -8.236   3.350  73.251  1.00  0.00     0.000 HD 
HETATM    5 NA   UNL    14      -9.430   6.561  74.405  1.00  0.00    -0.141 Na 
HETATM    6 FE   UNL    15     -12.127   7.399  73.014  1.00  0.00    -0.452 Fe 
HETATM    7 FE   UNL    16      -8.746   4.568  71.307  1.00  0.00    -0.093 Fe 
HETATM    8 FE   UNL    17      -8.415   8.170  73.030  1.00  0.00    -0.108 Fe 
HETATM    9 FE   UNL    18      -6.578   4.638  71.279  1.00  0.00    -0.020 Fe 
HETATM   10 FE   UNL    19      -6.665   9.412  69.784  1.00  0.00    -0.041 Fe 
HETATM   11  O   UNL    20      -7.837   6.921  70.423  1.00  0.00    -0.104 OA 
HETATM   12  C   UNL    20      -7.925   6.131  69.267  1.00  0.00    -0.108 C  
HETATM   13  H   UNL    20      -7.940   6.456  71.246  1.00  0.00     0.000 HD 
ENDROOT
BRANCH  12  14
HETATM   14  C   UNL    20      -7.758   6.887  67.929  1.00  0.00    -0.112 C  
HETATM   15  O   UNL    20      -8.405   8.135  67.972  1.00  0.00    -0.127 OA 
HETATM   16  C   UNL    20      -7.881   8.917  66.929  1.00  0.00    -0.101 C  
HETATM   17  C   UNL    20      -6.327   7.098  67.384  1.00  0.00    -0.050 C  
HETATM   18  H   UNL    20      -5.126   6.244  66.106  1.00  0.00     0.000 HD 
HETATM   19  C   UNL    20      -6.383   8.499  66.732  1.00  0.00    -0.056 C  
HETATM   20  H   UNL    20      -4.553   9.094  67.239  1.00  0.00     0.000 HD 
HETATM   21  O   UNL    20      -6.005   6.114  66.441  1.00  0.00    -0.026 OA 
HETATM   22  O   UNL    20      -5.460   9.347  67.359  1.00  0.00    -0.037 OA 
BRANCH  16  23
HETATM   23  O   UNL    20      -8.189  10.312  67.133  1.00  0.00    -0.120 OA 
BRANCH  23  24
HETATM   24  C   UNL    20      -8.868  10.772  68.325  1.00  0.00    -0.139 C  
HETATM   25  O   UNL    20      -8.224  11.940  68.797  1.00  0.00    -0.106 OA 
HETATM   26  C   UNL    20      -8.424  13.073  67.957  1.00  0.00    -0.181 C  
HETATM   27  H   UNL    20     -12.056  10.100  68.057  1.00  0.00     0.000 HD 
HETATM   28  C   UNL    20      -9.931  13.430  67.798  1.00  0.00    -0.233 C  
HETATM   29  O   UNL    20     -10.124  14.549  66.969  1.00  0.00    -0.250 OA 
HETATM   30  C   UNL    20     -10.704  12.221  67.292  1.00  0.00    -0.231 C  
HETATM   31  O   UNL    20     -11.125   9.915  68.085  1.00  0.00    -0.239 OA 
HETATM   32  H   UNL    20     -11.043  14.767  66.872  1.00  0.00     0.000 HD 
HETATM   33  O   UNL    20     -12.075  12.507  67.292  1.00  0.00    -0.490 OA 
HETATM   34  C   UNL    20     -10.387  11.074  68.279  1.00  0.00    -0.178 C  
HETATM   35  H   UNL    20     -12.558  11.752  66.976  1.00  0.00     0.000 HD 
BRANCH  26  36
HETATM   36  C   UNL    20      -7.722  14.281  68.627  1.00  0.00    -0.135 C  
HETATM   37  O   UNL    20      -6.675  14.735  67.821  1.00  0.00    -0.147 OA 
HETATM   38  H   UNL    20      -6.244  15.476  68.232  1.00  0.00     0.000 HD 
ENDBRANCH  26  36
ENDBRANCH  23  24
ENDBRANCH  16  23
BRANCH  16  39
HETATM   39  C   UNL    20      -8.627   8.498  65.625  1.00  0.00    -0.177 C  
HETATM   40  O   UNL    20     -10.014   8.626  65.781  1.00  0.00    -0.456 OA 
HETATM   41  H   UNL    20     -10.467   8.371  64.987  1.00  0.00     0.000 HD 
ENDBRANCH  16  39
ENDBRANCH  12  14
TORSDOF 5
ENDMDL
MODEL      151
REMARK 921   NORMALIZED FREE ENERGY PREDICTED BY IDOCK:   -4.28 KCAL/MOL
REMARK 922        TOTAL FREE ENERGY PREDICTED BY IDOCK:   -7.11 KCAL/MOL
REMARK 923 INTER-LIGAND FREE ENERGY PREDICTED BY IDOCK:   -6.39 KCAL/MOL
REMARK 924 INTRA-LIGAND FREE ENERGY PREDICTED BY IDOCK:   -0.73 KCAL/MOL
REMARK 927      BINDING AFFINITY PREDICTED BY RF-SCORE:    0.00 PKD
ROOT
HETATM    1  O   HOH     4     -12.212  16.123  63.726  1.00  0.00    -1.281 OA 
HETATM    2  H2  HOH     4     -11.651  16.398  64.442  1.00  0.00     0.000 HD 
HETATM    3 NA   UNL    13      -5.601  16.545  66.188  1.00  0.00    -0.118 Na 
HETATM    4  H1  HOH     4     -11.627  15.721  63.095  1.00  0.00     0.000 HD 
HETATM    5 NA   UNL    14     -11.184  18.153  65.733  1.00  0.00    -0.312 Na 
HETATM    6 FE   UNL    15      -8.153  18.872  66.193  1.00  0.00    -0.239 Fe 
HETATM    7 FE   UNL    16      -9.947  14.844  64.484  1.00  0.00    -0.332 Fe 
HETATM    8 FE   UNL    17     -11.023  16.929  67.731  1.00  0.00    -0.302 Fe 
HETATM    9 FE   UNL    18     -11.625  13.581  65.022  1.00  0.00    -0.307 Fe 
HETATM   10 FE   UNL    19     -10.312  13.743  69.847  1.00  0.00    -0.417 Fe 
HETATM   11  O   UNL    20      -9.955  14.258  67.092  1.00  0.00    -0.248 OA 
HETATM   12  C   UNL    20      -9.227  13.211  66.507  1.00  0.00    -0.177 C  
HETATM   13  H   UNL    20     -10.413  14.828  66.484  1.00  0.00     0.000 HD 
ENDROOT
BRANCH  12  14
HETATM   14  C   UNL    20      -8.483  12.283  67.495  1.00  0.00    -0.172 C  
HETATM   15  O   UNL    20      -9.108  11.025  67.571  1.00  0.00    -0.137 OA 
HETATM   16  C   UNL    20      -8.183  10.130  68.134  1.00  0.00    -0.113 C  
HETATM   17  C   UNL    20      -6.968  12.065  67.291  1.00  0.00    -0.146 C  
HETATM   18  H   UNL    20      -5.295  12.785  67.989  1.00  0.00     0.000 HD 
HETATM   19  C   UNL    20      -6.752  10.585  67.685  1.00  0.00    -0.073 C  
HETATM   20  H   UNL    20      -5.371  10.151  66.318  1.00  0.00     0.000 HD 
HETATM   21  O   UNL    20      -6.227  12.920  68.115  1.00  0.00    -0.073 OA 
HETATM   22  O   UNL    20      -6.238   9.876  66.590  1.00  0.00    -0.065 OA 
BRANCH  16  23
HETATM   23  O   UNL    20      -8.583   8.764  67.892  1.00  0.00    -0.128 OA 
BRANCH  23  24
HETATM   24  C   UNL    20      -7.677   7.659  68.116  1.00  0.00    -0.119 C  
HETATM   25  O   UNL    20      -7.817   7.217  69.453  1.00  0.00    -0.108 OA 
HETATM   26  C   UNL    20      -9.057   6.564  69.705  1.00  0.00    -0.141 C  
HETATM   27  H   UNL    20      -7.411   5.929  65.355  1.00  0.00     0.000 HD 
HETATM   28  C   UNL    20      -9.259   5.313  68.800  1.00  0.00    -0.116 C  
HETATM   29  O   UNL    20     -10.484   4.670  69.053  1.00  0.00     0.032 OA 
HETATM   30  C   UNL    20      -9.124   5.700  67.335  1.00  0.00    -0.110 C  
HETATM   31  O   UNL    20      -7.364   6.699  65.910  1.00  0.00    -0.075 OA 
HETATM   32  H   UNL    20     -10.607   3.907  68.501  1.00  0.00     0.000 HD 
HETATM   33  O   UNL    20      -9.161   4.548  66.540  1.00  0.00    -0.123 OA 
HETATM   34  C   UNL    20      -7.754   6.405  67.210  1.00  0.00    -0.100 C  
HETATM   35  H   UNL    20      -9.076   4.790  65.625  1.00  0.00     0.000 HD 
BRANCH  26  36
HETATM   36  C   UNL    20      -9.040   6.082  71.178  1.00  0.00    -0.146 C  
HETATM   37  O   UNL    20     -10.346   5.877  71.631  1.00  0.00    -0.206 OA 
HETATM   38  H   UNL    20     -10.335   5.582  72.534  1.00  0.00     0.000 HD 
ENDBRANCH  26  36
ENDBRANCH  23  24
ENDBRANCH  16  23
BRANCH  16  39
HETATM   39  C   UNL    20      -8.239  10.327  69.680  1.00  0.00    -0.133 C  
HETATM   40  O   UNL    20      -9.565  10.322  70.136  1.00  0.00    -0.401 OA 
HETATM   41  H   UNL    20      -9.598  10.442  71.077  1.00  0.00     0.000 HD 
ENDBRANCH  16  39
ENDBRANCH  12  14
TORSDOF 5
ENDMDL
MODEL      152
REMARK 921   NORMALIZED FREE ENERGY PREDICTED BY IDOCK:   -4.27 KCAL/MOL
REMARK 922        TOTAL FREE ENERGY PREDICTED BY IDOCK:   -7.11 KCAL/MOL
REMARK 923 INTER-LIGAND FREE ENERGY PREDICTED BY IDOCK:   -5.95 KCAL/MOL
REMARK 924 INTRA-LIGAND FREE ENERGY PREDICTED BY IDOCK:   -1.16 KCAL/MOL
REMARK 927      BINDING AFFINITY PREDICTED BY RF-SCORE:    0.00 PKD
ROOT
HETATM    1  O   HOH     4      -7.803  16.515  68.966  1.00  0.00    -0.230 OA 
HETATM    2  H2  HOH     4      -8.565  16.136  68.544  1.00  0.00     0.000 HD 
HETATM    3 NA   UNL    13     -12.843  11.570  69.264  1.00  0.00    -0.208 Na 
HETATM    4  H1  HOH     4      -7.661  15.983  69.740  1.00  0.00     0.000 HD 
HETATM    5 NA   UNL    14     -10.542  16.681  67.670  1.00  0.00    -0.262 Na 
HETATM    6 FE   UNL    15     -13.032  14.924  68.463  1.00  0.00    -0.522 Fe 
HETATM    7 FE   UNL    16      -8.454  13.886  69.036  1.00  0.00    -0.146 Fe 
HETATM    8 FE   UNL    17     -10.358  15.277  65.798  1.00  0.00    -0.246 Fe 
HETATM    9 FE   UNL    18      -6.684  14.092  67.800  1.00  0.00    -0.081 Fe 
HETATM   10 FE   UNL    19      -9.093  12.140  63.873  1.00  0.00    -0.423 Fe 
HETATM   11  O   UNL    20      -8.828  12.884  66.587  1.00  0.00    -0.356 OA 
HETATM   12  C   UNL    20      -8.310  11.808  67.322  1.00  0.00    -0.162 C  
HETATM   13  H   UNL    20      -8.785  13.731  67.016  1.00  0.00     0.000 HD 
ENDROOT
BRANCH  12  14
HETATM   14  C   UNL    20      -8.380  10.429  66.625  1.00  0.00    -0.127 C  
HETATM   15  O   UNL    20      -7.894   9.414  67.469  1.00  0.00    -0.098 OA 
HETATM   16  C   UNL    20      -8.357   8.189  66.962  1.00  0.00    -0.116 C  
HETATM   17  C   UNL    20      -9.737   9.973  66.044  1.00  0.00    -0.240 C  
HETATM   18  H   UNL    20     -10.644   9.974  64.317  1.00  0.00     0.000 HD 
HETATM   19  C   UNL    20      -9.755   8.448  66.302  1.00  0.00    -0.207 C  
HETATM   20  H   UNL    20     -11.694   8.279  66.717  1.00  0.00     0.000 HD 
HETATM   21  O   UNL    20      -9.810  10.254  64.674  1.00  0.00    -0.313 OA 
HETATM   22  O   UNL    20     -10.847   8.122  67.117  1.00  0.00    -0.261 OA 
BRANCH  16  23
HETATM   23  O   UNL    20      -8.244   7.150  67.958  1.00  0.00    -0.118 OA 
BRANCH  23  24
HETATM   24  C   UNL    20      -7.850   7.444  69.319  1.00  0.00    -0.116 C  
HETATM   25  O   UNL    20      -8.918   8.107  69.970  1.00  0.00    -0.141 OA 
HETATM   26  C   UNL    20     -10.036   7.261  70.223  1.00  0.00    -0.192 C  
HETATM   27  H   UNL    20      -5.895   5.058  70.398  1.00  0.00     0.000 HD 
HETATM   28  C   UNL    20      -9.663   6.039  71.112  1.00  0.00    -0.177 C  
HETATM   29  O   UNL    20     -10.769   5.208  71.360  1.00  0.00    -0.185 OA 
HETATM   30  C   UNL    20      -8.513   5.266  70.482  1.00  0.00    -0.120 C  
HETATM   31  O   UNL    20      -6.179   5.761  69.826  1.00  0.00    -0.024 OA 
HETATM   32  H   UNL    20     -10.541   4.463  71.903  1.00  0.00     0.000 HD 
HETATM   33  O   UNL    20      -8.090   4.259  71.358  1.00  0.00    -0.079 OA 
HETATM   34  C   UNL    20      -7.386   6.298  70.252  1.00  0.00    -0.089 C  
HETATM   35  H   UNL    20      -7.372   3.776  70.964  1.00  0.00     0.000 HD 
BRANCH  26  36
HETATM   36  C   UNL    20     -11.090   8.098  70.991  1.00  0.00    -0.253 C  
HETATM   37  O   UNL    20     -10.466   8.859  71.984  1.00  0.00    -0.338 OA 
HETATM   38  H   UNL    20     -11.112   9.373  72.455  1.00  0.00     0.000 HD 
ENDBRANCH  26  36
ENDBRANCH  23  24
ENDBRANCH  16  23
BRANCH  16  39
HETATM   39  C   UNL    20      -7.396   7.780  65.803  1.00  0.00    -0.076 C  
HETATM   40  O   UNL    20      -6.061   7.808  66.230  1.00  0.00    -0.043 OA 
HETATM   41  H   UNL    20      -5.477   7.559  65.524  1.00  0.00     0.000 HD 
ENDBRANCH  16  39
ENDBRANCH  12  14
TORSDOF 5
ENDMDL
MODEL      153
REMARK 921   NORMALIZED FREE ENERGY PREDICTED BY IDOCK:   -4.26 KCAL/MOL
REMARK 922        TOTAL FREE ENERGY PREDICTED BY IDOCK:   -7.09 KCAL/MOL
REMARK 923 INTER-LIGAND FREE ENERGY PREDICTED BY IDOCK:   -6.85 KCAL/MOL
REMARK 924 INTRA-LIGAND FREE ENERGY PREDICTED BY IDOCK:   -0.24 KCAL/MOL
REMARK 927      BINDING AFFINITY PREDICTED BY RF-SCORE:    0.00 PKD
ROOT
HETATM    1  O   HOH     4      -6.883  18.838  68.808  1.00  0.00    -0.265 OA 
HETATM    2  H2  HOH     4      -7.790  18.565  68.893  1.00  0.00     0.000 HD 
HETATM    3 NA   UNL    13     -11.363  14.068  71.477  1.00  0.00    -0.465 Na 
HETATM    4  H1  HOH     4      -6.381  18.169  69.259  1.00  0.00     0.000 HD 
HETATM    5 NA   UNL    14      -9.803  19.317  69.483  1.00  0.00    -0.330 Na 
HETATM    6 FE   UNL    15     -11.540  17.516  71.395  1.00  0.00    -0.615 Fe 
HETATM    7 FE   UNL    16      -7.710  16.260  68.922  1.00  0.00    -0.141 Fe 
HETATM    8 FE   UNL    17     -10.959  18.275  67.725  1.00  0.00    -0.360 Fe 
HETATM    9 FE   UNL    18      -7.015  16.638  66.903  1.00  0.00    -0.110 Fe 
HETATM   10 FE   UNL    19     -11.521  15.508  65.047  1.00  0.00    -0.324 Fe 
HETATM   11  O   UNL    20      -9.598  15.735  67.105  1.00  0.00    -0.215 OA 
HETATM   12  C   UNL    20      -8.894  14.528  67.227  1.00  0.00    -0.208 C  
HETATM   13  H   UNL    20      -9.195  16.488  67.523  1.00  0.00     0.000 HD 
ENDROOT
BRANCH  12  14
HETATM   14  C   UNL    20      -9.548  13.303  66.547  1.00  0.00    -0.264 C  
HETATM   15  O   UNL    20      -8.710  12.177  66.625  1.00  0.00    -0.195 OA 
HETATM   16  C   UNL    20      -9.502  11.044  66.378  1.00  0.00    -0.193 C  
HETATM   17  C   UNL    20     -10.966  12.888  67.000  1.00  0.00    -0.262 C  
HETATM   18  H   UNL    20     -12.808  13.161  66.419  1.00  0.00     0.000 HD 
HETATM   19  C   UNL    20     -10.939  11.343  66.928  1.00  0.00    -0.299 C  
HETATM   20  H   UNL    20     -12.063  10.990  68.532  1.00  0.00     0.000 HD 
HETATM   21  O   UNL    20     -11.936  13.417  66.141  1.00  0.00    -0.371 OA 
HETATM   22  O   UNL    20     -11.193  10.809  68.199  1.00  0.00    -0.260 OA 
BRANCH  16  23
HETATM   23  O   UNL    20      -8.829   9.845  66.816  1.00  0.00    -0.133 OA 
BRANCH  23  24
HETATM   24  C   UNL    20      -9.209   9.164  68.035  1.00  0.00    -0.134 C  
HETATM   25  O   UNL    20      -9.902   7.977  67.698  1.00  0.00    -0.151 OA 
HETATM   26  C   UNL    20      -9.065   6.980  67.120  1.00  0.00    -0.128 C  
HETATM   27  H   UNL    20      -6.909   9.677  70.300  1.00  0.00     0.000 HD 
HETATM   28  C   UNL    20      -7.903   6.563  68.068  1.00  0.00    -0.105 C  
HETATM   29  O   UNL    20      -7.081   5.578  67.494  1.00  0.00    -0.070 OA 
HETATM   30  C   UNL    20      -7.102   7.788  68.483  1.00  0.00    -0.073 C  
HETATM   31  O   UNL    20      -7.573   9.912  69.662  1.00  0.00    -0.101 OA 
HETATM   32  H   UNL    20      -6.372   5.323  68.074  1.00  0.00     0.000 HD 
HETATM   33  O   UNL    20      -6.154   7.424  69.447  1.00  0.00    -0.029 OA 
HETATM   34  C   UNL    20      -8.127   8.782  69.075  1.00  0.00    -0.116 C  
HETATM   35  H   UNL    20      -5.653   8.189  69.707  1.00  0.00     0.000 HD 
BRANCH  26  36
HETATM   36  C   UNL    20      -9.940   5.727  66.866  1.00  0.00    -0.171 C  
HETATM   37  O   UNL    20     -10.816   5.528  67.938  1.00  0.00    -0.162 OA 
HETATM   38  H   UNL    20     -11.352   4.759  67.782  1.00  0.00     0.000 HD 
ENDBRANCH  26  36
ENDBRANCH  23  24
ENDBRANCH  16  23
BRANCH  16  39
HETATM   39  C   UNL    20      -9.646  10.915  64.830  1.00  0.00    -0.252 C  
HETATM   40  O   UNL    20      -8.454  11.277  64.187  1.00  0.00    -0.344 OA 
HETATM   41  H   UNL    20      -8.542  11.199  63.245  1.00  0.00     0.000 HD 
ENDBRANCH  16  39
ENDBRANCH  12  14
TORSDOF 5
ENDMDL
MODEL      154
REMARK 921   NORMALIZED FREE ENERGY PREDICTED BY IDOCK:   -4.21 KCAL/MOL
REMARK 922        TOTAL FREE ENERGY PREDICTED BY IDOCK:   -7.03 KCAL/MOL
REMARK 923 INTER-LIGAND FREE ENERGY PREDICTED BY IDOCK:   -6.00 KCAL/MOL
REMARK 924 INTRA-LIGAND FREE ENERGY PREDICTED BY IDOCK:   -1.03 KCAL/MOL
REMARK 927      BINDING AFFINITY PREDICTED BY RF-SCORE:    0.00 PKD
ROOT
HETATM    1  O   HOH     4      -5.426  18.223  69.790  1.00  0.00    -0.200 OA 
HETATM    2  H2  HOH     4      -6.347  18.229  69.555  1.00  0.00     0.000 HD 
HETATM    3 NA   UNL    13     -11.839  15.549  71.078  1.00  0.00    -0.245 Na 
HETATM    4  H1  HOH     4      -5.348  17.562  70.468  1.00  0.00     0.000 HD 
HETATM    5 NA   UNL    14      -8.073  19.605  69.254  1.00  0.00    -0.325 Na 
HETATM    6 FE   UNL    15     -10.829  18.809  70.554  1.00  0.00    -0.430 Fe 
HETATM    7 FE   UNL    16      -7.047  16.054  69.868  1.00  0.00    -0.187 Fe 
HETATM    8 FE   UNL    17      -8.872  18.546  67.317  1.00  0.00    -0.248 Fe 
HETATM    9 FE   UNL    18      -5.651  15.771  68.232  1.00  0.00    -0.086 Fe 
HETATM   10 FE   UNL    19      -9.416  15.507  64.948  1.00  0.00    -0.216 Fe 
HETATM   11  O   UNL    20      -8.304  15.663  67.542  1.00  0.00    -0.155 OA 
HETATM   12  C   UNL    20      -8.120  14.370  68.054  1.00  0.00    -0.142 C  
HETATM   13  H   UNL    20      -7.834  16.353  67.995  1.00  0.00     0.000 HD 
ENDROOT
BRANCH  12  14
HETATM   14  C   UNL    20      -8.884  13.246  67.317  1.00  0.00    -0.216 C  
HETATM   15  O   UNL    20      -8.534  11.982  67.826  1.00  0.00    -0.141 OA 
HETATM   16  C   UNL    20      -9.530  11.076  67.426  1.00  0.00    -0.160 C  
HETATM   17  C   UNL    20     -10.425  13.334  67.249  1.00  0.00    -0.247 C  
HETATM   18  H   UNL    20     -11.784  13.954  65.995  1.00  0.00     0.000 HD 
HETATM   19  C   UNL    20     -10.885  11.861  67.362  1.00  0.00    -0.243 C  
HETATM   20  H   UNL    20     -12.515  12.183  68.458  1.00  0.00     0.000 HD 
HETATM   21  O   UNL    20     -10.837  13.900  66.037  1.00  0.00    -0.287 OA 
HETATM   22  O   UNL    20     -11.694  11.707  68.496  1.00  0.00    -0.286 OA 
BRANCH  16  23
HETATM   23  O   UNL    20      -9.466   9.868  68.212  1.00  0.00    -0.138 OA 
BRANCH  23  24
HETATM   24  C   UNL    20      -9.017   8.616  67.643  1.00  0.00    -0.135 C  
HETATM   25  O   UNL    20      -7.724   8.325  68.139  1.00  0.00    -0.103 OA 
HETATM   26  C   UNL    20      -7.716   7.976  69.520  1.00  0.00    -0.103 C  
HETATM   27  H   UNL    20     -11.597   6.649  67.236  1.00  0.00     0.000 HD 
HETATM   28  C   UNL    20      -8.597   6.727  69.818  1.00  0.00    -0.141 C  
HETATM   29  O   UNL    20      -8.585   6.385  71.182  1.00  0.00    -0.126 OA 
HETATM   30  C   UNL    20     -10.014   6.955  69.312  1.00  0.00    -0.159 C  
HETATM   31  O   UNL    20     -11.072   7.433  67.127  1.00  0.00    -0.263 OA 
HETATM   32  H   UNL    20      -9.122   5.623  71.363  1.00  0.00     0.000 HD 
HETATM   33  O   UNL    20     -10.757   5.777  69.452  1.00  0.00    -0.288 OA 
HETATM   34  C   UNL    20      -9.874   7.337  67.821  1.00  0.00    -0.149 C  
HETATM   35  H   UNL    20     -11.642   5.919  69.137  1.00  0.00     0.000 HD 
BRANCH  26  36
HETATM   36  C   UNL    20      -6.256   7.624  69.903  1.00  0.00    -0.027 C  
HETATM   37  O   UNL    20      -6.080   7.743  71.284  1.00  0.00    -0.035 OA 
HETATM   38  H   UNL    20      -5.184   7.527  71.519  1.00  0.00     0.000 HD 
ENDBRANCH  26  36
ENDBRANCH  23  24
ENDBRANCH  16  23
BRANCH  16  39
HETATM   39  C   UNL    20      -9.202  10.653  65.960  1.00  0.00    -0.182 C  
HETATM   40  O   UNL    20      -7.886  11.001  65.624  1.00  0.00    -0.341 OA 
HETATM   41  H   UNL    20      -7.686  10.744  64.732  1.00  0.00     0.000 HD 
ENDBRANCH  16  39
ENDBRANCH  12  14
TORSDOF 5
ENDMDL
MODEL      155
REMARK 921   NORMALIZED FREE ENERGY PREDICTED BY IDOCK:   -4.20 KCAL/MOL
REMARK 922        TOTAL FREE ENERGY PREDICTED BY IDOCK:   -7.01 KCAL/MOL
REMARK 923 INTER-LIGAND FREE ENERGY PREDICTED BY IDOCK:   -6.32 KCAL/MOL
REMARK 924 INTRA-LIGAND FREE ENERGY PREDICTED BY IDOCK:   -0.68 KCAL/MOL
REMARK 927      BINDING AFFINITY PREDICTED BY RF-SCORE:    0.00 PKD
ROOT
HETATM    1  O   HOH     4      -7.322  21.210  66.786  1.00  0.00    -0.610 OA 
HETATM    2  H2  HOH     4      -7.344  20.559  67.478  1.00  0.00     0.000 HD 
HETATM    3 NA   UNL    13      -6.242  14.449  68.540  1.00  0.00    -0.074 Na 
HETATM    4  H1  HOH     4      -7.065  20.731  66.007  1.00  0.00     0.000 HD 
HETATM    5 NA   UNL    14      -6.624  20.175  69.552  1.00  0.00    -0.260 Na 
HETATM    6 FE   UNL    15      -5.350  17.362  70.167  1.00  0.00    -0.143 Fe 
HETATM    7 FE   UNL    16      -7.966  18.602  66.428  1.00  0.00    -0.217 Fe 
HETATM    8 FE   UNL    17      -8.637  19.246  70.324  1.00  0.00     0.287 Fe 
HETATM    9 FE   UNL    18      -9.775  19.768  66.160  1.00  0.00    -0.292 Fe 
HETATM   10 FE   UNL    19     -12.003  17.337  69.922  1.00  0.00    -0.023 Fe 
HETATM   11  O   UNL    20      -9.911  17.817  68.084  1.00  0.00    -0.294 OA 
HETATM   12  C   UNL    20     -10.115  17.050  66.927  1.00  0.00    -0.298 C  
HETATM   13  H   UNL    20      -9.285  18.528  67.999  1.00  0.00     0.000 HD 
ENDROOT
BRANCH  12  14
HETATM   14  C   UNL    20     -11.132  15.894  67.064  1.00  0.00    -0.119 C  
HETATM   15  O   UNL    20     -10.844  14.860  66.155  1.00  0.00    -0.314 OA 
HETATM   16  C   UNL    20     -11.515  13.709  66.601  1.00  0.00    -0.343 C  
HETATM   17  C   UNL    20     -11.344  15.270  68.462  1.00  0.00    -0.327 C  
HETATM   18  H   UNL    20     -12.590  15.449  69.951  1.00  0.00     0.000 HD 
HETATM   19  C   UNL    20     -11.567  13.768  68.166  1.00  0.00    -0.335 C  
HETATM   20  H   UNL    20     -10.608  13.047  69.754  1.00  0.00     0.000 HD 
HETATM   21  O   UNL    20     -12.460  15.832  69.093  1.00  0.00    -0.106 OA 
HETATM   22  O   UNL    20     -10.577  13.011  68.806  1.00  0.00    -0.243 OA 
BRANCH  16  23
HETATM   23  O   UNL    20     -10.975  12.528  65.971  1.00  0.00    -0.268 OA 
BRANCH  23  24
HETATM   24  C   UNL    20      -9.702  12.551  65.283  1.00  0.00    -0.057 C  
HETATM   25  O   UNL    20      -8.664  12.442  66.239  1.00  0.00    -0.061 OA 
HETATM   26  C   UNL    20      -8.586  11.155  66.843  1.00  0.00    -0.148 C  
HETATM   27  H   UNL    20     -10.037  11.087  62.379  1.00  0.00     0.000 HD 
HETATM   28  C   UNL    20      -8.346  10.026  65.798  1.00  0.00    -0.132 C  
HETATM   29  O   UNL    20      -8.269   8.757  66.398  1.00  0.00    -0.107 OA 
HETATM   30  C   UNL    20      -9.424  10.071  64.724  1.00  0.00    -0.304 C  
HETATM   31  O   UNL    20     -10.217  11.723  63.062  1.00  0.00    -0.366 OA 
HETATM   32  H   UNL    20      -8.122   8.069  65.760  1.00  0.00     0.000 HD 
HETATM   33  O   UNL    20      -9.119   9.151  63.714  1.00  0.00    -0.432 OA 
HETATM   34  C   UNL    20      -9.408  11.514  64.170  1.00  0.00    -0.001 C  
HETATM   35  H   UNL    20      -9.792   9.178  63.044  1.00  0.00     0.000 HD 
BRANCH  26  36
HETATM   36  C   UNL    20      -7.375  11.166  67.810  1.00  0.00    -0.093 C  
HETATM   37  O   UNL    20      -6.221  10.751  67.139  1.00  0.00    -0.058 OA 
HETATM   38  H   UNL    20      -5.478  10.758  67.732  1.00  0.00     0.000 HD 
ENDBRANCH  26  36
ENDBRANCH  23  24
ENDBRANCH  16  23
BRANCH  16  39
HETATM   39  C   UNL    20     -12.991  13.822  66.110  1.00  0.00     0.066 C  
HETATM   40  O   UNL    20     -13.051  13.832  64.709  1.00  0.00    -0.651 OA 
HETATM   41  H   UNL    20     -13.950  13.900  64.411  1.00  0.00     0.000 HD 
ENDBRANCH  16  39
ENDBRANCH  12  14
TORSDOF 5
ENDMDL
MODEL      156
REMARK 921   NORMALIZED FREE ENERGY PREDICTED BY IDOCK:   -4.17 KCAL/MOL
REMARK 922        TOTAL FREE ENERGY PREDICTED BY IDOCK:   -6.97 KCAL/MOL
REMARK 923 INTER-LIGAND FREE ENERGY PREDICTED BY IDOCK:   -5.52 KCAL/MOL
REMARK 924 INTRA-LIGAND FREE ENERGY PREDICTED BY IDOCK:   -1.46 KCAL/MOL
REMARK 927      BINDING AFFINITY PREDICTED BY RF-SCORE:    0.00 PKD
ROOT
HETATM    1  O   HOH     4     -13.059  12.527  63.765  1.00  0.00    -0.717 OA 
HETATM    2  H2  HOH     4     -12.778  12.933  64.577  1.00  0.00     0.000 HD 
HETATM    3 NA   UNL    13      -7.848  15.859  67.184  1.00  0.00    -0.120 Na 
HETATM    4  H1  HOH     4     -12.305  12.583  63.189  1.00  0.00     0.000 HD 
HETATM    5 NA   UNL    14     -13.395  14.453  66.085  1.00  0.00    -0.538 Na 
HETATM    6 FE   UNL    15     -11.233  16.531  67.044  1.00  0.00    -0.300 Fe 
HETATM    7 FE   UNL    16     -10.522  12.477  64.715  1.00  0.00    -0.256 Fe 
HETATM    8 FE   UNL    17     -12.765  13.185  67.958  1.00  0.00    -0.242 Fe 
HETATM    9 FE   UNL    18     -11.325  10.470  64.882  1.00  0.00    -0.118 Fe 
HETATM   10 FE   UNL    19     -10.649  10.517  69.839  1.00  0.00    -0.195 Fe 
HETATM   11  O   UNL    20     -10.414  11.567  67.226  1.00  0.00    -0.200 OA 
HETATM   12  C   UNL    20      -9.205  11.142  66.654  1.00  0.00    -0.175 C  
HETATM   13  H   UNL    20     -11.056  11.912  66.616  1.00  0.00     0.000 HD 
ENDROOT
BRANCH  12  14
HETATM   14  C   UNL    20      -8.160  10.580  67.646  1.00  0.00    -0.107 C  
HETATM   15  O   UNL    20      -8.783   9.835  68.663  1.00  0.00    -0.117 OA 
HETATM   16  C   UNL    20      -7.796   9.034  69.262  1.00  0.00    -0.095 C  
HETATM   17  C   UNL    20      -6.988   9.749  67.079  1.00  0.00    -0.085 C  
HETATM   18  H   UNL    20      -5.130  10.034  66.559  1.00  0.00     0.000 HD 
HETATM   19  C   UNL    20      -6.753   8.661  68.153  1.00  0.00    -0.065 C  
HETATM   20  H   UNL    20      -6.308   7.167  66.916  1.00  0.00     0.000 HD 
HETATM   21  O   UNL    20      -5.850  10.546  66.908  1.00  0.00    -0.052 OA 
HETATM   22  O   UNL    20      -6.940   7.393  67.588  1.00  0.00    -0.074 OA 
BRANCH  16  23
HETATM   23  O   UNL    20      -8.399   7.971  70.031  1.00  0.00    -0.120 OA 
BRANCH  23  24
HETATM   24  C   UNL    20      -8.071   7.765  71.425  1.00  0.00    -0.099 C  
HETATM   25  O   UNL    20      -9.270   7.568  72.152  1.00  0.00    -0.132 OA 
HETATM   26  C   UNL    20      -9.903   6.324  71.868  1.00  0.00    -0.155 C  
HETATM   27  H   UNL    20      -5.217   6.184  71.622  1.00  0.00     0.000 HD 
HETATM   28  C   UNL    20      -8.984   5.108  72.189  1.00  0.00    -0.129 C  
HETATM   29  O   UNL    20      -9.613   3.883  71.909  1.00  0.00    -0.131 OA 
HETATM   30  C   UNL    20      -7.664   5.241  71.444  1.00  0.00    -0.106 C  
HETATM   31  O   UNL    20      -5.813   6.882  71.375  1.00  0.00    -0.035 OA 
HETATM   32  H   UNL    20      -9.053   3.141  72.105  1.00  0.00     0.000 HD 
HETATM   33  O   UNL    20      -6.792   4.223  71.850  1.00  0.00    -0.032 OA 
HETATM   34  C   UNL    20      -7.100   6.628  71.828  1.00  0.00    -0.076 C  
HETATM   35  H   UNL    20      -5.968   4.306  71.385  1.00  0.00     0.000 HD 
BRANCH  26  36
HETATM   36  C   UNL    20     -11.154   6.221  72.776  1.00  0.00    -0.251 C  
HETATM   37  O   UNL    20     -11.308   7.396  73.517  1.00  0.00    -0.601 OA 
HETATM   38  H   UNL    20     -12.075   7.333  74.074  1.00  0.00     0.000 HD 
ENDBRANCH  26  36
ENDBRANCH  23  24
ENDBRANCH  16  23
BRANCH  16  39
HETATM   39  C   UNL    20      -7.039   9.932  70.289  1.00  0.00    -0.151 C  
HETATM   40  O   UNL    20      -5.652   9.838  70.106  1.00  0.00    -0.038 OA 
HETATM   41  H   UNL    20      -5.192  10.385  70.731  1.00  0.00     0.000 HD 
ENDBRANCH  16  39
ENDBRANCH  12  14
TORSDOF 5
ENDMDL
MODEL      157
REMARK 921   NORMALIZED FREE ENERGY PREDICTED BY IDOCK:   -4.16 KCAL/MOL
REMARK 922        TOTAL FREE ENERGY PREDICTED BY IDOCK:   -6.96 KCAL/MOL
REMARK 923 INTER-LIGAND FREE ENERGY PREDICTED BY IDOCK:   -5.69 KCAL/MOL
REMARK 924 INTRA-LIGAND FREE ENERGY PREDICTED BY IDOCK:   -1.27 KCAL/MOL
REMARK 927      BINDING AFFINITY PREDICTED BY RF-SCORE:    0.00 PKD
ROOT
HETATM    1  O   HOH     4      -9.730   4.007  73.804  1.00  0.00    -0.108 OA 
HETATM    2  H2  HOH     4      -9.398   3.895  72.920  1.00  0.00     0.000 HD 
HETATM    3 NA   UNL    13      -5.252   6.346  68.863  1.00  0.00    -0.005 Na 
HETATM    4  H1  HOH     4      -9.274   4.768  74.143  1.00  0.00     0.000 HD 
HETATM    5 NA   UNL    14      -8.550   2.361  71.544  1.00  0.00    -0.055 Na 
HETATM    6 FE   UNL    15      -5.986   3.131  69.888  1.00  0.00    -0.017 Fe 
HETATM    7 FE   UNL    16      -8.924   6.032  72.194  1.00  0.00    -0.133 Fe 
HETATM    8 FE   UNL    17      -9.769   3.047  69.659  1.00  0.00    -0.127 Fe 
HETATM    9 FE   UNL    18     -11.079   6.168  72.390  1.00  0.00    -0.206 Fe 
HETATM   10 FE   UNL    19     -11.650   5.639  67.448  1.00  0.00    -0.411 Fe 
HETATM   11  O   UNL    20     -10.145   5.966  69.818  1.00  0.00    -0.171 OA 
HETATM   12  C   UNL    20      -9.938   7.332  70.059  1.00  0.00    -0.184 C  
HETATM   13  H   UNL    20      -9.985   5.391  70.557  1.00  0.00     0.000 HD 
ENDROOT
BRANCH  12  14
HETATM   14  C   UNL    20     -10.199   8.269  68.857  1.00  0.00    -0.210 C  
HETATM   15  O   UNL    20      -9.982   9.613  69.210  1.00  0.00    -0.173 OA 
HETATM   16  C   UNL    20      -9.830  10.341  68.019  1.00  0.00    -0.150 C  
HETATM   17  C   UNL    20      -9.453   7.985  67.535  1.00  0.00    -0.146 C  
HETATM   18  H   UNL    20      -9.798   7.072  65.846  1.00  0.00     0.000 HD 
HETATM   19  C   UNL    20      -9.157   9.393  66.968  1.00  0.00    -0.134 C  
HETATM   20  H   UNL    20      -7.365   8.992  66.201  1.00  0.00     0.000 HD 
HETATM   21  O   UNL    20     -10.257   7.246  66.659  1.00  0.00    -0.226 OA 
HETATM   22  O   UNL    20      -7.772   9.566  66.837  1.00  0.00    -0.097 OA 
BRANCH  16  23
HETATM   23  O   UNL    20      -9.224  11.625  68.280  1.00  0.00    -0.177 OA 
BRANCH  23  24
HETATM   24  C   UNL    20      -8.997  12.585  67.222  1.00  0.00    -0.192 C  
HETATM   25  O   UNL    20     -10.093  13.479  67.172  1.00  0.00    -0.239 OA 
HETATM   26  C   UNL    20     -10.151  14.363  68.288  1.00  0.00    -0.239 C  
HETATM   27  H   UNL    20      -5.791  13.186  67.004  1.00  0.00     0.000 HD 
HETATM   28  C   UNL    20      -8.869  15.238  68.414  1.00  0.00    -0.179 C  
HETATM   29  O   UNL    20      -8.931  16.110  69.515  1.00  0.00    -0.188 OA 
HETATM   30  C   UNL    20      -7.634  14.351  68.472  1.00  0.00    -0.125 C  
HETATM   31  O   UNL    20      -6.582  12.660  67.003  1.00  0.00    -0.125 OA 
HETATM   32  H   UNL    20      -8.149  16.644  69.591  1.00  0.00     0.000 HD 
HETATM   33  O   UNL    20      -6.483  15.146  68.438  1.00  0.00    -0.096 OA 
HETATM   34  C   UNL    20      -7.707  13.443  67.223  1.00  0.00    -0.079 C  
HETATM   35  H   UNL    20      -5.712  14.593  68.475  1.00  0.00     0.000 HD 
BRANCH  26  36
HETATM   36  C   UNL    20     -11.352  15.317  68.065  1.00  0.00    -0.338 C  
HETATM   37  O   UNL    20     -11.814  15.801  69.292  1.00  0.00    -0.365 OA 
HETATM   38  H   UNL    20     -12.551  16.386  69.156  1.00  0.00     0.000 HD 
ENDBRANCH  26  36
ENDBRANCH  23  24
ENDBRANCH  16  23
BRANCH  16  39
HETATM   39  C   UNL    20     -11.263  10.643  67.480  1.00  0.00    -0.253 C  
HETATM   40  O   UNL    20     -11.974  11.449  68.381  1.00  0.00    -0.539 OA 
HETATM   41  H   UNL    20     -12.846  11.632  68.053  1.00  0.00     0.000 HD 
ENDBRANCH  16  39
ENDBRANCH  12  14
TORSDOF 5
ENDMDL
MODEL      158
REMARK 921   NORMALIZED FREE ENERGY PREDICTED BY IDOCK:   -4.14 KCAL/MOL
REMARK 922        TOTAL FREE ENERGY PREDICTED BY IDOCK:   -6.93 KCAL/MOL
REMARK 923 INTER-LIGAND FREE ENERGY PREDICTED BY IDOCK:   -5.76 KCAL/MOL
REMARK 924 INTRA-LIGAND FREE ENERGY PREDICTED BY IDOCK:   -1.17 KCAL/MOL
REMARK 927      BINDING AFFINITY PREDICTED BY RF-SCORE:    0.00 PKD
ROOT
HETATM    1  O   HOH     4      -9.573   1.609  69.183  1.00  0.00    -0.110 OA 
HETATM    2  H2  HOH     4      -9.671   2.279  69.850  1.00  0.00     0.000 HD 
HETATM    3 NA   UNL    13     -12.576   7.759  70.946  1.00  0.00    -0.307 Na 
HETATM    4  H1  HOH     4     -10.081   1.922  68.444  1.00  0.00     0.000 HD 
HETATM    5 NA   UNL    14     -10.178   2.554  72.002  1.00  0.00    -0.121 Na 
HETATM    6 FE   UNL    15     -12.213   4.837  72.751  1.00  0.00    -0.206 Fe 
HETATM    7 FE   UNL    16      -9.888   4.252  68.675  1.00  0.00    -0.132 Fe 
HETATM    8 FE   UNL    17      -8.500   4.139  72.431  1.00  0.00    -0.087 Fe 
HETATM    9 FE   UNL    18      -7.851   3.721  68.151  1.00  0.00    -0.066 Fe 
HETATM   10 FE   UNL    19      -6.050   7.004  71.469  1.00  0.00    -0.033 Fe 
HETATM   11  O   UNL    20      -8.101   5.742  69.991  1.00  0.00    -0.103 OA 
HETATM   12  C   UNL    20      -8.328   6.449  68.800  1.00  0.00    -0.121 C  
HETATM   13  H   UNL    20      -8.460   4.862  70.019  1.00  0.00     0.000 HD 
ENDROOT
BRANCH  12  14
HETATM   14  C   UNL    20      -7.743   7.880  68.754  1.00  0.00    -0.112 C  
HETATM   15  O   UNL    20      -7.947   8.466  67.491  1.00  0.00    -0.104 OA 
HETATM   16  C   UNL    20      -7.781   9.852  67.639  1.00  0.00    -0.091 C  
HETATM   17  C   UNL    20      -8.190   8.887  69.837  1.00  0.00    -0.118 C  
HETATM   18  H   UNL    20      -7.533   9.559  71.546  1.00  0.00     0.000 HD 
HETATM   19  C   UNL    20      -8.260  10.235  69.082  1.00  0.00    -0.152 C  
HETATM   20  H   UNL    20      -9.856  10.972  70.015  1.00  0.00     0.000 HD 
HETATM   21  O   UNL    20      -7.258   8.940  70.880  1.00  0.00    -0.072 OA 
HETATM   22  O   UNL    20      -9.566  10.740  69.141  1.00  0.00    -0.204 OA 
BRANCH  16  23
HETATM   23  O   UNL    20      -8.346  10.557  66.513  1.00  0.00    -0.133 OA 
BRANCH  23  24
HETATM   24  C   UNL    20      -9.536  10.081  65.842  1.00  0.00    -0.224 C  
HETATM   25  O   UNL    20     -10.654  10.799  66.331  1.00  0.00    -0.246 OA 
HETATM   26  C   UNL    20     -10.675  12.162  65.917  1.00  0.00    -0.266 C  
HETATM   27  H   UNL    20      -8.765   9.240  62.779  1.00  0.00     0.000 HD 
HETATM   28  C   UNL    20     -10.698  12.307  64.367  1.00  0.00    -0.331 C  
HETATM   29  O   UNL    20     -10.719  13.653  63.963  1.00  0.00    -0.554 OA 
HETATM   30  C   UNL    20      -9.522  11.559  63.755  1.00  0.00    -0.134 C  
HETATM   31  O   UNL    20      -8.717   9.220  63.728  1.00  0.00    -0.209 OA 
HETATM   32  H   UNL    20     -10.734  13.742  63.018  1.00  0.00     0.000 HD 
HETATM   33  O   UNL    20      -9.633  11.573  62.360  1.00  0.00    -0.456 OA 
HETATM   34  C   UNL    20      -9.614  10.114  64.295  1.00  0.00    -0.290 C  
HETATM   35  H   UNL    20      -8.899  11.106  61.977  1.00  0.00     0.000 HD 
BRANCH  26  36
HETATM   36  C   UNL    20     -11.976  12.796  66.469  1.00  0.00    -0.358 C  
HETATM   37  O   UNL    20     -12.287  12.246  67.716  1.00  0.00    -0.292 OA 
HETATM   38  H   UNL    20     -13.085  12.636  68.055  1.00  0.00     0.000 HD 
ENDBRANCH  26  36
ENDBRANCH  23  24
ENDBRANCH  16  23
BRANCH  16  39
HETATM   39  C   UNL    20      -6.248  10.136  67.599  1.00  0.00    -0.058 C  
HETATM   40  O   UNL    20      -5.841  10.494  66.306  1.00  0.00    -0.071 OA 
HETATM   41  H   UNL    20      -4.908  10.667  66.282  1.00  0.00     0.000 HD 
ENDBRANCH  16  39
ENDBRANCH  12  14
TORSDOF 5
ENDMDL
MODEL      159
REMARK 921   NORMALIZED FREE ENERGY PREDICTED BY IDOCK:   -4.11 KCAL/MOL
REMARK 922        TOTAL FREE ENERGY PREDICTED BY IDOCK:   -6.90 KCAL/MOL
REMARK 923 INTER-LIGAND FREE ENERGY PREDICTED BY IDOCK:   -5.64 KCAL/MOL
REMARK 924 INTRA-LIGAND FREE ENERGY PREDICTED BY IDOCK:   -1.26 KCAL/MOL
REMARK 927      BINDING AFFINITY PREDICTED BY RF-SCORE:    0.00 PKD
ROOT
HETATM    1  O   HOH     4      -8.940  14.550  66.158  1.00  0.00    -0.492 OA 
HETATM    2  H2  HOH     4      -9.524  13.917  66.560  1.00  0.00     0.000 HD 
HETATM    3 NA   UNL    13     -10.107  10.308  71.688  1.00  0.00    -0.105 Na 
HETATM    4  H1  HOH     4      -8.199  14.612  66.749  1.00  0.00     0.000 HD 
HETATM    5 NA   UNL    14     -11.652  13.618  67.148  1.00  0.00    -0.270 Na 
HETATM    6 FE   UNL    15     -12.233  12.454  70.016  1.00  0.00    -0.251 Fe 
HETATM    7 FE   UNL    16      -8.131  12.448  67.664  1.00  0.00    -0.114 Fe 
HETATM    8 FE   UNL    17     -11.784  11.395  66.403  1.00  0.00    -0.313 Fe 
HETATM    9 FE   UNL    18      -7.558  12.044  65.612  1.00  0.00    -0.336 Fe 
HETATM   10 FE   UNL    19     -10.335   7.883  65.564  1.00  0.00    -0.391 Fe 
HETATM   11  O   UNL    20      -9.146  10.138  66.784  1.00  0.00    -0.138 OA 
HETATM   12  C   UNL    20      -7.893   9.785  67.307  1.00  0.00    -0.098 C  
HETATM   13  H   UNL    20      -9.303  11.071  66.692  1.00  0.00     0.000 HD 
ENDROOT
BRANCH  12  14
HETATM   14  C   UNL    20      -7.637   8.268  67.456  1.00  0.00    -0.098 C  
HETATM   15  O   UNL    20      -8.078   7.803  68.708  1.00  0.00    -0.123 OA 
HETATM   16  C   UNL    20      -8.201   6.407  68.619  1.00  0.00    -0.121 C  
HETATM   17  C   UNL    20      -8.187   7.324  66.363  1.00  0.00    -0.120 C  
HETATM   18  H   UNL    20      -7.534   6.442  64.751  1.00  0.00     0.000 HD 
HETATM   19  C   UNL    20      -8.615   6.061  67.147  1.00  0.00    -0.106 C  
HETATM   20  H   UNL    20     -10.238   5.631  66.079  1.00  0.00     0.000 HD 
HETATM   21  O   UNL    20      -7.196   7.022  65.422  1.00  0.00    -0.069 OA 
HETATM   22  O   UNL    20      -9.987   5.840  66.971  1.00  0.00    -0.136 OA 
BRANCH  16  23
HETATM   23  O   UNL    20      -9.006   5.896  69.703  1.00  0.00    -0.128 OA 
BRANCH  23  24
HETATM   24  C   UNL    20      -8.454   5.691  71.025  1.00  0.00    -0.122 C  
HETATM   25  O   UNL    20      -8.897   6.735  71.872  1.00  0.00    -0.135 OA 
HETATM   26  C   UNL    20     -10.286   6.662  72.178  1.00  0.00    -0.200 C  
HETATM   27  H   UNL    20      -8.234   2.480  71.597  1.00  0.00     0.000 HD 
HETATM   28  C   UNL    20     -10.665   5.327  72.884  1.00  0.00    -0.253 C  
HETATM   29  O   UNL    20     -12.036   5.259  73.186  1.00  0.00    -0.532 OA 
HETATM   30  C   UNL    20     -10.221   4.143  72.037  1.00  0.00    -0.129 C  
HETATM   31  O   UNL    20      -8.075   3.298  71.140  1.00  0.00    -0.060 OA 
HETATM   32  H   UNL    20     -12.267   4.445  73.617  1.00  0.00     0.000 HD 
HETATM   33  O   UNL    20     -10.433   2.954  72.744  1.00  0.00    -0.158 OA 
HETATM   34  C   UNL    20      -8.713   4.358  71.770  1.00  0.00    -0.115 C  
HETATM   35  H   UNL    20     -10.156   2.215  72.215  1.00  0.00     0.000 HD 
BRANCH  26  36
HETATM   36  C   UNL    20     -10.609   7.820  73.156  1.00  0.00    -0.352 C  
HETATM   37  O   UNL    20      -9.490   8.643  73.311  1.00  0.00    -0.067 OA 
HETATM   38  H   UNL    20      -9.688   9.354  73.910  1.00  0.00     0.000 HD 
ENDBRANCH  26  36
ENDBRANCH  23  24
ENDBRANCH  16  23
BRANCH  16  39
HETATM   39  C   UNL    20      -6.775   5.808  68.823  1.00  0.00    -0.064 C  
HETATM   40  O   UNL    20      -6.740   4.461  68.438  1.00  0.00    -0.045 OA 
HETATM   41  H   UNL    20      -5.872   4.097  68.562  1.00  0.00     0.000 HD 
ENDBRANCH  16  39
ENDBRANCH  12  14
TORSDOF 5
ENDMDL
MODEL      160
REMARK 921   NORMALIZED FREE ENERGY PREDICTED BY IDOCK:   -4.09 KCAL/MOL
REMARK 922        TOTAL FREE ENERGY PREDICTED BY IDOCK:   -6.87 KCAL/MOL
REMARK 923 INTER-LIGAND FREE ENERGY PREDICTED BY IDOCK:   -5.69 KCAL/MOL
REMARK 924 INTRA-LIGAND FREE ENERGY PREDICTED BY IDOCK:   -1.18 KCAL/MOL
REMARK 927      BINDING AFFINITY PREDICTED BY RF-SCORE:    0.00 PKD
ROOT
HETATM    1  O   HOH     4     -13.528  14.135  65.591  1.00  0.00    -0.725 OA 
HETATM    2  H2  HOH     4     -13.038  13.971  66.388  1.00  0.00     0.000 HD 
HETATM    3 NA   UNL    13      -7.313  14.731  68.903  1.00  0.00    -0.092 Na 
HETATM    4  H1  HOH     4     -12.902  14.525  64.993  1.00  0.00     0.000 HD 
HETATM    5 NA   UNL    14     -13.115  14.280  68.594  1.00  0.00    -0.548 Na 
HETATM    6 FE   UNL    15     -10.521  15.359  70.017  1.00  0.00    -0.198 Fe 
HETATM    7 FE   UNL    16     -10.891  13.519  65.676  1.00  0.00    -0.274 Fe 
HETATM    8 FE   UNL    17     -12.329  12.139  69.152  1.00  0.00    -0.271 Fe 
HETATM    9 FE   UNL    18     -11.937  11.816  64.833  1.00  0.00    -0.333 Fe 
HETATM   10 FE   UNL    19     -10.309   8.871  68.535  1.00  0.00    -0.164 Fe 
HETATM   11  O   UNL    20     -10.433  11.281  67.065  1.00  0.00    -0.214 OA 
HETATM   12  C   UNL    20      -9.436  11.283  66.078  1.00  0.00    -0.216 C  
HETATM   13  H   UNL    20     -11.123  11.926  66.951  1.00  0.00     0.000 HD 
ENDROOT
BRANCH  12  14
HETATM   14  C   UNL    20      -8.314  10.236  66.262  1.00  0.00    -0.134 C  
HETATM   15  O   UNL    20      -8.851   8.968  66.551  1.00  0.00    -0.127 OA 
HETATM   16  C   UNL    20      -7.848   8.018  66.298  1.00  0.00    -0.099 C  
HETATM   17  C   UNL    20      -7.270  10.078  65.135  1.00  0.00    -0.139 C  
HETATM   18  H   UNL    20      -5.474  10.720  64.726  1.00  0.00     0.000 HD 
HETATM   19  C   UNL    20      -6.970   8.560  65.119  1.00  0.00    -0.075 C  
HETATM   20  H   UNL    20      -6.765   8.358  63.149  1.00  0.00     0.000 HD 
HETATM   21  O   UNL    20      -6.116  10.818  65.419  1.00  0.00    -0.117 OA 
HETATM   22  O   UNL    20      -7.297   8.029  63.864  1.00  0.00    -0.086 OA 
BRANCH  16  23
HETATM   23  O   UNL    20      -8.415   6.695  66.188  1.00  0.00    -0.123 OA 
BRANCH  23  24
HETATM   24  C   UNL    20      -7.632   5.572  65.721  1.00  0.00    -0.083 C  
HETATM   25  O   UNL    20      -7.083   4.900  66.839  1.00  0.00    -0.069 OA 
HETATM   26  C   UNL    20      -8.058   4.206  67.613  1.00  0.00    -0.094 C  
HETATM   27  H   UNL    20      -9.019   4.360  63.021  1.00  0.00     0.000 HD 
HETATM   28  C   UNL    20      -8.818   3.134  66.780  1.00  0.00    -0.146 C  
HETATM   29  O   UNL    20      -9.778   2.450  67.547  1.00  0.00    -0.397 OA 
HETATM   30  C   UNL    20      -9.442   3.775  65.548  1.00  0.00    -0.169 C  
HETATM   31  O   UNL    20      -8.617   5.019  63.575  1.00  0.00    -0.133 OA 
HETATM   32  H   UNL    20     -10.241   1.796  67.039  1.00  0.00     0.000 HD 
HETATM   33  O   UNL    20      -9.997   2.782  64.733  1.00  0.00    -0.350 OA 
HETATM   34  C   UNL    20      -8.287   4.498  64.818  1.00  0.00    -0.116 C  
HETATM   35  H   UNL    20     -10.387   3.182  63.964  1.00  0.00     0.000 HD 
BRANCH  26  36
HETATM   36  C   UNL    20      -7.309   3.472  68.754  1.00  0.00    -0.050 C  
HETATM   37  O   UNL    20      -7.040   2.152  68.381  1.00  0.00    -0.043 OA 
HETATM   38  H   UNL    20      -6.581   1.702  69.081  1.00  0.00     0.000 HD 
ENDBRANCH  26  36
ENDBRANCH  23  24
ENDBRANCH  16  23
BRANCH  16  39
HETATM   39  C   UNL    20      -6.922   7.986  67.553  1.00  0.00    -0.075 C  
HETATM   40  O   UNL    20      -5.580   8.155  67.186  1.00  0.00    -0.036 OA 
HETATM   41  H   UNL    20      -5.016   8.136  67.950  1.00  0.00     0.000 HD 
ENDBRANCH  16  39
ENDBRANCH  12  14
TORSDOF 5
ENDMDL
MODEL      161
REMARK 921   NORMALIZED FREE ENERGY PREDICTED BY IDOCK:   -4.08 KCAL/MOL
REMARK 922        TOTAL FREE ENERGY PREDICTED BY IDOCK:   -6.86 KCAL/MOL
REMARK 923 INTER-LIGAND FREE ENERGY PREDICTED BY IDOCK:   -5.57 KCAL/MOL
REMARK 924 INTRA-LIGAND FREE ENERGY PREDICTED BY IDOCK:   -1.29 KCAL/MOL
REMARK 927      BINDING AFFINITY PREDICTED BY RF-SCORE:    0.00 PKD
ROOT
HETATM    1  O   HOH     4     -10.180   1.710  64.613  1.00  0.00    -0.318 OA 
HETATM    2  H2  HOH     4     -10.194   2.660  64.642  1.00  0.00     0.000 HD 
HETATM    3 NA   UNL    13      -6.383   7.629  65.311  1.00  0.00    -0.035 Na 
HETATM    4  H1  HOH     4      -9.272   1.473  64.761  1.00  0.00     0.000 HD 
HETATM    5 NA   UNL    14     -10.919   4.441  63.516  1.00  0.00    -0.317 Na 
HETATM    6 FE   UNL    15      -8.910   6.830  63.097  1.00  0.00    -0.327 Fe 
HETATM    7 FE   UNL    16      -8.533   3.228  66.137  1.00  0.00    -0.095 Fe 
HETATM    8 FE   UNL    17     -11.663   5.618  65.406  1.00  0.00    -0.625 Fe 
HETATM    9 FE   UNL    18      -9.912   2.214  67.469  1.00  0.00    -0.339 Fe 
HETATM   10 FE   UNL    19     -11.624   6.596  69.172  1.00  0.00    -0.259 Fe 
HETATM   11  O   UNL    20      -9.890   4.951  67.664  1.00  0.00    -0.158 OA 
HETATM   12  C   UNL    20      -8.759   4.631  68.430  1.00  0.00    -0.099 C  
HETATM   13  H   UNL    20     -10.031   4.409  66.896  1.00  0.00     0.000 HD 
ENDROOT
BRANCH  12  14
HETATM   14  C   UNL    20      -8.530   5.512  69.680  1.00  0.00    -0.101 C  
HETATM   15  O   UNL    20      -8.088   6.796  69.315  1.00  0.00    -0.117 OA 
HETATM   16  C   UNL    20      -8.296   7.641  70.417  1.00  0.00    -0.124 C  
HETATM   17  C   UNL    20      -9.689   5.663  70.690  1.00  0.00    -0.180 C  
HETATM   18  H   UNL    20     -10.254   4.858  72.374  1.00  0.00     0.000 HD 
HETATM   19  C   UNL    20      -9.568   7.127  71.174  1.00  0.00    -0.164 C  
HETATM   20  H   UNL    20     -11.516   7.511  71.324  1.00  0.00     0.000 HD 
HETATM   21  O   UNL    20      -9.541   4.764  71.753  1.00  0.00    -0.143 OA 
HETATM   22  O   UNL    20     -10.745   7.823  70.865  1.00  0.00    -0.217 OA 
BRANCH  16  23
HETATM   23  O   UNL    20      -8.243   9.027  70.015  1.00  0.00    -0.105 OA 
BRANCH  23  24
HETATM   24  C   UNL    20      -7.811   9.415  68.690  1.00  0.00    -0.088 C  
HETATM   25  O   UNL    20      -8.906   9.993  68.003  1.00  0.00    -0.124 OA 
HETATM   26  C   UNL    20      -9.282  11.268  68.515  1.00  0.00    -0.181 C  
HETATM   27  H   UNL    20      -4.686  10.365  68.827  1.00  0.00     0.000 HD 
HETATM   28  C   UNL    20      -8.119  12.299  68.443  1.00  0.00    -0.151 C  
HETATM   29  O   UNL    20      -8.495  13.556  68.948  1.00  0.00    -0.358 OA 
HETATM   30  C   UNL    20      -6.892  11.754  69.161  1.00  0.00    -0.106 C  
HETATM   31  O   UNL    20      -5.424   9.775  68.930  1.00  0.00    -0.036 OA 
HETATM   32  H   UNL    20      -7.785  14.186  68.904  1.00  0.00     0.000 HD 
HETATM   33  O   UNL    20      -5.811  12.621  68.966  1.00  0.00    -0.068 OA 
HETATM   34  C   UNL    20      -6.608  10.376  68.522  1.00  0.00    -0.052 C  
HETATM   35  H   UNL    20      -5.045  12.281  69.414  1.00  0.00     0.000 HD 
BRANCH  26  36
HETATM   36  C   UNL    20     -10.439  11.801  67.632  1.00  0.00    -0.197 C  
HETATM   37  O   UNL    20     -11.669  11.525  68.235  1.00  0.00    -0.385 OA 
HETATM   38  H   UNL    20     -12.379  11.852  67.694  1.00  0.00     0.000 HD 
ENDBRANCH  26  36
ENDBRANCH  23  24
ENDBRANCH  16  23
BRANCH  16  39
HETATM   39  C   UNL    20      -7.094   7.430  71.390  1.00  0.00    -0.063 C  
HETATM   40  O   UNL    20      -6.279   8.570  71.430  1.00  0.00    -0.039 OA 
HETATM   41  H   UNL    20      -5.548   8.440  72.022  1.00  0.00     0.000 HD 
ENDBRANCH  16  39
ENDBRANCH  12  14
TORSDOF 5
ENDMDL
MODEL      162
REMARK 921   NORMALIZED FREE ENERGY PREDICTED BY IDOCK:   -4.03 KCAL/MOL
REMARK 922        TOTAL FREE ENERGY PREDICTED BY IDOCK:   -6.79 KCAL/MOL
REMARK 923 INTER-LIGAND FREE ENERGY PREDICTED BY IDOCK:   -6.36 KCAL/MOL
REMARK 924 INTRA-LIGAND FREE ENERGY PREDICTED BY IDOCK:   -0.43 KCAL/MOL
REMARK 927      BINDING AFFINITY PREDICTED BY RF-SCORE:    0.00 PKD
ROOT
HETATM    1  O   HOH     4     -11.981  16.228  63.795  1.00  0.00    -1.409 OA 
HETATM    2  H2  HOH     4     -11.611  16.247  64.670  1.00  0.00     0.000 HD 
HETATM    3 NA   UNL    13      -6.646  14.226  67.975  1.00  0.00    -0.078 Na 
HETATM    4  H1  HOH     4     -11.379  15.696  63.286  1.00  0.00     0.000 HD 
HETATM    5 NA   UNL    14     -11.059  17.648  66.312  1.00  0.00    -0.288 Na 
HETATM    6 FE   UNL    15      -8.249  17.271  67.682  1.00  0.00    -0.175 Fe 
HETATM    7 FE   UNL    16     -10.555  14.211  64.910  1.00  0.00    -0.282 Fe 
HETATM    8 FE   UNL    17     -11.898  16.308  68.048  1.00  0.00    -0.317 Fe 
HETATM    9 FE   UNL    18     -12.616  13.553  64.760  1.00  0.00    -0.364 Fe 
HETATM   10 FE   UNL    19     -12.869  12.931  69.718  1.00  0.00    -0.180 Fe 
HETATM   11  O   UNL    20     -11.543  13.484  67.284  1.00  0.00    -0.323 OA 
HETATM   12  C   UNL    20     -11.021  12.296  66.751  1.00  0.00    -0.276 C  
HETATM   13  H   UNL    20     -11.596  14.215  66.679  1.00  0.00     0.000 HD 
ENDROOT
BRANCH  12  14
HETATM   14  C   UNL    20     -10.933  11.106  67.735  1.00  0.00    -0.262 C  
HETATM   15  O   UNL    20     -10.326   9.993  67.125  1.00  0.00    -0.214 OA 
HETATM   16  C   UNL    20      -9.910   9.127  68.150  1.00  0.00    -0.164 C  
HETATM   17  C   UNL    20     -10.260  11.340  69.105  1.00  0.00    -0.100 C  
HETATM   18  H   UNL    20     -10.805  11.747  70.934  1.00  0.00     0.000 HD 
HETATM   19  C   UNL    20      -9.522  10.010  69.386  1.00  0.00    -0.223 C  
HETATM   20  H   UNL    20      -7.913  10.787  70.262  1.00  0.00     0.000 HD 
HETATM   21  O   UNL    20     -11.219  11.604  70.091  1.00  0.00    -0.111 OA 
HETATM   22  O   UNL    20      -8.148  10.252  69.514  1.00  0.00    -0.155 OA 
BRANCH  16  23
HETATM   23  O   UNL    20      -8.948   8.173  67.652  1.00  0.00    -0.131 OA 
BRANCH  23  24
HETATM   24  C   UNL    20      -9.165   7.453  66.416  1.00  0.00    -0.159 C  
HETATM   25  O   UNL    20      -7.927   7.312  65.745  1.00  0.00    -0.108 OA 
HETATM   26  C   UNL    20      -7.035   6.410  66.393  1.00  0.00    -0.067 C  
HETATM   27  H   UNL    20     -11.567   5.281  66.859  1.00  0.00     0.000 HD 
HETATM   28  C   UNL    20      -7.634   4.979  66.524  1.00  0.00    -0.088 C  
HETATM   29  O   UNL    20      -6.751   4.092  67.162  1.00  0.00    -0.045 OA 
HETATM   30  C   UNL    20      -8.978   5.039  67.237  1.00  0.00    -0.113 C  
HETATM   31  O   UNL    20     -11.159   6.139  66.841  1.00  0.00    -0.334 OA 
HETATM   32  H   UNL    20      -7.116   3.219  67.242  1.00  0.00     0.000 HD 
HETATM   33  O   UNL    20      -9.575   3.773  67.220  1.00  0.00    -0.202 OA 
HETATM   34  C   UNL    20      -9.831   6.055  66.444  1.00  0.00    -0.110 C  
HETATM   35  H   UNL    20     -10.413   3.810  67.665  1.00  0.00     0.000 HD 
BRANCH  26  36
HETATM   36  C   UNL    20      -5.759   6.308  65.519  1.00  0.00    -0.021 C  
HETATM   37  O   UNL    20      -6.070   5.740  64.281  1.00  0.00    -0.024 OA 
HETATM   38  H   UNL    20      -5.288   5.677  63.744  1.00  0.00     0.000 HD 
ENDBRANCH  26  36
ENDBRANCH  23  24
ENDBRANCH  16  23
BRANCH  16  39
HETATM   39  C   UNL    20     -11.157   8.296  68.581  1.00  0.00     0.365 C  
HETATM   40  O   UNL    20     -11.220   8.180  69.977  1.00  0.00    -0.401 OA 
HETATM   41  H   UNL    20     -11.980   7.675  70.240  1.00  0.00     0.000 HD 
ENDBRANCH  16  39
ENDBRANCH  12  14
TORSDOF 5
ENDMDL
MODEL      163
REMARK 921   NORMALIZED FREE ENERGY PREDICTED BY IDOCK:   -4.00 KCAL/MOL
REMARK 922        TOTAL FREE ENERGY PREDICTED BY IDOCK:   -6.75 KCAL/MOL
REMARK 923 INTER-LIGAND FREE ENERGY PREDICTED BY IDOCK:   -4.90 KCAL/MOL
REMARK 924 INTRA-LIGAND FREE ENERGY PREDICTED BY IDOCK:   -1.85 KCAL/MOL
REMARK 927      BINDING AFFINITY PREDICTED BY RF-SCORE:    0.00 PKD
ROOT
HETATM    1  O   HOH     4     -13.322  10.447  72.170  1.00  0.00    -0.543 OA 
HETATM    2  H2  HOH     4     -12.978   9.607  71.890  1.00  0.00     0.000 HD 
HETATM    3 NA   UNL    13      -7.708   6.160  71.970  1.00  0.00    -0.084 Na 
HETATM    4  H1  HOH     4     -12.586  10.893  72.573  1.00  0.00     0.000 HD 
HETATM    5 NA   UNL    14     -13.397   7.420  71.976  1.00  0.00    -0.299 Na 
HETATM    6 FE   UNL    15     -11.015   5.497  72.712  1.00  0.00    -0.186 Fe 
HETATM    7 FE   UNL    16     -10.772  10.021  71.358  1.00  0.00    -0.283 Fe 
HETATM    8 FE   UNL    17     -12.832   6.991  69.739  1.00  0.00    -0.584 Fe 
HETATM    9 FE   UNL    18     -11.759  11.204  69.832  1.00  0.00    -0.205 Fe 
HETATM   10 FE   UNL    19     -10.922   7.649  66.413  1.00  0.00    -0.363 Fe 
HETATM   11  O   UNL    20     -10.671   8.840  68.963  1.00  0.00    -0.339 OA 
HETATM   12  C   UNL    20      -9.528   9.652  68.994  1.00  0.00    -0.168 C  
HETATM   13  H   UNL    20     -11.296   8.986  69.664  1.00  0.00     0.000 HD 
ENDROOT
BRANCH  12  14
HETATM   14  C   UNL    20      -8.511   9.413  67.854  1.00  0.00    -0.116 C  
HETATM   15  O   UNL    20      -8.195   8.048  67.739  1.00  0.00    -0.125 OA 
HETATM   16  C   UNL    20      -7.621   7.853  66.472  1.00  0.00    -0.092 C  
HETATM   17  C   UNL    20      -8.850   9.956  66.448  1.00  0.00    -0.142 C  
HETATM   18  H   UNL    20      -8.446  11.529  65.368  1.00  0.00     0.000 HD 
HETATM   19  C   UNL    20      -8.283   8.880  65.491  1.00  0.00    -0.129 C  
HETATM   20  H   UNL    20      -9.723   8.971  64.119  1.00  0.00     0.000 HD 
HETATM   21  O   UNL    20      -8.238  11.196  66.233  1.00  0.00    -0.168 OA 
HETATM   22  O   UNL    20      -9.321   8.349  64.714  1.00  0.00     0.417 OA 
BRANCH  16  23
HETATM   23  O   UNL    20      -7.628   6.454  66.118  1.00  0.00    -0.086 OA 
BRANCH  23  24
HETATM   24  C   UNL    20      -8.496   5.508  66.785  1.00  0.00    -0.111 C  
HETATM   25  O   UNL    20      -9.408   4.980  65.840  1.00  0.00    -0.151 OA 
HETATM   26  C   UNL    20      -8.796   4.113  64.889  1.00  0.00    -0.133 C  
HETATM   27  H   UNL    20      -6.808   3.996  69.141  1.00  0.00     0.000 HD 
HETATM   28  C   UNL    20      -8.100   2.895  65.564  1.00  0.00    -0.087 C  
HETATM   29  O   UNL    20      -7.499   2.042  64.623  1.00  0.00    -0.060 OA 
HETATM   30  C   UNL    20      -7.097   3.376  66.603  1.00  0.00    -0.055 C  
HETATM   31  O   UNL    20      -7.183   4.732  68.671  1.00  0.00    -0.056 OA 
HETATM   32  H   UNL    20      -7.074   1.298  65.034  1.00  0.00     0.000 HD 
HETATM   33  O   UNL    20      -6.584   2.277  67.304  1.00  0.00    -0.037 OA 
HETATM   34  C   UNL    20      -7.885   4.308  67.551  1.00  0.00    -0.088 C  
HETATM   35  H   UNL    20      -5.958   2.577  67.952  1.00  0.00     0.000 HD 
BRANCH  26  36
HETATM   36  C   UNL    20      -9.916   3.566  63.970  1.00  0.00    -0.186 C  
HETATM   37  O   UNL    20     -10.344   2.316  64.427  1.00  0.00    -0.359 OA 
HETATM   38  H   UNL    20     -11.032   1.980  63.863  1.00  0.00     0.000 HD 
ENDBRANCH  26  36
ENDBRANCH  23  24
ENDBRANCH  16  23
BRANCH  16  39
HETATM   39  C   UNL    20      -6.119   8.262  66.583  1.00  0.00    -0.053 C  
HETATM   40  O   UNL    20      -5.450   7.454  67.513  1.00  0.00    -0.026 OA 
HETATM   41  H   UNL    20      -4.536   7.702  67.580  1.00  0.00     0.000 HD 
ENDBRANCH  16  39
ENDBRANCH  12  14
TORSDOF 5
ENDMDL
MODEL      164
REMARK 921   NORMALIZED FREE ENERGY PREDICTED BY IDOCK:   -4.00 KCAL/MOL
REMARK 922        TOTAL FREE ENERGY PREDICTED BY IDOCK:   -6.75 KCAL/MOL
REMARK 923 INTER-LIGAND FREE ENERGY PREDICTED BY IDOCK:   -5.19 KCAL/MOL
REMARK 924 INTRA-LIGAND FREE ENERGY PREDICTED BY IDOCK:   -1.56 KCAL/MOL
REMARK 927      BINDING AFFINITY PREDICTED BY RF-SCORE:    0.00 PKD
ROOT
HETATM    1  O   HOH     4      -9.492  11.725  65.513  1.00  0.00    -0.277 OA 
HETATM    2  H2  HOH     4      -9.577  10.816  65.775  1.00  0.00     0.000 HD 
HETATM    3 NA   UNL    13     -12.603   7.130  69.889  1.00  0.00    -0.538 Na 
HETATM    4  H1  HOH     4     -10.050  12.207  66.112  1.00  0.00     0.000 HD 
HETATM    5 NA   UNL    14      -9.976   8.782  64.957  1.00  0.00    -0.436 Na 
HETATM    6 FE   UNL    15     -12.044   6.964  66.485  1.00  0.00    -0.413 Fe 
HETATM    7 FE   UNL    16      -9.924  10.889  68.054  1.00  0.00    -0.153 Fe 
HETATM    8 FE   UNL    17      -8.332   7.696  66.233  1.00  0.00    -0.099 Fe 
HETATM    9 FE   UNL    18      -7.902  11.667  67.953  1.00  0.00    -0.098 Fe 
HETATM   10 FE   UNL    19      -6.036   7.237  69.341  1.00  0.00    -0.023 Fe 
HETATM   11  O   UNL    20      -8.120   9.075  68.829  1.00  0.00    -0.103 OA 
HETATM   12  C   UNL    20      -8.435   9.771  70.006  1.00  0.00    -0.206 C  
HETATM   13  H   UNL    20      -8.447   9.463  68.025  1.00  0.00     0.000 HD 
ENDROOT
BRANCH  12  14
HETATM   14  C   UNL    20      -7.903   9.142  71.314  1.00  0.00    -0.019 C  
HETATM   15  O   UNL    20      -8.596   7.958  71.621  1.00  0.00    -0.109 OA 
HETATM   16  C   UNL    20      -7.819   7.242  72.546  1.00  0.00    -0.095 C  
HETATM   17  C   UNL    20      -6.387   8.863  71.426  1.00  0.00    -0.073 C  
HETATM   18  H   UNL    20      -4.808   9.732  72.170  1.00  0.00     0.000 HD 
HETATM   19  C   UNL    20      -6.313   7.545  72.232  1.00  0.00    -0.043 C  
HETATM   20  H   UNL    20      -4.763   6.743  71.276  1.00  0.00     0.000 HD 
HETATM   21  O   UNL    20      -5.739   9.904  72.101  1.00  0.00    -0.283 OA 
HETATM   22  O   UNL    20      -5.675   6.560  71.466  1.00  0.00    -0.030 OA 
BRANCH  16  23
HETATM   23  O   UNL    20      -8.248   5.866  72.617  1.00  0.00    -0.112 OA 
BRANCH  23  24
HETATM   24  C   UNL    20      -9.194   5.318  71.670  1.00  0.00    -0.146 C  
HETATM   25  O   UNL    20      -8.809   3.993  71.353  1.00  0.00    -0.098 OA 
HETATM   26  C   UNL    20      -8.994   3.080  72.431  1.00  0.00    -0.090 C  
HETATM   27  H   UNL    20     -12.159   6.544  72.298  1.00  0.00     0.000 HD 
HETATM   28  C   UNL    20     -10.477   3.011  72.898  1.00  0.00    -0.148 C  
HETATM   29  O   UNL    20     -10.655   2.108  73.961  1.00  0.00    -0.123 OA 
HETATM   30  C   UNL    20     -10.976   4.403  73.259  1.00  0.00    -0.273 C  
HETATM   31  O   UNL    20     -11.233   6.565  72.084  1.00  0.00    -0.246 OA 
HETATM   32  H   UNL    20     -11.561   2.066  74.245  1.00  0.00     0.000 HD 
HETATM   33  O   UNL    20     -12.347   4.352  73.537  1.00  0.00    -0.079 OA 
HETATM   34  C   UNL    20     -10.703   5.284  72.019  1.00  0.00    -0.196 C  
HETATM   35  H   UNL    20     -12.659   5.221  73.762  1.00  0.00     0.000 HD 
BRANCH  26  36
HETATM   36  C   UNL    20      -8.595   1.672  71.922  1.00  0.00    -0.058 C  
HETATM   37  O   UNL    20      -7.820   1.782  70.763  1.00  0.00    -0.039 OA 
HETATM   38  H   UNL    20      -7.575   0.918  70.451  1.00  0.00     0.000 HD 
ENDBRANCH  26  36
ENDBRANCH  23  24
ENDBRANCH  16  23
BRANCH  16  39
HETATM   39  C   UNL    20      -8.103   7.854  73.953  1.00  0.00    -0.217 C  
HETATM   40  O   UNL    20      -9.466   7.764  74.270  1.00  0.00    -0.366 OA 
HETATM   41  H   UNL    20      -9.638   8.136  75.126  1.00  0.00     0.000 HD 
ENDBRANCH  16  39
ENDBRANCH  12  14
TORSDOF 5
ENDMDL
MODEL      165
REMARK 921   NORMALIZED FREE ENERGY PREDICTED BY IDOCK:   -3.99 KCAL/MOL
REMARK 922        TOTAL FREE ENERGY PREDICTED BY IDOCK:   -6.74 KCAL/MOL
REMARK 923 INTER-LIGAND FREE ENERGY PREDICTED BY IDOCK:   -6.06 KCAL/MOL
REMARK 924 INTRA-LIGAND FREE ENERGY PREDICTED BY IDOCK:   -0.69 KCAL/MOL
REMARK 927      BINDING AFFINITY PREDICTED BY RF-SCORE:    0.00 PKD
ROOT
HETATM    1  O   HOH     4     -10.048   7.177  73.830  1.00  0.00    -0.322 OA 
HETATM    2  H2  HOH     4     -10.442   7.727  73.162  1.00  0.00     0.000 HD 
HETATM    3 NA   UNL    13     -11.736   7.838  67.000  1.00  0.00    -0.456 Na 
HETATM    4  H1  HOH     4      -9.741   6.408  73.366  1.00  0.00     0.000 HD 
HETATM    5 NA   UNL    14     -12.290   8.885  72.705  1.00  0.00    -0.347 Na 
HETATM    6 FE   UNL    15     -13.561   8.552  69.843  1.00  0.00     0.329 Fe 
HETATM    7 FE   UNL    16      -9.225   7.294  71.252  1.00  0.00    -0.141 Fe 
HETATM    8 FE   UNL    17     -11.177  10.748  71.811  1.00  0.00    -0.090 Fe 
HETATM    9 FE   UNL    18      -7.695   8.228  72.472  1.00  0.00    -0.081 Fe 
HETATM   10 FE   UNL    19      -8.237  12.546  70.004  1.00  0.00     0.177 Fe 
HETATM   11  O   UNL    20      -8.725   9.803  70.475  1.00  0.00    -0.286 OA 
HETATM   12  C   UNL    20      -7.811   9.029  69.745  1.00  0.00    -0.086 C  
HETATM   13  H   UNL    20      -9.185   9.346  71.171  1.00  0.00     0.000 HD 
ENDROOT
BRANCH  12  14
HETATM   14  C   UNL    20      -7.064   9.771  68.614  1.00  0.00    -0.071 C  
HETATM   15  O   UNL    20      -7.854   9.843  67.452  1.00  0.00    -0.098 OA 
HETATM   16  C   UNL    20      -7.314  10.851  66.637  1.00  0.00    -0.139 C  
HETATM   17  C   UNL    20      -6.504  11.180  68.910  1.00  0.00    -0.056 C  
HETATM   18  H   UNL    20      -4.805  11.980  69.438  1.00  0.00     0.000 HD 
HETATM   19  C   UNL    20      -6.704  11.945  67.581  1.00  0.00    -0.105 C  
HETATM   20  H   UNL    20      -7.168  13.714  68.366  1.00  0.00     0.000 HD 
HETATM   21  O   UNL    20      -5.149  11.114  69.256  1.00  0.00    -0.044 OA 
HETATM   22  O   UNL    20      -7.537  13.051  67.795  1.00  0.00    -0.122 OA 
BRANCH  16  23
HETATM   23  O   UNL    20      -8.266  11.258  65.631  1.00  0.00    -0.031 OA 
BRANCH  23  24
HETATM   24  C   UNL    20      -9.503  10.537  65.423  1.00  0.00    -0.223 C  
HETATM   25  O   UNL    20     -10.344  10.741  66.543  1.00  0.00    -0.231 OA 
HETATM   26  C   UNL    20     -10.853  12.068  66.632  1.00  0.00    -0.272 C  
HETATM   27  H   UNL    20     -10.219  10.555  62.234  1.00  0.00     0.000 HD 
HETATM   28  C   UNL    20     -11.682  12.468  65.376  1.00  0.00    -0.398 C  
HETATM   29  O   UNL    20     -12.183  13.778  65.468  1.00  0.00    -0.387 OA 
HETATM   30  C   UNL    20     -10.847  12.277  64.118  1.00  0.00    -0.365 C  
HETATM   31  O   UNL    20      -9.698  10.386  63.010  1.00  0.00    -0.318 OA 
HETATM   32  H   UNL    20     -12.689  14.021  64.702  1.00  0.00     0.000 HD 
HETATM   33  O   UNL    20     -11.644  12.498  62.988  1.00  0.00    -0.697 OA 
HETATM   34  C   UNL    20     -10.352  10.813  64.157  1.00  0.00    -0.311 C  
HETATM   35  H   UNL    20     -11.124  12.379  62.202  1.00  0.00     0.000 HD 
BRANCH  26  36
HETATM   36  C   UNL    20     -11.800  12.123  67.858  1.00  0.00    -0.269 C  
HETATM   37  O   UNL    20     -12.467  13.350  67.895  1.00  0.00    -0.152 OA 
HETATM   38  H   UNL    20     -13.048  13.384  68.646  1.00  0.00     0.000 HD 
ENDBRANCH  26  36
ENDBRANCH  23  24
ENDBRANCH  16  23
BRANCH  16  39
HETATM   39  C   UNL    20      -6.113  10.223  65.865  1.00  0.00    -0.103 C  
HETATM   40  O   UNL    20      -5.983  10.798  64.593  1.00  0.00    -0.360 OA 
HETATM   41  H   UNL    20      -5.252  10.416  64.124  1.00  0.00     0.000 HD 
ENDBRANCH  16  39
ENDBRANCH  12  14
TORSDOF 5
ENDMDL
MODEL      166
REMARK 921   NORMALIZED FREE ENERGY PREDICTED BY IDOCK:   -3.97 KCAL/MOL
REMARK 922        TOTAL FREE ENERGY PREDICTED BY IDOCK:   -6.71 KCAL/MOL
REMARK 923 INTER-LIGAND FREE ENERGY PREDICTED BY IDOCK:   -5.24 KCAL/MOL
REMARK 924 INTRA-LIGAND FREE ENERGY PREDICTED BY IDOCK:   -1.48 KCAL/MOL
REMARK 927      BINDING AFFINITY PREDICTED BY RF-SCORE:    0.00 PKD
ROOT
HETATM    1  O   HOH     4     -11.940  14.155  68.388  1.00  0.00    -0.378 OA 
HETATM    2  H2  HOH     4     -11.820  13.263  68.696  1.00  0.00     0.000 HD 
HETATM    3 NA   UNL    13      -7.567   9.531  71.463  1.00  0.00    -0.115 Na 
HETATM    4  H1  HOH     4     -11.108  14.585  68.551  1.00  0.00     0.000 HD 
HETATM    5 NA   UNL    14     -12.766  11.707  69.980  1.00  0.00    -0.262 Na 
HETATM    6 FE   UNL    15     -10.921  10.154  72.005  1.00  0.00    -0.231 Fe 
HETATM    7 FE   UNL    16      -9.591  12.805  68.322  1.00  0.00    -0.175 Fe 
HETATM    8 FE   UNL    17     -12.368   9.923  68.507  1.00  0.00    -0.497 Fe 
HETATM    9 FE   UNL    18     -10.283  13.021  66.277  1.00  0.00    -0.245 Fe 
HETATM   10 FE   UNL    19     -10.418   8.052  65.707  1.00  0.00    -0.462 Fe 
HETATM   11  O   UNL    20      -9.832  10.441  67.098  1.00  0.00    -0.170 OA 
HETATM   12  C   UNL    20      -8.522  10.849  66.802  1.00  0.00    -0.139 C  
HETATM   13  H   UNL    20     -10.387  11.104  67.492  1.00  0.00     0.000 HD 
ENDROOT
BRANCH  12  14
HETATM   14  C   UNL    20      -7.618   9.772  66.160  1.00  0.00    -0.101 C  
HETATM   15  O   UNL    20      -8.102   8.480  66.435  1.00  0.00    -0.100 OA 
HETATM   16  C   UNL    20      -7.507   7.603  65.513  1.00  0.00    -0.077 C  
HETATM   17  C   UNL    20      -7.325   9.872  64.647  1.00  0.00    -0.140 C  
HETATM   18  H   UNL    20      -5.919  10.568  63.488  1.00  0.00     0.000 HD 
HETATM   19  C   UNL    20      -7.286   8.398  64.180  1.00  0.00    -0.092 C  
HETATM   20  H   UNL    20      -8.141   8.666  62.403  1.00  0.00     0.000 HD 
HETATM   21  O   UNL    20      -6.098  10.507  64.419  1.00  0.00    -0.115 OA 
HETATM   22  O   UNL    20      -8.275   8.185  63.210  1.00  0.00    -0.150 OA 
BRANCH  16  23
HETATM   23  O   UNL    20      -8.226   6.352  65.462  1.00  0.00    -0.130 OA 
BRANCH  23  24
HETATM   24  C   UNL    20      -7.692   5.200  64.768  1.00  0.00    -0.086 C  
HETATM   25  O   UNL    20      -7.008   4.383  65.699  1.00  0.00    -0.056 OA 
HETATM   26  C   UNL    20      -7.876   3.727  66.619  1.00  0.00    -0.088 C  
HETATM   27  H   UNL    20      -9.739   4.370  62.358  1.00  0.00     0.000 HD 
HETATM   28  C   UNL    20      -8.912   2.812  65.903  1.00  0.00    -0.142 C  
HETATM   29  O   UNL    20      -9.766   2.167  66.814  1.00  0.00    -0.344 OA 
HETATM   30  C   UNL    20      -9.697   3.617  64.876  1.00  0.00    -0.172 C  
HETATM   31  O   UNL    20      -9.157   4.935  62.853  1.00  0.00    -0.111 OA 
HETATM   32  H   UNL    20     -10.398   1.608  66.377  1.00  0.00     0.000 HD 
HETATM   33  O   UNL    20     -10.521   2.758  64.138  1.00  0.00    -0.372 OA 
HETATM   34  C   UNL    20      -8.641   4.279  63.962  1.00  0.00    -0.116 C  
HETATM   35  H   UNL    20     -11.011   3.260  63.497  1.00  0.00     0.000 HD 
BRANCH  26  36
HETATM   36  C   UNL    20      -6.999   2.826  67.525  1.00  0.00    -0.049 C  
HETATM   37  O   UNL    20      -7.451   2.890  68.846  1.00  0.00    -0.048 OA 
HETATM   38  H   UNL    20      -6.914   2.337  69.402  1.00  0.00     0.000 HD 
ENDBRANCH  26  36
ENDBRANCH  23  24
ENDBRANCH  16  23
BRANCH  16  39
HETATM   39  C   UNL    20      -6.086   7.261  66.057  1.00  0.00    -0.037 C  
HETATM   40  O   UNL    20      -6.163   6.742  67.357  1.00  0.00    -0.036 OA 
HETATM   41  H   UNL    20      -5.297   6.533  67.689  1.00  0.00     0.000 HD 
ENDBRANCH  16  39
ENDBRANCH  12  14
TORSDOF 5
ENDMDL
MODEL      167
REMARK 921   NORMALIZED FREE ENERGY PREDICTED BY IDOCK:   -3.97 KCAL/MOL
REMARK 922        TOTAL FREE ENERGY PREDICTED BY IDOCK:   -6.71 KCAL/MOL
REMARK 923 INTER-LIGAND FREE ENERGY PREDICTED BY IDOCK:   -4.82 KCAL/MOL
REMARK 924 INTRA-LIGAND FREE ENERGY PREDICTED BY IDOCK:   -1.89 KCAL/MOL
REMARK 927      BINDING AFFINITY PREDICTED BY RF-SCORE:    0.00 PKD
ROOT
HETATM    1  O   HOH     4      -8.223  15.586  66.214  1.00  0.00    -0.346 OA 
HETATM    2  H2  HOH     4      -8.659  14.762  66.027  1.00  0.00     0.000 HD 
HETATM    3 NA   UNL    13     -12.846  10.735  68.459  1.00  0.00    -0.324 Na 
HETATM    4  H1  HOH     4      -8.535  15.839  67.075  1.00  0.00     0.000 HD 
HETATM    5 NA   UNL    14      -9.845  13.721  64.455  1.00  0.00    -0.428 Na 
HETATM    6 FE   UNL    15     -12.445  12.187  65.352  1.00  0.00    -0.397 Fe 
HETATM    7 FE   UNL    16      -8.917  13.752  68.084  1.00  0.00    -0.144 Fe 
HETATM    8 FE   UNL    17      -8.752  11.655  64.675  1.00  0.00    -0.348 Fe 
HETATM    9 FE   UNL    18      -6.754  13.742  67.926  1.00  0.00    -0.072 Fe 
HETATM   10 FE   UNL    19      -6.786   8.914  66.614  1.00  0.00    -0.064 Fe 
HETATM   11  O   UNL    20      -7.973  11.321  67.498  1.00  0.00    -0.116 OA 
HETATM   12  C   UNL    20      -7.969  11.362  68.900  1.00  0.00    -0.085 C  
HETATM   13  H   UNL    20      -8.130  12.153  67.065  1.00  0.00     0.000 HD 
ENDROOT
BRANCH  12  14
HETATM   14  C   UNL    20      -7.713  10.010  69.605  1.00  0.00    -0.156 C  
HETATM   15  O   UNL    20      -8.212   8.941  68.839  1.00  0.00    -0.114 OA 
HETATM   16  C   UNL    20      -7.601   7.766  69.307  1.00  0.00    -0.098 C  
HETATM   17  C   UNL    20      -6.268   9.671  70.032  1.00  0.00    -0.055 C  
HETATM   18  H   UNL    20      -5.172   9.781  71.642  1.00  0.00     0.000 HD 
HETATM   19  C   UNL    20      -6.161   8.146  69.797  1.00  0.00    -0.029 C  
HETATM   20  H   UNL    20      -4.274   8.114  69.163  1.00  0.00     0.000 HD 
HETATM   21  O   UNL    20      -6.061   9.990  71.380  1.00  0.00    -0.283 OA 
HETATM   22  O   UNL    20      -5.147   7.884  68.866  1.00  0.00    -0.022 OA 
BRANCH  16  23
HETATM   23  O   UNL    20      -7.746   6.698  68.347  1.00  0.00    -0.102 OA 
BRANCH  23  24
HETATM   24  C   UNL    20      -8.874   6.640  67.443  1.00  0.00    -0.116 C  
HETATM   25  O   UNL    20      -8.437   6.988  66.143  1.00  0.00    -0.123 OA 
HETATM   26  C   UNL    20      -7.601   6.000  65.546  1.00  0.00    -0.085 C  
HETATM   27  H   UNL    20     -10.885   4.251  68.408  1.00  0.00     0.000 HD 
HETATM   28  C   UNL    20      -8.315   4.622  65.421  1.00  0.00    -0.119 C  
HETATM   29  O   UNL    20      -7.488   3.651  64.830  1.00  0.00    -0.071 OA 
HETATM   30  C   UNL    20      -8.821   4.170  66.783  1.00  0.00    -0.119 C  
HETATM   31  O   UNL    20     -10.384   5.054  68.487  1.00  0.00    -0.124 OA 
HETATM   32  H   UNL    20      -7.923   2.810  64.754  1.00  0.00     0.000 HD 
HETATM   33  O   UNL    20      -9.586   3.006  66.637  1.00  0.00    -0.392 OA 
HETATM   34  C   UNL    20      -9.692   5.331  67.315  1.00  0.00    -0.149 C  
HETATM   35  H   UNL    20      -9.902   2.724  67.487  1.00  0.00     0.000 HD 
BRANCH  26  36
HETATM   36  C   UNL    20      -7.257   6.484  64.114  1.00  0.00    -0.070 C  
HETATM   37  O   UNL    20      -6.562   7.695  64.172  1.00  0.00    -0.051 OA 
HETATM   38  H   UNL    20      -6.350   7.992  63.294  1.00  0.00     0.000 HD 
ENDBRANCH  26  36
ENDBRANCH  23  24
ENDBRANCH  16  23
BRANCH  16  39
HETATM   39  C   UNL    20      -8.388   7.314  70.576  1.00  0.00    -0.133 C  
HETATM   40  O   UNL    20      -7.511   7.036  71.633  1.00  0.00    -0.085 OA 
HETATM   41  H   UNL    20      -7.990   6.761  72.405  1.00  0.00     0.000 HD 
ENDBRANCH  16  39
ENDBRANCH  12  14
TORSDOF 5
ENDMDL
MODEL      168
REMARK 921   NORMALIZED FREE ENERGY PREDICTED BY IDOCK:   -3.93 KCAL/MOL
REMARK 922        TOTAL FREE ENERGY PREDICTED BY IDOCK:   -6.66 KCAL/MOL
REMARK 923 INTER-LIGAND FREE ENERGY PREDICTED BY IDOCK:   -6.21 KCAL/MOL
REMARK 924 INTRA-LIGAND FREE ENERGY PREDICTED BY IDOCK:   -0.45 KCAL/MOL
REMARK 927      BINDING AFFINITY PREDICTED BY RF-SCORE:    0.00 PKD
ROOT
HETATM    1  O   HOH     4      -7.231   2.273  65.982  1.00  0.00    -0.061 OA 
HETATM    2  H2  HOH     4      -7.960   2.798  66.289  1.00  0.00     0.000 HD 
HETATM    3 NA   UNL    13     -10.671   8.426  65.487  1.00  0.00    -0.257 Na 
HETATM    4  H1  HOH     4      -6.770   2.830  65.365  1.00  0.00     0.000 HD 
HETATM    5 NA   UNL    14     -10.166   2.729  66.601  1.00  0.00    -0.402 Na 
HETATM    6 FE   UNL    15     -11.866   5.188  65.614  1.00  0.00    -0.559 Fe 
HETATM    7 FE   UNL    16      -7.184   4.969  66.244  1.00  0.00    -0.062 Fe 
HETATM    8 FE   UNL    17     -10.135   3.801  68.689  1.00  0.00    -0.163 Fe 
HETATM    9 FE   UNL    18      -5.896   4.138  67.778  1.00  0.00    -0.016 Fe 
HETATM   10 FE   UNL    19      -8.686   6.219  71.371  1.00  0.00    -0.122 Fe 
HETATM   11  O   UNL    20      -7.921   5.748  68.692  1.00  0.00    -0.099 OA 
HETATM   12  C   UNL    20      -6.987   6.714  68.291  1.00  0.00    -0.077 C  
HETATM   13  H   UNL    20      -7.976   4.977  68.138  1.00  0.00     0.000 HD 
ENDROOT
BRANCH  12  14
HETATM   14  C   UNL    20      -6.897   7.968  69.192  1.00  0.00    -0.052 C  
HETATM   15  O   UNL    20      -7.210   9.132  68.466  1.00  0.00    -0.071 OA 
HETATM   16  C   UNL    20      -7.512  10.139  69.397  1.00  0.00    -0.119 C  
HETATM   17  C   UNL    20      -7.707   7.981  70.507  1.00  0.00    -0.085 C  
HETATM   18  H   UNL    20      -7.400   7.611  72.398  1.00  0.00     0.000 HD 
HETATM   19  C   UNL    20      -8.169   9.451  70.643  1.00  0.00    -0.168 C  
HETATM   20  H   UNL    20      -9.967   9.088  71.414  1.00  0.00     0.000 HD 
HETATM   21  O   UNL    20      -6.903   7.603  71.589  1.00  0.00    -0.052 OA 
HETATM   22  O   UNL    20      -9.569   9.505  70.660  1.00  0.00    -0.258 OA 
BRANCH  16  23
HETATM   23  O   UNL    20      -8.211  11.230  68.759  1.00  0.00    -0.147 OA 
BRANCH  23  24
HETATM   24  C   UNL    20      -9.497  11.037  68.125  1.00  0.00    -0.172 C  
HETATM   25  O   UNL    20     -10.337  12.128  68.455  1.00  0.00    -0.220 OA 
HETATM   26  C   UNL    20      -9.945  13.349  67.835  1.00  0.00    -0.236 C  
HETATM   27  H   UNL    20      -9.053   9.526  65.261  1.00  0.00     0.000 HD 
HETATM   28  C   UNL    20      -9.940  13.246  66.282  1.00  0.00    -0.291 C  
HETATM   29  O   UNL    20      -9.555  14.453  65.674  1.00  0.00    -0.501 OA 
HETATM   30  C   UNL    20      -9.056  12.090  65.837  1.00  0.00    -0.042 C  
HETATM   31  O   UNL    20      -9.003   9.643  66.203  1.00  0.00    -0.144 OA 
HETATM   32  H   UNL    20      -9.552  14.391  64.726  1.00  0.00     0.000 HD 
HETATM   33  O   UNL    20      -9.173  11.915  64.453  1.00  0.00    -0.419 OA 
HETATM   34  C   UNL    20      -9.579  10.845  66.590  1.00  0.00    -0.185 C  
HETATM   35  H   UNL    20      -8.621  11.193  64.176  1.00  0.00     0.000 HD 
BRANCH  26  36
HETATM   36  C   UNL    20     -10.985  14.427  68.233  1.00  0.00    -0.247 C  
HETATM   37  O   UNL    20     -12.205  14.174  67.600  1.00  0.00    -0.550 OA 
HETATM   38  H   UNL    20     -12.842  14.835  67.843  1.00  0.00     0.000 HD 
ENDBRANCH  26  36
ENDBRANCH  23  24
ENDBRANCH  16  23
BRANCH  16  39
HETATM   39  C   UNL    20      -6.154  10.729  69.890  1.00  0.00    -0.094 C  
HETATM   40  O   UNL    20      -6.078  10.703  71.289  1.00  0.00    -0.338 OA 
HETATM   41  H   UNL    20      -5.252  11.061  71.589  1.00  0.00     0.000 HD 
ENDBRANCH  16  39
ENDBRANCH  12  14
TORSDOF 5
ENDMDL
MODEL      169
REMARK 921   NORMALIZED FREE ENERGY PREDICTED BY IDOCK:   -3.92 KCAL/MOL
REMARK 922        TOTAL FREE ENERGY PREDICTED BY IDOCK:   -6.65 KCAL/MOL
REMARK 923 INTER-LIGAND FREE ENERGY PREDICTED BY IDOCK:   -5.85 KCAL/MOL
REMARK 924 INTRA-LIGAND FREE ENERGY PREDICTED BY IDOCK:   -0.81 KCAL/MOL
REMARK 927      BINDING AFFINITY PREDICTED BY RF-SCORE:    0.00 PKD
ROOT
HETATM    1  O   HOH     4     -10.216  18.345  68.475  1.00  0.00    -0.375 OA 
HETATM    2  H2  HOH     4     -10.641  17.499  68.393  1.00  0.00     0.000 HD 
HETATM    3 NA   UNL    13     -11.626  12.143  71.557  1.00  0.00    -0.169 Na 
HETATM    4  H1  HOH     4      -9.790  18.324  69.324  1.00  0.00     0.000 HD 
HETATM    5 NA   UNL    14     -12.596  16.559  67.881  1.00  0.00     0.118 Na 
HETATM    6 FE   UNL    15     -13.668  14.279  69.769  1.00  0.00    -0.416 Fe 
HETATM    7 FE   UNL    16      -9.285  16.041  69.555  1.00  0.00    -0.196 Fe 
HETATM    8 FE   UNL    17     -11.684  14.827  66.585  1.00  0.00    -0.325 Fe 
HETATM    9 FE   UNL    18      -7.948  16.596  67.939  1.00  0.00    -0.150 Fe 
HETATM   10 FE   UNL    19      -8.907  12.303  65.555  1.00  0.00    -0.362 Fe 
HETATM   11  O   UNL    20      -9.068  14.099  67.731  1.00  0.00    -0.177 OA 
HETATM   12  C   UNL    20      -8.027  13.839  68.635  1.00  0.00    -0.095 C  
HETATM   13  H   UNL    20      -9.500  14.939  67.835  1.00  0.00     0.000 HD 
ENDROOT
BRANCH  12  14
HETATM   14  C   UNL    20      -7.323  12.473  68.465  1.00  0.00    -0.115 C  
HETATM   15  O   UNL    20      -7.986  11.472  69.198  1.00  0.00    -0.036 OA 
HETATM   16  C   UNL    20      -7.570  10.231  68.688  1.00  0.00    -0.089 C  
HETATM   17  C   UNL    20      -7.081  11.949  67.033  1.00  0.00    -0.116 C  
HETATM   18  H   UNL    20      -5.634  11.929  65.725  1.00  0.00     0.000 HD 
HETATM   19  C   UNL    20      -7.285  10.421  67.158  1.00  0.00    -0.091 C  
HETATM   20  H   UNL    20      -8.162  10.131  65.395  1.00  0.00     0.000 HD 
HETATM   21  O   UNL    20      -5.783  12.251  66.606  1.00  0.00    -0.271 OA 
HETATM   22  O   UNL    20      -8.334  10.016  66.322  1.00  0.00    -0.123 OA 
BRANCH  16  23
HETATM   23  O   UNL    20      -8.471   9.182  69.100  1.00  0.00    -0.126 OA 
BRANCH  23  24
HETATM   24  C   UNL    20      -9.848   9.147  68.654  1.00  0.00    -0.164 C  
HETATM   25  O   UNL    20     -10.228   7.800  68.447  1.00  0.00    -0.191 OA 
HETATM   26  C   UNL    20     -10.349   7.056  69.656  1.00  0.00    -0.209 C  
HETATM   27  H   UNL    20     -11.486  11.591  70.080  1.00  0.00     0.000 HD 
HETATM   28  C   UNL    20     -11.403   7.671  70.623  1.00  0.00    -0.272 C  
HETATM   29  O   UNL    20     -11.521   6.933  71.814  1.00  0.00    -0.252 OA 
HETATM   30  C   UNL    20     -11.069   9.129  70.901  1.00  0.00    -0.291 C  
HETATM   31  O   UNL    20     -10.808  11.187  69.551  1.00  0.00    -0.239 OA 
HETATM   32  H   UNL    20     -12.164   7.308  72.404  1.00  0.00     0.000 HD 
HETATM   33  O   UNL    20     -12.098   9.711  71.651  1.00  0.00    -0.367 OA 
HETATM   34  C   UNL    20     -10.953   9.807  69.516  1.00  0.00    -0.227 C  
HETATM   35  H   UNL    20     -11.889  10.622  71.824  1.00  0.00     0.000 HD 
BRANCH  26  36
HETATM   36  C   UNL    20     -10.830   5.631  69.280  1.00  0.00    -0.239 C  
HETATM   37  O   UNL    20      -9.898   5.017  68.439  1.00  0.00    -0.144 OA 
HETATM   38  H   UNL    20     -10.192   4.143  68.208  1.00  0.00     0.000 HD 
ENDBRANCH  26  36
ENDBRANCH  23  24
ENDBRANCH  16  23
BRANCH  16  39
HETATM   39  C   UNL    20      -6.196   9.902  69.350  1.00  0.00    -0.044 C  
HETATM   40  O   UNL    20      -6.298   9.926  70.748  1.00  0.00    -0.094 OA 
HETATM   41  H   UNL    20      -5.462   9.725  71.150  1.00  0.00     0.000 HD 
ENDBRANCH  16  39
ENDBRANCH  12  14
TORSDOF 5
ENDMDL
MODEL      170
REMARK 921   NORMALIZED FREE ENERGY PREDICTED BY IDOCK:   -3.89 KCAL/MOL
REMARK 922        TOTAL FREE ENERGY PREDICTED BY IDOCK:   -6.62 KCAL/MOL
REMARK 923 INTER-LIGAND FREE ENERGY PREDICTED BY IDOCK:   -6.00 KCAL/MOL
REMARK 924 INTRA-LIGAND FREE ENERGY PREDICTED BY IDOCK:   -0.62 KCAL/MOL
REMARK 927      BINDING AFFINITY PREDICTED BY RF-SCORE:    0.00 PKD
ROOT
HETATM    1  O   HOH     4      -6.184  13.975  71.432  1.00  0.00    -0.453 OA 
HETATM    2  H2  HOH     4      -7.042  13.923  71.028  1.00  0.00     0.000 HD 
HETATM    3 NA   UNL    13     -12.036  10.119  70.530  1.00  0.00    -0.235 Na 
HETATM    4  H1  HOH     4      -6.073  13.146  71.882  1.00  0.00     0.000 HD 
HETATM    5 NA   UNL    14      -8.950  15.054  70.807  1.00  0.00    -0.349 Na 
HETATM    6 FE   UNL    15     -11.645  13.480  71.222  1.00  0.00    -0.444 Fe 
HETATM    7 FE   UNL    16      -7.324  11.690  70.527  1.00  0.00    -0.302 Fe 
HETATM    8 FE   UNL    17      -9.226  14.591  68.522  1.00  0.00    -0.153 Fe 
HETATM    9 FE   UNL    18      -5.676  12.172  69.201  1.00  0.00    -0.058 Fe 
HETATM   10 FE   UNL    19      -8.789  12.461  65.295  1.00  0.00    -0.405 Fe 
HETATM   11  O   UNL    20      -8.122  11.911  67.986  1.00  0.00    -0.133 OA 
HETATM   12  C   UNL    20      -7.755  10.563  68.114  1.00  0.00    -0.096 C  
HETATM   13  H   UNL    20      -7.874  12.474  68.710  1.00  0.00     0.000 HD 
ENDROOT
BRANCH  12  14
HETATM   14  C   UNL    20      -8.159   9.647  66.936  1.00  0.00    -0.113 C  
HETATM   15  O   UNL    20      -7.720   8.328  67.151  1.00  0.00    -0.094 OA 
HETATM   16  C   UNL    20      -8.452   7.495  66.289  1.00  0.00    -0.140 C  
HETATM   17  C   UNL    20      -9.646   9.605  66.521  1.00  0.00    -0.196 C  
HETATM   18  H   UNL    20     -10.801  10.443  65.191  1.00  0.00     0.000 HD 
HETATM   19  C   UNL    20      -9.875   8.130  66.113  1.00  0.00    -0.023 C  
HETATM   20  H   UNL    20     -11.725   7.949  66.823  1.00  0.00     0.000 HD 
HETATM   21  O   UNL    20      -9.887  10.469  65.446  1.00  0.00    -0.235 OA 
HETATM   22  O   UNL    20     -10.864   7.564  66.929  1.00  0.00    -0.345 OA 
BRANCH  16  23
HETATM   23  O   UNL    20      -8.356   6.117  66.708  1.00  0.00    -0.108 OA 
BRANCH  23  24
HETATM   24  C   UNL    20      -9.536   5.318  66.959  1.00  0.00    -0.134 C  
HETATM   25  O   UNL    20      -9.870   4.612  65.779  1.00  0.00    -0.182 OA 
HETATM   26  C   UNL    20      -8.944   3.578  65.459  1.00  0.00    -0.141 C  
HETATM   27  H   UNL    20      -9.487   4.302  70.066  1.00  0.00     0.000 HD 
HETATM   28  C   UNL    20      -8.830   2.517  66.594  1.00  0.00    -0.130 C  
HETATM   29  O   UNL    20      -7.917   1.498  66.274  1.00  0.00    -0.069 OA 
HETATM   30  C   UNL    20      -8.472   3.195  67.908  1.00  0.00    -0.088 C  
HETATM   31  O   UNL    20      -9.485   4.930  69.353  1.00  0.00    -0.126 OA 
HETATM   32  H   UNL    20      -7.848   0.851  66.966  1.00  0.00     0.000 HD 
HETATM   33  O   UNL    20      -8.515   2.257  68.947  1.00  0.00    -0.055 OA 
HETATM   34  C   UNL    20      -9.539   4.293  68.121  1.00  0.00    -0.137 C  
HETATM   35  H   UNL    20      -8.292   2.680  69.768  1.00  0.00     0.000 HD 
BRANCH  26  36
HETATM   36  C   UNL    20      -9.470   2.857  64.192  1.00  0.00    -0.133 C  
HETATM   37  O   UNL    20     -10.858   2.998  64.101  1.00  0.00    -0.458 OA 
HETATM   38  H   UNL    20     -11.181   2.556  63.324  1.00  0.00     0.000 HD 
ENDBRANCH  26  36
ENDBRANCH  23  24
ENDBRANCH  16  23
BRANCH  16  39
HETATM   39  C   UNL    20      -7.766   7.568  64.890  1.00  0.00    -0.115 C  
HETATM   40  O   UNL    20      -8.532   6.900  63.924  1.00  0.00    -0.346 OA 
HETATM   41  H   UNL    20      -8.114   6.945  63.072  1.00  0.00     0.000 HD 
ENDBRANCH  16  39
ENDBRANCH  12  14
TORSDOF 5
ENDMDL
MODEL      171
REMARK 921   NORMALIZED FREE ENERGY PREDICTED BY IDOCK:   -3.89 KCAL/MOL
REMARK 922        TOTAL FREE ENERGY PREDICTED BY IDOCK:   -6.61 KCAL/MOL
REMARK 923 INTER-LIGAND FREE ENERGY PREDICTED BY IDOCK:   -4.79 KCAL/MOL
REMARK 924 INTRA-LIGAND FREE ENERGY PREDICTED BY IDOCK:   -1.82 KCAL/MOL
REMARK 927      BINDING AFFINITY PREDICTED BY RF-SCORE:    0.00 PKD
ROOT
HETATM    1  O   HOH     4      -8.842   8.984  63.789  1.00  0.00    -0.405 OA 
HETATM    2  H2  HOH     4      -9.016   8.251  64.368  1.00  0.00     0.000 HD 
HETATM    3 NA   UNL    13     -12.726   6.520  69.154  1.00  0.00    -0.461 Na 
HETATM    4  H1  HOH     4      -9.429   9.672  64.080  1.00  0.00     0.000 HD 
HETATM    5 NA   UNL    14      -9.459   6.067  64.350  1.00  0.00    -0.353 Na 
HETATM    6 FE   UNL    15     -11.803   5.029  66.179  1.00  0.00    -0.495 Fe 
HETATM    7 FE   UNL    16      -9.610   9.214  66.377  1.00  0.00    -0.144 Fe 
HETATM    8 FE   UNL    17      -8.045   5.533  66.146  1.00  0.00    -0.095 Fe 
HETATM    9 FE   UNL    18      -7.541   9.851  66.247  1.00  0.00    -0.090 Fe 
HETATM   10 FE   UNL    19      -6.147   6.279  69.460  1.00  0.00    -0.019 Fe 
HETATM   11  O   UNL    20      -8.031   7.812  68.016  1.00  0.00    -0.118 OA 
HETATM   12  C   UNL    20      -8.427   8.917  68.783  1.00  0.00    -0.131 C  
HETATM   13  H   UNL    20      -8.239   7.861  67.090  1.00  0.00     0.000 HD 
ENDROOT
BRANCH  12  14
HETATM   14  C   UNL    20      -8.088   8.838  70.290  1.00  0.00    -0.116 C  
HETATM   15  O   UNL    20      -8.557   7.636  70.849  1.00  0.00    -0.126 OA 
HETATM   16  C   UNL    20      -7.878   7.442  72.063  1.00  0.00    -0.090 C  
HETATM   17  C   UNL    20      -6.616   9.033  70.718  1.00  0.00    -0.063 C  
HETATM   18  H   UNL    20      -5.481  10.475  71.379  1.00  0.00     0.000 HD 
HETATM   19  C   UNL    20      -6.444   8.056  71.905  1.00  0.00    -0.053 C  
HETATM   20  H   UNL    20      -4.578   7.491  71.507  1.00  0.00     0.000 HD 
HETATM   21  O   UNL    20      -6.385  10.356  71.115  1.00  0.00    -0.339 OA 
HETATM   22  O   UNL    20      -5.446   7.120  71.603  1.00  0.00    -0.035 OA 
BRANCH  16  23
HETATM   23  O   UNL    20      -8.000   6.073  72.503  1.00  0.00    -0.104 OA 
BRANCH  23  24
HETATM   24  C   UNL    20      -9.182   5.288  72.217  1.00  0.00    -0.138 C  
HETATM   25  O   UNL    20      -9.204   4.983  70.835  1.00  0.00    -0.137 OA 
HETATM   26  C   UNL    20      -8.198   4.051  70.447  1.00  0.00    -0.058 C  
HETATM   27  H   UNL    20      -9.844   3.388  74.793  1.00  0.00     0.000 HD 
HETATM   28  C   UNL    20      -8.326   2.696  71.203  1.00  0.00    -0.057 C  
HETATM   29  O   UNL    20      -7.333   1.780  70.817  1.00  0.00    -0.033 OA 
HETATM   30  C   UNL    20      -8.312   2.934  72.707  1.00  0.00    -0.071 C  
HETATM   31  O   UNL    20      -9.691   4.201  74.324  1.00  0.00    -0.110 OA 
HETATM   32  H   UNL    20      -7.411   0.953  71.278  1.00  0.00     0.000 HD 
HETATM   33  O   UNL    20      -8.573   1.731  73.374  1.00  0.00    -0.059 OA 
HETATM   34  C   UNL    20      -9.431   3.964  72.981  1.00  0.00    -0.114 C  
HETATM   35  H   UNL    20      -8.564   1.879  74.312  1.00  0.00     0.000 HD 
BRANCH  26  36
HETATM   36  C   UNL    20      -8.386   3.766  68.935  1.00  0.00    -0.073 C  
HETATM   37  O   UNL    20      -7.557   4.603  68.183  1.00  0.00    -0.075 OA 
HETATM   38  H   UNL    20      -7.672   4.429  67.256  1.00  0.00     0.000 HD 
ENDBRANCH  26  36
ENDBRANCH  23  24
ENDBRANCH  16  23
BRANCH  16  39
HETATM   39  C   UNL    20      -8.607   8.307  73.138  1.00  0.00    -0.209 C  
HETATM   40  O   UNL    20      -7.702   8.762  74.107  1.00  0.00    -0.419 OA 
HETATM   41  H   UNL    20      -8.146   9.288  74.761  1.00  0.00     0.000 HD 
ENDBRANCH  16  39
ENDBRANCH  12  14
TORSDOF 5
ENDMDL
MODEL      172
REMARK 921   NORMALIZED FREE ENERGY PREDICTED BY IDOCK:   -3.88 KCAL/MOL
REMARK 922        TOTAL FREE ENERGY PREDICTED BY IDOCK:   -6.61 KCAL/MOL
REMARK 923 INTER-LIGAND FREE ENERGY PREDICTED BY IDOCK:   -6.07 KCAL/MOL
REMARK 924 INTRA-LIGAND FREE ENERGY PREDICTED BY IDOCK:   -0.53 KCAL/MOL
REMARK 927      BINDING AFFINITY PREDICTED BY RF-SCORE:    0.00 PKD
ROOT
HETATM    1  O   HOH     4     -10.549  18.240  68.779  1.00  0.00    -0.374 OA 
HETATM    2  H2  HOH     4     -10.254  17.818  67.980  1.00  0.00     0.000 HD 
HETATM    3 NA   UNL    13     -11.162  12.639  64.513  1.00  0.00    -0.289 Na 
HETATM    4  H1  HOH     4     -11.171  17.634  69.163  1.00  0.00     0.000 HD 
HETATM    5 NA   UNL    14      -9.955  18.192  65.804  1.00  0.00    -0.298 Na 
HETATM    6 FE   UNL    15     -10.991  16.010  63.784  1.00  0.00    -0.663 Fe 
HETATM    7 FE   UNL    16     -10.330  15.561  68.444  1.00  0.00    -0.207 Fe 
HETATM    8 FE   UNL    17      -7.884  17.095  65.667  1.00  0.00    -0.267 Fe 
HETATM    9 FE   UNL    18      -8.775  16.180  69.824  1.00  0.00    -0.238 Fe 
HETATM   10 FE   UNL    19      -5.231  14.458  66.739  1.00  0.00     0.316 Fe 
HETATM   11  O   UNL    20      -7.898  14.857  67.585  1.00  0.00    -0.142 OA 
HETATM   12  C   UNL    20      -8.308  13.775  68.378  1.00  0.00    -0.152 C  
HETATM   13  H   UNL    20      -8.440  15.636  67.643  1.00  0.00     0.000 HD 
ENDROOT
BRANCH  12  14
HETATM   14  C   UNL    20      -7.427  12.508  68.283  1.00  0.00    -0.122 C  
HETATM   15  O   UNL    20      -8.168  11.355  68.600  1.00  0.00    -0.150 OA 
HETATM   16  C   UNL    20      -7.458  10.249  68.106  1.00  0.00    -0.086 C  
HETATM   17  C   UNL    20      -6.660  12.249  66.967  1.00  0.00    -0.043 C  
HETATM   18  H   UNL    20      -4.870  12.548  66.254  1.00  0.00     0.000 HD 
HETATM   19  C   UNL    20      -6.706  10.711  66.810  1.00  0.00    -0.103 C  
HETATM   20  H   UNL    20      -6.904  10.659  64.830  1.00  0.00     0.000 HD 
HETATM   21  O   UNL    20      -5.341  12.708  67.063  1.00  0.00    -0.339 OA 
HETATM   22  O   UNL    20      -7.359  10.380  65.615  1.00  0.00    -0.143 OA 
BRANCH  16  23
HETATM   23  O   UNL    20      -8.309   9.086  68.034  1.00  0.00    -0.116 OA 
BRANCH  23  24
HETATM   24  C   UNL    20      -9.688   9.129  68.472  1.00  0.00    -0.155 C  
HETATM   25  O   UNL    20     -10.462   8.301  67.624  1.00  0.00    -0.239 OA 
HETATM   26  C   UNL    20     -10.199   6.912  67.798  1.00  0.00    -0.180 C  
HETATM   27  H   UNL    20      -9.761   9.448  71.724  1.00  0.00     0.000 HD 
HETATM   28  C   UNL    20     -10.476   6.437  69.255  1.00  0.00    -0.231 C  
HETATM   29  O   UNL    20     -10.216   5.066  69.423  1.00  0.00    -0.228 OA 
HETATM   30  C   UNL    20      -9.678   7.281  70.239  1.00  0.00    -0.175 C  
HETATM   31  O   UNL    20      -9.542   9.680  70.829  1.00  0.00    -0.235 OA 
HETATM   32  H   UNL    20     -10.385   4.777  70.312  1.00  0.00     0.000 HD 
HETATM   33  O   UNL    20     -10.043   6.945  71.549  1.00  0.00    -0.185 OA 
HETATM   34  C   UNL    20     -10.046   8.750  69.931  1.00  0.00    -0.191 C  
HETATM   35  H   UNL    20      -9.546   7.472  72.163  1.00  0.00     0.000 HD 
BRANCH  26  36
HETATM   36  C   UNL    20     -11.157   6.135  66.860  1.00  0.00    -0.219 C  
HETATM   37  O   UNL    20     -10.442   5.585  65.793  1.00  0.00    -0.435 OA 
HETATM   38  H   UNL    20     -11.029   5.109  65.217  1.00  0.00     0.000 HD 
ENDBRANCH  26  36
ENDBRANCH  23  24
ENDBRANCH  16  23
BRANCH  16  39
HETATM   39  C   UNL    20      -6.353   9.910  69.153  1.00  0.00    -0.044 C  
HETATM   40  O   UNL    20      -6.800  10.181  70.454  1.00  0.00    -0.139 OA 
HETATM   41  H   UNL    20      -6.127   9.974  71.092  1.00  0.00     0.000 HD 
ENDBRANCH  16  39
ENDBRANCH  12  14
TORSDOF 5
ENDMDL
MODEL      173
REMARK 921   NORMALIZED FREE ENERGY PREDICTED BY IDOCK:   -3.87 KCAL/MOL
REMARK 922        TOTAL FREE ENERGY PREDICTED BY IDOCK:   -6.59 KCAL/MOL
REMARK 923 INTER-LIGAND FREE ENERGY PREDICTED BY IDOCK:   -5.45 KCAL/MOL
REMARK 924 INTRA-LIGAND FREE ENERGY PREDICTED BY IDOCK:   -1.13 KCAL/MOL
REMARK 927      BINDING AFFINITY PREDICTED BY RF-SCORE:    0.00 PKD
ROOT
HETATM    1  O   HOH     4      -9.146  11.778  63.019  1.00  0.00    -0.625 OA 
HETATM    2  H2  HOH     4      -9.664  12.031  63.775  1.00  0.00     0.000 HD 
HETATM    3 NA   UNL    13      -9.264  15.251  69.172  1.00  0.00    -0.152 Na 
HETATM    4  H1  HOH     4      -8.279  12.129  63.186  1.00  0.00     0.000 HD 
HETATM    5 NA   UNL    14     -11.598  12.983  64.338  1.00  0.00    -0.308 Na 
HETATM    6 FE   UNL    15     -11.547  15.192  66.582  1.00  0.00    -0.333 Fe 
HETATM    7 FE   UNL    16      -8.171  12.053  65.532  1.00  0.00    -0.370 Fe 
HETATM    8 FE   UNL    17     -12.099  11.476  66.067  1.00  0.00    -0.297 Fe 
HETATM    9 FE   UNL    18      -8.160   9.938  65.051  1.00  0.00    -0.110 Fe 
HETATM   10 FE   UNL    19     -11.207   8.959  68.897  1.00  0.00    -0.334 Fe 
HETATM   11  O   UNL    20      -9.565  10.621  67.307  1.00  0.00    -0.160 OA 
HETATM   12  C   UNL    20      -8.257  10.614  67.812  1.00  0.00    -0.111 C  
HETATM   13  H   UNL    20      -9.660  10.954  66.421  1.00  0.00     0.000 HD 
ENDROOT
BRANCH  12  14
HETATM   14  C   UNL    20      -8.102  10.072  69.252  1.00  0.00    -0.141 C  
HETATM   15  O   UNL    20      -8.637   8.776  69.362  1.00  0.00    -0.129 OA 
HETATM   16  C   UNL    20      -8.109   8.201  70.530  1.00  0.00    -0.104 C  
HETATM   17  C   UNL    20      -6.693  10.074  69.885  1.00  0.00    -0.099 C  
HETATM   18  H   UNL    20      -5.644  11.206  71.078  1.00  0.00     0.000 HD 
HETATM   19  C   UNL    20      -6.666   8.779  70.731  1.00  0.00    -0.053 C  
HETATM   20  H   UNL    20      -4.765   8.291  70.397  1.00  0.00     0.000 HD 
HETATM   21  O   UNL    20      -6.510  11.206  70.689  1.00  0.00    -0.309 OA 
HETATM   22  O   UNL    20      -5.640   7.941  70.275  1.00  0.00    -0.023 OA 
BRANCH  16  23
HETATM   23  O   UNL    20      -8.285   6.768  70.517  1.00  0.00    -0.114 OA 
BRANCH  23  24
HETATM   24  C   UNL    20      -7.598   5.912  71.459  1.00  0.00    -0.099 C  
HETATM   25  O   UNL    20      -8.438   5.695  72.577  1.00  0.00    -0.117 OA 
HETATM   26  C   UNL    20      -9.565   4.874  72.285  1.00  0.00    -0.152 C  
HETATM   27  H   UNL    20      -5.723   3.803  69.808  1.00  0.00     0.000 HD 
HETATM   28  C   UNL    20      -9.149   3.467  71.763  1.00  0.00    -0.111 C  
HETATM   29  O   UNL    20     -10.263   2.659  71.477  1.00  0.00    -0.029 OA 
HETATM   30  C   UNL    20      -8.236   3.607  70.554  1.00  0.00    -0.053 C  
HETATM   31  O   UNL    20      -6.043   4.654  70.087  1.00  0.00    -0.020 OA 
HETATM   32  H   UNL    20     -10.009   1.801  71.160  1.00  0.00     0.000 HD 
HETATM   33  O   UNL    20      -7.752   2.347  70.183  1.00  0.00    -0.043 OA 
HETATM   34  C   UNL    20      -7.077   4.526  71.004  1.00  0.00    -0.037 C  
HETATM   35  H   UNL    20      -7.182   2.435  69.428  1.00  0.00     0.000 HD 
BRANCH  26  36
HETATM   36  C   UNL    20     -10.350   4.673  73.606  1.00  0.00    -0.198 C  
HETATM   37  O   UNL    20     -11.724   4.753  73.364  1.00  0.00    -0.417 OA 
HETATM   38  H   UNL    20     -12.206   4.630  74.174  1.00  0.00     0.000 HD 
ENDBRANCH  26  36
ENDBRANCH  23  24
ENDBRANCH  16  23
BRANCH  16  39
HETATM   39  C   UNL    20      -8.961   8.728  71.725  1.00  0.00    -0.212 C  
HETATM   40  O   UNL    20     -10.274   8.241  71.654  1.00  0.00    -0.193 OA 
HETATM   41  H   UNL    20     -10.792   8.562  72.382  1.00  0.00     0.000 HD 
ENDBRANCH  16  39
ENDBRANCH  12  14
TORSDOF 5
ENDMDL
MODEL      174
REMARK 921   NORMALIZED FREE ENERGY PREDICTED BY IDOCK:   -3.84 KCAL/MOL
REMARK 922        TOTAL FREE ENERGY PREDICTED BY IDOCK:   -6.55 KCAL/MOL
REMARK 923 INTER-LIGAND FREE ENERGY PREDICTED BY IDOCK:   -5.18 KCAL/MOL
REMARK 924 INTRA-LIGAND FREE ENERGY PREDICTED BY IDOCK:   -1.38 KCAL/MOL
REMARK 927      BINDING AFFINITY PREDICTED BY RF-SCORE:    0.00 PKD
ROOT
HETATM    1  O   HOH     4     -12.871  12.866  62.739  1.00  0.00    -0.281 OA 
HETATM    2  H2  HOH     4     -12.629  13.108  63.626  1.00  0.00     0.000 HD 
HETATM    3 NA   UNL    13      -7.843  15.485  66.958  1.00  0.00    -0.124 Na 
HETATM    4  H1  HOH     4     -12.095  13.035  62.218  1.00  0.00     0.000 HD 
HETATM    5 NA   UNL    14     -13.324  14.306  65.371  1.00  0.00    -0.514 Na 
HETATM    6 FE   UNL    15     -11.225  16.164  66.806  1.00  0.00    -0.321 Fe 
HETATM    7 FE   UNL    16     -10.375  12.639  63.770  1.00  0.00    -0.300 Fe 
HETATM    8 FE   UNL    17     -12.759  12.701  66.989  1.00  0.00    -0.256 Fe 
HETATM    9 FE   UNL    18     -11.163  10.635  63.510  1.00  0.00    -0.540 Fe 
HETATM   10 FE   UNL    19     -10.695   9.723  68.407  1.00  0.00    -0.176 Fe 
HETATM   11  O   UNL    20     -10.362  11.260  66.059  1.00  0.00    -0.238 OA 
HETATM   12  C   UNL    20      -9.126  10.957  65.469  1.00  0.00    -0.201 C  
HETATM   13  H   UNL    20     -10.982  11.716  65.501  1.00  0.00     0.000 HD 
ENDROOT
BRANCH  12  14
HETATM   14  C   UNL    20      -8.118  10.216  66.377  1.00  0.00    -0.122 C  
HETATM   15  O   UNL    20      -8.570   8.919  66.677  1.00  0.00    -0.119 OA 
HETATM   16  C   UNL    20      -7.465   8.182  67.133  1.00  0.00    -0.089 C  
HETATM   17  C   UNL    20      -6.647  10.124  65.913  1.00  0.00    -0.105 C  
HETATM   18  H   UNL    20      -4.971  11.074  66.221  1.00  0.00     0.000 HD 
HETATM   19  C   UNL    20      -6.197   8.722  66.386  1.00  0.00    -0.061 C  
HETATM   20  H   UNL    20      -5.039   8.283  64.828  1.00  0.00     0.000 HD 
HETATM   21  O   UNL    20      -5.875  11.130  66.506  1.00  0.00    -0.113 OA 
HETATM   22  O   UNL    20      -5.807   7.955  65.280  1.00  0.00    -0.037 OA 
BRANCH  16  23
HETATM   23  O   UNL    20      -7.742   6.766  67.089  1.00  0.00    -0.100 OA 
BRANCH  23  24
HETATM   24  C   UNL    20      -8.802   6.227  66.265  1.00  0.00    -0.147 C  
HETATM   25  O   UNL    20      -8.233   5.676  65.092  1.00  0.00    -0.124 OA 
HETATM   26  C   UNL    20      -7.488   4.486  65.332  1.00  0.00    -0.081 C  
HETATM   27  H   UNL    20     -11.160   5.053  68.201  1.00  0.00     0.000 HD 
HETATM   28  C   UNL    20      -8.358   3.364  65.973  1.00  0.00    -0.103 C  
HETATM   29  O   UNL    20      -7.619   2.191  66.207  1.00  0.00    -0.065 OA 
HETATM   30  C   UNL    20      -9.012   3.876  67.248  1.00  0.00    -0.134 C  
HETATM   31  O   UNL    20     -10.569   5.705  67.843  1.00  0.00    -0.224 OA 
HETATM   32  H   UNL    20      -8.150   1.507  66.597  1.00  0.00     0.000 HD 
HETATM   33  O   UNL    20      -9.904   2.913  67.736  1.00  0.00    -0.262 OA 
HETATM   34  C   UNL    20      -9.767   5.164  66.848  1.00  0.00    -0.161 C  
HETATM   35  H   UNL    20     -10.313   3.232  68.532  1.00  0.00     0.000 HD 
BRANCH  26  36
HETATM   36  C   UNL    20      -6.985   3.966  63.961  1.00  0.00    -0.046 C  
HETATM   37  O   UNL    20      -5.822   3.211  64.131  1.00  0.00    -0.010 OA 
HETATM   38  H   UNL    20      -5.513   2.893  63.291  1.00  0.00     0.000 HD 
ENDBRANCH  26  36
ENDBRANCH  23  24
ENDBRANCH  16  23
BRANCH  16  39
HETATM   39  C   UNL    20      -7.268   8.536  68.639  1.00  0.00    -0.080 C  
HETATM   40  O   UNL    20      -5.988   9.060  68.865  1.00  0.00    -0.043 OA 
HETATM   41  H   UNL    20      -5.868   9.276  69.782  1.00  0.00     0.000 HD 
ENDBRANCH  16  39
ENDBRANCH  12  14
TORSDOF 5
ENDMDL
MODEL      175
REMARK 921   NORMALIZED FREE ENERGY PREDICTED BY IDOCK:   -3.84 KCAL/MOL
REMARK 922        TOTAL FREE ENERGY PREDICTED BY IDOCK:   -6.55 KCAL/MOL
REMARK 923 INTER-LIGAND FREE ENERGY PREDICTED BY IDOCK:   -5.34 KCAL/MOL
REMARK 924 INTRA-LIGAND FREE ENERGY PREDICTED BY IDOCK:   -1.20 KCAL/MOL
REMARK 927      BINDING AFFINITY PREDICTED BY RF-SCORE:    0.00 PKD
ROOT
HETATM    1  O   HOH     4      -5.329  17.430  70.790  1.00  0.00    -0.258 OA 
HETATM    2  H2  HOH     4      -5.678  16.551  70.887  1.00  0.00     0.000 HD 
HETATM    3 NA   UNL    13      -5.547  10.867  68.178  1.00  0.00    -0.041 Na 
HETATM    4  H1  HOH     4      -4.812  17.403  69.994  1.00  0.00     0.000 HD 
HETATM    5 NA   UNL    14      -5.895  14.901  72.369  1.00  0.00    -0.084 Na 
HETATM    6 FE   UNL    15      -5.189  11.981  71.428  1.00  0.00    -0.103 Fe 
HETATM    7 FE   UNL    16      -5.956  15.787  68.729  1.00  0.00    -0.094 Fe 
HETATM    8 FE   UNL    17      -8.109  14.370  71.796  1.00  0.00     0.794 Fe 
HETATM    9 FE   UNL    18      -7.410  17.396  68.752  1.00  0.00    -0.182 Fe 
HETATM   10 FE   UNL    19     -11.147  14.129  69.376  1.00  0.00    -0.213 Fe 
HETATM   11  O   UNL    20      -8.459  14.866  68.911  1.00  0.00    -0.164 OA 
HETATM   12  C   UNL    20      -8.228  14.961  67.531  1.00  0.00    -0.182 C  
HETATM   13  H   UNL    20      -7.804  15.276  69.465  1.00  0.00     0.000 HD 
ENDROOT
BRANCH  12  14
HETATM   14  C   UNL    20      -9.293  14.294  66.630  1.00  0.00    -0.284 C  
HETATM   15  O   UNL    20      -9.112  12.900  66.584  1.00  0.00    -0.225 OA 
HETATM   16  C   UNL    20     -10.309  12.335  66.115  1.00  0.00    -0.242 C  
HETATM   17  C   UNL    20     -10.782  14.583  66.923  1.00  0.00    -0.288 C  
HETATM   18  H   UNL    20     -12.176  15.785  66.277  1.00  0.00     0.000 HD 
HETATM   19  C   UNL    20     -11.487  13.241  66.614  1.00  0.00    -0.347 C  
HETATM   20  H   UNL    20     -12.841  13.319  68.071  1.00  0.00     0.000 HD 
HETATM   21  O   UNL    20     -11.261  15.607  66.097  1.00  0.00    -0.200 OA 
HETATM   22  O   UNL    20     -12.128  12.771  67.768  1.00  0.00    -0.314 OA 
BRANCH  16  23
HETATM   23  O   UNL    20     -10.353  10.922  66.403  1.00  0.00    -0.237 OA 
BRANCH  23  24
HETATM   24  C   UNL    20      -9.356  10.287  67.237  1.00  0.00    -0.149 C  
HETATM   25  O   UNL    20      -9.865  10.172  68.553  1.00  0.00    -0.147 OA 
HETATM   26  C   UNL    20     -10.917   9.218  68.669  1.00  0.00     0.005 C  
HETATM   27  H   UNL    20      -7.690   8.123  65.440  1.00  0.00     0.000 HD 
HETATM   28  C   UNL    20     -10.467   7.790  68.242  1.00  0.00    -0.168 C  
HETATM   29  O   UNL    20     -11.507   6.852  68.359  1.00  0.00    -0.529 OA 
HETATM   30  C   UNL    20      -9.901   7.822  66.829  1.00  0.00    -0.241 C  
HETATM   31  O   UNL    20      -8.036   8.974  65.682  1.00  0.00    -0.099 OA 
HETATM   32  H   UNL    20     -11.233   5.980  68.099  1.00  0.00     0.000 HD 
HETATM   33  O   UNL    20      -9.368   6.568  66.510  1.00  0.00    -0.156 OA 
HETATM   34  C   UNL    20      -8.792   8.899  66.843  1.00  0.00    -0.127 C  
HETATM   35  H   UNL    20      -9.014   6.587  65.628  1.00  0.00     0.000 HD 
BRANCH  26  36
HETATM   36  C   UNL    20     -11.326   9.156  70.163  1.00  0.00    -0.142 C  
HETATM   37  O   UNL    20     -10.963   7.921  70.708  1.00  0.00    -0.242 OA 
HETATM   38  H   UNL    20     -11.213   7.883  71.624  1.00  0.00     0.000 HD 
ENDBRANCH  26  36
ENDBRANCH  23  24
ENDBRANCH  16  23
BRANCH  16  39
HETATM   39  C   UNL    20     -10.294  12.457  64.560  1.00  0.00    -0.325 C  
HETATM   40  O   UNL    20     -11.272  11.632  63.986  1.00  0.00    -0.361 OA 
HETATM   41  H   UNL    20     -11.263  11.707  63.040  1.00  0.00     0.000 HD 
ENDBRANCH  16  39
ENDBRANCH  12  14
TORSDOF 5
ENDMDL
MODEL      176
REMARK 921   NORMALIZED FREE ENERGY PREDICTED BY IDOCK:   -3.83 KCAL/MOL
REMARK 922        TOTAL FREE ENERGY PREDICTED BY IDOCK:   -6.53 KCAL/MOL
REMARK 923 INTER-LIGAND FREE ENERGY PREDICTED BY IDOCK:   -4.86 KCAL/MOL
REMARK 924 INTRA-LIGAND FREE ENERGY PREDICTED BY IDOCK:   -1.67 KCAL/MOL
REMARK 927      BINDING AFFINITY PREDICTED BY RF-SCORE:    0.00 PKD
ROOT
HETATM    1  O   HOH     4      -9.420  10.005  64.061  1.00  0.00    -0.279 OA 
HETATM    2  H2  HOH     4      -9.853  10.400  64.808  1.00  0.00     0.000 HD 
HETATM    3 NA   UNL    13      -8.783  14.300  69.636  1.00  0.00    -0.334 Na 
HETATM    4  H1  HOH     4      -8.521  10.308  64.109  1.00  0.00     0.000 HD 
HETATM    5 NA   UNL    14     -11.665  11.568  65.372  1.00  0.00    -0.309 Na 
HETATM    6 FE   UNL    15     -11.279  14.057  67.262  1.00  0.00    -0.265 Fe 
HETATM    7 FE   UNL    16      -8.217  10.552  66.426  1.00  0.00    -0.114 Fe 
HETATM    8 FE   UNL    17     -12.114  10.359  67.334  1.00  0.00    -0.226 Fe 
HETATM    9 FE   UNL    18      -8.385   8.396  66.258  1.00  0.00    -0.097 Fe 
HETATM   10 FE   UNL    19     -11.149   8.200  70.424  1.00  0.00    -0.225 Fe 
HETATM   11  O   UNL    20      -9.544   9.493  68.490  1.00  0.00    -0.141 OA 
HETATM   12  C   UNL    20      -8.201   9.456  68.891  1.00  0.00    -0.111 C  
HETATM   13  H   UNL    20      -9.693   9.706  67.575  1.00  0.00     0.000 HD 
ENDROOT
BRANCH  12  14
HETATM   14  C   UNL    20      -7.958   9.110  70.378  1.00  0.00    -0.145 C  
HETATM   15  O   UNL    20      -8.570   7.889  70.717  1.00  0.00    -0.128 OA 
HETATM   16  C   UNL    20      -7.984   7.441  71.912  1.00  0.00    -0.090 C  
HETATM   17  C   UNL    20      -6.503   9.085  70.895  1.00  0.00    -0.064 C  
HETATM   18  H   UNL    20      -5.278  10.285  71.825  1.00  0.00     0.000 HD 
HETATM   19  C   UNL    20      -6.492   7.923  71.915  1.00  0.00    -0.046 C  
HETATM   20  H   UNL    20      -4.666   7.241  71.512  1.00  0.00     0.000 HD 
HETATM   21  O   UNL    20      -6.173  10.300  71.508  1.00  0.00    -0.307 OA 
HETATM   22  O   UNL    20      -5.570   6.949  71.510  1.00  0.00    -0.034 OA 
BRANCH  16  23
HETATM   23  O   UNL    20      -8.259   6.040  72.121  1.00  0.00    -0.110 OA 
BRANCH  23  24
HETATM   24  C   UNL    20      -9.211   5.324  71.301  1.00  0.00    -0.146 C  
HETATM   25  O   UNL    20      -8.541   4.266  70.641  1.00  0.00    -0.076 OA 
HETATM   26  C   UNL    20      -8.144   3.216  71.518  1.00  0.00    -0.060 C  
HETATM   27  H   UNL    20     -12.126   5.359  72.779  1.00  0.00     0.000 HD 
HETATM   28  C   UNL    20      -9.355   2.579  72.262  1.00  0.00    -0.094 C  
HETATM   29  O   UNL    20      -8.960   1.543  73.125  1.00  0.00    -0.061 OA 
HETATM   30  C   UNL    20     -10.137   3.655  73.002  1.00  0.00    -0.152 C  
HETATM   31  O   UNL    20     -11.343   5.726  72.385  1.00  0.00    -0.279 OA 
HETATM   32  H   UNL    20      -9.699   1.155  73.579  1.00  0.00     0.000 HD 
HETATM   33  O   UNL    20     -11.302   3.098  73.545  1.00  0.00    -0.224 OA 
HETATM   34  C   UNL    20     -10.487   4.726  71.944  1.00  0.00    -0.130 C  
HETATM   35  H   UNL    20     -11.790   3.770  74.007  1.00  0.00     0.000 HD 
BRANCH  26  36
HETATM   36  C   UNL    20      -7.488   2.109  70.654  1.00  0.00    -0.033 C  
HETATM   37  O   UNL    20      -7.848   2.271  69.313  1.00  0.00    -0.043 OA 
HETATM   38  H   UNL    20      -7.446   1.593  68.783  1.00  0.00     0.000 HD 
ENDBRANCH  26  36
ENDBRANCH  23  24
ENDBRANCH  16  23
BRANCH  16  39
HETATM   39  C   UNL    20      -8.689   8.198  73.079  1.00  0.00    -0.243 C  
HETATM   40  O   UNL    20     -10.061   8.337  72.825  1.00  0.00    -0.294 OA 
HETATM   41  H   UNL    20     -10.491   8.797  73.536  1.00  0.00     0.000 HD 
ENDBRANCH  16  39
ENDBRANCH  12  14
TORSDOF 5
ENDMDL
MODEL      177
REMARK 921   NORMALIZED FREE ENERGY PREDICTED BY IDOCK:   -3.79 KCAL/MOL
REMARK 922        TOTAL FREE ENERGY PREDICTED BY IDOCK:   -6.49 KCAL/MOL
REMARK 923 INTER-LIGAND FREE ENERGY PREDICTED BY IDOCK:   -5.91 KCAL/MOL
REMARK 924 INTRA-LIGAND FREE ENERGY PREDICTED BY IDOCK:   -0.57 KCAL/MOL
REMARK 927      BINDING AFFINITY PREDICTED BY RF-SCORE:    0.00 PKD
ROOT
HETATM    1  O   HOH     4      -8.358   6.779  69.052  1.00  0.00    -0.122 OA 
HETATM    2  H2  HOH     4      -8.694   7.476  68.500  1.00  0.00     0.000 HD 
HETATM    3 NA   UNL    13      -6.974  11.318  63.815  1.00  0.00    -0.342 Na 
HETATM    4  H1  HOH     4      -7.450   6.676  68.793  1.00  0.00     0.000 HD 
HETATM    5 NA   UNL    14     -10.395   7.984  67.153  1.00  0.00    -0.161 Na 
HETATM    6 FE   UNL    15      -9.723   9.304  64.374  1.00  0.00    -0.361 Fe 
HETATM    7 FE   UNL    16      -6.885   8.858  68.130  1.00  0.00    -0.058 Fe 
HETATM    8 FE   UNL    17     -10.662  10.180  67.942  1.00  0.00    -0.166 Fe 
HETATM    9 FE   UNL    18      -7.140   9.131  70.267  1.00  0.00    -0.035 Fe 
HETATM   10 FE   UNL    19      -9.431  13.515  69.522  1.00  0.00    -0.378 Fe 
HETATM   11  O   UNL    20      -8.010  11.213  68.706  1.00  0.00    -0.136 OA 
HETATM   12  C   UNL    20      -6.632  11.474  68.737  1.00  0.00    -0.070 C  
HETATM   13  H   UNL    20      -8.252  10.295  68.664  1.00  0.00     0.000 HD 
ENDROOT
BRANCH  12  14
HETATM   14  C   UNL    20      -6.238  12.968  68.807  1.00  0.00    -0.079 C  
HETATM   15  O   UNL    20      -6.897  13.708  67.808  1.00  0.00    -0.138 OA 
HETATM   16  C   UNL    20      -6.829  15.062  68.175  1.00  0.00    -0.131 C  
HETATM   17  C   UNL    20      -6.408  13.706  70.153  1.00  0.00    -0.037 C  
HETATM   18  H   UNL    20      -5.303  14.191  71.686  1.00  0.00     0.000 HD 
HETATM   19  C   UNL    20      -6.851  15.129  69.741  1.00  0.00    -0.179 C  
HETATM   20  H   UNL    20      -8.123  15.447  71.238  1.00  0.00     0.000 HD 
HETATM   21  O   UNL    20      -5.198  13.737  70.858  1.00  0.00    -0.109 OA 
HETATM   22  O   UNL    20      -8.110  15.407  70.290  1.00  0.00     0.288 OA 
BRANCH  16  23
HETATM   23  O   UNL    20      -7.795  15.840  67.436  1.00  0.00    -0.145 OA 
BRANCH  23  24
HETATM   24  C   UNL    20      -8.716  16.735  68.102  1.00  0.00    -0.219 C  
HETATM   25  O   UNL    20      -8.019  17.905  68.487  1.00  0.00    -0.285 OA 
HETATM   26  C   UNL    20      -7.643  18.726  67.386  1.00  0.00    -0.227 C  
HETATM   27  H   UNL    20     -11.676  16.408  66.752  1.00  0.00     0.000 HD 
HETATM   28  C   UNL    20      -8.872  19.195  66.553  1.00  0.00    -0.334 C  
HETATM   29  O   UNL    20      -8.496  20.006  65.468  1.00  0.00    -0.451 OA 
HETATM   30  C   UNL    20      -9.684  17.992  66.096  1.00  0.00    -0.212 C  
HETATM   31  O   UNL    20     -10.884  16.128  67.197  1.00  0.00    -0.302 OA 
HETATM   32  H   UNL    20      -9.246  20.293  64.960  1.00  0.00     0.000 HD 
HETATM   33  O   UNL    20     -10.860  18.428  65.475  1.00  0.00    -0.492 OA 
HETATM   34  C   UNL    20     -10.008  17.190  67.377  1.00  0.00    -0.280 C  
HETATM   35  H   UNL    20     -11.367  17.677  65.190  1.00  0.00     0.000 HD 
BRANCH  26  36
HETATM   36  C   UNL    20      -6.953  19.989  67.961  1.00  0.00    -0.286 C  
HETATM   37  O   UNL    20      -6.048  19.628  68.963  1.00  0.00    -0.244 OA 
HETATM   38  H   UNL    20      -5.625  20.402  69.315  1.00  0.00     0.000 HD 
ENDBRANCH  26  36
ENDBRANCH  23  24
ENDBRANCH  16  23
BRANCH  16  39
HETATM   39  C   UNL    20      -5.427  15.586  67.736  1.00  0.00    -0.112 C  
HETATM   40  O   UNL    20      -5.282  16.945  68.051  1.00  0.00    -0.110 OA 
HETATM   41  H   UNL    20      -4.428  17.263  67.784  1.00  0.00     0.000 HD 
ENDBRANCH  16  39
ENDBRANCH  12  14
TORSDOF 5
ENDMDL
MODEL      178
REMARK 921   NORMALIZED FREE ENERGY PREDICTED BY IDOCK:   -3.74 KCAL/MOL
REMARK 922        TOTAL FREE ENERGY PREDICTED BY IDOCK:   -6.41 KCAL/MOL
REMARK 923 INTER-LIGAND FREE ENERGY PREDICTED BY IDOCK:   -4.86 KCAL/MOL
REMARK 924 INTRA-LIGAND FREE ENERGY PREDICTED BY IDOCK:   -1.56 KCAL/MOL
REMARK 927      BINDING AFFINITY PREDICTED BY RF-SCORE:    0.00 PKD
ROOT
HETATM    1  O   HOH     4     -12.803  14.388  69.934  1.00  0.00    -0.514 OA 
HETATM    2  H2  HOH     4     -12.737  13.455  70.100  1.00  0.00     0.000 HD 
HETATM    3 NA   UNL    13      -9.037   9.190  72.891  1.00  0.00    -0.219 Na 
HETATM    4  H1  HOH     4     -12.016  14.762  70.314  1.00  0.00     0.000 HD 
HETATM    5 NA   UNL    14     -13.892  11.729  70.907  1.00  0.00    -0.007 Na 
HETATM    6 FE   UNL    15     -12.435   9.802  72.927  1.00  0.00    -0.217 Fe 
HETATM    7 FE   UNL    16     -10.475  13.006  70.054  1.00  0.00    -0.413 Fe 
HETATM    8 FE   UNL    17     -13.229  10.212  69.242  1.00  0.00    -0.546 Fe 
HETATM    9 FE   UNL    18     -10.789  13.586  67.988  1.00  0.00    -0.219 Fe 
HETATM   10 FE   UNL    19     -10.800   8.794  66.553  1.00  0.00    -0.256 Fe 
HETATM   11  O   UNL    20     -10.482  10.894  68.417  1.00  0.00    -0.167 OA 
HETATM   12  C   UNL    20      -9.143  11.310  68.434  1.00  0.00    -0.170 C  
HETATM   13  H   UNL    20     -11.103  11.494  68.815  1.00  0.00     0.000 HD 
ENDROOT
BRANCH  12  14
HETATM   14  C   UNL    20      -8.133  10.334  67.787  1.00  0.00    -0.103 C  
HETATM   15  O   UNL    20      -8.348   9.018  68.234  1.00  0.00    -0.119 OA 
HETATM   16  C   UNL    20      -7.707   8.156  67.330  1.00  0.00    -0.098 C  
HETATM   17  C   UNL    20      -8.024  10.313  66.246  1.00  0.00    -0.124 C  
HETATM   18  H   UNL    20      -6.892  11.101  64.866  1.00  0.00     0.000 HD 
HETATM   19  C   UNL    20      -7.772   8.824  65.913  1.00  0.00    -0.094 C  
HETATM   20  H   UNL    20      -8.843   8.748  64.237  1.00  0.00     0.000 HD 
HETATM   21  O   UNL    20      -6.960  11.114  65.813  1.00  0.00     0.018 OA 
HETATM   22  O   UNL    20      -8.803   8.344  65.095  1.00  0.00    -0.143 OA 
BRANCH  16  23
HETATM   23  O   UNL    20      -8.193   6.805  67.481  1.00  0.00    -0.120 OA 
BRANCH  23  24
HETATM   24  C   UNL    20      -7.465   5.674  66.948  1.00  0.00    -0.088 C  
HETATM   25  O   UNL    20      -6.766   5.041  68.004  1.00  0.00    -0.051 OA 
HETATM   26  C   UNL    20      -7.622   4.365  68.920  1.00  0.00    -0.059 C  
HETATM   27  H   UNL    20      -9.182   4.367  64.493  1.00  0.00     0.000 HD 
HETATM   28  C   UNL    20      -8.473   3.261  68.227  1.00  0.00    -0.085 C  
HETATM   29  O   UNL    20      -9.315   2.595  69.135  1.00  0.00    -0.140 OA 
HETATM   30  C   UNL    20      -9.261   3.858  67.070  1.00  0.00    -0.175 C  
HETATM   31  O   UNL    20      -8.718   5.046  64.968  1.00  0.00    -0.145 OA 
HETATM   32  H   UNL    20      -9.834   1.921  68.712  1.00  0.00     0.000 HD 
HETATM   33  O   UNL    20      -9.907   2.836  66.365  1.00  0.00    -0.344 OA 
HETATM   34  C   UNL    20      -8.221   4.567  66.173  1.00  0.00    -0.106 C  
HETATM   35  H   UNL    20     -10.399   3.208  65.643  1.00  0.00     0.000 HD 
BRANCH  26  36
HETATM   36  C   UNL    20      -6.721   3.672  69.975  1.00  0.00    -0.034 C  
HETATM   37  O   UNL    20      -7.469   3.357  71.112  1.00  0.00    -0.039 OA 
HETATM   38  H   UNL    20      -6.917   2.933  71.759  1.00  0.00     0.000 HD 
ENDBRANCH  26  36
ENDBRANCH  23  24
ENDBRANCH  16  23
BRANCH  16  39
HETATM   39  C   UNL    20      -6.199   8.117  67.726  1.00  0.00    -0.052 C  
HETATM   40  O   UNL    20      -6.046   7.759  69.072  1.00  0.00    -0.033 OA 
HETATM   41  H   UNL    20      -5.128   7.735  69.313  1.00  0.00     0.000 HD 
ENDBRANCH  16  39
ENDBRANCH  12  14
TORSDOF 5
ENDMDL
MODEL      179
REMARK 921   NORMALIZED FREE ENERGY PREDICTED BY IDOCK:   -3.73 KCAL/MOL
REMARK 922        TOTAL FREE ENERGY PREDICTED BY IDOCK:   -6.40 KCAL/MOL
REMARK 923 INTER-LIGAND FREE ENERGY PREDICTED BY IDOCK:   -5.91 KCAL/MOL
REMARK 924 INTRA-LIGAND FREE ENERGY PREDICTED BY IDOCK:   -0.50 KCAL/MOL
REMARK 927      BINDING AFFINITY PREDICTED BY RF-SCORE:    0.00 PKD
ROOT
HETATM    1  O   HOH     4      -7.206   2.081  66.278  1.00  0.00    -0.057 OA 
HETATM    2  H2  HOH     4      -7.929   2.661  66.488  1.00  0.00     0.000 HD 
HETATM    3 NA   UNL    13     -10.228   8.367  65.138  1.00  0.00    -0.350 Na 
HETATM    4  H1  HOH     4      -6.660   2.576  65.679  1.00  0.00     0.000 HD 
HETATM    5 NA   UNL    14     -10.154   2.725  66.595  1.00  0.00    -0.397 Na 
HETATM    6 FE   UNL    15     -11.614   5.209  65.324  1.00  0.00    -0.614 Fe 
HETATM    7 FE   UNL    16      -7.029   4.782  66.400  1.00  0.00    -0.052 Fe 
HETATM    8 FE   UNL    17     -10.251   3.914  68.617  1.00  0.00    -0.146 Fe 
HETATM    9 FE   UNL    18      -5.934   3.975  68.090  1.00  0.00    -0.019 Fe 
HETATM   10 FE   UNL    19      -8.914   6.404  71.291  1.00  0.00    -0.131 Fe 
HETATM   11  O   UNL    20      -7.938   5.739  68.724  1.00  0.00    -0.099 OA 
HETATM   12  C   UNL    20      -6.918   6.630  68.362  1.00  0.00    -0.080 C  
HETATM   13  H   UNL    20      -7.987   4.941  68.209  1.00  0.00     0.000 HD 
ENDROOT
BRANCH  12  14
HETATM   14  C   UNL    20      -6.838   7.928  69.199  1.00  0.00    -0.052 C  
HETATM   15  O   UNL    20      -7.241   9.041  68.441  1.00  0.00    -0.075 OA 
HETATM   16  C   UNL    20      -7.539  10.078  69.340  1.00  0.00    -0.123 C  
HETATM   17  C   UNL    20      -7.577   7.968  70.555  1.00  0.00    -0.076 C  
HETATM   18  H   UNL    20      -7.155   7.701  72.441  1.00  0.00     0.000 HD 
HETATM   19  C   UNL    20      -8.098   9.421  70.650  1.00  0.00    -0.161 C  
HETATM   20  H   UNL    20      -9.834   9.017  71.534  1.00  0.00     0.000 HD 
HETATM   21  O   UNL    20      -6.700   7.676  71.607  1.00  0.00    -0.045 OA 
HETATM   22  O   UNL    20      -9.496   9.415  70.741  1.00  0.00    -0.258 OA 
BRANCH  16  23
HETATM   23  O   UNL    20      -8.320  11.105  68.694  1.00  0.00    -0.146 OA 
BRANCH  23  24
HETATM   24  C   UNL    20      -7.796  11.870  67.583  1.00  0.00    -0.142 C  
HETATM   25  O   UNL    20      -8.450  11.460  66.397  1.00  0.00    -0.173 OA 
HETATM   26  C   UNL    20      -9.816  11.862  66.339  1.00  0.00    -0.213 C  
HETATM   27  H   UNL    20      -7.033  14.872  68.626  1.00  0.00     0.000 HD 
HETATM   28  C   UNL    20      -9.980  13.407  66.426  1.00  0.00    -0.293 C  
HETATM   29  O   UNL    20     -11.329  13.800  66.368  1.00  0.00    -0.305 OA 
HETATM   30  C   UNL    20      -9.299  13.935  67.681  1.00  0.00    -0.205 C  
HETATM   31  O   UNL    20      -7.003  13.923  68.603  1.00  0.00    -0.094 OA 
HETATM   32  H   UNL    20     -11.429  14.743  66.421  1.00  0.00     0.000 HD 
HETATM   33  O   UNL    20      -9.326  15.335  67.675  1.00  0.00    -0.197 OA 
HETATM   34  C   UNL    20      -7.844  13.418  67.621  1.00  0.00    -0.173 C  
HETATM   35  H   UNL    20      -8.901  15.665  68.459  1.00  0.00     0.000 HD 
BRANCH  26  36
HETATM   36  C   UNL    20     -10.378  11.405  64.969  1.00  0.00    -0.287 C  
HETATM   37  O   UNL    20     -11.475  12.194  64.613  1.00  0.00    -0.319 OA 
HETATM   38  H   UNL    20     -11.820  11.914  63.773  1.00  0.00     0.000 HD 
ENDBRANCH  26  36
ENDBRANCH  23  24
ENDBRANCH  16  23
BRANCH  16  39
HETATM   39  C   UNL    20      -6.186  10.748  69.731  1.00  0.00    -0.092 C  
HETATM   40  O   UNL    20      -6.397  11.825  70.604  1.00  0.00    -0.528 OA 
HETATM   41  H   UNL    20      -5.573  12.232  70.842  1.00  0.00     0.000 HD 
ENDBRANCH  16  39
ENDBRANCH  12  14
TORSDOF 5
ENDMDL
MODEL      180
REMARK 921   NORMALIZED FREE ENERGY PREDICTED BY IDOCK:   -3.73 KCAL/MOL
REMARK 922        TOTAL FREE ENERGY PREDICTED BY IDOCK:   -6.40 KCAL/MOL
REMARK 923 INTER-LIGAND FREE ENERGY PREDICTED BY IDOCK:   -4.70 KCAL/MOL
REMARK 924 INTRA-LIGAND FREE ENERGY PREDICTED BY IDOCK:   -1.70 KCAL/MOL
REMARK 927      BINDING AFFINITY PREDICTED BY RF-SCORE:    0.00 PKD
ROOT
HETATM    1  O   HOH     4      -7.692  14.223  67.975  1.00  0.00    -0.116 OA 
HETATM    2  H2  HOH     4      -8.361  13.643  67.630  1.00  0.00     0.000 HD 
HETATM    3 NA   UNL    13     -13.445  10.373  69.399  1.00  0.00    -0.529 Na 
HETATM    4  H1  HOH     4      -7.876  14.286  68.905  1.00  0.00     0.000 HD 
HETATM    5 NA   UNL    14      -9.871  13.477  66.000  1.00  0.00    -0.242 Na 
HETATM    6 FE   UNL    15     -12.767  12.513  66.775  1.00  0.00    -0.267 Fe 
HETATM    7 FE   UNL    16      -8.817  12.179  69.353  1.00  0.00    -0.352 Fe 
HETATM    8 FE   UNL    17      -9.433  11.223  65.512  1.00  0.00    -0.184 Fe 
HETATM    9 FE   UNL    18      -6.764  11.629  68.922  1.00  0.00    -0.055 Fe 
HETATM   10 FE   UNL    19      -8.288   7.604  66.370  1.00  0.00    -0.100 Fe 
HETATM   11  O   UNL    20      -8.665   9.870  68.016  1.00  0.00    -0.124 OA 
HETATM   12  C   UNL    20      -8.588   9.491  69.364  1.00  0.00    -0.159 C  
HETATM   13  H   UNL    20      -8.587  10.803  67.847  1.00  0.00     0.000 HD 
ENDROOT
BRANCH  12  14
HETATM   14  C   UNL    20      -8.715   7.975  69.639  1.00  0.00    -0.133 C  
HETATM   15  O   UNL    20      -9.116   7.286  68.480  1.00  0.00    -0.137 OA 
HETATM   16  C   UNL    20      -8.816   5.928  68.673  1.00  0.00    -0.111 C  
HETATM   17  C   UNL    20      -7.501   7.239  70.248  1.00  0.00    -0.084 C  
HETATM   18  H   UNL    20      -6.889   6.672  72.012  1.00  0.00     0.000 HD 
HETATM   19  C   UNL    20      -7.531   5.850  69.568  1.00  0.00    -0.076 C  
HETATM   20  H   UNL    20      -5.564   5.603  69.397  1.00  0.00     0.000 HD 
HETATM   21  O   UNL    20      -7.636   7.125  71.637  1.00  0.00    -0.086 OA 
HETATM   22  O   UNL    20      -6.342   5.650  68.855  1.00  0.00    -0.034 OA 
BRANCH  16  23
HETATM   23  O   UNL    20      -8.826   5.219  67.415  1.00  0.00    -0.108 OA 
BRANCH  23  24
HETATM   24  C   UNL    20      -9.376   3.886  67.302  1.00  0.00    -0.191 C  
HETATM   25  O   UNL    20     -10.144   3.808  66.115  1.00  0.00    -0.065 OA 
HETATM   26  C   UNL    20      -9.355   3.843  64.930  1.00  0.00    -0.158 C  
HETATM   27  H   UNL    20      -7.249   1.749  68.566  1.00  0.00     0.000 HD 
HETATM   28  C   UNL    20      -8.327   2.675  64.871  1.00  0.00    -0.089 C  
HETATM   29  O   UNL    20      -7.551   2.713  63.699  1.00  0.00    -0.064 OA 
HETATM   30  C   UNL    20      -7.454   2.684  66.118  1.00  0.00    -0.068 C  
HETATM   31  O   UNL    20      -7.829   2.502  68.557  1.00  0.00    -0.054 OA 
HETATM   32  H   UNL    20      -6.924   2.000  63.663  1.00  0.00     0.000 HD 
HETATM   33  O   UNL    20      -6.634   1.549  66.125  1.00  0.00    -0.023 OA 
HETATM   34  C   UNL    20      -8.431   2.659  67.316  1.00  0.00    -0.097 C  
HETATM   35  H   UNL    20      -6.090   1.555  66.903  1.00  0.00     0.000 HD 
BRANCH  26  36
HETATM   36  C   UNL    20     -10.317   3.684  63.725  1.00  0.00    -0.246 C  
HETATM   37  O   UNL    20     -10.047   4.661  62.763  1.00  0.00    -0.381 OA 
HETATM   38  H   UNL    20     -10.637   4.564  62.024  1.00  0.00     0.000 HD 
ENDBRANCH  26  36
ENDBRANCH  23  24
ENDBRANCH  16  23
BRANCH  16  39
HETATM   39  C   UNL    20      -9.975   5.318  69.520  1.00  0.00    -0.227 C  
HETATM   40  O   UNL    20      -9.475   4.686  70.667  1.00  0.00    -0.145 OA 
HETATM   41  H   UNL    20     -10.181   4.316  71.183  1.00  0.00     0.000 HD 
ENDBRANCH  16  39
ENDBRANCH  12  14
TORSDOF 5
ENDMDL
MODEL      181
REMARK 921   NORMALIZED FREE ENERGY PREDICTED BY IDOCK:   -3.73 KCAL/MOL
REMARK 922        TOTAL FREE ENERGY PREDICTED BY IDOCK:   -6.40 KCAL/MOL
REMARK 923 INTER-LIGAND FREE ENERGY PREDICTED BY IDOCK:   -5.03 KCAL/MOL
REMARK 924 INTRA-LIGAND FREE ENERGY PREDICTED BY IDOCK:   -1.37 KCAL/MOL
REMARK 927      BINDING AFFINITY PREDICTED BY RF-SCORE:    0.00 PKD
ROOT
HETATM    1  O   HOH     4      -7.699  13.321  69.314  1.00  0.00    -0.316 OA 
HETATM    2  H2  HOH     4      -7.921  12.397  69.279  1.00  0.00     0.000 HD 
HETATM    3 NA   UNL    13      -5.272   6.683  69.289  1.00  0.00    -0.009 Na 
HETATM    4  H1  HOH     4      -6.749  13.345  69.332  1.00  0.00     0.000 HD 
HETATM    5 NA   UNL    14      -9.215  10.865  70.250  1.00  0.00    -0.360 Na 
HETATM    6 FE   UNL    15      -7.903   8.107  71.015  1.00  0.00    -0.069 Fe 
HETATM    7 FE   UNL    16      -6.193  11.419  68.105  1.00  0.00    -0.047 Fe 
HETATM    8 FE   UNL    17      -9.861   9.814  68.253  1.00  0.00    -0.138 Fe 
HETATM    9 FE   UNL    18      -7.052  12.664  66.550  1.00  0.00    -0.329 Fe 
HETATM   10 FE   UNL    19      -9.381   8.712  64.552  1.00  0.00    -0.381 Fe 
HETATM   11  O   UNL    20      -7.614   9.985  66.353  1.00  0.00    -0.099 OA 
HETATM   12  C   UNL    20      -6.323  10.018  65.804  1.00  0.00    -0.094 C  
HETATM   13  H   UNL    20      -7.762  10.573  67.085  1.00  0.00     0.000 HD 
ENDROOT
BRANCH  12  14
HETATM   14  C   UNL    20      -6.082   9.062  64.613  1.00  0.00    -0.066 C  
HETATM   15  O   UNL    20      -6.502   7.756  64.923  1.00  0.00    -0.044 OA 
HETATM   16  C   UNL    20      -6.644   7.060  63.711  1.00  0.00    -0.043 C  
HETATM   17  C   UNL    20      -6.667   9.449  63.236  1.00  0.00    -0.097 C  
HETATM   18  H   UNL    20      -6.058  10.317  61.599  1.00  0.00     0.000 HD 
HETATM   19  C   UNL    20      -7.093   8.094  62.622  1.00  0.00    -0.091 C  
HETATM   20  H   UNL    20      -8.743   8.731  61.710  1.00  0.00     0.000 HD 
HETATM   21  O   UNL    20      -5.699  10.080  62.445  1.00  0.00    -0.093 OA 
HETATM   22  O   UNL    20      -8.471   8.105  62.370  1.00  0.00    -0.174 OA 
BRANCH  16  23
HETATM   23  O   UNL    20      -7.431   5.865  63.897  1.00  0.00    -0.063 OA 
BRANCH  23  24
HETATM   24  C   UNL    20      -7.510   5.202  65.181  1.00  0.00    -0.073 C  
HETATM   25  O   UNL    20      -8.323   5.974  66.045  1.00  0.00    -0.122 OA 
HETATM   26  C   UNL    20      -9.701   5.961  65.684  1.00  0.00     0.296 C  
HETATM   27  H   UNL    20      -7.432   1.968  64.712  1.00  0.00     0.000 HD 
HETATM   28  C   UNL    20     -10.296   4.522  65.683  1.00  0.00    -0.247 C  
HETATM   29  O   UNL    20     -11.656   4.514  65.327  1.00  0.00    -1.061 OA 
HETATM   30  C   UNL    20      -9.476   3.619  64.773  1.00  0.00    -0.160 C  
HETATM   31  O   UNL    20      -7.122   2.865  64.662  1.00  0.00    -0.048 OA 
HETATM   32  H   UNL    20     -12.020   3.636  65.327  1.00  0.00     0.000 HD 
HETATM   33  O   UNL    20      -9.929   2.299  64.891  1.00  0.00    -0.350 OA 
HETATM   34  C   UNL    20      -8.015   3.740  65.264  1.00  0.00    -0.093 C  
HETATM   35  H   UNL    20      -9.417   1.735  64.323  1.00  0.00     0.000 HD 
BRANCH  26  36
HETATM   36  C   UNL    20     -10.469   6.787  66.747  1.00  0.00    -0.228 C  
HETATM   37  O   UNL    20     -11.233   5.939  67.553  1.00  0.00    -0.395 OA 
HETATM   38  H   UNL    20     -11.704   6.446  68.205  1.00  0.00     0.000 HD 
ENDBRANCH  26  36
ENDBRANCH  23  24
ENDBRANCH  16  23
BRANCH  16  39
HETATM   39  C   UNL    20      -5.221   6.576  63.293  1.00  0.00    -0.026 C  
HETATM   40  O   UNL    20      -5.274   5.285  62.749  1.00  0.00    -0.012 OA 
HETATM   41  H   UNL    20      -4.407   4.991  62.494  1.00  0.00     0.000 HD 
ENDBRANCH  16  39
ENDBRANCH  12  14
TORSDOF 5
ENDMDL
MODEL      182
REMARK 921   NORMALIZED FREE ENERGY PREDICTED BY IDOCK:   -3.72 KCAL/MOL
REMARK 922        TOTAL FREE ENERGY PREDICTED BY IDOCK:   -6.39 KCAL/MOL
REMARK 923 INTER-LIGAND FREE ENERGY PREDICTED BY IDOCK:   -5.17 KCAL/MOL
REMARK 924 INTRA-LIGAND FREE ENERGY PREDICTED BY IDOCK:   -1.22 KCAL/MOL
REMARK 927      BINDING AFFINITY PREDICTED BY RF-SCORE:    0.00 PKD
ROOT
HETATM    1  O   HOH     4     -11.047   5.036  70.649  1.00  0.00     0.161 OA 
HETATM    2  H2  HOH     4     -10.977   5.347  69.754  1.00  0.00     0.000 HD 
HETATM    3 NA   UNL    13      -6.784   6.139  65.121  1.00  0.00    -0.035 Na 
HETATM    4  H1  HOH     4     -10.162   4.797  70.896  1.00  0.00     0.000 HD 
HETATM    5 NA   UNL    14     -11.889   5.104  67.735  1.00  0.00     0.374 Na 
HETATM    6 FE   UNL    15      -9.948   4.763  65.279  1.00  0.00    -0.159 Fe 
HETATM    7 FE   UNL    16      -8.881   6.299  69.622  1.00  0.00    -0.121 Fe 
HETATM    8 FE   UNL    17     -11.884   7.392  67.207  1.00  0.00    -0.512 Fe 
HETATM    9 FE   UNL    18      -9.825   7.654  71.028  1.00  0.00    -0.167 Fe 
HETATM   10 FE   UNL    19     -10.547  11.040  67.416  1.00  0.00    -0.176 Fe 
HETATM   11  O   UNL    20      -9.530   8.627  68.480  1.00  0.00    -0.141 OA 
HETATM   12  C   UNL    20      -8.240   8.842  68.987  1.00  0.00    -0.117 C  
HETATM   13  H   UNL    20      -9.955   7.826  68.767  1.00  0.00     0.000 HD 
ENDROOT
BRANCH  12  14
HETATM   14  C   UNL    20      -7.549  10.144  68.521  1.00  0.00    -0.088 C  
HETATM   15  O   UNL    20      -8.435  11.234  68.585  1.00  0.00    -0.151 OA 
HETATM   16  C   UNL    20      -7.662  12.407  68.556  1.00  0.00    -0.120 C  
HETATM   17  C   UNL    20      -6.224  10.551  69.201  1.00  0.00    -0.045 C  
HETATM   18  H   UNL    20      -4.311  10.385  68.858  1.00  0.00     0.000 HD 
HETATM   19  C   UNL    20      -6.302  12.094  69.270  1.00  0.00    -0.103 C  
HETATM   20  H   UNL    20      -5.420  12.320  71.039  1.00  0.00     0.000 HD 
HETATM   21  O   UNL    20      -5.125  10.134  68.439  1.00  0.00    -0.036 OA 
HETATM   22  O   UNL    20      -6.244  12.509  70.607  1.00  0.00    -0.168 OA 
BRANCH  16  23
HETATM   23  O   UNL    20      -8.436  13.539  69.005  1.00  0.00     0.123 OA 
BRANCH  23  24
HETATM   24  C   UNL    20      -8.844  14.587  68.095  1.00  0.00    -0.177 C  
HETATM   25  O   UNL    20      -9.957  14.135  67.347  1.00  0.00    -0.235 OA 
HETATM   26  C   UNL    20     -11.146  14.015  68.122  1.00  0.00    -0.260 C  
HETATM   27  H   UNL    20      -8.305  17.487  69.505  1.00  0.00     0.000 HD 
HETATM   28  C   UNL    20     -11.567  15.367  68.770  1.00  0.00    -0.368 C  
HETATM   29  O   UNL    20     -12.741  15.245  69.532  1.00  0.00    -0.593 OA 
HETATM   30  C   UNL    20     -10.420  15.928  69.598  1.00  0.00    -0.295 C  
HETATM   31  O   UNL    20      -8.085  16.627  69.167  1.00  0.00    -0.226 OA 
HETATM   32  H   UNL    20     -12.998  16.069  69.927  1.00  0.00     0.000 HD 
HETATM   33  O   UNL    20     -10.754  17.208  70.055  1.00  0.00    -0.286 OA 
HETATM   34  C   UNL    20      -9.203  15.990  68.646  1.00  0.00    -0.216 C  
HETATM   35  H   UNL    20     -10.038  17.559  70.572  1.00  0.00     0.000 HD 
BRANCH  26  36
HETATM   36  C   UNL    20     -12.284  13.578  67.164  1.00  0.00    -0.281 C  
HETATM   37  O   UNL    20     -12.697  14.662  66.384  1.00  0.00    -0.327 OA 
HETATM   38  H   UNL    20     -13.394  14.394  65.796  1.00  0.00     0.000 HD 
ENDBRANCH  26  36
ENDBRANCH  23  24
ENDBRANCH  16  23
BRANCH  16  39
HETATM   39  C   UNL    20      -7.315  12.689  67.061  1.00  0.00     0.055 C  
HETATM   40  O   UNL    20      -5.932  12.609  66.847  1.00  0.00    -0.481 OA 
HETATM   41  H   UNL    20      -5.721  12.781  65.937  1.00  0.00     0.000 HD 
ENDBRANCH  16  39
ENDBRANCH  12  14
TORSDOF 5
ENDMDL
MODEL      183
REMARK 921   NORMALIZED FREE ENERGY PREDICTED BY IDOCK:   -3.65 KCAL/MOL
REMARK 922        TOTAL FREE ENERGY PREDICTED BY IDOCK:   -6.30 KCAL/MOL
REMARK 923 INTER-LIGAND FREE ENERGY PREDICTED BY IDOCK:   -4.77 KCAL/MOL
REMARK 924 INTRA-LIGAND FREE ENERGY PREDICTED BY IDOCK:   -1.53 KCAL/MOL
REMARK 927      BINDING AFFINITY PREDICTED BY RF-SCORE:    0.00 PKD
ROOT
HETATM    1  O   HOH     4      -7.149   8.093  62.402  1.00  0.00    -0.089 OA 
HETATM    2  H2  HOH     4      -7.690   8.693  62.902  1.00  0.00     0.000 HD 
HETATM    3 NA   UNL    13      -7.294  13.747  66.640  1.00  0.00    -0.344 Na 
HETATM    4  H1  HOH     4      -6.256   8.372  62.567  1.00  0.00     0.000 HD 
HETATM    5 NA   UNL    14      -9.468  10.024  62.719  1.00  0.00    -0.210 Na 
HETATM    6 FE   UNL    15      -9.258  12.928  63.920  1.00  0.00    -0.522 Fe 
HETATM    7 FE   UNL    16      -6.416   9.240  64.745  1.00  0.00    -0.067 Fe 
HETATM    8 FE   UNL    17     -10.418   9.422  64.779  1.00  0.00    -0.380 Fe 
HETATM    9 FE   UNL    18      -6.739   7.128  65.120  1.00  0.00    -0.040 Fe 
HETATM   10 FE   UNL    19     -10.309   8.177  68.465  1.00  0.00    -0.173 Fe 
HETATM   11  O   UNL    20      -8.231   8.835  66.666  1.00  0.00    -0.105 OA 
HETATM   12  C   UNL    20      -7.007   8.871  67.352  1.00  0.00    -0.075 C  
HETATM   13  H   UNL    20      -8.168   8.790  65.718  1.00  0.00     0.000 HD 
ENDROOT
BRANCH  12  14
HETATM   14  C   UNL    20      -7.109   8.944  68.892  1.00  0.00    -0.066 C  
HETATM   15  O   UNL    20      -8.064   8.032  69.377  1.00  0.00    -0.114 OA 
HETATM   16  C   UNL    20      -7.816   7.853  70.748  1.00  0.00    -0.091 C  
HETATM   17  C   UNL    20      -5.814   8.781  69.718  1.00  0.00    -0.028 C  
HETATM   18  H   UNL    20      -4.489   9.929  70.573  1.00  0.00     0.000 HD 
HETATM   19  C   UNL    20      -6.272   8.001  70.973  1.00  0.00    -0.034 C  
HETATM   20  H   UNL    20      -4.646   6.873  71.185  1.00  0.00     0.000 HD 
HETATM   21  O   UNL    20      -5.285  10.030  70.065  1.00  0.00    -0.036 OA 
HETATM   22  O   UNL    20      -5.581   6.784  71.049  1.00  0.00    -0.026 OA 
BRANCH  16  23
HETATM   23  O   UNL    20      -8.476   6.665  71.235  1.00  0.00    -0.124 OA 
BRANCH  23  24
HETATM   24  C   UNL    20      -9.505   6.001  70.465  1.00  0.00    -0.168 C  
HETATM   25  O   UNL    20      -9.279   4.604  70.508  1.00  0.00    -0.116 OA 
HETATM   26  C   UNL    20      -9.530   4.032  71.788  1.00  0.00    -0.145 C  
HETATM   27  H   UNL    20     -12.295   7.680  70.749  1.00  0.00     0.000 HD 
HETATM   28  C   UNL    20     -10.998   4.258  72.257  1.00  0.00     0.238 C  
HETATM   29  O   UNL    20     -11.242   3.690  73.519  1.00  0.00    -0.234 OA 
HETATM   30  C   UNL    20     -11.328   5.743  72.239  1.00  0.00    -0.278 C  
HETATM   31  O   UNL    20     -11.380   7.538  70.537  1.00  0.00    -0.275 OA 
HETATM   32  H   UNL    20     -12.138   3.828  73.805  1.00  0.00     0.000 HD 
HETATM   33  O   UNL    20     -12.688   5.924  72.521  1.00  0.00    -0.487 OA 
HETATM   34  C   UNL    20     -10.997   6.232  70.811  1.00  0.00    -0.297 C  
HETATM   35  H   UNL    20     -12.895   6.852  72.510  1.00  0.00     0.000 HD 
BRANCH  26  36
HETATM   36  C   UNL    20      -9.305   2.503  71.666  1.00  0.00    -0.119 C  
HETATM   37  O   UNL    20      -8.411   2.070  72.650  1.00  0.00    -0.060 OA 
HETATM   38  H   UNL    20      -8.273   1.133  72.576  1.00  0.00     0.000 HD 
ENDBRANCH  26  36
ENDBRANCH  23  24
ENDBRANCH  16  23
BRANCH  16  39
HETATM   39  C   UNL    20      -8.482   9.051  71.493  1.00  0.00    -0.022 C  
HETATM   40  O   UNL    20      -9.475   8.600  72.375  1.00  0.00    -0.284 OA 
HETATM   41  H   UNL    20      -9.880   9.329  72.828  1.00  0.00     0.000 HD 
ENDBRANCH  16  39
ENDBRANCH  12  14
TORSDOF 5
ENDMDL
MODEL      184
REMARK 921   NORMALIZED FREE ENERGY PREDICTED BY IDOCK:   -3.62 KCAL/MOL
REMARK 922        TOTAL FREE ENERGY PREDICTED BY IDOCK:   -6.26 KCAL/MOL
REMARK 923 INTER-LIGAND FREE ENERGY PREDICTED BY IDOCK:   -5.40 KCAL/MOL
REMARK 924 INTRA-LIGAND FREE ENERGY PREDICTED BY IDOCK:   -0.86 KCAL/MOL
REMARK 927      BINDING AFFINITY PREDICTED BY RF-SCORE:    0.00 PKD
ROOT
HETATM    1  O   HOH     4      -6.196  13.952  71.418  1.00  0.00    -0.516 OA 
HETATM    2  H2  HOH     4      -7.062  13.902  71.029  1.00  0.00     0.000 HD 
HETATM    3 NA   UNL    13     -12.064  10.100  70.603  1.00  0.00    -0.232 Na 
HETATM    4  H1  HOH     4      -6.078  13.122  71.864  1.00  0.00     0.000 HD 
HETATM    5 NA   UNL    14      -8.972  15.033  70.843  1.00  0.00    -0.291 Na 
HETATM    6 FE   UNL    15     -11.661  13.458  71.298  1.00  0.00    -0.455 Fe 
HETATM    7 FE   UNL    16      -7.352  11.670  70.525  1.00  0.00    -0.302 Fe 
HETATM    8 FE   UNL    17      -9.287  14.577  68.562  1.00  0.00    -0.160 Fe 
HETATM    9 FE   UNL    18      -5.727  12.156  69.173  1.00  0.00    -0.058 Fe 
HETATM   10 FE   UNL    19      -8.905  12.458  65.321  1.00  0.00    -0.405 Fe 
HETATM   11  O   UNL    20      -8.193  11.899  67.998  1.00  0.00    -0.140 OA 
HETATM   12  C   UNL    20      -7.824  10.551  68.116  1.00  0.00    -0.109 C  
HETATM   13  H   UNL    20      -7.932  12.460  68.720  1.00  0.00     0.000 HD 
ENDROOT
BRANCH  12  14
HETATM   14  C   UNL    20      -8.248   9.639  66.942  1.00  0.00    -0.113 C  
HETATM   15  O   UNL    20      -7.819   8.316  67.153  1.00  0.00    -0.095 OA 
HETATM   16  C   UNL    20      -8.567   7.490  66.298  1.00  0.00    -0.145 C  
HETATM   17  C   UNL    20      -9.739   9.610  66.542  1.00  0.00    -0.212 C  
HETATM   18  H   UNL    20     -10.900  10.459  65.223  1.00  0.00     0.000 HD 
HETATM   19  C   UNL    20      -9.985   8.138  66.137  1.00  0.00     0.053 C  
HETATM   20  H   UNL    20     -11.830   7.973  66.864  1.00  0.00     0.000 HD 
HETATM   21  O   UNL    20      -9.983  10.476  65.469  1.00  0.00    -0.245 OA 
HETATM   22  O   UNL    20     -10.971   7.581  66.962  1.00  0.00    -0.306 OA 
BRANCH  16  23
HETATM   23  O   UNL    20      -8.480   6.111  66.716  1.00  0.00    -0.109 OA 
BRANCH  23  24
HETATM   24  C   UNL    20      -7.481   5.669  67.665  1.00  0.00    -0.077 C  
HETATM   25  O   UNL    20      -8.039   5.706  68.966  1.00  0.00    -0.095 OA 
HETATM   26  C   UNL    20      -9.033   4.708  69.182  1.00  0.00    -0.098 C  
HETATM   27  H   UNL    20      -5.608   3.392  66.254  1.00  0.00     0.000 HD 
HETATM   28  C   UNL    20      -8.477   3.269  68.978  1.00  0.00    -0.063 C  
HETATM   29  O   UNL    20      -9.460   2.287  69.194  1.00  0.00    -0.135 OA 
HETATM   30  C   UNL    20      -7.853   3.140  67.596  1.00  0.00    -0.075 C  
HETATM   31  O   UNL    20      -6.016   4.244  66.359  1.00  0.00    -0.025 OA 
HETATM   32  H   UNL    20      -9.121   1.409  69.070  1.00  0.00     0.000 HD 
HETATM   33  O   UNL    20      -7.229   1.892  67.477  1.00  0.00    -0.052 OA 
HETATM   34  C   UNL    20      -6.815   4.281  67.494  1.00  0.00    -0.052 C  
HETATM   35  H   UNL    20      -6.840   1.812  66.615  1.00  0.00     0.000 HD 
BRANCH  26  36
HETATM   36  C   UNL    20      -9.501   4.829  70.654  1.00  0.00    -0.171 C  
HETATM   37  O   UNL    20     -10.399   5.891  70.787  1.00  0.00    -0.209 OA 
HETATM   38  H   UNL    20     -10.687   5.965  71.690  1.00  0.00     0.000 HD 
ENDBRANCH  26  36
ENDBRANCH  23  24
ENDBRANCH  16  23
BRANCH  16  39
HETATM   39  C   UNL    20      -7.894   7.557  64.892  1.00  0.00    -0.128 C  
HETATM   40  O   UNL    20      -8.563   8.468  64.063  1.00  0.00    -0.381 OA 
HETATM   41  H   UNL    20      -8.153   8.509  63.208  1.00  0.00     0.000 HD 
ENDBRANCH  16  39
ENDBRANCH  12  14
TORSDOF 5
ENDMDL
MODEL      185
REMARK 921   NORMALIZED FREE ENERGY PREDICTED BY IDOCK:   -3.61 KCAL/MOL
REMARK 922        TOTAL FREE ENERGY PREDICTED BY IDOCK:   -6.25 KCAL/MOL
REMARK 923 INTER-LIGAND FREE ENERGY PREDICTED BY IDOCK:   -5.91 KCAL/MOL
REMARK 924 INTRA-LIGAND FREE ENERGY PREDICTED BY IDOCK:   -0.34 KCAL/MOL
REMARK 927      BINDING AFFINITY PREDICTED BY RF-SCORE:    0.00 PKD
ROOT
HETATM    1  O   HOH     4     -12.975  14.412  66.362  1.00  0.00    -0.341 OA 
HETATM    2  H2  HOH     4     -12.187  14.117  65.919  1.00  0.00     0.000 HD 
HETATM    3 NA   UNL    13      -9.421   8.900  63.730  1.00  0.00    -0.428 Na 
HETATM    4  H1  HOH     4     -13.472  13.621  66.532  1.00  0.00     0.000 HD 
HETATM    5 NA   UNL    14     -10.928  14.515  64.124  1.00  0.00    -0.440 Na 
HETATM    6 FE   UNL    15      -9.983  12.044  62.416  1.00  0.00    -0.478 Fe 
HETATM    7 FE   UNL    16     -11.767  12.026  66.796  1.00  0.00    -0.275 Fe 
HETATM    8 FE   UNL    17      -8.872  14.317  65.240  1.00  0.00    -0.452 Fe 
HETATM    9 FE   UNL    18     -11.465  13.246  68.563  1.00  0.00    -0.214 Fe 
HETATM   10 FE   UNL    19      -6.500  12.968  68.014  1.00  0.00    -0.065 Fe 
HETATM   11  O   UNL    20      -9.174  12.311  67.378  1.00  0.00    -0.172 OA 
HETATM   12  C   UNL    20      -9.567  11.178  68.107  1.00  0.00    -0.179 C  
HETATM   13  H   UNL    20      -9.881  12.815  66.993  1.00  0.00     0.000 HD 
ENDROOT
BRANCH  12  14
HETATM   14  C   UNL    20      -8.417  10.357  68.734  1.00  0.00    -0.132 C  
HETATM   15  O   UNL    20      -8.919   9.343  69.568  1.00  0.00    -0.143 OA 
HETATM   16  C   UNL    20      -7.889   8.408  69.763  1.00  0.00    -0.099 C  
HETATM   17  C   UNL    20      -7.364   9.735  67.790  1.00  0.00    -0.089 C  
HETATM   18  H   UNL    20      -5.585  10.172  67.119  1.00  0.00     0.000 HD 
HETATM   19  C   UNL    20      -7.021   8.383  68.458  1.00  0.00    -0.069 C  
HETATM   20  H   UNL    20      -6.803   7.318  66.791  1.00  0.00     0.000 HD 
HETATM   21  O   UNL    20      -6.232  10.555  67.699  1.00  0.00    -0.055 OA 
HETATM   22  O   UNL    20      -7.329   7.334  67.581  1.00  0.00    -0.088 OA 
BRANCH  16  23
HETATM   23  O   UNL    20      -8.418   7.164  70.268  1.00  0.00    -0.134 OA 
BRANCH  23  24
HETATM   24  C   UNL    20      -7.933   6.578  71.499  1.00  0.00    -0.104 C  
HETATM   25  O   UNL    20      -9.040   6.276  72.328  1.00  0.00    -0.141 OA 
HETATM   26  C   UNL    20      -9.829   5.194  71.843  1.00  0.00    -0.177 C  
HETATM   27  H   UNL    20      -5.255   4.818  70.857  1.00  0.00     0.000 HD 
HETATM   28  C   UNL    20      -9.006   3.880  71.706  1.00  0.00    -0.110 C  
HETATM   29  O   UNL    20      -9.788   2.814  71.228  1.00  0.00    -0.155 OA 
HETATM   30  C   UNL    20      -7.787   4.116  70.825  1.00  0.00    -0.052 C  
HETATM   31  O   UNL    20      -5.803   5.593  70.886  1.00  0.00    -0.022 OA 
HETATM   32  H   UNL    20      -9.286   2.012  71.145  1.00  0.00     0.000 HD 
HETATM   33  O   UNL    20      -6.979   2.973  70.826  1.00  0.00    -0.032 OA 
HETATM   34  C   UNL    20      -7.039   5.314  71.452  1.00  0.00    -0.066 C  
HETATM   35  H   UNL    20      -6.218   3.121  70.276  1.00  0.00     0.000 HD 
BRANCH  26  36
HETATM   36  C   UNL    20     -10.955   4.938  72.877  1.00  0.00    -0.262 C  
HETATM   37  O   UNL    20     -11.859   6.004  72.875  1.00  0.00    -0.509 OA 
HETATM   38  H   UNL    20     -12.550   5.847  73.509  1.00  0.00     0.000 HD 
ENDBRANCH  26  36
ENDBRANCH  23  24
ENDBRANCH  16  23
BRANCH  16  39
HETATM   39  C   UNL    20      -6.967   8.972  70.889  1.00  0.00    -0.093 C  
HETATM   40  O   UNL    20      -7.621   8.943  72.129  1.00  0.00    -0.335 OA 
HETATM   41  H   UNL    20      -7.060   9.285  72.814  1.00  0.00     0.000 HD 
ENDBRANCH  16  39
ENDBRANCH  12  14
TORSDOF 5
ENDMDL
MODEL      186
REMARK 921   NORMALIZED FREE ENERGY PREDICTED BY IDOCK:   -3.60 KCAL/MOL
REMARK 922        TOTAL FREE ENERGY PREDICTED BY IDOCK:   -6.24 KCAL/MOL
REMARK 923 INTER-LIGAND FREE ENERGY PREDICTED BY IDOCK:   -4.70 KCAL/MOL
REMARK 924 INTRA-LIGAND FREE ENERGY PREDICTED BY IDOCK:   -1.54 KCAL/MOL
REMARK 927      BINDING AFFINITY PREDICTED BY RF-SCORE:    0.00 PKD
ROOT
HETATM    1  O   HOH     4      -6.787  16.540  68.473  1.00  0.00    -0.140 OA 
HETATM    2  H2  HOH     4      -7.538  16.164  68.028  1.00  0.00     0.000 HD 
HETATM    3 NA   UNL    13     -12.402  12.280  68.987  1.00  0.00    -0.272 Na 
HETATM    4  H1  HOH     4      -6.800  16.158  69.343  1.00  0.00     0.000 HD 
HETATM    5 NA   UNL    14      -9.320  16.722  66.813  1.00  0.00    -0.204 Na 
HETATM    6 FE   UNL    15     -12.082  15.413  67.570  1.00  0.00    -0.330 Fe 
HETATM    7 FE   UNL    16      -7.762  14.054  68.933  1.00  0.00    -0.108 Fe 
HETATM    8 FE   UNL    17      -9.102  14.966  65.269  1.00  0.00    -0.409 Fe 
HETATM    9 FE   UNL    18      -5.852  13.835  67.929  1.00  0.00    -0.075 Fe 
HETATM   10 FE   UNL    19      -8.027  11.402  64.136  1.00  0.00    -0.357 Fe 
HETATM   11  O   UNL    20      -7.980  12.634  66.679  1.00  0.00    -0.402 OA 
HETATM   12  C   UNL    20      -7.685  11.676  67.661  1.00  0.00    -0.133 C  
HETATM   13  H   UNL    20      -7.881  13.540  66.948  1.00  0.00     0.000 HD 
ENDROOT
BRANCH  12  14
HETATM   14  C   UNL    20      -7.846  10.202  67.224  1.00  0.00    -0.103 C  
HETATM   15  O   UNL    20      -7.464   9.327  68.256  1.00  0.00    -0.078 OA 
HETATM   16  C   UNL    20      -8.010   8.066  67.963  1.00  0.00    -0.128 C  
HETATM   17  C   UNL    20      -9.220   9.748  66.682  1.00  0.00    -0.150 C  
HETATM   18  H   UNL    20     -10.080   9.497  64.949  1.00  0.00     0.000 HD 
HETATM   19  C   UNL    20      -9.366   8.302  67.212  1.00  0.00    -0.147 C  
HETATM   20  H   UNL    20     -11.322   8.355  67.574  1.00  0.00     0.000 HD 
HETATM   21  O   UNL    20      -9.236   9.776  65.282  1.00  0.00    -0.201 OA 
HETATM   22  O   UNL    20     -10.501   8.213  68.029  1.00  0.00    -0.216 OA 
BRANCH  16  23
HETATM   23  O   UNL    20      -8.005   7.223  69.134  1.00  0.00    -0.115 OA 
BRANCH  23  24
HETATM   24  C   UNL    20      -7.383   5.917  69.125  1.00  0.00    -0.083 C  
HETATM   25  O   UNL    20      -6.476   5.835  70.208  1.00  0.00    -0.033 OA 
HETATM   26  C   UNL    20      -7.118   5.784  71.479  1.00  0.00    -0.077 C  
HETATM   27  H   UNL    20      -9.542   3.721  68.028  1.00  0.00     0.000 HD 
HETATM   28  C   UNL    20      -8.075   4.563  71.608  1.00  0.00    -0.101 C  
HETATM   29  O   UNL    20      -8.706   4.516  72.863  1.00  0.00    -0.111 OA 
HETATM   30  C   UNL    20      -9.090   4.573  70.473  1.00  0.00    -0.115 C  
HETATM   31  O   UNL    20      -9.001   4.502  68.001  1.00  0.00    -0.108 OA 
HETATM   32  H   UNL    20      -9.290   3.771  72.942  1.00  0.00     0.000 HD 
HETATM   33  O   UNL    20      -9.850   3.398  70.514  1.00  0.00    -0.147 OA 
HETATM   34  C   UNL    20      -8.264   4.643  69.169  1.00  0.00    -0.080 C  
HETATM   35  H   UNL    20     -10.483   3.404  69.806  1.00  0.00     0.000 HD 
BRANCH  26  36
HETATM   36  C   UNL    20      -6.013   5.632  72.554  1.00  0.00    -0.039 C  
HETATM   37  O   UNL    20      -6.490   6.054  73.797  1.00  0.00    -0.068 OA 
HETATM   38  H   UNL    20      -5.812   5.961  74.457  1.00  0.00     0.000 HD 
ENDBRANCH  26  36
ENDBRANCH  23  24
ENDBRANCH  16  23
BRANCH  16  39
HETATM   39  C   UNL    20      -7.056   7.382  66.936  1.00  0.00    -0.083 C  
HETATM   40  O   UNL    20      -7.780   6.590  66.035  1.00  0.00    -0.088 OA 
HETATM   41  H   UNL    20      -7.199   6.173  65.410  1.00  0.00     0.000 HD 
ENDBRANCH  16  39
ENDBRANCH  12  14
TORSDOF 5
ENDMDL
MODEL      187
REMARK 921   NORMALIZED FREE ENERGY PREDICTED BY IDOCK:   -3.52 KCAL/MOL
REMARK 922        TOTAL FREE ENERGY PREDICTED BY IDOCK:   -6.14 KCAL/MOL
REMARK 923 INTER-LIGAND FREE ENERGY PREDICTED BY IDOCK:   -5.69 KCAL/MOL
REMARK 924 INTRA-LIGAND FREE ENERGY PREDICTED BY IDOCK:   -0.45 KCAL/MOL
REMARK 927      BINDING AFFINITY PREDICTED BY RF-SCORE:    0.00 PKD
ROOT
HETATM    1  O   HOH     4      -7.773  16.485  68.930  1.00  0.00    -0.214 OA 
HETATM    2  H2  HOH     4      -8.560  16.113  68.549  1.00  0.00     0.000 HD 
HETATM    3 NA   UNL    13     -12.719  11.458  69.383  1.00  0.00    -0.270 Na 
HETATM    4  H1  HOH     4      -7.567  15.922  69.667  1.00  0.00     0.000 HD 
HETATM    5 NA   UNL    14     -10.602  16.666  67.849  1.00  0.00    -0.257 Na 
HETATM    6 FE   UNL    15     -13.006  14.840  68.747  1.00  0.00    -0.541 Fe 
HETATM    7 FE   UNL    16      -8.386  13.846  68.932  1.00  0.00    -0.137 Fe 
HETATM    8 FE   UNL    17     -10.544  15.347  65.908  1.00  0.00    -0.264 Fe 
HETATM    9 FE   UNL    18      -6.716  14.131  67.578  1.00  0.00    -0.105 Fe 
HETATM   10 FE   UNL    19      -9.391  12.314  63.760  1.00  0.00    -0.410 Fe 
HETATM   11  O   UNL    20      -8.932  12.945  66.476  1.00  0.00    -0.373 OA 
HETATM   12  C   UNL    20      -8.348  11.846  67.123  1.00  0.00    -0.174 C  
HETATM   13  H   UNL    20      -8.866  13.774  66.937  1.00  0.00     0.000 HD 
ENDROOT
BRANCH  12  14
HETATM   14  C   UNL    20      -8.454  10.498  66.373  1.00  0.00    -0.143 C  
HETATM   15  O   UNL    20      -7.835   9.467  67.102  1.00  0.00    -0.098 OA 
HETATM   16  C   UNL    20      -8.313   8.247  66.595  1.00  0.00    -0.111 C  
HETATM   17  C   UNL    20      -9.854  10.014  65.936  1.00  0.00    -0.264 C  
HETATM   18  H   UNL    20     -10.963  10.054  64.332  1.00  0.00     0.000 HD 
HETATM   19  C   UNL    20      -9.789   8.479  66.120  1.00  0.00    -0.157 C  
HETATM   20  H   UNL    20     -11.656   8.214  66.756  1.00  0.00     0.000 HD 
HETATM   21  O   UNL    20     -10.103  10.352  64.601  1.00  0.00    -0.345 OA 
HETATM   22  O   UNL    20     -10.762   8.074  67.043  1.00  0.00    -0.328 OA 
BRANCH  16  23
HETATM   23  O   UNL    20      -8.044   7.171  67.519  1.00  0.00    -0.111 OA 
BRANCH  23  24
HETATM   24  C   UNL    20      -9.075   6.234  67.911  1.00  0.00    -0.111 C  
HETATM   25  O   UNL    20      -9.136   5.194  66.953  1.00  0.00    -0.115 OA 
HETATM   26  C   UNL    20      -8.004   4.331  66.985  1.00  0.00    -0.097 C  
HETATM   27  H   UNL    20      -9.188   6.085  71.175  1.00  0.00     0.000 HD 
HETATM   28  C   UNL    20      -7.823   3.646  68.371  1.00  0.00    -0.063 C  
HETATM   29  O   UNL    20      -6.705   2.794  68.398  1.00  0.00    -0.039 OA 
HETATM   30  C   UNL    20      -7.748   4.699  69.467  1.00  0.00    -0.055 C  
HETATM   31  O   UNL    20      -9.223   6.495  70.318  1.00  0.00    -0.154 OA 
HETATM   32  H   UNL    20      -6.595   2.376  69.244  1.00  0.00     0.000 HD 
HETATM   33  O   UNL    20      -7.732   4.073  70.719  1.00  0.00    -0.050 OA 
HETATM   34  C   UNL    20      -9.018   5.566  69.308  1.00  0.00    -0.112 C  
HETATM   35  H   UNL    20      -7.686   4.730  71.404  1.00  0.00     0.000 HD 
BRANCH  26  36
HETATM   36  C   UNL    20      -8.240   3.214  65.936  1.00  0.00    -0.094 C  
HETATM   37  O   UNL    20      -9.558   2.755  66.013  1.00  0.00    -0.376 OA 
HETATM   38  H   UNL    20      -9.703   2.070  65.370  1.00  0.00     0.000 HD 
ENDBRANCH  26  36
ENDBRANCH  23  24
ENDBRANCH  16  23
BRANCH  16  39
HETATM   39  C   UNL    20      -7.486   7.929  65.311  1.00  0.00    -0.081 C  
HETATM   40  O   UNL    20      -6.113   7.911  65.595  1.00  0.00    -0.038 OA 
HETATM   41  H   UNL    20      -5.610   7.717  64.813  1.00  0.00     0.000 HD 
ENDBRANCH  16  39
ENDBRANCH  12  14
TORSDOF 5
ENDMDL
MODEL      188
REMARK 921   NORMALIZED FREE ENERGY PREDICTED BY IDOCK:   -3.46 KCAL/MOL
REMARK 922        TOTAL FREE ENERGY PREDICTED BY IDOCK:   -6.06 KCAL/MOL
REMARK 923 INTER-LIGAND FREE ENERGY PREDICTED BY IDOCK:   -5.91 KCAL/MOL
REMARK 924 INTRA-LIGAND FREE ENERGY PREDICTED BY IDOCK:   -0.15 KCAL/MOL
REMARK 927      BINDING AFFINITY PREDICTED BY RF-SCORE:    0.00 PKD
ROOT
HETATM    1  O   HOH     4     -11.754  13.097  62.792  1.00  0.00    -0.673 OA 
HETATM    2  H2  HOH     4     -11.500  13.117  63.707  1.00  0.00     0.000 HD 
HETATM    3 NA   UNL    13      -6.442  12.663  67.433  1.00  0.00    -0.074 Na 
HETATM    4  H1  HOH     4     -10.949  12.926  62.317  1.00  0.00     0.000 HD 
HETATM    5 NA   UNL    14     -11.698  14.343  65.558  1.00  0.00    -0.313 Na 
HETATM    6 FE   UNL    15      -9.100  14.862  67.260  1.00  0.00    -0.165 Fe 
HETATM    7 FE   UNL    16      -9.741  11.634  63.864  1.00  0.00    -0.218 Fe 
HETATM    8 FE   UNL    17     -12.074  12.526  66.996  1.00  0.00    -0.315 Fe 
HETATM    9 FE   UNL    18     -11.345  10.267  63.352  1.00  0.00    -0.321 Fe 
HETATM   10 FE   UNL    19     -11.749   8.816  68.122  1.00  0.00    -0.393 Fe 
HETATM   11  O   UNL    20     -10.553  10.216  65.978  1.00  0.00    -0.132 OA 
HETATM   12  C   UNL    20      -9.556   9.420  65.394  1.00  0.00    -0.226 C  
HETATM   13  H   UNL    20     -10.844  10.956  65.458  1.00  0.00     0.000 HD 
ENDROOT
BRANCH  12  14
HETATM   14  C   UNL    20      -9.083   8.216  66.240  1.00  0.00    -0.185 C  
HETATM   15  O   UNL    20      -9.655   8.248  67.525  1.00  0.00    -0.145 OA 
HETATM   16  C   UNL    20      -9.529   6.962  68.075  1.00  0.00    -0.124 C  
HETATM   17  C   UNL    20      -9.271   6.797  65.659  1.00  0.00     0.210 C  
HETATM   18  H   UNL    20      -8.209   5.480  64.688  1.00  0.00     0.000 HD 
HETATM   19  C   UNL    20      -9.616   5.933  66.895  1.00  0.00    -0.142 C  
HETATM   20  H   UNL    20     -10.933   4.731  66.012  1.00  0.00     0.000 HD 
HETATM   21  O   UNL    20      -8.094   6.352  65.045  1.00  0.00    -0.129 OA 
HETATM   22  O   UNL    20     -10.881   5.354  66.726  1.00  0.00    -0.259 OA 
BRANCH  16  23
HETATM   23  O   UNL    20     -10.417   6.800  69.202  1.00  0.00    -0.193 OA 
BRANCH  23  24
HETATM   24  C   UNL    20     -10.058   7.270  70.522  1.00  0.00    -0.191 C  
HETATM   25  O   UNL    20      -9.346   8.487  70.396  1.00  0.00    -0.156 OA 
HETATM   26  C   UNL    20     -10.159   9.575  69.967  1.00  0.00    -0.242 C  
HETATM   27  H   UNL    20     -12.417   6.431  72.624  1.00  0.00     0.000 HD 
HETATM   28  C   UNL    20     -11.339   9.850  70.945  1.00  0.00    -0.370 C  
HETATM   29  O   UNL    20     -12.139  10.925  70.519  1.00  0.00    -0.309 OA 
HETATM   30  C   UNL    20     -12.163   8.585  71.140  1.00  0.00    -0.232 C  
HETATM   31  O   UNL    20     -11.740   6.293  71.972  1.00  0.00    -0.308 OA 
HETATM   32  H   UNL    20     -12.858  11.094  71.116  1.00  0.00     0.000 HD 
HETATM   33  O   UNL    20     -13.130   8.802  72.129  1.00  0.00    -0.355 OA 
HETATM   34  C   UNL    20     -11.162   7.495  71.586  1.00  0.00    -0.243 C  
HETATM   35  H   UNL    20     -13.644   8.013  72.250  1.00  0.00     0.000 HD 
BRANCH  26  36
HETATM   36  C   UNL    20      -9.266  10.841  69.938  1.00  0.00     0.637 C  
HETATM   37  O   UNL    20      -8.426  10.810  68.822  1.00  0.00    -0.135 OA 
HETATM   38  H   UNL    20      -7.878  11.586  68.804  1.00  0.00     0.000 HD 
ENDBRANCH  26  36
ENDBRANCH  23  24
ENDBRANCH  16  23
BRANCH  16  39
HETATM   39  C   UNL    20      -8.082   6.849  68.647  1.00  0.00    -0.121 C  
HETATM   40  O   UNL    20      -7.745   5.509  68.888  1.00  0.00    -0.088 OA 
HETATM   41  H   UNL    20      -6.865   5.441  69.236  1.00  0.00     0.000 HD 
ENDBRANCH  16  39
ENDBRANCH  12  14
TORSDOF 5
ENDMDL
MODEL      189
REMARK 921   NORMALIZED FREE ENERGY PREDICTED BY IDOCK:   -3.40 KCAL/MOL
REMARK 922        TOTAL FREE ENERGY PREDICTED BY IDOCK:   -5.98 KCAL/MOL
REMARK 923 INTER-LIGAND FREE ENERGY PREDICTED BY IDOCK:   -4.46 KCAL/MOL
REMARK 924 INTRA-LIGAND FREE ENERGY PREDICTED BY IDOCK:   -1.52 KCAL/MOL
REMARK 927      BINDING AFFINITY PREDICTED BY RF-SCORE:    0.00 PKD
ROOT
HETATM    1  O   HOH     4      -5.842   6.294  63.569  1.00  0.00    -0.022 OA 
HETATM    2  H2  HOH     4      -6.707   6.621  63.788  1.00  0.00     0.000 HD 
HETATM    3 NA   UNL    13      -9.674  11.854  65.651  1.00  0.00    -0.201 Na 
HETATM    4  H1  HOH     4      -5.257   7.028  63.715  1.00  0.00     0.000 HD 
HETATM    5 NA   UNL    14      -8.790   6.737  63.007  1.00  0.00    -0.320 Na 
HETATM    6 FE   UNL    15     -10.274   9.509  63.188  1.00  0.00    -0.483 Fe 
HETATM    7 FE   UNL    16      -6.344   8.173  65.455  1.00  0.00    -0.043 Fe 
HETATM    8 FE   UNL    17      -9.829   6.238  65.053  1.00  0.00    -0.349 Fe 
HETATM    9 FE   UNL    18      -5.722   6.365  66.479  1.00  0.00    -0.011 Fe 
HETATM   10 FE   UNL    19     -10.076   6.154  68.935  1.00  0.00    -0.137 Fe 
HETATM   11  O   UNL    20      -8.173   7.350  67.222  1.00  0.00    -0.113 OA 
HETATM   12  C   UNL    20      -7.325   8.183  67.968  1.00  0.00    -0.096 C  
HETATM   13  H   UNL    20      -7.861   7.121  66.354  1.00  0.00     0.000 HD 
ENDROOT
BRANCH  12  14
HETATM   14  C   UNL    20      -7.831   8.557  69.380  1.00  0.00    -0.098 C  
HETATM   15  O   UNL    20      -8.402   7.442  70.021  1.00  0.00    -0.132 OA 
HETATM   16  C   UNL    20      -8.455   7.728  71.395  1.00  0.00    -0.116 C  
HETATM   17  C   UNL    20      -6.840   9.227  70.357  1.00  0.00    -0.075 C  
HETATM   18  H   UNL    20      -6.382  11.031  70.941  1.00  0.00     0.000 HD 
HETATM   19  C   UNL    20      -7.227   8.641  71.736  1.00  0.00    -0.080 C  
HETATM   20  H   UNL    20      -5.388   8.509  72.486  1.00  0.00     0.000 HD 
HETATM   21  O   UNL    20      -6.991  10.619  70.340  1.00  0.00    -0.276 OA 
HETATM   22  O   UNL    20      -6.132   7.956  72.279  1.00  0.00    -0.039 OA 
BRANCH  16  23
HETATM   23  O   UNL    20      -8.653   6.521  72.161  1.00  0.00    -0.124 OA 
BRANCH  23  24
HETATM   24  C   UNL    20      -9.264   5.346  71.578  1.00  0.00    -0.146 C  
HETATM   25  O   UNL    20      -8.253   4.398  71.293  1.00  0.00    -0.080 OA 
HETATM   26  C   UNL    20      -7.681   3.816  72.460  1.00  0.00    -0.068 C  
HETATM   27  H   UNL    20     -12.222   4.920  72.903  1.00  0.00     0.000 HD 
HETATM   28  C   UNL    20      -8.742   3.084  73.334  1.00  0.00    -0.077 C  
HETATM   29  O   UNL    20      -8.173   2.510  74.485  1.00  0.00    -0.064 OA 
HETATM   30  C   UNL    20      -9.874   4.037  73.688  1.00  0.00    -0.115 C  
HETATM   31  O   UNL    20     -11.534   5.377  72.433  1.00  0.00    -0.235 OA 
HETATM   32  H   UNL    20      -8.820   2.063  75.018  1.00  0.00     0.000 HD 
HETATM   33  O   UNL    20     -10.890   3.334  74.347  1.00  0.00    -0.161 OA 
HETATM   34  C   UNL    20     -10.387   4.601  72.343  1.00  0.00    -0.199 C  
HETATM   35  H   UNL    20     -11.597   3.929  74.568  1.00  0.00     0.000 HD 
BRANCH  26  36
HETATM   36  C   UNL    20      -6.645   2.761  71.995  1.00  0.00    -0.015 C  
HETATM   37  O   UNL    20      -5.488   2.848  72.774  1.00  0.00     0.000 OA 
HETATM   38  H   UNL    20      -4.853   2.201  72.489  1.00  0.00     0.000 HD 
ENDBRANCH  26  36
ENDBRANCH  23  24
ENDBRANCH  16  23
BRANCH  16  39
HETATM   39  C   UNL    20      -9.726   8.601  71.632  1.00  0.00    -0.278 C  
HETATM   40  O   UNL    20     -10.331   8.279  72.855  1.00  0.00    -0.302 OA 
HETATM   41  H   UNL    20     -11.105   8.810  72.998  1.00  0.00     0.000 HD 
ENDBRANCH  16  39
ENDBRANCH  12  14
TORSDOF 5
ENDMDL
MODEL      190
REMARK 921   NORMALIZED FREE ENERGY PREDICTED BY IDOCK:   -3.34 KCAL/MOL
REMARK 922        TOTAL FREE ENERGY PREDICTED BY IDOCK:   -5.91 KCAL/MOL
REMARK 923 INTER-LIGAND FREE ENERGY PREDICTED BY IDOCK:   -4.88 KCAL/MOL
REMARK 924 INTRA-LIGAND FREE ENERGY PREDICTED BY IDOCK:   -1.03 KCAL/MOL
REMARK 927      BINDING AFFINITY PREDICTED BY RF-SCORE:    0.00 PKD
ROOT
HETATM    1  O   HOH     4     -10.934  16.301  68.373  1.00  0.00    -0.320 OA 
HETATM    2  H2  HOH     4     -11.187  15.386  68.398  1.00  0.00     0.000 HD 
HETATM    3 NA   UNL    13     -10.221  10.088  71.664  1.00  0.00    -0.230 Na 
HETATM    4  H1  HOH     4     -10.307  16.402  69.079  1.00  0.00     0.000 HD 
HETATM    5 NA   UNL    14     -12.978  14.060  68.412  1.00  0.00    -0.511 Na 
HETATM    6 FE   UNL    15     -13.043  11.701  70.496  1.00  0.00    -0.262 Fe 
HETATM    7 FE   UNL    16      -9.311  14.275  69.149  1.00  0.00    -0.185 Fe 
HETATM    8 FE   UNL    17     -12.106  12.484  66.906  1.00  0.00    -0.319 Fe 
HETATM    9 FE   UNL    18      -8.580  15.008  67.244  1.00  0.00    -0.142 Fe 
HETATM   10 FE   UNL    19      -9.245  10.508  65.160  1.00  0.00    -0.154 Fe 
HETATM   11  O   UNL    20      -9.191  12.334  67.316  1.00  0.00    -0.174 OA 
HETATM   12  C   UNL    20      -7.921  12.323  67.911  1.00  0.00    -0.152 C  
HETATM   13  H   UNL    20      -9.741  13.077  67.538  1.00  0.00     0.000 HD 
ENDROOT
BRANCH  12  14
HETATM   14  C   UNL    20      -7.026  11.114  67.551  1.00  0.00    -0.088 C  
HETATM   15  O   UNL    20      -7.618   9.908  67.967  1.00  0.00    -0.085 OA 
HETATM   16  C   UNL    20      -6.990   8.866  67.266  1.00  0.00    -0.078 C  
HETATM   17  C   UNL    20      -6.573  10.954  66.083  1.00  0.00    -0.108 C  
HETATM   18  H   UNL    20      -5.012  11.386  64.996  1.00  0.00     0.000 HD 
HETATM   19  C   UNL    20      -6.581   9.423  65.859  1.00  0.00    -0.076 C  
HETATM   20  H   UNL    20      -7.229   9.440  63.977  1.00  0.00     0.000 HD 
HETATM   21  O   UNL    20      -5.290  11.485  65.898  1.00  0.00    -0.285 OA 
HETATM   22  O   UNL    20      -7.476   9.103  64.830  1.00  0.00    -0.102 OA 
BRANCH  16  23
HETATM   23  O   UNL    20      -7.778   7.659  67.330  1.00  0.00    -0.112 OA 
BRANCH  23  24
HETATM   24  C   UNL    20      -7.161   6.351  67.348  1.00  0.00    -0.082 C  
HETATM   25  O   UNL    20      -7.834   5.540  68.293  1.00  0.00    -0.087 OA 
HETATM   26  C   UNL    20      -9.151   5.178  67.889  1.00  0.00    -0.112 C  
HETATM   27  H   UNL    20      -6.117   5.629  64.335  1.00  0.00     0.000 HD 
HETATM   28  C   UNL    20      -9.160   4.393  66.545  1.00  0.00    -0.123 C  
HETATM   29  O   UNL    20     -10.461   4.036  66.150  1.00  0.00    -0.384 OA 
HETATM   30  C   UNL    20      -8.451   5.197  65.465  1.00  0.00    -0.138 C  
HETATM   31  O   UNL    20      -6.183   6.132  65.139  1.00  0.00    -0.032 OA 
HETATM   32  H   UNL    20     -10.467   3.557  65.330  1.00  0.00     0.000 HD 
HETATM   33  O   UNL    20      -8.336   4.425  64.303  1.00  0.00    -0.100 OA 
HETATM   34  C   UNL    20      -7.054   5.532  66.037  1.00  0.00    -0.068 C  
HETATM   35  H   UNL    20      -7.893   4.927  63.629  1.00  0.00     0.000 HD 
BRANCH  26  36
HETATM   36  C   UNL    20      -9.734   4.247  68.982  1.00  0.00    -0.139 C  
HETATM   37  O   UNL    20      -9.551   4.817  70.245  1.00  0.00    -0.163 OA 
HETATM   38  H   UNL    20      -9.909   4.246  70.916  1.00  0.00     0.000 HD 
ENDBRANCH  26  36
ENDBRANCH  23  24
ENDBRANCH  16  23
BRANCH  16  39
HETATM   39  C   UNL    20      -5.658   8.550  68.014  1.00  0.00    -0.035 C  
HETATM   40  O   UNL    20      -5.907   8.192  69.346  1.00  0.00    -0.029 OA 
HETATM   41  H   UNL    20      -5.097   7.999  69.801  1.00  0.00     0.000 HD 
ENDBRANCH  16  39
ENDBRANCH  12  14
TORSDOF 5
ENDMDL
MODEL      191
REMARK 921   NORMALIZED FREE ENERGY PREDICTED BY IDOCK:   -3.34 KCAL/MOL
REMARK 922        TOTAL FREE ENERGY PREDICTED BY IDOCK:   -5.91 KCAL/MOL
REMARK 923 INTER-LIGAND FREE ENERGY PREDICTED BY IDOCK:   -4.77 KCAL/MOL
REMARK 924 INTRA-LIGAND FREE ENERGY PREDICTED BY IDOCK:   -1.14 KCAL/MOL
REMARK 927      BINDING AFFINITY PREDICTED BY RF-SCORE:    0.00 PKD
ROOT
HETATM    1  O   HOH     4     -11.244  12.480  64.678  1.00  0.00    -0.292 OA 
HETATM    2  H2  HOH     4     -10.500  11.906  64.535  1.00  0.00     0.000 HD 
HETATM    3 NA   UNL    13      -8.703   5.907  65.206  1.00  0.00    -0.129 Na 
HETATM    4  H1  HOH     4     -11.907  11.930  65.078  1.00  0.00     0.000 HD 
HETATM    5 NA   UNL    14      -9.041  11.278  62.972  1.00  0.00    -0.190 Na 
HETATM    6 FE   UNL    15      -8.491   8.197  62.629  1.00  0.00    -0.151 Fe 
HETATM    7 FE   UNL    16     -10.597  10.377  66.259  1.00  0.00    -0.218 Fe 
HETATM    8 FE   UNL    17      -7.171  11.284  64.391  1.00  0.00    -0.340 Fe 
HETATM    9 FE   UNL    18     -10.196  12.189  67.381  1.00  0.00    -0.187 Fe 
HETATM   10 FE   UNL    19      -5.368  10.953  67.823  1.00  0.00    -0.040 Fe 
HETATM   11  O   UNL    20      -8.058  10.494  67.088  1.00  0.00    -0.117 OA 
HETATM   12  C   UNL    20      -8.737   9.871  68.147  1.00  0.00    -0.122 C  
HETATM   13  H   UNL    20      -8.611  10.878  66.417  1.00  0.00     0.000 HD 
ENDROOT
BRANCH  12  14
HETATM   14  C   UNL    20      -7.837   9.248  69.239  1.00  0.00    -0.085 C  
HETATM   15  O   UNL    20      -8.612   8.597  70.216  1.00  0.00    -0.127 OA 
HETATM   16  C   UNL    20      -7.760   7.729  70.919  1.00  0.00    -0.087 C  
HETATM   17  C   UNL    20      -6.707   8.292  68.796  1.00  0.00    -0.058 C  
HETATM   18  H   UNL    20      -4.793   8.386  68.433  1.00  0.00     0.000 HD 
HETATM   19  C   UNL    20      -6.668   7.224  69.914  1.00  0.00    -0.051 C  
HETATM   20  H   UNL    20      -6.265   5.654  68.758  1.00  0.00     0.000 HD 
HETATM   21  O   UNL    20      -5.488   8.973  68.705  1.00  0.00    -0.040 OA 
HETATM   22  O   UNL    20      -6.927   5.960  69.367  1.00  0.00    -0.059 OA 
BRANCH  16  23
HETATM   23  O   UNL    20      -8.524   6.753  71.658  1.00  0.00    -0.115 OA 
BRANCH  23  24
HETATM   24  C   UNL    20      -9.802   6.272  71.182  1.00  0.00    -0.180 C  
HETATM   25  O   UNL    20      -9.599   5.071  70.460  1.00  0.00    -0.160 OA 
HETATM   26  C   UNL    20      -9.224   3.973  71.286  1.00  0.00    -0.131 C  
HETATM   27  H   UNL    20     -12.107   7.036  73.371  1.00  0.00     0.000 HD 
HETATM   28  C   UNL    20     -10.293   3.662  72.374  1.00  0.00    -0.099 C  
HETATM   29  O   UNL    20      -9.919   2.577  73.187  1.00  0.00    -0.102 OA 
HETATM   30  C   UNL    20     -10.574   4.907  73.202  1.00  0.00    -0.220 C  
HETATM   31  O   UNL    20     -11.402   7.196  72.754  1.00  0.00    -0.284 OA 
HETATM   32  H   UNL    20     -10.571   2.386  73.850  1.00  0.00     0.000 HD 
HETATM   33  O   UNL    20     -11.638   4.658  74.078  1.00  0.00    -0.235 OA 
HETATM   34  C   UNL    20     -10.951   6.011  72.188  1.00  0.00    -0.267 C  
HETATM   35  H   UNL    20     -11.814   5.435  74.595  1.00  0.00     0.000 HD 
BRANCH  26  36
HETATM   36  C   UNL    20      -9.101   2.726  70.375  1.00  0.00    -0.114 C  
HETATM   37  O   UNL    20      -9.632   3.000  69.112  1.00  0.00    -0.145 OA 
HETATM   38  H   UNL    20      -9.557   2.235  68.553  1.00  0.00     0.000 HD 
ENDBRANCH  26  36
ENDBRANCH  23  24
ENDBRANCH  16  23
BRANCH  16  39
HETATM   39  C   UNL    20      -7.010   8.586  71.984  1.00  0.00    -0.087 C  
HETATM   40  O   UNL    20      -7.669   8.532  73.221  1.00  0.00    -0.339 OA 
HETATM   41  H   UNL    20      -7.212   9.053  73.869  1.00  0.00     0.000 HD 
ENDBRANCH  16  39
ENDBRANCH  12  14
TORSDOF 5
ENDMDL
MODEL      192
REMARK 921   NORMALIZED FREE ENERGY PREDICTED BY IDOCK:   -3.34 KCAL/MOL
REMARK 922        TOTAL FREE ENERGY PREDICTED BY IDOCK:   -5.90 KCAL/MOL
REMARK 923 INTER-LIGAND FREE ENERGY PREDICTED BY IDOCK:   -6.43 KCAL/MOL
REMARK 924 INTRA-LIGAND FREE ENERGY PREDICTED BY IDOCK:    0.53 KCAL/MOL
REMARK 927      BINDING AFFINITY PREDICTED BY RF-SCORE:    0.00 PKD
ROOT
HETATM    1  O   HOH     4     -13.121  15.570  69.900  1.00  0.00    -0.586 OA 
HETATM    2  H2  HOH     4     -12.304  15.681  69.428  1.00  0.00     0.000 HD 
HETATM    3 NA   UNL    13      -9.299  13.746  64.242  1.00  0.00    -0.549 Na 
HETATM    4  H1  HOH     4     -13.609  14.927  69.399  1.00  0.00     0.000 HD 
HETATM    5 NA   UNL    14     -10.956  17.248  68.595  1.00  0.00    -0.295 Na 
HETATM    6 FE   UNL    15      -9.861  16.839  65.671  1.00  0.00    -0.269 Fe 
HETATM    7 FE   UNL    16     -11.884  13.620  68.483  1.00  0.00    -0.240 Fe 
HETATM    8 FE   UNL    17      -8.961  16.234  69.304  1.00  0.00    -0.194 Fe 
HETATM    9 FE   UNL    18     -11.709  13.116  70.585  1.00  0.00    -0.287 Fe 
HETATM   10 FE   UNL    19      -6.716  13.210  70.282  1.00  0.00    -0.263 Fe 
HETATM   11  O   UNL    20      -9.335  13.311  69.224  1.00  0.00    -0.108 OA 
HETATM   12  C   UNL    20      -9.741  12.023  68.847  1.00  0.00     0.088 C  
HETATM   13  H   UNL    20     -10.031  13.953  69.303  1.00  0.00     0.000 HD 
ENDROOT
BRANCH  12  14
HETATM   14  C   UNL    20      -8.608  10.978  68.719  1.00  0.00    -0.144 C  
HETATM   15  O   UNL    20      -8.660  10.048  69.773  1.00  0.00    -0.186 OA 
HETATM   16  C   UNL    20      -7.904   8.930  69.385  1.00  0.00    -0.098 C  
HETATM   17  C   UNL    20      -8.479  10.201  67.390  1.00  0.00    -0.122 C  
HETATM   18  H   UNL    20      -7.441  10.317  65.742  1.00  0.00     0.000 HD 
HETATM   19  C   UNL    20      -8.036   8.786  67.830  1.00  0.00    -0.107 C  
HETATM   20  H   UNL    20      -9.069   7.758  66.474  1.00  0.00     0.000 HD 
HETATM   21  O   UNL    20      -7.520  10.795  66.559  1.00  0.00    -0.126 OA 
HETATM   22  O   UNL    20      -8.989   7.845  67.417  1.00  0.00    -0.126 OA 
BRANCH  16  23
HETATM   23  O   UNL    20      -8.216   7.791  70.215  1.00  0.00    -0.121 OA 
BRANCH  23  24
HETATM   24  C   UNL    20      -9.489   7.109  70.118  1.00  0.00    -0.161 C  
HETATM   25  O   UNL    20      -9.495   6.022  71.024  1.00  0.00    -0.166 OA 
HETATM   26  C   UNL    20      -9.544   6.425  72.389  1.00  0.00    -0.146 C  
HETATM   27  H   UNL    20     -11.821   9.303  69.462  1.00  0.00     0.000 HD 
HETATM   28  C   UNL    20     -10.808   7.276  72.708  1.00  0.00    -0.314 C  
HETATM   29  O   UNL    20     -10.853   7.671  74.056  1.00  0.00    -0.408 OA 
HETATM   30  C   UNL    20     -10.881   8.474  71.772  1.00  0.00    -0.304 C  
HETATM   31  O   UNL    20     -11.015   8.820  69.325  1.00  0.00    -0.132 OA 
HETATM   32  H   UNL    20     -11.625   8.190  74.250  1.00  0.00     0.000 HD 
HETATM   33  O   UNL    20     -12.092   9.149  71.968  1.00  0.00    -0.367 OA 
HETATM   34  C   UNL    20     -10.804   7.897  70.340  1.00  0.00    -0.244 C  
HETATM   35  H   UNL    20     -12.138   9.897  71.384  1.00  0.00     0.000 HD 
BRANCH  26  36
HETATM   36  C   UNL    20      -9.611   5.140  73.253  1.00  0.00    -0.141 C  
HETATM   37  O   UNL    20      -9.034   5.373  74.504  1.00  0.00    -0.116 OA 
HETATM   38  H   UNL    20      -9.075   4.585  75.034  1.00  0.00     0.000 HD 
ENDBRANCH  26  36
ENDBRANCH  23  24
ENDBRANCH  16  23
BRANCH  16  39
HETATM   39  C   UNL    20      -6.407   9.269  69.667  1.00  0.00    -0.039 C  
HETATM   40  O   UNL    20      -6.299  10.275  70.637  1.00  0.00    -0.163 OA 
HETATM   41  H   UNL    20      -5.388  10.482  70.808  1.00  0.00     0.000 HD 
ENDBRANCH  16  39
ENDBRANCH  12  14
TORSDOF 5
ENDMDL
MODEL      193
REMARK 921   NORMALIZED FREE ENERGY PREDICTED BY IDOCK:   -3.32 KCAL/MOL
REMARK 922        TOTAL FREE ENERGY PREDICTED BY IDOCK:   -5.87 KCAL/MOL
REMARK 923 INTER-LIGAND FREE ENERGY PREDICTED BY IDOCK:   -5.74 KCAL/MOL
REMARK 924 INTRA-LIGAND FREE ENERGY PREDICTED BY IDOCK:   -0.14 KCAL/MOL
REMARK 927      BINDING AFFINITY PREDICTED BY RF-SCORE:    0.00 PKD
ROOT
HETATM    1  O   HOH     4     -11.921  17.019  72.762  1.00  0.00    -0.313 OA 
HETATM    2  H2  HOH     4     -12.274  16.211  72.406  1.00  0.00     0.000 HD 
HETATM    3 NA   UNL    13     -10.975  10.071  71.885  1.00  0.00    -0.314 Na 
HETATM    4  H1  HOH     4     -11.081  16.778  73.134  1.00  0.00     0.000 HD 
HETATM    5 NA   UNL    14     -14.114  14.954  72.393  1.00  0.00    -0.342 Na 
HETATM    6 FE   UNL    15     -13.777  11.854  72.832  1.00  0.00    -0.583 Fe 
HETATM    7 FE   UNL    16     -10.425  15.006  71.737  1.00  0.00    -0.490 Fe 
HETATM    8 FE   UNL    17     -14.040  14.468  70.097  1.00  0.00    -0.499 Fe 
HETATM    9 FE   UNL    18     -10.305  16.679  70.362  1.00  0.00    -0.215 Fe 
HETATM   10 FE   UNL    19     -12.259  13.908  66.683  1.00  0.00    -0.326 Fe 
HETATM   11  O   UNL    20     -11.214  14.329  69.275  1.00  0.00    -0.255 OA 
HETATM   12  C   UNL    20      -9.830  14.097  69.268  1.00  0.00     0.180 C  
HETATM   13  H   UNL    20     -11.545  14.805  70.028  1.00  0.00     0.000 HD 
ENDROOT
BRANCH  12  14
HETATM   14  C   UNL    20      -9.290  13.323  68.043  1.00  0.00    -0.218 C  
HETATM   15  O   UNL    20      -8.674  12.122  68.438  1.00  0.00    -0.176 OA 
HETATM   16  C   UNL    20      -8.586  11.300  67.303  1.00  0.00    -0.143 C  
HETATM   17  C   UNL    20     -10.267  13.013  66.887  1.00  0.00    -0.244 C  
HETATM   18  H   UNL    20     -10.751  13.776  65.159  1.00  0.00     0.000 HD 
HETATM   19  C   UNL    20      -9.825  11.615  66.395  1.00  0.00    -0.207 C  
HETATM   20  H   UNL    20     -11.637  10.900  65.984  1.00  0.00     0.000 HD 
HETATM   21  O   UNL    20     -10.151  13.967  65.869  1.00  0.00    -0.300 OA 
HETATM   22  O   UNL    20     -10.886  10.710  66.534  1.00  0.00    -0.199 OA 
BRANCH  16  23
HETATM   23  O   UNL    20      -8.336   9.930  67.682  1.00  0.00    -0.114 OA 
BRANCH  23  24
HETATM   24  C   UNL    20      -8.210   8.881  66.694  1.00  0.00    -0.111 C  
HETATM   25  O   UNL    20      -6.891   8.370  66.735  1.00  0.00    -0.067 OA 
HETATM   26  C   UNL    20      -6.613   7.622  67.915  1.00  0.00    -0.059 C  
HETATM   27  H   UNL    20     -11.062   7.303  66.452  1.00  0.00     0.000 HD 
HETATM   28  C   UNL    20      -7.567   6.402  68.077  1.00  0.00    -0.103 C  
HETATM   29  O   UNL    20      -7.289   5.665  69.242  1.00  0.00    -0.070 OA 
HETATM   30  C   UNL    20      -9.017   6.865  68.043  1.00  0.00    -0.121 C  
HETATM   31  O   UNL    20     -10.473   8.047  66.429  1.00  0.00    -0.137 OA 
HETATM   32  H   UNL    20      -7.871   4.921  69.341  1.00  0.00     0.000 HD 
HETATM   33  O   UNL    20      -9.865   5.750  68.043  1.00  0.00    -0.119 OA 
HETATM   34  C   UNL    20      -9.172   7.668  66.731  1.00  0.00    -0.160 C  
HETATM   35  H   UNL    20     -10.770   6.039  68.021  1.00  0.00     0.000 HD 
BRANCH  26  36
HETATM   36  C   UNL    20      -5.168   7.076  67.790  1.00  0.00    -0.015 C  
HETATM   37  O   UNL    20      -5.148   5.956  66.953  1.00  0.00    -0.005 OA 
HETATM   38  H   UNL    20      -4.262   5.621  66.877  1.00  0.00     0.000 HD 
ENDBRANCH  26  36
ENDBRANCH  23  24
ENDBRANCH  16  23
BRANCH  16  39
HETATM   39  C   UNL    20      -7.330  11.761  66.501  1.00  0.00     0.104 C  
HETATM   40  O   UNL    20      -6.295  12.136  67.369  1.00  0.00    -0.113 OA 
HETATM   41  H   UNL    20      -5.530  12.417  66.881  1.00  0.00     0.000 HD 
ENDBRANCH  16  39
ENDBRANCH  12  14
TORSDOF 5
ENDMDL
MODEL      194
REMARK 921   NORMALIZED FREE ENERGY PREDICTED BY IDOCK:   -3.31 KCAL/MOL
REMARK 922        TOTAL FREE ENERGY PREDICTED BY IDOCK:   -5.87 KCAL/MOL
REMARK 923 INTER-LIGAND FREE ENERGY PREDICTED BY IDOCK:   -4.72 KCAL/MOL
REMARK 924 INTRA-LIGAND FREE ENERGY PREDICTED BY IDOCK:   -1.15 KCAL/MOL
REMARK 927      BINDING AFFINITY PREDICTED BY RF-SCORE:    0.00 PKD
ROOT
HETATM    1  O   HOH     4      -5.832   3.608  68.842  1.00  0.00    -0.021 OA 
HETATM    2  H2  HOH     4      -6.510   4.225  69.092  1.00  0.00     0.000 HD 
HETATM    3 NA   UNL    13     -12.109   6.423  67.224  1.00  0.00    -0.618 Na 
HETATM    4  H1  HOH     4      -6.127   3.238  68.019  1.00  0.00     0.000 HD 
HETATM    5 NA   UNL    14      -7.806   4.811  70.808  1.00  0.00    -0.059 Na 
HETATM    6 FE   UNL    15     -10.866   5.290  70.240  1.00  0.00    -0.227 Fe 
HETATM    7 FE   UNL    16      -7.344   5.024  67.096  1.00  0.00    -0.068 Fe 
HETATM    8 FE   UNL    17      -7.559   7.126  70.500  1.00  0.00    -0.073 Fe 
HETATM    9 FE   UNL    18      -5.326   5.813  67.007  1.00  0.00    -0.004 Fe 
HETATM   10 FE   UNL    19      -6.940  10.340  68.397  1.00  0.00    -0.062 Fe 
HETATM   11  O   UNL    20      -7.276   7.646  67.613  1.00  0.00    -0.082 OA 
HETATM   12  C   UNL    20      -7.415   7.575  66.219  1.00  0.00    -0.083 C  
HETATM   13  H   UNL    20      -7.074   6.824  68.047  1.00  0.00     0.000 HD 
ENDROOT
BRANCH  12  14
HETATM   14  C   UNL    20      -7.743   8.910  65.512  1.00  0.00    -0.088 C  
HETATM   15  O   UNL    20      -8.834   9.550  66.127  1.00  0.00    -0.142 OA 
HETATM   16  C   UNL    20      -8.814  10.896  65.727  1.00  0.00    -0.191 C  
HETATM   17  C   UNL    20      -6.607   9.943  65.340  1.00  0.00    -0.099 C  
HETATM   18  H   UNL    20      -5.333  10.475  63.962  1.00  0.00     0.000 HD 
HETATM   19  C   UNL    20      -7.315  11.306  65.523  1.00  0.00     0.490 C  
HETATM   20  H   UNL    20      -5.842  12.235  66.487  1.00  0.00     0.000 HD 
HETATM   21  O   UNL    20      -6.031   9.840  64.068  1.00  0.00    -0.097 OA 
HETATM   22  O   UNL    20      -6.750  11.986  66.610  1.00  0.00    -0.029 OA 
BRANCH  16  23
HETATM   23  O   UNL    20      -9.639  11.699  66.596  1.00  0.00    -0.195 OA 
BRANCH  23  24
HETATM   24  C   UNL    20      -9.162  12.160  67.882  1.00  0.00    -0.188 C  
HETATM   25  O   UNL    20      -9.232  13.573  67.917  1.00  0.00    -0.194 OA 
HETATM   26  C   UNL    20     -10.567  14.069  67.966  1.00  0.00    -0.247 C  
HETATM   27  H   UNL    20      -9.972   9.964  70.164  1.00  0.00     0.000 HD 
HETATM   28  C   UNL    20     -11.341  13.555  69.215  1.00  0.00    -0.262 C  
HETATM   29  O   UNL    20     -12.657  14.048  69.261  1.00  0.00    -0.448 OA 
HETATM   30  C   UNL    20     -11.314  12.034  69.257  1.00  0.00    -0.268 C  
HETATM   31  O   UNL    20      -9.567  10.285  69.367  1.00  0.00    -0.213 OA 
HETATM   32  H   UNL    20     -13.130  13.735  70.023  1.00  0.00     0.000 HD 
HETATM   33  O   UNL    20     -11.884  11.587  70.455  1.00  0.00    -0.364 OA 
HETATM   34  C   UNL    20      -9.822  11.637  69.182  1.00  0.00     0.169 C  
HETATM   35  H   UNL    20     -11.867  10.637  70.481  1.00  0.00     0.000 HD 
BRANCH  26  36
HETATM   36  C   UNL    20     -10.485  15.614  68.066  1.00  0.00    -0.263 C  
HETATM   37  O   UNL    20     -10.265  15.998  69.391  1.00  0.00    -0.236 OA 
HETATM   38  H   UNL    20     -10.215  16.945  69.452  1.00  0.00     0.000 HD 
ENDBRANCH  26  36
ENDBRANCH  23  24
ENDBRANCH  16  23
BRANCH  16  39
HETATM   39  C   UNL    20      -9.480  10.964  64.318  1.00  0.00    -0.250 C  
HETATM   40  O   UNL    20     -10.862  10.747  64.409  1.00  0.00    -0.303 OA 
HETATM   41  H   UNL    20     -11.267  10.788  63.551  1.00  0.00     0.000 HD 
ENDBRANCH  16  39
ENDBRANCH  12  14
TORSDOF 5
ENDMDL
MODEL      195
REMARK 921   NORMALIZED FREE ENERGY PREDICTED BY IDOCK:   -3.30 KCAL/MOL
REMARK 922        TOTAL FREE ENERGY PREDICTED BY IDOCK:   -5.86 KCAL/MOL
REMARK 923 INTER-LIGAND FREE ENERGY PREDICTED BY IDOCK:   -4.88 KCAL/MOL
REMARK 924 INTRA-LIGAND FREE ENERGY PREDICTED BY IDOCK:   -0.98 KCAL/MOL
REMARK 927      BINDING AFFINITY PREDICTED BY RF-SCORE:    0.00 PKD
ROOT
HETATM    1  O   HOH     4     -12.894  12.744  63.021  1.00  0.00    -0.534 OA 
HETATM    2  H2  HOH     4     -12.643  12.964  63.911  1.00  0.00     0.000 HD 
HETATM    3 NA   UNL    13      -7.916  15.488  67.221  1.00  0.00    -0.119 Na 
HETATM    4  H1  HOH     4     -12.143  12.979  62.489  1.00  0.00     0.000 HD 
HETATM    5 NA   UNL    14     -13.360  14.048  65.721  1.00  0.00    -0.497 Na 
HETATM    6 FE   UNL    15     -11.336  15.969  67.180  1.00  0.00    -0.320 Fe 
HETATM    7 FE   UNL    16     -10.362  12.625  63.981  1.00  0.00    -0.278 Fe 
HETATM    8 FE   UNL    17     -12.659  12.417  67.257  1.00  0.00    -0.272 Fe 
HETATM    9 FE   UNL    18     -11.038  10.590  63.658  1.00  0.00    -0.512 Fe 
HETATM   10 FE   UNL    19     -10.386   9.513  68.500  1.00  0.00    -0.162 Fe 
HETATM   11  O   UNL    20     -10.207  11.159  66.210  1.00  0.00    -0.224 OA 
HETATM   12  C   UNL    20      -8.972  10.954  65.578  1.00  0.00    -0.197 C  
HETATM   13  H   UNL    20     -10.867  11.599  65.686  1.00  0.00     0.000 HD 
ENDROOT
BRANCH  12  14
HETATM   14  C   UNL    20      -7.898  10.239  66.430  1.00  0.00    -0.119 C  
HETATM   15  O   UNL    20      -8.456   9.163  67.143  1.00  0.00    -0.119 OA 
HETATM   16  C   UNL    20      -7.399   8.331  67.546  1.00  0.00    -0.093 C  
HETATM   17  C   UNL    20      -6.616   9.744  65.723  1.00  0.00    -0.088 C  
HETATM   18  H   UNL    20      -4.791  10.368  65.433  1.00  0.00     0.000 HD 
HETATM   19  C   UNL    20      -6.283   8.419  66.448  1.00  0.00    -0.053 C  
HETATM   20  H   UNL    20      -5.621   7.415  64.862  1.00  0.00     0.000 HD 
HETATM   21  O   UNL    20      -5.579  10.673  65.867  1.00  0.00    -0.092 OA 
HETATM   22  O   UNL    20      -6.296   7.363  65.528  1.00  0.00    -0.040 OA 
BRANCH  16  23
HETATM   23  O   UNL    20      -7.891   7.030  67.931  1.00  0.00    -0.110 OA 
BRANCH  23  24
HETATM   24  C   UNL    20      -6.990   5.947  68.260  1.00  0.00    -0.072 C  
HETATM   25  O   UNL    20      -6.817   5.906  69.664  1.00  0.00    -0.056 OA 
HETATM   26  C   UNL    20      -7.980   5.471  70.363  1.00  0.00    -0.102 C  
HETATM   27  H   UNL    20      -7.445   3.506  66.134  1.00  0.00     0.000 HD 
HETATM   28  C   UNL    20      -8.429   4.045  69.930  1.00  0.00    -0.060 C  
HETATM   29  O   UNL    20      -9.576   3.619  70.623  1.00  0.00    -0.167 OA 
HETATM   30  C   UNL    20      -8.638   3.998  68.423  1.00  0.00    -0.095 C  
HETATM   31  O   UNL    20      -7.243   4.390  66.417  1.00  0.00    -0.073 OA 
HETATM   32  H   UNL    20      -9.850   2.749  70.359  1.00  0.00     0.000 HD 
HETATM   33  O   UNL    20      -8.899   2.681  68.026  1.00  0.00    -0.097 OA 
HETATM   34  C   UNL    20      -7.318   4.505  67.798  1.00  0.00    -0.069 C  
HETATM   35  H   UNL    20      -9.029   2.652  67.086  1.00  0.00     0.000 HD 
BRANCH  26  36
HETATM   36  C   UNL    20      -7.623   5.415  71.870  1.00  0.00    -0.098 C  
HETATM   37  O   UNL    20      -6.622   6.346  72.162  1.00  0.00    -0.060 OA 
HETATM   38  H   UNL    20      -6.403   6.312  73.086  1.00  0.00     0.000 HD 
ENDBRANCH  26  36
ENDBRANCH  23  24
ENDBRANCH  16  23
BRANCH  16  39
HETATM   39  C   UNL    20      -6.790   8.960  68.838  1.00  0.00    -0.061 C  
HETATM   40  O   UNL    20      -5.398   8.789  68.866  1.00  0.00    -0.035 OA 
HETATM   41  H   UNL    20      -5.028   9.172  69.652  1.00  0.00     0.000 HD 
ENDBRANCH  16  39
ENDBRANCH  12  14
TORSDOF 5
ENDMDL
MODEL      196
REMARK 921   NORMALIZED FREE ENERGY PREDICTED BY IDOCK:   -3.30 KCAL/MOL
REMARK 922        TOTAL FREE ENERGY PREDICTED BY IDOCK:   -5.85 KCAL/MOL
REMARK 923 INTER-LIGAND FREE ENERGY PREDICTED BY IDOCK:   -5.33 KCAL/MOL
REMARK 924 INTRA-LIGAND FREE ENERGY PREDICTED BY IDOCK:   -0.52 KCAL/MOL
REMARK 927      BINDING AFFINITY PREDICTED BY RF-SCORE:    0.00 PKD
ROOT
HETATM    1  O   HOH     4     -12.054  14.249  68.368  1.00  0.00    -0.500 OA 
HETATM    2  H2  HOH     4     -11.606  14.204  67.531  1.00  0.00     0.000 HD 
HETATM    3 NA   UNL    13     -11.065  10.573  62.414  1.00  0.00    -0.734 Na 
HETATM    4  H1  HOH     4     -12.561  13.447  68.419  1.00  0.00     0.000 HD 
HETATM    5 NA   UNL    14     -11.207  15.391  65.688  1.00  0.00    -0.308 Na 
HETATM    6 FE   UNL    15     -11.565  13.954  62.910  1.00  0.00    -0.604 Fe 
HETATM    7 FE   UNL    16     -11.231  11.956  67.183  1.00  0.00    -0.216 Fe 
HETATM    8 FE   UNL    17      -8.943  14.792  65.517  1.00  0.00    -0.418 Fe 
HETATM    9 FE   UNL    18      -9.973  12.286  68.919  1.00  0.00    -0.197 Fe 
HETATM   10 FE   UNL    19      -5.886  12.442  66.038  1.00  0.00    -0.186 Fe 
HETATM   11  O   UNL    20      -8.639  12.042  66.533  1.00  0.00    -0.286 OA 
HETATM   12  C   UNL    20      -8.873  10.692  66.836  1.00  0.00    -0.138 C  
HETATM   13  H   UNL    20      -9.340  12.641  66.766  1.00  0.00     0.000 HD 
ENDROOT
BRANCH  12  14
HETATM   14  C   UNL    20      -7.733   9.718  66.457  1.00  0.00    -0.105 C  
HETATM   15  O   UNL    20      -7.949   8.448  67.023  1.00  0.00    -0.098 OA 
HETATM   16  C   UNL    20      -7.140   7.535  66.327  1.00  0.00    -0.070 C  
HETATM   17  C   UNL    20      -7.396   9.535  64.961  1.00  0.00    -0.110 C  
HETATM   18  H   UNL    20      -6.112  10.237  63.671  1.00  0.00     0.000 HD 
HETATM   19  C   UNL    20      -7.027   8.037  64.846  1.00  0.00    -0.063 C  
HETATM   20  H   UNL    20      -7.833   7.708  63.057  1.00  0.00     0.000 HD 
HETATM   21  O   UNL    20      -6.320  10.350  64.591  1.00  0.00    -0.127 OA 
HETATM   22  O   UNL    20      -7.902   7.404  63.954  1.00  0.00    -0.126 OA 
BRANCH  16  23
HETATM   23  O   UNL    20      -7.578   6.180  66.567  1.00  0.00    -0.091 OA 
BRANCH  23  24
HETATM   24  C   UNL    20      -6.737   5.223  67.252  1.00  0.00    -0.055 C  
HETATM   25  O   UNL    20      -7.167   5.118  68.597  1.00  0.00    -0.060 OA 
HETATM   26  C   UNL    20      -8.429   4.472  68.737  1.00  0.00    -0.084 C  
HETATM   27  H   UNL    20      -5.855   2.884  65.146  1.00  0.00     0.000 HD 
HETATM   28  C   UNL    20      -8.418   3.025  68.160  1.00  0.00    -0.082 C  
HETATM   29  O   UNL    20      -9.664   2.391  68.301  1.00  0.00    -0.218 OA 
HETATM   30  C   UNL    20      -7.963   3.046  66.708  1.00  0.00    -0.080 C  
HETATM   31  O   UNL    20      -5.937   3.768  65.484  1.00  0.00    -0.022 OA 
HETATM   32  H   UNL    20      -9.657   1.508  67.949  1.00  0.00     0.000 HD 
HETATM   33  O   UNL    20      -7.816   1.733  66.244  1.00  0.00    -0.069 OA 
HETATM   34  C   UNL    20      -6.603   3.781  66.702  1.00  0.00    -0.042 C  
HETATM   35  H   UNL    20      -7.532   1.746  65.337  1.00  0.00     0.000 HD 
BRANCH  26  36
HETATM   36  C   UNL    20      -8.736   4.372  70.253  1.00  0.00    -0.081 C  
HETATM   37  O   UNL    20      -7.821   5.139  70.979  1.00  0.00    -0.092 OA 
HETATM   38  H   UNL    20      -8.009   5.078  71.908  1.00  0.00     0.000 HD 
ENDBRANCH  26  36
ENDBRANCH  23  24
ENDBRANCH  16  23
BRANCH  16  39
HETATM   39  C   UNL    20      -5.707   7.638  66.933  1.00  0.00    -0.032 C  
HETATM   40  O   UNL    20      -5.634   8.682  67.865  1.00  0.00    -0.035 OA 
HETATM   41  H   UNL    20      -4.761   8.745  68.235  1.00  0.00     0.000 HD 
ENDBRANCH  16  39
ENDBRANCH  12  14
TORSDOF 5
ENDMDL
MODEL      197
REMARK 921   NORMALIZED FREE ENERGY PREDICTED BY IDOCK:   -3.26 KCAL/MOL
REMARK 922        TOTAL FREE ENERGY PREDICTED BY IDOCK:   -5.80 KCAL/MOL
REMARK 923 INTER-LIGAND FREE ENERGY PREDICTED BY IDOCK:   -5.14 KCAL/MOL
REMARK 924 INTRA-LIGAND FREE ENERGY PREDICTED BY IDOCK:   -0.65 KCAL/MOL
REMARK 927      BINDING AFFINITY PREDICTED BY RF-SCORE:    0.00 PKD
ROOT
HETATM    1  O   HOH     4      -8.798  16.125  65.693  1.00  0.00    -0.329 OA 
HETATM    2  H2  HOH     4      -9.256  15.306  65.545  1.00  0.00     0.000 HD 
HETATM    3 NA   UNL    13     -12.761  11.005  68.524  1.00  0.00    -0.259 Na 
HETATM    4  H1  HOH     4      -8.915  16.309  66.618  1.00  0.00     0.000 HD 
HETATM    5 NA   UNL    14     -10.749  14.348  64.196  1.00  0.00    -0.450 Na 
HETATM    6 FE   UNL    15     -13.070  12.685  65.523  1.00  0.00    -0.450 Fe 
HETATM    7 FE   UNL    16      -9.044  14.145  67.526  1.00  0.00    -0.159 Fe 
HETATM    8 FE   UNL    17      -9.613  12.302  64.015  1.00  0.00    -0.287 Fe 
HETATM    9 FE   UNL    18      -6.969  14.204  66.897  1.00  0.00    -0.204 Fe 
HETATM   10 FE   UNL    19      -7.239   9.483  65.264  1.00  0.00    -0.086 Fe 
HETATM   11  O   UNL    20      -8.227  11.788  66.566  1.00  0.00    -0.286 OA 
HETATM   12  C   UNL    20      -7.914  11.729  67.932  1.00  0.00    -0.141 C  
HETATM   13  H   UNL    20      -8.485  12.644  66.241  1.00  0.00     0.000 HD 
ENDROOT
BRANCH  12  14
HETATM   14  C   UNL    20      -7.495  10.337  68.460  1.00  0.00    -0.084 C  
HETATM   15  O   UNL    20      -8.244   9.319  67.842  1.00  0.00    -0.114 OA 
HETATM   16  C   UNL    20      -7.555   8.111  68.041  1.00  0.00    -0.106 C  
HETATM   17  C   UNL    20      -6.001   9.952  68.396  1.00  0.00    -0.042 C  
HETATM   18  H   UNL    20      -4.453   9.958  69.583  1.00  0.00     0.000 HD 
HETATM   19  C   UNL    20      -6.023   8.440  68.070  1.00  0.00    -0.043 C  
HETATM   20  H   UNL    20      -4.432   8.409  66.875  1.00  0.00     0.000 HD 
HETATM   21  O   UNL    20      -5.372  10.196  69.623  1.00  0.00    -0.038 OA 
HETATM   22  O   UNL    20      -5.360   8.210  66.857  1.00  0.00    -0.031 OA 
BRANCH  16  23
HETATM   23  O   UNL    20      -8.029   7.098  67.128  1.00  0.00    -0.107 OA 
BRANCH  23  24
HETATM   24  C   UNL    20      -7.266   5.896  66.870  1.00  0.00    -0.071 C  
HETATM   25  O   UNL    20      -7.740   4.864  67.715  1.00  0.00    -0.082 OA 
HETATM   26  C   UNL    20      -9.041   4.401  67.365  1.00  0.00    -0.132 C  
HETATM   27  H   UNL    20      -6.464   5.808  63.702  1.00  0.00     0.000 HD 
HETATM   28  C   UNL    20      -9.099   3.847  65.912  1.00  0.00    -0.146 C  
HETATM   29  O   UNL    20     -10.384   3.390  65.571  1.00  0.00    -0.338 OA 
HETATM   30  C   UNL    20      -8.603   4.899  64.931  1.00  0.00    -0.148 C  
HETATM   31  O   UNL    20      -6.503   6.162  64.583  1.00  0.00    -0.033 OA 
HETATM   32  H   UNL    20     -10.420   3.052  64.684  1.00  0.00     0.000 HD 
HETATM   33  O   UNL    20      -8.521   4.344  63.648  1.00  0.00    -0.099 OA 
HETATM   34  C   UNL    20      -7.202   5.318  65.434  1.00  0.00    -0.068 C  
HETATM   35  H   UNL    20      -8.211   5.001  63.036  1.00  0.00     0.000 HD 
BRANCH  26  36
HETATM   36  C   UNL    20      -9.397   3.239  68.327  1.00  0.00    -0.184 C  
HETATM   37  O   UNL    20      -9.845   2.134  67.599  1.00  0.00    -0.356 OA 
HETATM   38  H   UNL    20     -10.063   1.421  68.189  1.00  0.00     0.000 HD 
ENDBRANCH  26  36
ENDBRANCH  23  24
ENDBRANCH  16  23
BRANCH  16  39
HETATM   39  C   UNL    20      -7.921   7.607  69.471  1.00  0.00    -0.125 C  
HETATM   40  O   UNL    20      -9.225   7.988  69.815  1.00  0.00    -0.149 OA 
HETATM   41  H   UNL    20      -9.448   7.680  70.686  1.00  0.00     0.000 HD 
ENDBRANCH  16  39
ENDBRANCH  12  14
TORSDOF 5
ENDMDL
MODEL      198
REMARK 921   NORMALIZED FREE ENERGY PREDICTED BY IDOCK:   -3.22 KCAL/MOL
REMARK 922        TOTAL FREE ENERGY PREDICTED BY IDOCK:   -5.74 KCAL/MOL
REMARK 923 INTER-LIGAND FREE ENERGY PREDICTED BY IDOCK:   -4.75 KCAL/MOL
REMARK 924 INTRA-LIGAND FREE ENERGY PREDICTED BY IDOCK:   -0.99 KCAL/MOL
REMARK 927      BINDING AFFINITY PREDICTED BY RF-SCORE:    0.00 PKD
ROOT
HETATM    1  O   HOH     4     -11.845  12.992  62.804  1.00  0.00    -0.698 OA 
HETATM    2  H2  HOH     4     -11.800  13.293  63.704  1.00  0.00     0.000 HD 
HETATM    3 NA   UNL    13      -8.011  16.347  67.702  1.00  0.00    -0.135 Na 
HETATM    4  H1  HOH     4     -11.009  13.232  62.422  1.00  0.00     0.000 HD 
HETATM    5 NA   UNL    14     -12.937  14.464  65.222  1.00  0.00    -0.422 Na 
HETATM    6 FE   UNL    15     -11.360  16.611  66.901  1.00  0.00    -0.225 Fe 
HETATM    7 FE   UNL    16      -9.576  13.103  64.280  1.00  0.00    -0.494 Fe 
HETATM    8 FE   UNL    17     -12.510  13.000  67.006  1.00  0.00    -0.343 Fe 
HETATM    9 FE   UNL    18     -10.075  11.011  64.000  1.00  0.00    -0.210 Fe 
HETATM   10 FE   UNL    19     -10.430  10.344  68.946  1.00  0.00    -0.161 Fe 
HETATM   11  O   UNL    20      -9.837  11.821  66.611  1.00  0.00    -0.196 OA 
HETATM   12  C   UNL    20      -8.487  11.646  66.273  1.00  0.00    -0.066 C  
HETATM   13  H   UNL    20     -10.388  12.179  65.924  1.00  0.00     0.000 HD 
ENDROOT
BRANCH  12  14
HETATM   14  C   UNL    20      -7.590  11.065  67.390  1.00  0.00    -0.110 C  
HETATM   15  O   UNL    20      -8.141   9.880  67.912  1.00  0.00    -0.108 OA 
HETATM   16  C   UNL    20      -7.116   9.205  68.594  1.00  0.00    -0.071 C  
HETATM   17  C   UNL    20      -6.100  10.811  67.072  1.00  0.00    -0.068 C  
HETATM   18  H   UNL    20      -4.394  11.726  67.312  1.00  0.00     0.000 HD 
HETATM   19  C   UNL    20      -5.769   9.520  67.856  1.00  0.00    -0.041 C  
HETATM   20  H   UNL    20      -4.537   8.713  66.517  1.00  0.00     0.000 HD 
HETATM   21  O   UNL    20      -5.310  11.882  67.507  1.00  0.00    -0.063 OA 
HETATM   22  O   UNL    20      -5.353   8.522  66.964  1.00  0.00    -0.035 OA 
BRANCH  16  23
HETATM   23  O   UNL    20      -7.476   7.825  68.818  1.00  0.00    -0.091 OA 
BRANCH  23  24
HETATM   24  C   UNL    20      -7.956   6.983  67.744  1.00  0.00    -0.114 C  
HETATM   25  O   UNL    20      -6.953   6.038  67.421  1.00  0.00    -0.065 OA 
HETATM   26  C   UNL    20      -6.761   5.051  68.430  1.00  0.00    -0.054 C  
HETATM   27  H   UNL    20     -11.184   6.584  68.071  1.00  0.00     0.000 HD 
HETATM   28  C   UNL    20      -8.059   4.241  68.717  1.00  0.00    -0.072 C  
HETATM   29  O   UNL    20      -7.866   3.267  69.713  1.00  0.00    -0.047 OA 
HETATM   30  C   UNL    20      -9.197   5.186  69.074  1.00  0.00    -0.117 C  
HETATM   31  O   UNL    20     -10.370   7.063  67.968  1.00  0.00    -0.172 OA 
HETATM   32  H   UNL    20      -8.657   2.773  69.887  1.00  0.00     0.000 HD 
HETATM   33  O   UNL    20     -10.391   4.462  69.187  1.00  0.00     0.064 OA 
HETATM   34  C   UNL    20      -9.283   6.202  67.912  1.00  0.00    -0.115 C  
HETATM   35  H   UNL    20     -11.101   5.052  69.410  1.00  0.00     0.000 HD 
BRANCH  26  36
HETATM   36  C   UNL    20      -5.690   4.058  67.913  1.00  0.00    -0.022 C  
HETATM   37  O   UNL    20      -5.586   4.146  66.522  1.00  0.00    -0.016 OA 
HETATM   38  H   UNL    20      -4.929   3.537  66.205  1.00  0.00     0.000 HD 
ENDBRANCH  26  36
ENDBRANCH  23  24
ENDBRANCH  16  23
BRANCH  16  39
HETATM   39  C   UNL    20      -7.001   9.855  70.007  1.00  0.00    -0.119 C  
HETATM   40  O   UNL    20      -8.254  10.296  70.456  1.00  0.00    -0.365 OA 
HETATM   41  H   UNL    20      -8.184  10.692  71.316  1.00  0.00     0.000 HD 
ENDBRANCH  16  39
ENDBRANCH  12  14
TORSDOF 5
ENDMDL
MODEL      199
REMARK 921   NORMALIZED FREE ENERGY PREDICTED BY IDOCK:   -3.21 KCAL/MOL
REMARK 922        TOTAL FREE ENERGY PREDICTED BY IDOCK:   -5.73 KCAL/MOL
REMARK 923 INTER-LIGAND FREE ENERGY PREDICTED BY IDOCK:   -4.93 KCAL/MOL
REMARK 924 INTRA-LIGAND FREE ENERGY PREDICTED BY IDOCK:   -0.80 KCAL/MOL
REMARK 927      BINDING AFFINITY PREDICTED BY RF-SCORE:    0.00 PKD
ROOT
HETATM    1  O   HOH     4     -10.677   4.608  71.097  1.00  0.00     0.022 OA 
HETATM    2  H2  HOH     4     -10.457   4.593  70.173  1.00  0.00     0.000 HD 
HETATM    3 NA   UNL    13      -5.504   4.589  66.284  1.00  0.00    -0.009 Na 
HETATM    4  H1  HOH     4      -9.843   4.665  71.548  1.00  0.00     0.000 HD 
HETATM    5 NA   UNL    14     -10.859   3.471  68.290  1.00  0.00     0.581 Na 
HETATM    6 FE   UNL    15      -8.397   2.715  66.478  1.00  0.00    -0.076 Fe 
HETATM    7 FE   UNL    16      -8.539   5.863  70.004  1.00  0.00    -0.109 Fe 
HETATM    8 FE   UNL    17     -11.062   5.374  66.930  1.00  0.00    -0.238 Fe 
HETATM    9 FE   UNL    18      -9.951   7.389  70.621  1.00  0.00    -0.177 Fe 
HETATM   10 FE   UNL    19     -10.332   9.060  65.920  1.00  0.00    -0.276 Fe 
HETATM   11  O   UNL    20      -9.244   7.448  67.970  1.00  0.00    -0.133 OA 
HETATM   12  C   UNL    20      -8.140   8.097  68.545  1.00  0.00    -0.124 C  
HETATM   13  H   UNL    20      -9.604   6.727  68.475  1.00  0.00     0.000 HD 
ENDROOT
BRANCH  12  14
HETATM   14  C   UNL    20      -7.555   9.268  67.723  1.00  0.00    -0.084 C  
HETATM   15  O   UNL    20      -8.563  10.177  67.354  1.00  0.00    -0.122 OA 
HETATM   16  C   UNL    20      -7.934  11.380  66.993  1.00  0.00    -0.158 C  
HETATM   17  C   UNL    20      -6.377  10.066  68.327  1.00  0.00    -0.053 C  
HETATM   18  H   UNL    20      -4.431  10.086  68.203  1.00  0.00     0.000 HD 
HETATM   19  C   UNL    20      -6.643  11.520  67.870  1.00  0.00    -0.064 C  
HETATM   20  H   UNL    20      -6.012  12.430  69.524  1.00  0.00     0.000 HD 
HETATM   21  O   UNL    20      -5.154   9.596  67.832  1.00  0.00    -0.036 OA 
HETATM   22  O   UNL    20      -6.794  12.345  68.992  1.00  0.00    -0.100 OA 
BRANCH  16  23
HETATM   23  O   UNL    20      -8.883  12.467  66.979  1.00  0.00    -0.200 OA 
BRANCH  23  24
HETATM   24  C   UNL    20     -10.281  12.250  66.675  1.00  0.00    -0.216 C  
HETATM   25  O   UNL    20     -10.763  11.189  67.478  1.00  0.00    -0.207 OA 
HETATM   26  C   UNL    20     -10.869  11.528  68.857  1.00  0.00    -0.218 C  
HETATM   27  H   UNL    20     -11.666  15.118  65.939  1.00  0.00     0.000 HD 
HETATM   28  C   UNL    20     -11.823  12.735  69.096  1.00  0.00    -0.301 C  
HETATM   29  O   UNL    20     -11.926  13.065  70.459  1.00  0.00    -0.488 OA 
HETATM   30  C   UNL    20     -11.375  13.928  68.264  1.00  0.00    -0.294 C  
HETATM   31  O   UNL    20     -11.047  14.401  65.858  1.00  0.00    -0.308 OA 
HETATM   32  H   UNL    20     -12.508  13.801  70.604  1.00  0.00     0.000 HD 
HETATM   33  O   UNL    20     -12.318  14.956  68.373  1.00  0.00    -0.586 OA 
HETATM   34  C   UNL    20     -11.289  13.418  66.808  1.00  0.00    -0.325 C  
HETATM   35  H   UNL    20     -12.038  15.701  67.854  1.00  0.00     0.000 HD 
BRANCH  26  36
HETATM   36  C   UNL    20     -11.467  10.302  69.594  1.00  0.00    -0.235 C  
HETATM   37  O   UNL    20     -10.742  10.043  70.760  1.00  0.00    -0.308 OA 
HETATM   38  H   UNL    20     -11.108   9.291  71.212  1.00  0.00     0.000 HD 
ENDBRANCH  26  36
ENDBRANCH  23  24
ENDBRANCH  16  23
BRANCH  16  39
HETATM   39  C   UNL    20      -7.446  11.217  65.520  1.00  0.00     0.319 C  
HETATM   40  O   UNL    20      -6.052  11.341  65.441  1.00  0.00    -0.404 OA 
HETATM   41  H   UNL    20      -5.755  11.242  64.545  1.00  0.00     0.000 HD 
ENDBRANCH  16  39
ENDBRANCH  12  14
TORSDOF 5
ENDMDL
MODEL      200
REMARK 921   NORMALIZED FREE ENERGY PREDICTED BY IDOCK:   -3.18 KCAL/MOL
REMARK 922        TOTAL FREE ENERGY PREDICTED BY IDOCK:   -5.70 KCAL/MOL
REMARK 923 INTER-LIGAND FREE ENERGY PREDICTED BY IDOCK:   -5.16 KCAL/MOL
REMARK 924 INTRA-LIGAND FREE ENERGY PREDICTED BY IDOCK:   -0.54 KCAL/MOL
REMARK 927      BINDING AFFINITY PREDICTED BY RF-SCORE:    0.00 PKD
ROOT
HETATM    1  O   HOH     4     -11.203  14.547  64.116  1.00  0.00    -0.599 OA 
HETATM    2  H2  HOH     4     -11.212  13.955  64.859  1.00  0.00     0.000 HD 
HETATM    3 NA   UNL    13      -7.667  12.086  69.718  1.00  0.00    -0.332 Na 
HETATM    4  H1  HOH     4     -10.346  14.957  64.138  1.00  0.00     0.000 HD 
HETATM    5 NA   UNL    14     -12.436  13.377  66.629  1.00  0.00    -0.351 Na 
HETATM    6 FE   UNL    15     -10.963  13.062  69.394  1.00  0.00    -0.220 Fe 
HETATM    7 FE   UNL    16      -9.024  13.261  65.086  1.00  0.00    -0.414 Fe 
HETATM    8 FE   UNL    17     -12.113  11.064  66.384  1.00  0.00    -0.031 Fe 
HETATM    9 FE   UNL    18      -9.504  12.381  63.163  1.00  0.00    -0.384 Fe 
HETATM   10 FE   UNL    19     -10.147   7.893  65.278  1.00  0.00    -0.331 Fe 
HETATM   11  O   UNL    20      -9.420  10.624  65.268  1.00  0.00    -0.191 OA 
HETATM   12  C   UNL    20      -8.052  10.747  64.982  1.00  0.00     0.036 C  
HETATM   13  H   UNL    20      -9.931  11.421  65.177  1.00  0.00     0.000 HD 
ENDROOT
BRANCH  12  14
HETATM   14  C   UNL    20      -7.222   9.451  65.131  1.00  0.00    -0.101 C  
HETATM   15  O   UNL    20      -7.616   8.729  66.272  1.00  0.00    -0.089 OA 
HETATM   16  C   UNL    20      -7.140   7.416  66.124  1.00  0.00    -0.069 C  
HETATM   17  C   UNL    20      -7.166   8.478  63.933  1.00  0.00    -0.097 C  
HETATM   18  H   UNL    20      -5.976   8.092  62.436  1.00  0.00     0.000 HD 
HETATM   19  C   UNL    20      -7.151   7.079  64.593  1.00  0.00    -0.061 C  
HETATM   20  H   UNL    20      -8.275   6.143  63.244  1.00  0.00     0.000 HD 
HETATM   21  O   UNL    20      -6.010   8.691  63.173  1.00  0.00    -0.080 OA 
HETATM   22  O   UNL    20      -8.268   6.347  64.171  1.00  0.00    -0.091 OA 
BRANCH  16  23
HETATM   23  O   UNL    20      -7.817   6.523  67.034  1.00  0.00    -0.105 OA 
BRANCH  23  24
HETATM   24  C   UNL    20      -9.184   6.105  66.808  1.00  0.00    -0.135 C  
HETATM   25  O   UNL    20      -9.191   4.733  66.460  1.00  0.00    -0.124 OA 
HETATM   26  C   UNL    20      -8.854   3.874  67.545  1.00  0.00    -0.118 C  
HETATM   27  H   UNL    20     -11.149   7.763  68.827  1.00  0.00     0.000 HD 
HETATM   28  C   UNL    20      -9.831   4.031  68.747  1.00  0.00     0.025 C  
HETATM   29  O   UNL    20      -9.496   3.181  69.815  1.00  0.00    -0.162 OA 
HETATM   30  C   UNL    20      -9.886   5.487  69.188  1.00  0.00    -0.167 C  
HETATM   31  O   UNL    20     -10.499   7.645  68.144  1.00  0.00    -0.203 OA 
HETATM   32  H   UNL    20     -10.092   3.277  70.548  1.00  0.00     0.000 HD 
HETATM   33  O   UNL    20     -10.872   5.643  70.169  1.00  0.00    -0.316 OA 
HETATM   34  C   UNL    20     -10.243   6.298  67.922  1.00  0.00    -0.169 C  
HETATM   35  H   UNL    20     -10.907   6.551  70.445  1.00  0.00     0.000 HD 
BRANCH  26  36
HETATM   36  C   UNL    20      -8.965   2.415  67.036  1.00  0.00    -0.138 C  
HETATM   37  O   UNL    20      -8.386   2.303  65.768  1.00  0.00    -0.086 OA 
HETATM   38  H   UNL    20      -8.455   1.408  65.456  1.00  0.00     0.000 HD 
ENDBRANCH  26  36
ENDBRANCH  23  24
ENDBRANCH  16  23
BRANCH  16  39
HETATM   39  C   UNL    20      -5.642   7.420  66.560  1.00  0.00    -0.024 C  
HETATM   40  O   UNL    20      -5.497   7.982  67.836  1.00  0.00    -0.032 OA 
HETATM   41  H   UNL    20      -4.585   7.984  68.101  1.00  0.00     0.000 HD 
ENDBRANCH  16  39
ENDBRANCH  12  14
TORSDOF 5
ENDMDL
MODEL      201
REMARK 921   NORMALIZED FREE ENERGY PREDICTED BY IDOCK:   -3.18 KCAL/MOL
REMARK 922        TOTAL FREE ENERGY PREDICTED BY IDOCK:   -5.70 KCAL/MOL
REMARK 923 INTER-LIGAND FREE ENERGY PREDICTED BY IDOCK:   -6.10 KCAL/MOL
REMARK 924 INTRA-LIGAND FREE ENERGY PREDICTED BY IDOCK:    0.41 KCAL/MOL
REMARK 927      BINDING AFFINITY PREDICTED BY RF-SCORE:    0.00 PKD
ROOT
HETATM    1  O   HOH     4     -10.716   7.361  74.330  1.00  0.00    -0.454 OA 
HETATM    2  H2  HOH     4     -11.262   7.652  73.608  1.00  0.00     0.000 HD 
HETATM    3 NA   UNL    13     -12.248   6.682  67.464  1.00  0.00    -0.610 Na 
HETATM    4  H1  HOH     4     -10.118   6.730  73.946  1.00  0.00     0.000 HD 
HETATM    5 NA   UNL    14     -13.392   7.960  73.033  1.00  0.00    -0.517 Na 
HETATM    6 FE   UNL    15     -14.321   6.899  70.218  1.00  0.00    -0.410 Fe 
HETATM    7 FE   UNL    16      -9.896   7.545  71.754  1.00  0.00    -0.158 Fe 
HETATM    8 FE   UNL    17     -13.042  10.017  71.956  1.00  0.00    -0.307 Fe 
HETATM    9 FE   UNL    18      -8.890   9.105  72.876  1.00  0.00    -0.192 Fe 
HETATM   10 FE   UNL    19     -10.944  12.632  69.981  1.00  0.00    -0.417 Fe 
HETATM   11  O   UNL    20     -10.363   9.969  70.728  1.00  0.00    -0.373 OA 
HETATM   12  C   UNL    20      -9.193   9.542  70.082  1.00  0.00    -0.244 C  
HETATM   13  H   UNL    20     -10.640   9.437  71.466  1.00  0.00     0.000 HD 
ENDROOT
BRANCH  12  14
HETATM   14  C   UNL    20      -8.742  10.407  68.882  1.00  0.00    -0.157 C  
HETATM   15  O   UNL    20      -7.984   9.648  67.972  1.00  0.00    -0.097 OA 
HETATM   16  C   UNL    20      -7.965  10.346  66.754  1.00  0.00    -0.117 C  
HETATM   17  C   UNL    20      -9.822  11.179  68.092  1.00  0.00    -0.180 C  
HETATM   18  H   UNL    20     -10.573  12.979  68.050  1.00  0.00     0.000 HD 
HETATM   19  C   UNL    20      -9.327  11.113  66.628  1.00  0.00    -0.177 C  
HETATM   20  H   UNL    20     -11.108  10.929  65.760  1.00  0.00     0.000 HD 
HETATM   21  O   UNL    20      -9.909  12.504  68.536  1.00  0.00    -0.214 OA 
HETATM   22  O   UNL    20     -10.283  10.464  65.836  1.00  0.00    -0.254 OA 
BRANCH  16  23
HETATM   23  O   UNL    20      -7.557   9.479  65.674  1.00  0.00    -0.097 OA 
BRANCH  23  24
HETATM   24  C   UNL    20      -8.453   8.490  65.117  1.00  0.00    -0.175 C  
HETATM   25  O   UNL    20      -7.944   8.065  63.867  1.00  0.00    -0.140 OA 
HETATM   26  C   UNL    20      -6.761   7.279  63.978  1.00  0.00    -0.048 C  
HETATM   27  H   UNL    20      -9.754   6.742  67.554  1.00  0.00     0.000 HD 
HETATM   28  C   UNL    20      -6.984   5.994  64.827  1.00  0.00    -0.055 C  
HETATM   29  O   UNL    20      -5.814   5.221  64.933  1.00  0.00    -0.020 OA 
HETATM   30  C   UNL    20      -7.536   6.362  66.197  1.00  0.00    -0.082 C  
HETATM   31  O   UNL    20      -9.544   7.524  67.056  1.00  0.00    -0.150 OA 
HETATM   32  H   UNL    20      -5.950   4.436  65.451  1.00  0.00     0.000 HD 
HETATM   33  O   UNL    20      -7.869   5.196  66.897  1.00  0.00    -0.098 OA 
HETATM   34  C   UNL    20      -8.796   7.216  65.928  1.00  0.00    -0.103 C  
HETATM   35  H   UNL    20      -8.213   5.425  67.752  1.00  0.00     0.000 HD 
BRANCH  26  36
HETATM   36  C   UNL    20      -6.361   6.836  62.548  1.00  0.00    -0.043 C  
HETATM   37  O   UNL    20      -6.360   5.441  62.461  1.00  0.00    -0.020 OA 
HETATM   38  H   UNL    20      -6.115   5.168  61.584  1.00  0.00     0.000 HD 
ENDBRANCH  26  36
ENDBRANCH  23  24
ENDBRANCH  16  23
BRANCH  16  39
HETATM   39  C   UNL    20      -6.858  11.439  66.870  1.00  0.00    -0.142 C  
HETATM   40  O   UNL    20      -5.581  10.864  66.800  1.00  0.00    -0.054 OA 
HETATM   41  H   UNL    20      -4.907  11.529  66.871  1.00  0.00     0.000 HD 
ENDBRANCH  16  39
ENDBRANCH  12  14
TORSDOF 5
ENDMDL
MODEL      202
REMARK 921   NORMALIZED FREE ENERGY PREDICTED BY IDOCK:   -3.11 KCAL/MOL
REMARK 922        TOTAL FREE ENERGY PREDICTED BY IDOCK:   -5.60 KCAL/MOL
REMARK 923 INTER-LIGAND FREE ENERGY PREDICTED BY IDOCK:   -4.94 KCAL/MOL
REMARK 924 INTRA-LIGAND FREE ENERGY PREDICTED BY IDOCK:   -0.66 KCAL/MOL
REMARK 927      BINDING AFFINITY PREDICTED BY RF-SCORE:    0.00 PKD
ROOT
HETATM    1  O   HOH     4     -11.981  14.698  69.473  1.00  0.00    -0.297 OA 
HETATM    2  H2  HOH     4     -11.290  14.280  68.973  1.00  0.00     0.000 HD 
HETATM    3 NA   UNL    13     -10.342   9.778  64.672  1.00  0.00    -0.323 Na 
HETATM    4  H1  HOH     4     -12.775  14.237  69.228  1.00  0.00     0.000 HD 
HETATM    5 NA   UNL    14      -9.569  14.738  67.633  1.00  0.00    -0.191 Na 
HETATM    6 FE   UNL    15      -9.276  13.047  64.992  1.00  0.00    -0.442 Fe 
HETATM    7 FE   UNL    16     -11.958  12.083  68.765  1.00  0.00    -0.223 Fe 
HETATM    8 FE   UNL    17      -8.107  13.174  68.597  1.00  0.00    -0.121 Fe 
HETATM    9 FE   UNL    18     -11.655  12.186  70.910  1.00  0.00    -0.399 Fe 
HETATM   10 FE   UNL    19      -7.233   9.885  70.483  1.00  0.00    -0.071 Fe 
HETATM   11  O   UNL    20      -9.698  10.867  69.510  1.00  0.00    -0.425 OA 
HETATM   12  C   UNL    20     -10.672   9.862  69.597  1.00  0.00    -0.252 C  
HETATM   13  H   UNL    20     -10.029  11.749  69.385  1.00  0.00     0.000 HD 
ENDROOT
BRANCH  12  14
HETATM   14  C   UNL    20     -10.134   8.427  69.801  1.00  0.00    -0.197 C  
HETATM   15  O   UNL    20      -9.884   7.803  68.566  1.00  0.00    -0.163 OA 
HETATM   16  C   UNL    20      -9.036   6.710  68.811  1.00  0.00    -0.125 C  
HETATM   17  C   UNL    20      -8.896   8.234  70.705  1.00  0.00    -0.148 C  
HETATM   18  H   UNL    20      -8.519   7.757  72.559  1.00  0.00     0.000 HD 
HETATM   19  C   UNL    20      -8.113   7.090  70.020  1.00  0.00    -0.128 C  
HETATM   20  H   UNL    20      -6.281   7.775  70.386  1.00  0.00     0.000 HD 
HETATM   21  O   UNL    20      -9.280   7.876  72.003  1.00  0.00    -0.135 OA 
HETATM   22  O   UNL    20      -6.840   7.545  69.653  1.00  0.00    -0.043 OA 
BRANCH  16  23
HETATM   23  O   UNL    20      -8.420   6.258  67.586  1.00  0.00    -0.116 OA 
BRANCH  23  24
HETATM   24  C   UNL    20      -7.218   5.453  67.595  1.00  0.00    -0.072 C  
HETATM   25  O   UNL    20      -7.582   4.086  67.567  1.00  0.00    -0.068 OA 
HETATM   26  C   UNL    20      -8.136   3.675  66.320  1.00  0.00    -0.096 C  
HETATM   27  H   UNL    20      -4.873   7.030  65.951  1.00  0.00     0.000 HD 
HETATM   28  C   UNL    20      -7.149   3.896  65.136  1.00  0.00    -0.066 C  
HETATM   29  O   UNL    20      -7.698   3.488  63.908  1.00  0.00    -0.076 OA 
HETATM   30  C   UNL    20      -6.702   5.350  65.092  1.00  0.00    -0.044 C  
HETATM   31  O   UNL    20      -5.532   6.902  66.624  1.00  0.00    -0.017 OA 
HETATM   32  H   UNL    20      -7.096   3.623  63.185  1.00  0.00     0.000 HD 
HETATM   33  O   UNL    20      -5.708   5.507  64.119  1.00  0.00    -0.016 OA 
HETATM   34  C   UNL    20      -6.143   5.662  66.499  1.00  0.00    -0.030 C  
HETATM   35  H   UNL    20      -5.429   6.414  64.092  1.00  0.00     0.000 HD 
BRANCH  26  36
HETATM   36  C   UNL    20      -8.424   2.156  66.416  1.00  0.00    -0.102 C  
HETATM   37  O   UNL    20      -9.651   1.861  65.816  1.00  0.00    -0.333 OA 
HETATM   38  H   UNL    20      -9.828   0.929  65.875  1.00  0.00     0.000 HD 
ENDBRANCH  26  36
ENDBRANCH  23  24
ENDBRANCH  16  23
BRANCH  16  39
HETATM   39  C   UNL    20      -9.935   5.534  69.301  1.00  0.00    -0.196 C  
HETATM   40  O   UNL    20     -10.534   4.879  68.215  1.00  0.00    -0.024 OA 
HETATM   41  H   UNL    20     -11.081   4.163  68.513  1.00  0.00     0.000 HD 
ENDBRANCH  16  39
ENDBRANCH  12  14
TORSDOF 5
ENDMDL
MODEL      203
REMARK 921   NORMALIZED FREE ENERGY PREDICTED BY IDOCK:   -3.09 KCAL/MOL
REMARK 922        TOTAL FREE ENERGY PREDICTED BY IDOCK:   -5.57 KCAL/MOL
REMARK 923 INTER-LIGAND FREE ENERGY PREDICTED BY IDOCK:   -4.87 KCAL/MOL
REMARK 924 INTRA-LIGAND FREE ENERGY PREDICTED BY IDOCK:   -0.70 KCAL/MOL
REMARK 927      BINDING AFFINITY PREDICTED BY RF-SCORE:    0.00 PKD
ROOT
HETATM    1  O   HOH     4     -12.053  14.928  69.477  1.00  0.00    -0.354 OA 
HETATM    2  H2  HOH     4     -11.480  14.536  68.827  1.00  0.00     0.000 HD 
HETATM    3 NA   UNL    13     -11.501  10.357  64.116  1.00  0.00    -0.251 Na 
HETATM    4  H1  HOH     4     -12.893  14.502  69.354  1.00  0.00     0.000 HD 
HETATM    5 NA   UNL    14     -10.027  15.062  67.222  1.00  0.00    -0.217 Na 
HETATM    6 FE   UNL    15     -10.289  13.572  64.460  1.00  0.00    -0.300 Fe 
HETATM    7 FE   UNL    16     -12.247  12.374  68.594  1.00  0.00    -0.273 Fe 
HETATM    8 FE   UNL    17      -8.462  13.403  67.779  1.00  0.00    -0.124 Fe 
HETATM    9 FE   UNL    18     -11.545  12.308  70.645  1.00  0.00    -0.342 Fe 
HETATM   10 FE   UNL    19      -7.358   9.964  69.226  1.00  0.00    -0.058 Fe 
HETATM   11  O   UNL    20      -9.928  11.063  68.810  1.00  0.00    -0.195 OA 
HETATM   12  C   UNL    20     -10.902  10.072  69.007  1.00  0.00    -0.222 C  
HETATM   13  H   UNL    20     -10.248  11.958  68.812  1.00  0.00     0.000 HD 
ENDROOT
BRANCH  12  14
HETATM   14  C   UNL    20     -10.382   8.617  69.004  1.00  0.00    -0.213 C  
HETATM   15  O   UNL    20      -9.769   8.304  67.777  1.00  0.00    -0.148 OA 
HETATM   16  C   UNL    20      -8.978   7.162  67.981  1.00  0.00    -0.127 C  
HETATM   17  C   UNL    20      -9.440   8.175  70.146  1.00  0.00    -0.167 C  
HETATM   18  H   UNL    20      -9.578   7.252  71.859  1.00  0.00     0.000 HD 
HETATM   19  C   UNL    20      -8.448   7.210  69.456  1.00  0.00    -0.134 C  
HETATM   20  H   UNL    20      -6.823   7.735  70.477  1.00  0.00     0.000 HD 
HETATM   21  O   UNL    20     -10.157   7.524  71.157  1.00  0.00    -0.189 OA 
HETATM   22  O   UNL    20      -7.144   7.706  69.584  1.00  0.00    -0.060 OA 
BRANCH  16  23
HETATM   23  O   UNL    20      -8.025   7.003  66.908  1.00  0.00    -0.111 OA 
BRANCH  23  24
HETATM   24  C   UNL    20      -8.426   6.526  65.603  1.00  0.00    -0.144 C  
HETATM   25  O   UNL    20      -8.840   7.630  64.820  1.00  0.00     0.183 OA 
HETATM   26  C   UNL    20      -7.766   8.487  64.441  1.00  0.00    -0.128 C  
HETATM   27  H   UNL    20      -6.569   3.961  64.792  1.00  0.00     0.000 HD 
HETATM   28  C   UNL    20      -6.679   7.739  63.615  1.00  0.00    -0.062 C  
HETATM   29  O   UNL    20      -5.622   8.588  63.243  1.00  0.00    -0.070 OA 
HETATM   30  C   UNL    20      -6.176   6.528  64.388  1.00  0.00    -0.037 C  
HETATM   31  O   UNL    20      -7.178   4.466  65.319  1.00  0.00    -0.065 OA 
HETATM   32  H   UNL    20      -4.959   8.132  62.739  1.00  0.00     0.000 HD 
HETATM   33  O   UNL    20      -5.309   5.783  63.581  1.00  0.00    -0.016 OA 
HETATM   34  C   UNL    20      -7.434   5.703  64.744  1.00  0.00    -0.079 C  
HETATM   35  H   UNL    20      -4.995   5.027  64.063  1.00  0.00     0.000 HD 
BRANCH  26  36
HETATM   36  C   UNL    20      -8.356   9.603  63.542  1.00  0.00    -0.172 C  
HETATM   37  O   UNL    20      -8.012  10.859  64.050  1.00  0.00    -0.356 OA 
HETATM   38  H   UNL    20      -8.374  11.544  63.498  1.00  0.00     0.000 HD 
ENDBRANCH  26  36
ENDBRANCH  23  24
ENDBRANCH  16  23
BRANCH  16  39
HETATM   39  C   UNL    20      -9.927   5.927  67.899  1.00  0.00    -0.134 C  
HETATM   40  O   UNL    20     -10.659   5.941  66.703  1.00  0.00    -0.305 OA 
HETATM   41  H   UNL    20     -11.237   5.189  66.653  1.00  0.00     0.000 HD 
ENDBRANCH  16  39
ENDBRANCH  12  14
TORSDOF 5
ENDMDL
MODEL      204
REMARK 921   NORMALIZED FREE ENERGY PREDICTED BY IDOCK:   -3.03 KCAL/MOL
REMARK 922        TOTAL FREE ENERGY PREDICTED BY IDOCK:   -5.50 KCAL/MOL
REMARK 923 INTER-LIGAND FREE ENERGY PREDICTED BY IDOCK:   -4.29 KCAL/MOL
REMARK 924 INTRA-LIGAND FREE ENERGY PREDICTED BY IDOCK:   -1.21 KCAL/MOL
REMARK 927      BINDING AFFINITY PREDICTED BY RF-SCORE:    0.00 PKD
ROOT
HETATM    1  O   HOH     4     -10.745   4.862  71.219  1.00  0.00    -0.095 OA 
HETATM    2  H2  HOH     4     -10.580   5.022  70.296  1.00  0.00     0.000 HD 
HETATM    3 NA   UNL    13      -5.876   5.546  66.142  1.00  0.00    -0.014 Na 
HETATM    4  H1  HOH     4      -9.883   4.782  71.611  1.00  0.00     0.000 HD 
HETATM    5 NA   UNL    14     -11.165   4.326  68.262  1.00  0.00     0.578 Na 
HETATM    6 FE   UNL    15      -8.869   3.824  66.166  1.00  0.00    -0.107 Fe 
HETATM    7 FE   UNL    16      -8.597   6.198  70.247  1.00  0.00    -0.117 Fe 
HETATM    8 FE   UNL    17     -11.323   6.473  67.324  1.00  0.00    -0.245 Fe 
HETATM    9 FE   UNL    18      -9.868   7.640  71.252  1.00  0.00    -0.164 Fe 
HETATM   10 FE   UNL    19     -10.415  10.244  67.015  1.00  0.00    -0.177 Fe 
HETATM   11  O   UNL    20      -9.316   8.196  68.623  1.00  0.00    -0.143 OA 
HETATM   12  C   UNL    20      -8.140   8.657  69.234  1.00  0.00    -0.112 C  
HETATM   13  H   UNL    20      -9.691   7.408  68.999  1.00  0.00     0.000 HD 
ENDROOT
BRANCH  12  14
HETATM   14  C   UNL    20      -7.529   9.938  68.622  1.00  0.00    -0.075 C  
HETATM   15  O   UNL    20      -8.523  10.903  68.378  1.00  0.00    -0.127 OA 
HETATM   16  C   UNL    20      -7.880  12.142  68.226  1.00  0.00    -0.153 C  
HETATM   17  C   UNL    20      -6.362  10.620  69.371  1.00  0.00    -0.060 C  
HETATM   18  H   UNL    20      -4.413  10.642  69.296  1.00  0.00     0.000 HD 
HETATM   19  C   UNL    20      -6.609  12.130  69.144  1.00  0.00    -0.106 C  
HETATM   20  H   UNL    20      -6.013  12.762  70.935  1.00  0.00     0.000 HD 
HETATM   21  O   UNL    20      -5.130  10.223  68.836  1.00  0.00    -0.036 OA 
HETATM   22  O   UNL    20      -6.783  12.769  70.379  1.00  0.00     0.280 OA 
BRANCH  16  23
HETATM   23  O   UNL    20      -8.822  13.226  68.363  1.00  0.00    -0.177 OA 
BRANCH  23  24
HETATM   24  C   UNL    20     -10.227  13.051  68.066  1.00  0.00    -0.233 C  
HETATM   25  O   UNL    20     -10.984  13.420  69.204  1.00  0.00    -0.237 OA 
HETATM   26  C   UNL    20     -10.967  14.821  69.462  1.00  0.00    -0.266 C  
HETATM   27  H   UNL    20     -10.736  13.714  64.906  1.00  0.00     0.000 HD 
HETATM   28  C   UNL    20     -11.529  15.648  68.268  1.00  0.00    -0.350 C  
HETATM   29  O   UNL    20     -11.512  17.029  68.527  1.00  0.00    -0.043 OA 
HETATM   30  C   UNL    20     -10.767  15.309  66.994  1.00  0.00    -0.313 C  
HETATM   31  O   UNL    20     -10.352  13.271  65.654  1.00  0.00    -0.278 OA 
HETATM   32  H   UNL    20     -11.854  17.533  67.799  1.00  0.00     0.000 HD 
HETATM   33  O   UNL    20     -11.371  15.945  65.903  1.00  0.00    -0.029 OA 
HETATM   34  C   UNL    20     -10.853  13.773  66.847  1.00  0.00    -0.285 C  
HETATM   35  H   UNL    20     -10.896  15.733  65.108  1.00  0.00     0.000 HD 
BRANCH  26  36
HETATM   36  C   UNL    20     -11.882  15.080  70.685  1.00  0.00    -0.313 C  
HETATM   37  O   UNL    20     -11.959  16.451  70.945  1.00  0.00    -0.531 OA 
HETATM   38  H   UNL    20     -12.521  16.611  71.695  1.00  0.00     0.000 HD 
ENDBRANCH  26  36
ENDBRANCH  23  24
ENDBRANCH  16  23
BRANCH  16  39
HETATM   39  C   UNL    20      -7.357  12.209  66.758  1.00  0.00     0.084 C  
HETATM   40  O   UNL    20      -6.057  12.733  66.715  1.00  0.00    -0.446 OA 
HETATM   41  H   UNL    20      -5.739  12.773  65.822  1.00  0.00     0.000 HD 
ENDBRANCH  16  39
ENDBRANCH  12  14
TORSDOF 5
ENDMDL
MODEL      205
REMARK 921   NORMALIZED FREE ENERGY PREDICTED BY IDOCK:   -2.98 KCAL/MOL
REMARK 922        TOTAL FREE ENERGY PREDICTED BY IDOCK:   -5.44 KCAL/MOL
REMARK 923 INTER-LIGAND FREE ENERGY PREDICTED BY IDOCK:   -4.44 KCAL/MOL
REMARK 924 INTRA-LIGAND FREE ENERGY PREDICTED BY IDOCK:   -1.00 KCAL/MOL
REMARK 927      BINDING AFFINITY PREDICTED BY RF-SCORE:    0.00 PKD
ROOT
HETATM    1  O   HOH     4     -10.864  15.626  66.886  1.00  0.00    -0.315 OA 
HETATM    2  H2  HOH     4     -11.106  14.712  66.979  1.00  0.00     0.000 HD 
HETATM    3 NA   UNL    13     -10.183   9.722  70.710  1.00  0.00    -0.200 Na 
HETATM    4  H1  HOH     4     -10.265  15.796  67.604  1.00  0.00     0.000 HD 
HETATM    5 NA   UNL    14     -12.876  13.360  67.040  1.00  0.00    -0.266 Na 
HETATM    6 FE   UNL    15     -12.983  11.181  69.311  1.00  0.00    -0.258 Fe 
HETATM    7 FE   UNL    16      -9.243  13.700  67.887  1.00  0.00    -0.160 Fe 
HETATM    8 FE   UNL    17     -11.926  11.679  65.704  1.00  0.00    -0.333 Fe 
HETATM    9 FE   UNL    18      -8.453  14.284  65.954  1.00  0.00    -0.417 Fe 
HETATM   10 FE   UNL    19      -8.973   9.616  64.232  1.00  0.00    -0.155 Fe 
HETATM   11  O   UNL    20      -9.026  11.615  66.228  1.00  0.00    -0.202 OA 
HETATM   12  C   UNL    20      -7.779  11.676  66.867  1.00  0.00    -0.147 C  
HETATM   13  H   UNL    20      -9.595  12.365  66.367  1.00  0.00     0.000 HD 
ENDROOT
BRANCH  12  14
HETATM   14  C   UNL    20      -6.854  10.458  66.641  1.00  0.00    -0.099 C  
HETATM   15  O   UNL    20      -7.286   9.352  67.396  1.00  0.00    -0.085 OA 
HETATM   16  C   UNL    20      -6.685   8.208  66.847  1.00  0.00    -0.065 C  
HETATM   17  C   UNL    20      -6.604   9.991  65.190  1.00  0.00    -0.115 C  
HETATM   18  H   UNL    20      -5.252  10.234  63.806  1.00  0.00     0.000 HD 
HETATM   19  C   UNL    20      -6.525   8.450  65.307  1.00  0.00    -0.055 C  
HETATM   20  H   UNL    20      -7.434   8.015  63.590  1.00  0.00     0.000 HD 
HETATM   21  O   UNL    20      -5.406  10.522  64.697  1.00  0.00    -0.127 OA 
HETATM   22  O   UNL    20      -7.530   7.868  64.523  1.00  0.00    -0.086 OA 
BRANCH  16  23
HETATM   23  O   UNL    20      -7.361   7.013  67.293  1.00  0.00    -0.086 OA 
BRANCH  23  24
HETATM   24  C   UNL    20      -6.811   6.177  68.338  1.00  0.00    -0.074 C  
HETATM   25  O   UNL    20      -7.205   6.698  69.594  1.00  0.00    -0.073 OA 
HETATM   26  C   UNL    20      -8.594   6.534  69.862  1.00  0.00    -0.139 C  
HETATM   27  H   UNL    20      -6.723   3.083  67.288  1.00  0.00     0.000 HD 
HETATM   28  C   UNL    20      -9.025   5.037  69.848  1.00  0.00    -0.106 C  
HETATM   29  O   UNL    20     -10.396   4.879  70.114  1.00  0.00    -0.265 OA 
HETATM   30  C   UNL    20      -8.635   4.395  68.524  1.00  0.00    -0.093 C  
HETATM   31  O   UNL    20      -6.532   4.014  67.278  1.00  0.00    -0.039 OA 
HETATM   32  H   UNL    20     -10.658   3.967  70.105  1.00  0.00     0.000 HD 
HETATM   33  O   UNL    20      -8.893   3.020  68.576  1.00  0.00    -0.095 OA 
HETATM   34  C   UNL    20      -7.122   4.660  68.355  1.00  0.00    -0.057 C  
HETATM   35  H   UNL    20      -8.651   2.619  67.750  1.00  0.00     0.000 HD 
BRANCH  26  36
HETATM   36  C   UNL    20      -8.863   7.087  71.285  1.00  0.00    -0.133 C  
HETATM   37  O   UNL    20      -8.717   6.068  72.231  1.00  0.00    -0.131 OA 
HETATM   38  H   UNL    20      -8.882   6.407  73.104  1.00  0.00     0.000 HD 
ENDBRANCH  26  36
ENDBRANCH  23  24
ENDBRANCH  16  23
BRANCH  16  39
HETATM   39  C   UNL    20      -5.239   8.127  67.428  1.00  0.00    -0.033 C  
HETATM   40  O   UNL    20      -5.170   8.754  68.680  1.00  0.00    -0.033 OA 
HETATM   41  H   UNL    20      -4.290   8.704  69.034  1.00  0.00     0.000 HD 
ENDBRANCH  16  39
ENDBRANCH  12  14
TORSDOF 5
ENDMDL
MODEL      206
REMARK 921   NORMALIZED FREE ENERGY PREDICTED BY IDOCK:   -2.97 KCAL/MOL
REMARK 922        TOTAL FREE ENERGY PREDICTED BY IDOCK:   -5.42 KCAL/MOL
REMARK 923 INTER-LIGAND FREE ENERGY PREDICTED BY IDOCK:   -4.29 KCAL/MOL
REMARK 924 INTRA-LIGAND FREE ENERGY PREDICTED BY IDOCK:   -1.13 KCAL/MOL
REMARK 927      BINDING AFFINITY PREDICTED BY RF-SCORE:    0.00 PKD
ROOT
HETATM    1  O   HOH     4      -7.026  13.198  66.847  1.00  0.00    -0.391 OA 
HETATM    2  H2  HOH     4      -7.789  12.635  66.789  1.00  0.00     0.000 HD 
HETATM    3 NA   UNL    13     -13.279  11.457  69.642  1.00  0.00    -0.043 Na 
HETATM    4  H1  HOH     4      -7.170  13.729  67.621  1.00  0.00     0.000 HD 
HETATM    5 NA   UNL    14      -9.353  11.939  65.362  1.00  0.00    -0.215 Na 
HETATM    6 FE   UNL    15     -12.343  11.931  66.352  1.00  0.00    -0.321 Fe 
HETATM    7 FE   UNL    16      -8.424  12.275  68.976  1.00  0.00    -0.217 Fe 
HETATM    8 FE   UNL    17      -9.298   9.692  66.041  1.00  0.00    -0.141 Fe 
HETATM    9 FE   UNL    18      -6.500  11.274  68.971  1.00  0.00    -0.048 Fe 
HETATM   10 FE   UNL    19      -8.726   6.810  68.591  1.00  0.00    -0.118 Fe 
HETATM   11  O   UNL    20      -8.686   9.616  68.923  1.00  0.00    -0.124 OA 
HETATM   12  C   UNL    20      -8.630   9.928  70.290  1.00  0.00    -0.022 C  
HETATM   13  H   UNL    20      -8.463  10.326  68.332  1.00  0.00     0.000 HD 
ENDROOT
BRANCH  12  14
HETATM   14  C   UNL    20      -8.992   8.773  71.252  1.00  0.00    -0.231 C  
HETATM   15  O   UNL    20      -9.281   7.596  70.539  1.00  0.00    -0.158 OA 
HETATM   16  C   UNL    20      -9.191   6.524  71.442  1.00  0.00    -0.148 C  
HETATM   17  C   UNL    20      -7.998   8.427  72.383  1.00  0.00    -0.105 C  
HETATM   18  H   UNL    20      -7.761   8.834  74.276  1.00  0.00     0.000 HD 
HETATM   19  C   UNL    20      -8.092   6.887  72.499  1.00  0.00    -0.102 C  
HETATM   20  H   UNL    20      -6.170   6.539  72.884  1.00  0.00     0.000 HD 
HETATM   21  O   UNL    20      -8.372   9.047  73.581  1.00  0.00    -0.087 OA 
HETATM   22  O   UNL    20      -6.836   6.319  72.244  1.00  0.00    -0.070 OA 
BRANCH  16  23
HETATM   23  O   UNL    20      -9.084   5.270  70.735  1.00  0.00    -0.132 OA 
BRANCH  23  24
HETATM   24  C   UNL    20      -9.542   4.029  71.322  1.00  0.00    -0.175 C  
HETATM   25  O   UNL    20      -9.777   3.093  70.286  1.00  0.00    -0.151 OA 
HETATM   26  C   UNL    20      -8.582   2.635  69.660  1.00  0.00    -0.067 C  
HETATM   27  H   UNL    20      -8.090   3.624  74.222  1.00  0.00     0.000 HD 
HETATM   28  C   UNL    20      -7.613   1.949  70.667  1.00  0.00    -0.035 C  
HETATM   29  O   UNL    20      -6.437   1.497  70.045  1.00  0.00    -0.024 OA 
HETATM   30  C   UNL    20      -7.308   2.892  71.822  1.00  0.00    -0.040 C  
HETATM   31  O   UNL    20      -8.619   4.060  73.565  1.00  0.00    -0.091 OA 
HETATM   32  H   UNL    20      -5.846   1.078  70.660  1.00  0.00     0.000 HD 
HETATM   33  O   UNL    20      -6.557   2.217  72.792  1.00  0.00    -0.016 OA 
HETATM   34  C   UNL    20      -8.679   3.318  72.394  1.00  0.00    -0.084 C  
HETATM   35  H   UNL    20      -6.365   2.805  73.513  1.00  0.00     0.000 HD 
BRANCH  26  36
HETATM   36  C   UNL    20      -8.987   1.577  68.602  1.00  0.00    -0.108 C  
HETATM   37  O   UNL    20      -9.817   2.157  67.637  1.00  0.00    -0.356 OA 
HETATM   38  H   UNL    20     -10.065   1.508  66.988  1.00  0.00     0.000 HD 
ENDBRANCH  26  36
ENDBRANCH  23  24
ENDBRANCH  16  23
BRANCH  16  39
HETATM   39  C   UNL    20     -10.542   6.466  72.220  1.00  0.00    -0.214 C  
HETATM   40  O   UNL    20     -10.347   6.752  73.579  1.00  0.00    -0.253 OA 
HETATM   41  H   UNL    20     -11.169   6.717  74.052  1.00  0.00     0.000 HD 
ENDBRANCH  16  39
ENDBRANCH  12  14
TORSDOF 5
ENDMDL
MODEL      207
REMARK 921   NORMALIZED FREE ENERGY PREDICTED BY IDOCK:   -2.96 KCAL/MOL
REMARK 922        TOTAL FREE ENERGY PREDICTED BY IDOCK:   -5.41 KCAL/MOL
REMARK 923 INTER-LIGAND FREE ENERGY PREDICTED BY IDOCK:   -4.36 KCAL/MOL
REMARK 924 INTRA-LIGAND FREE ENERGY PREDICTED BY IDOCK:   -1.04 KCAL/MOL
REMARK 927      BINDING AFFINITY PREDICTED BY RF-SCORE:    0.00 PKD
ROOT
HETATM    1  O   HOH     4      -9.249  13.385  68.395  1.00  0.00    -0.217 OA 
HETATM    2  H2  HOH     4      -9.192  12.726  67.713  1.00  0.00     0.000 HD 
HETATM    3 NA   UNL    13     -11.629   7.176  66.003  1.00  0.00    -0.045 Na 
HETATM    4  H1  HOH     4      -9.878  13.041  69.018  1.00  0.00     0.000 HD 
HETATM    5 NA   UNL    14      -9.266  12.478  65.500  1.00  0.00    -0.298 Na 
HETATM    6 FE   UNL    15     -11.033  10.144  64.342  1.00  0.00    -0.276 Fe 
HETATM    7 FE   UNL    16      -9.558  10.723  68.797  1.00  0.00    -0.137 Fe 
HETATM    8 FE   UNL    17      -7.479  10.960  65.381  1.00  0.00    -0.139 Fe 
HETATM    9 FE   UNL    18      -7.681  11.312  69.711  1.00  0.00    -0.218 Fe 
HETATM   10 FE   UNL    19      -5.156   8.159  66.759  1.00  0.00    -0.024 Fe 
HETATM   11  O   UNL    20      -7.498   9.322  67.831  1.00  0.00    -0.083 OA 
HETATM   12  C   UNL    20      -7.923   8.583  68.945  1.00  0.00    -0.118 C  
HETATM   13  H   UNL    20      -7.878  10.189  67.746  1.00  0.00     0.000 HD 
ENDROOT
BRANCH  12  14
HETATM   14  C   UNL    20      -7.306   7.172  69.084  1.00  0.00    -0.092 C  
HETATM   15  O   UNL    20      -7.709   6.563  70.286  1.00  0.00    -0.094 OA 
HETATM   16  C   UNL    20      -7.471   5.185  70.161  1.00  0.00    -0.063 C  
HETATM   17  C   UNL    20      -7.519   6.165  67.932  1.00  0.00    -0.085 C  
HETATM   18  H   UNL    20      -6.548   5.538  66.361  1.00  0.00     0.000 HD 
HETATM   19  C   UNL    20      -7.674   4.806  68.653  1.00  0.00    -0.076 C  
HETATM   20  H   UNL    20      -9.053   4.028  67.447  1.00  0.00     0.000 HD 
HETATM   21  O   UNL    20      -6.417   6.157  67.069  1.00  0.00    -0.049 OA 
HETATM   22  O   UNL    20      -8.930   4.258  68.360  1.00  0.00    -0.102 OA 
BRANCH  16  23
HETATM   23  O   UNL    20      -8.201   4.447  71.164  1.00  0.00    -0.079 OA 
BRANCH  23  24
HETATM   24  C   UNL    20      -8.181   4.840  72.557  1.00  0.00    -0.115 C  
HETATM   25  O   UNL    20      -8.798   6.108  72.682  1.00  0.00    -0.125 OA 
HETATM   26  C   UNL    20     -10.205   6.075  72.463  1.00  0.00    -0.186 C  
HETATM   27  H   UNL    20      -8.482   2.170  74.418  1.00  0.00     0.000 HD 
HETATM   28  C   UNL    20     -10.935   5.125  73.458  1.00  0.00    -0.310 C  
HETATM   29  O   UNL    20     -12.323   5.096  73.239  1.00  0.00    -0.356 OA 
HETATM   30  C   UNL    20     -10.330   3.731  73.388  1.00  0.00    -0.163 C  
HETATM   31  O   UNL    20      -8.094   2.737  73.761  1.00  0.00    -0.065 OA 
HETATM   32  H   UNL    20     -12.768   4.517  73.846  1.00  0.00     0.000 HD 
HETATM   33  O   UNL    20     -10.892   2.925  74.386  1.00  0.00    -0.154 OA 
HETATM   34  C   UNL    20      -8.814   3.916  73.627  1.00  0.00    -0.092 C  
HETATM   35  H   UNL    20     -10.514   2.054  74.343  1.00  0.00     0.000 HD 
BRANCH  26  36
HETATM   36  C   UNL    20     -10.747   7.508  72.696  1.00  0.00    -0.303 C  
HETATM   37  O   UNL    20     -11.840   7.749  71.860  1.00  0.00    -0.275 OA 
HETATM   38  H   UNL    20     -12.173   8.628  72.003  1.00  0.00     0.000 HD 
ENDBRANCH  26  36
ENDBRANCH  23  24
ENDBRANCH  16  23
BRANCH  16  39
HETATM   39  C   UNL    20      -5.960   4.952  70.469  1.00  0.00    -0.018 C  
HETATM   40  O   UNL    20      -5.338   4.259  69.420  1.00  0.00    -0.007 OA 
HETATM   41  H   UNL    20      -4.418   4.118  69.608  1.00  0.00     0.000 HD 
ENDBRANCH  16  39
ENDBRANCH  12  14
TORSDOF 5
ENDMDL
MODEL      208
REMARK 921   NORMALIZED FREE ENERGY PREDICTED BY IDOCK:   -2.93 KCAL/MOL
REMARK 922        TOTAL FREE ENERGY PREDICTED BY IDOCK:   -5.38 KCAL/MOL
REMARK 923 INTER-LIGAND FREE ENERGY PREDICTED BY IDOCK:   -5.18 KCAL/MOL
REMARK 924 INTRA-LIGAND FREE ENERGY PREDICTED BY IDOCK:   -0.20 KCAL/MOL
REMARK 927      BINDING AFFINITY PREDICTED BY RF-SCORE:    0.00 PKD
ROOT
HETATM    1  O   HOH     4      -6.919   2.270  65.964  1.00  0.00    -0.042 OA 
HETATM    2  H2  HOH     4      -7.395   3.041  65.676  1.00  0.00     0.000 HD 
HETATM    3 NA   UNL    13      -6.538   9.106  64.210  1.00  0.00    -0.076 Na 
HETATM    4  H1  HOH     4      -6.023   2.564  66.080  1.00  0.00     0.000 HD 
HETATM    5 NA   UNL    14      -8.814   3.742  64.108  1.00  0.00    -0.098 Na 
HETATM    6 FE   UNL    15      -8.198   6.486  62.691  1.00  0.00    -0.084 Fe 
HETATM    7 FE   UNL    16      -6.326   4.811  66.697  1.00  0.00    -0.030 Fe 
HETATM    8 FE   UNL    17     -10.165   4.991  65.567  1.00  0.00    -0.170 Fe 
HETATM    9 FE   UNL    18      -7.126   3.795  68.438  1.00  0.00    -0.044 Fe 
HETATM   10 FE   UNL    19     -10.866   7.103  68.759  1.00  0.00    -0.191 Fe 
HETATM   11  O   UNL    20      -8.452   6.082  67.702  1.00  0.00    -0.108 OA 
HETATM   12  C   UNL    20      -7.364   6.629  68.399  1.00  0.00    -0.087 C  
HETATM   13  H   UNL    20      -8.258   5.311  67.181  1.00  0.00     0.000 HD 
ENDROOT
BRANCH  12  14
HETATM   14  C   UNL    20      -7.678   7.882  69.247  1.00  0.00    -0.099 C  
HETATM   15  O   UNL    20      -7.930   8.996  68.426  1.00  0.00    -0.102 OA 
HETATM   16  C   UNL    20      -8.595   9.954  69.208  1.00  0.00    -0.167 C  
HETATM   17  C   UNL    20      -8.805   7.788  70.300  1.00  0.00    -0.144 C  
HETATM   18  H   UNL    20      -8.971   7.459  72.216  1.00  0.00     0.000 HD 
HETATM   19  C   UNL    20      -9.469   9.184  70.257  1.00  0.00    -0.219 C  
HETATM   20  H   UNL    20     -11.347   8.587  70.536  1.00  0.00     0.000 HD 
HETATM   21  O   UNL    20      -8.278   7.517  71.569  1.00  0.00    -0.101 OA 
HETATM   22  O   UNL    20     -10.818   9.053  69.901  1.00  0.00    -0.228 OA 
BRANCH  16  23
HETATM   23  O   UNL    20      -9.231  10.944  68.371  1.00  0.00    -0.154 OA 
BRANCH  23  24
HETATM   24  C   UNL    20      -8.480  11.711  67.401  1.00  0.00    -0.150 C  
HETATM   25  O   UNL    20      -8.492  11.021  66.165  1.00  0.00    -0.165 OA 
HETATM   26  C   UNL    20      -9.769  11.020  65.532  1.00  0.00    -0.229 C  
HETATM   27  H   UNL    20      -8.876  14.894  68.028  1.00  0.00     0.000 HD 
HETATM   28  C   UNL    20     -10.285  12.460  65.242  1.00  0.00    -0.282 C  
HETATM   29  O   UNL    20     -11.543  12.454  64.617  1.00  0.00    -0.320 OA 
HETATM   30  C   UNL    20     -10.303  13.277  66.526  1.00  0.00    -0.285 C  
HETATM   31  O   UNL    20      -8.634  13.993  68.207  1.00  0.00    -0.168 OA 
HETATM   32  H   UNL    20     -11.858  13.333  64.440  1.00  0.00     0.000 HD 
HETATM   33  O   UNL    20     -10.627  14.606  66.232  1.00  0.00    -0.293 OA 
HETATM   34  C   UNL    20      -8.874  13.180  67.108  1.00  0.00    -0.222 C  
HETATM   35  H   UNL    20     -10.639  15.116  67.034  1.00  0.00     0.000 HD 
BRANCH  26  36
HETATM   36  C   UNL    20      -9.614  10.293  64.172  1.00  0.00    -0.315 C  
HETATM   37  O   UNL    20      -9.050   9.028  64.366  1.00  0.00    -0.429 OA 
HETATM   38  H   UNL    20      -8.955   8.582  63.532  1.00  0.00     0.000 HD 
ENDBRANCH  26  36
ENDBRANCH  23  24
ENDBRANCH  16  23
BRANCH  16  39
HETATM   39  C   UNL    20      -7.505  10.716  70.023  1.00  0.00     0.101 C  
HETATM   40  O   UNL    20      -7.096  11.874  69.346  1.00  0.00    -0.284 OA 
HETATM   41  H   UNL    20      -6.432  12.338  69.842  1.00  0.00     0.000 HD 
ENDBRANCH  16  39
ENDBRANCH  12  14
TORSDOF 5
ENDMDL
MODEL      209
REMARK 921   NORMALIZED FREE ENERGY PREDICTED BY IDOCK:   -2.88 KCAL/MOL
REMARK 922        TOTAL FREE ENERGY PREDICTED BY IDOCK:   -5.30 KCAL/MOL
REMARK 923 INTER-LIGAND FREE ENERGY PREDICTED BY IDOCK:   -4.29 KCAL/MOL
REMARK 924 INTRA-LIGAND FREE ENERGY PREDICTED BY IDOCK:   -1.01 KCAL/MOL
REMARK 927      BINDING AFFINITY PREDICTED BY RF-SCORE:    0.00 PKD
ROOT
HETATM    1  O   HOH     4     -10.844  19.512  67.628  1.00  0.00    -0.444 OA 
HETATM    2  H2  HOH     4     -11.158  18.665  67.923  1.00  0.00     0.000 HD 
HETATM    3 NA   UNL    13     -10.675  14.624  72.730  1.00  0.00    -0.294 Na 
HETATM    4  H1  HOH     4     -10.240  19.799  68.304  1.00  0.00     0.000 HD 
HETATM    5 NA   UNL    14     -13.032  17.503  68.245  1.00  0.00     1.124 Na 
HETATM    6 FE   UNL    15     -13.335  15.926  70.954  1.00  0.00    -0.445 Fe 
HETATM    7 FE   UNL    16      -9.391  17.754  69.092  1.00  0.00    -0.262 Fe 
HETATM    8 FE   UNL    17     -12.207  15.491  67.360  1.00  0.00    -0.252 Fe 
HETATM    9 FE   UNL    18      -8.538  17.811  67.099  1.00  0.00    -0.208 Fe 
HETATM   10 FE   UNL    19      -9.415  12.924  66.488  1.00  0.00    -0.206 Fe 
HETATM   11  O   UNL    20      -9.327  15.331  67.967  1.00  0.00    -0.194 OA 
HETATM   12  C   UNL    20      -8.085  15.444  68.609  1.00  0.00    -0.156 C  
HETATM   13  H   UNL    20      -9.835  16.133  67.913  1.00  0.00     0.000 HD 
ENDROOT
BRANCH  12  14
HETATM   14  C   UNL    20      -7.259  14.140  68.696  1.00  0.00    -0.116 C  
HETATM   15  O   UNL    20      -8.025  13.095  69.242  1.00  0.00     0.325 OA 
HETATM   16  C   UNL    20      -7.384  11.888  68.916  1.00  0.00    -0.080 C  
HETATM   17  C   UNL    20      -6.572  13.623  67.413  1.00  0.00     0.030 C  
HETATM   18  H   UNL    20      -4.811  13.712  66.579  1.00  0.00     0.000 HD 
HETATM   19  C   UNL    20      -6.684  12.085  67.527  1.00  0.00    -0.120 C  
HETATM   20  H   UNL    20      -6.987  11.703  65.598  1.00  0.00     0.000 HD 
HETATM   21  O   UNL    20      -5.233  14.030  67.368  1.00  0.00    -0.333 OA 
HETATM   22  O   UNL    20      -7.411  11.584  66.439  1.00  0.00    -0.068 OA 
BRANCH  16  23
HETATM   23  O   UNL    20      -8.282  10.771  69.087  1.00  0.00    -0.154 OA 
BRANCH  23  24
HETATM   24  C   UNL    20      -9.607  10.769  68.506  1.00  0.00    -0.183 C  
HETATM   25  O   UNL    20      -9.535  10.219  67.203  1.00  0.00    -0.155 OA 
HETATM   26  C   UNL    20      -9.268   8.819  67.196  1.00  0.00    -0.136 C  
HETATM   27  H   UNL    20     -11.804  10.264  70.873  1.00  0.00     0.000 HD 
HETATM   28  C   UNL    20     -10.355   8.008  67.961  1.00  0.00    -0.206 C  
HETATM   29  O   UNL    20     -10.089   6.628  67.950  1.00  0.00    -0.136 OA 
HETATM   30  C   UNL    20     -10.500   8.538  69.380  1.00  0.00    -0.218 C  
HETATM   31  O   UNL    20     -11.091  10.702  70.423  1.00  0.00    -0.285 OA 
HETATM   32  H   UNL    20     -10.752   6.133  68.416  1.00  0.00     0.000 HD 
HETATM   33  O   UNL    20     -11.577   7.902  70.010  1.00  0.00    -0.475 OA 
HETATM   34  C   UNL    20     -10.769  10.053  69.239  1.00  0.00    -0.224 C  
HETATM   35  H   UNL    20     -11.667   8.232  70.896  1.00  0.00     0.000 HD 
BRANCH  26  36
HETATM   36  C   UNL    20      -9.282   8.350  65.719  1.00  0.00    -0.111 C  
HETATM   37  O   UNL    20      -8.170   8.860  65.044  1.00  0.00    -0.134 OA 
HETATM   38  H   UNL    20      -8.178   8.572  64.138  1.00  0.00     0.000 HD 
ENDBRANCH  26  36
ENDBRANCH  23  24
ENDBRANCH  16  23
BRANCH  16  39
HETATM   39  C   UNL    20      -6.240  11.683  69.956  1.00  0.00    -0.140 C  
HETATM   40  O   UNL    20      -5.605  10.448  69.761  1.00  0.00    -0.037 OA 
HETATM   41  H   UNL    20      -4.908  10.324  70.394  1.00  0.00     0.000 HD 
ENDBRANCH  16  39
ENDBRANCH  12  14
TORSDOF 5
ENDMDL
MODEL      210
REMARK 921   NORMALIZED FREE ENERGY PREDICTED BY IDOCK:   -2.73 KCAL/MOL
REMARK 922        TOTAL FREE ENERGY PREDICTED BY IDOCK:   -5.11 KCAL/MOL
REMARK 923 INTER-LIGAND FREE ENERGY PREDICTED BY IDOCK:   -4.54 KCAL/MOL
REMARK 924 INTRA-LIGAND FREE ENERGY PREDICTED BY IDOCK:   -0.57 KCAL/MOL
REMARK 927      BINDING AFFINITY PREDICTED BY RF-SCORE:    0.00 PKD
ROOT
HETATM    1  O   HOH     4      -8.951   7.783  62.511  1.00  0.00    -0.292 OA 
HETATM    2  H2  HOH     4      -9.156   7.120  63.160  1.00  0.00     0.000 HD 
HETATM    3 NA   UNL    13     -12.453   6.254  68.456  1.00  0.00    -0.257 Na 
HETATM    4  H1  HOH     4      -9.395   8.567  62.812  1.00  0.00     0.000 HD 
HETATM    5 NA   UNL    14      -9.902   5.030  63.362  1.00  0.00    -0.337 Na 
HETATM    6 FE   UNL    15     -12.126   4.467  65.519  1.00  0.00    -0.630 Fe 
HETATM    7 FE   UNL    16      -9.354   8.280  65.144  1.00  0.00    -0.306 Fe 
HETATM    8 FE   UNL    17      -8.367   4.399  65.022  1.00  0.00    -0.100 Fe 
HETATM    9 FE   UNL    18      -7.247   8.591  64.731  1.00  0.00    -0.073 Fe 
HETATM   10 FE   UNL    19      -5.988   5.048  68.032  1.00  0.00    -0.015 Fe 
HETATM   11  O   UNL    20      -7.800   6.757  66.696  1.00  0.00    -0.103 OA 
HETATM   12  C   UNL    20      -7.937   7.954  67.416  1.00  0.00    -0.122 C  
HETATM   13  H   UNL    20      -8.112   6.781  65.799  1.00  0.00     0.000 HD 
ENDROOT
BRANCH  12  14
HETATM   14  C   UNL    20      -7.429   7.915  68.876  1.00  0.00    -0.094 C  
HETATM   15  O   UNL    20      -6.877   9.153  69.249  1.00  0.00    -0.048 OA 
HETATM   16  C   UNL    20      -6.823   9.184  70.653  1.00  0.00    -0.084 C  
HETATM   17  C   UNL    20      -8.413   7.467  69.979  1.00  0.00    -0.138 C  
HETATM   18  H   UNL    20      -8.847   5.834  70.954  1.00  0.00     0.000 HD 
HETATM   19  C   UNL    20      -8.039   8.354  71.190  1.00  0.00    -0.125 C  
HETATM   20  H   UNL    20      -9.882   8.625  71.892  1.00  0.00     0.000 HD 
HETATM   21  O   UNL    20      -8.243   6.109  70.276  1.00  0.00    -0.119 OA 
HETATM   22  O   UNL    20      -9.145   9.128  71.566  1.00  0.00    -0.309 OA 
BRANCH  16  23
HETATM   23  O   UNL    20      -6.645  10.536  71.126  1.00  0.00    -0.282 OA 
BRANCH  23  24
HETATM   24  C   UNL    20      -5.454  11.297  70.815  1.00  0.00    -0.124 C  
HETATM   25  O   UNL    20      -5.308  11.361  69.408  1.00  0.00    -0.044 OA 
HETATM   26  C   UNL    20      -6.287  12.180  68.776  1.00  0.00    -0.076 C  
HETATM   27  H   UNL    20      -5.065  13.631  73.070  1.00  0.00     0.000 HD 
HETATM   28  C   UNL    20      -6.252  13.648  69.293  1.00  0.00    -0.104 C  
HETATM   29  O   UNL    20      -7.219  14.453  68.666  1.00  0.00    -0.108 OA 
HETATM   30  C   UNL    20      -6.402  13.672  70.808  1.00  0.00     0.203 C  
HETATM   31  O   UNL    20      -5.161  12.746  72.738  1.00  0.00    -0.367 OA 
HETATM   32  H   UNL    20      -7.197  15.348  68.981  1.00  0.00     0.000 HD 
HETATM   33  O   UNL    20      -6.223  14.979  71.276  1.00  0.00     0.207 OA 
HETATM   34  C   UNL    20      -5.298  12.740  71.356  1.00  0.00    -0.103 C  
HETATM   35  H   UNL    20      -6.317  14.994  72.221  1.00  0.00     0.000 HD 
BRANCH  26  36
HETATM   36  C   UNL    20      -5.964  12.206  67.261  1.00  0.00    -0.152 C  
HETATM   37  O   UNL    20      -7.146  12.147  66.517  1.00  0.00    -0.370 OA 
HETATM   38  H   UNL    20      -6.948  12.163  65.587  1.00  0.00     0.000 HD 
ENDBRANCH  26  36
ENDBRANCH  23  24
ENDBRANCH  16  23
BRANCH  16  39
HETATM   39  C   UNL    20      -5.540   8.406  71.079  1.00  0.00    -0.032 C  
HETATM   40  O   UNL    20      -5.582   8.087  72.444  1.00  0.00    -0.036 OA 
HETATM   41  H   UNL    20      -4.801   7.613  72.703  1.00  0.00     0.000 HD 
ENDBRANCH  16  39
ENDBRANCH  12  14
TORSDOF 5
ENDMDL
MODEL      211
REMARK 921   NORMALIZED FREE ENERGY PREDICTED BY IDOCK:   -2.70 KCAL/MOL
REMARK 922        TOTAL FREE ENERGY PREDICTED BY IDOCK:   -5.07 KCAL/MOL
REMARK 923 INTER-LIGAND FREE ENERGY PREDICTED BY IDOCK:   -4.11 KCAL/MOL
REMARK 924 INTRA-LIGAND FREE ENERGY PREDICTED BY IDOCK:   -0.97 KCAL/MOL
REMARK 927      BINDING AFFINITY PREDICTED BY RF-SCORE:    0.00 PKD
ROOT
HETATM    1  O   HOH     4     -13.773  11.956  64.547  1.00  0.00    -0.031 OA 
HETATM    2  H2  HOH     4     -12.884  11.868  64.221  1.00  0.00     0.000 HD 
HETATM    3 NA   UNL    13      -7.456   8.914  65.436  1.00  0.00    -0.077 Na 
HETATM    4  H1  HOH     4     -13.801  11.422  65.332  1.00  0.00     0.000 HD 
HETATM    5 NA   UNL    14     -11.730  11.420  62.368  1.00  0.00    -0.588 Na 
HETATM    6 FE   UNL    15      -9.346   9.374  62.582  1.00  0.00    -0.237 Fe 
HETATM    7 FE   UNL    16     -11.589  11.587  66.108  1.00  0.00    -0.300 Fe 
HETATM    8 FE   UNL    17     -10.110  13.086  62.701  1.00  0.00     0.053 Fe 
HETATM    9 FE   UNL    18     -12.289  13.615  66.427  1.00  0.00    -0.338 Fe 
HETATM   10 FE   UNL    19      -7.912  15.464  64.859  1.00  0.00     1.250 Fe 
HETATM   11  O   UNL    20      -9.682  13.389  65.601  1.00  0.00    -0.450 OA 
HETATM   12  C   UNL    20      -9.542  13.117  66.970  1.00  0.00    -0.241 C  
HETATM   13  H   UNL    20     -10.468  13.044  65.193  1.00  0.00     0.000 HD 
ENDROOT
BRANCH  12  14
HETATM   14  C   UNL    20      -8.263  13.679  67.633  1.00  0.00    -0.178 C  
HETATM   15  O   UNL    20      -7.937  14.942  67.108  1.00  0.00    -0.200 OA 
HETATM   16  C   UNL    20      -7.052  15.557  68.009  1.00  0.00    -0.125 C  
HETATM   17  C   UNL    20      -8.218  13.765  69.175  1.00  0.00     0.333 C  
HETATM   18  H   UNL    20      -7.534  12.705  70.663  1.00  0.00     0.000 HD 
HETATM   19  C   UNL    20      -7.427  15.066  69.449  1.00  0.00    -0.196 C  
HETATM   20  H   UNL    20      -8.456  15.661  71.046  1.00  0.00     0.000 HD 
HETATM   21  O   UNL    20      -7.562  12.652  69.716  1.00  0.00     0.743 OA 
HETATM   22  O   UNL    20      -8.228  15.959  70.173  1.00  0.00     0.473 OA 
BRANCH  16  23
HETATM   23  O   UNL    20      -6.975  16.977  67.760  1.00  0.00    -0.140 OA 
BRANCH  23  24
HETATM   24  C   UNL    20      -7.141  17.523  66.430  1.00  0.00    -0.286 C  
HETATM   25  O   UNL    20      -8.482  17.330  66.020  1.00  0.00    -0.489 OA 
HETATM   26  C   UNL    20      -9.411  18.144  66.730  1.00  0.00    -0.286 C  
HETATM   27  H   UNL    20      -5.207  20.138  66.109  1.00  0.00     0.000 HD 
HETATM   28  C   UNL    20      -9.110  19.662  66.565  1.00  0.00    -0.373 C  
HETATM   29  O   UNL    20     -10.030  20.462  67.266  1.00  0.00    -0.435 OA 
HETATM   30  C   UNL    20      -7.678  19.960  66.986  1.00  0.00    -0.278 C  
HETATM   31  O   UNL    20      -5.423  19.229  66.276  1.00  0.00    -0.156 OA 
HETATM   32  H   UNL    20      -9.847  21.389  67.165  1.00  0.00     0.000 HD 
HETATM   33  O   UNL    20      -7.373  21.296  66.698  1.00  0.00    -0.670 OA 
HETATM   34  C   UNL    20      -6.788  19.006  66.157  1.00  0.00    -0.235 C  
HETATM   35  H   UNL    20      -6.479  21.482  66.960  1.00  0.00     0.000 HD 
BRANCH  26  36
HETATM   36  C   UNL    20     -10.816  17.874  66.134  1.00  0.00     0.058 C  
HETATM   37  O   UNL    20     -10.988  18.611  64.959  1.00  0.00    -0.559 OA 
HETATM   38  H   UNL    20     -11.850  18.446  64.593  1.00  0.00     0.000 HD 
ENDBRANCH  26  36
ENDBRANCH  23  24
ENDBRANCH  16  23
BRANCH  16  39
HETATM   39  C   UNL    20      -5.629  14.990  67.711  1.00  0.00    -0.071 C  
HETATM   40  O   UNL    20      -5.242  14.074  68.699  1.00  0.00    -0.081 OA 
HETATM   41  H   UNL    20      -4.376  13.729  68.518  1.00  0.00     0.000 HD 
ENDBRANCH  16  39
ENDBRANCH  12  14
TORSDOF 5
ENDMDL
MODEL      212
REMARK 921   NORMALIZED FREE ENERGY PREDICTED BY IDOCK:   -2.64 KCAL/MOL
REMARK 922        TOTAL FREE ENERGY PREDICTED BY IDOCK:   -4.99 KCAL/MOL
REMARK 923 INTER-LIGAND FREE ENERGY PREDICTED BY IDOCK:   -3.93 KCAL/MOL
REMARK 924 INTRA-LIGAND FREE ENERGY PREDICTED BY IDOCK:   -1.06 KCAL/MOL
REMARK 927      BINDING AFFINITY PREDICTED BY RF-SCORE:    0.00 PKD
ROOT
HETATM    1  O   HOH     4      -6.432   7.772  62.485  1.00  0.00    -0.074 OA 
HETATM    2  H2  HOH     4      -7.065   8.330  62.922  1.00  0.00     0.000 HD 
HETATM    3 NA   UNL    13      -7.450  13.524  66.463  1.00  0.00    -0.363 Na 
HETATM    4  H1  HOH     4      -5.586   8.147  62.700  1.00  0.00     0.000 HD 
HETATM    5 NA   UNL    14      -8.950   9.464  62.562  1.00  0.00    -0.168 Na 
HETATM    6 FE   UNL    15      -9.120  12.413  63.652  1.00  0.00    -0.479 Fe 
HETATM    7 FE   UNL    16      -5.989   9.069  64.823  1.00  0.00    -0.056 Fe 
HETATM    8 FE   UNL    17      -9.981   8.838  64.576  1.00  0.00    -0.339 Fe 
HETATM    9 FE   UNL    18      -6.124   6.949  65.263  1.00  0.00    -0.029 Fe 
HETATM   10 FE   UNL    19     -10.013   7.740  68.309  1.00  0.00    -0.150 Fe 
HETATM   11  O   UNL    20      -7.887   8.546  66.630  1.00  0.00    -0.089 OA 
HETATM   12  C   UNL    20      -6.727   8.731  67.396  1.00  0.00    -0.066 C  
HETATM   13  H   UNL    20      -7.752   8.474  65.692  1.00  0.00     0.000 HD 
ENDROOT
BRANCH  12  14
HETATM   14  C   UNL    20      -6.946   8.847  68.922  1.00  0.00    -0.065 C  
HETATM   15  O   UNL    20      -7.916   7.928  69.362  1.00  0.00    -0.112 OA 
HETATM   16  C   UNL    20      -7.769   7.795  70.752  1.00  0.00    -0.084 C  
HETATM   17  C   UNL    20      -5.714   8.738  69.847  1.00  0.00    -0.028 C  
HETATM   18  H   UNL    20      -4.482   9.940  70.763  1.00  0.00     0.000 HD 
HETATM   19  C   UNL    20      -6.250   7.984  71.088  1.00  0.00    -0.034 C  
HETATM   20  H   UNL    20      -4.621   6.901  71.456  1.00  0.00     0.000 HD 
HETATM   21  O   UNL    20      -5.239  10.008  70.194  1.00  0.00    -0.036 OA 
HETATM   22  O   UNL    20      -5.541   6.787  71.253  1.00  0.00    -0.027 OA 
BRANCH  16  23
HETATM   23  O   UNL    20      -8.439   6.607  71.224  1.00  0.00    -0.124 OA 
BRANCH  23  24
HETATM   24  C   UNL    20      -9.445   5.937  70.428  1.00  0.00    -0.163 C  
HETATM   25  O   UNL    20      -8.851   5.486  69.226  1.00  0.00    -0.105 OA 
HETATM   26  C   UNL    20      -7.940   4.408  69.417  1.00  0.00    -0.061 C  
HETATM   27  H   UNL    20     -11.544   4.422  72.425  1.00  0.00     0.000 HD 
HETATM   28  C   UNL    20      -8.622   3.168  70.067  1.00  0.00    -0.060 C  
HETATM   29  O   UNL    20      -7.720   2.106  70.252  1.00  0.00    -0.042 OA 
HETATM   30  C   UNL    20      -9.292   3.566  71.374  1.00  0.00    -0.143 C  
HETATM   31  O   UNL    20     -11.062   5.155  72.059  1.00  0.00    -0.145 OA 
HETATM   32  H   UNL    20      -8.137   1.349  70.648  1.00  0.00     0.000 HD 
HETATM   33  O   UNL    20     -10.023   2.483  71.875  1.00  0.00    -0.160 OA 
HETATM   34  C   UNL    20     -10.231   4.743  71.025  1.00  0.00    -0.168 C  
HETATM   35  H   UNL    20     -10.442   2.731  72.691  1.00  0.00     0.000 HD 
BRANCH  26  36
HETATM   36  C   UNL    20      -7.423   3.982  68.019  1.00  0.00    -0.067 C  
HETATM   37  O   UNL    20      -6.047   3.744  68.069  1.00  0.00    -0.030 OA 
HETATM   38  H   UNL    20      -5.729   3.483  67.212  1.00  0.00     0.000 HD 
ENDBRANCH  26  36
ENDBRANCH  23  24
ENDBRANCH  16  23
BRANCH  16  39
HETATM   39  C   UNL    20      -8.514   8.998  71.408  1.00  0.00    -0.080 C  
HETATM   40  O   UNL    20      -8.832   8.719  72.745  1.00  0.00    -0.382 OA 
HETATM   41  H   UNL    20      -9.285   9.452  73.144  1.00  0.00     0.000 HD 
ENDBRANCH  16  39
ENDBRANCH  12  14
TORSDOF 5
ENDMDL
MODEL      213
REMARK 921   NORMALIZED FREE ENERGY PREDICTED BY IDOCK:   -2.58 KCAL/MOL
REMARK 922        TOTAL FREE ENERGY PREDICTED BY IDOCK:   -4.93 KCAL/MOL
REMARK 923 INTER-LIGAND FREE ENERGY PREDICTED BY IDOCK:   -4.03 KCAL/MOL
REMARK 924 INTRA-LIGAND FREE ENERGY PREDICTED BY IDOCK:   -0.89 KCAL/MOL
REMARK 927      BINDING AFFINITY PREDICTED BY RF-SCORE:    0.00 PKD
ROOT
HETATM    1  O   HOH     4     -12.228  16.190  64.119  1.00  0.00    -0.803 OA 
HETATM    2  H2  HOH     4     -11.882  15.835  64.930  1.00  0.00     0.000 HD 
HETATM    3 NA   UNL    13      -6.442  14.457  67.789  1.00  0.00    -0.086 Na 
HETATM    4  H1  HOH     4     -11.464  16.357  63.579  1.00  0.00     0.000 HD 
HETATM    5 NA   UNL    14     -12.004  16.072  67.142  1.00  0.00    -0.071 Na 
HETATM    6 FE   UNL    15      -9.305  16.125  68.764  1.00  0.00    -0.173 Fe 
HETATM    7 FE   UNL    16      -9.980  14.689  64.309  1.00  0.00    -0.369 Fe 
HETATM    8 FE   UNL    17     -12.048  13.773  67.616  1.00  0.00    -0.276 Fe 
HETATM    9 FE   UNL    18     -11.488  13.490  63.312  1.00  0.00    -0.525 Fe 
HETATM   10 FE   UNL    19     -11.246  10.030  66.918  1.00  0.00    -0.250 Fe 
HETATM   11  O   UNL    20     -10.424  12.383  65.587  1.00  0.00    -0.250 OA 
HETATM   12  C   UNL    20      -9.420  12.072  64.657  1.00  0.00     0.129 C  
HETATM   13  H   UNL    20     -10.838  13.231  65.474  1.00  0.00     0.000 HD 
ENDROOT
BRANCH  12  14
HETATM   14  C   UNL    20      -8.746  10.693  64.840  1.00  0.00    -0.168 C  
HETATM   15  O   UNL    20      -8.332  10.508  66.171  1.00  0.00    -0.143 OA 
HETATM   16  C   UNL    20      -8.121   9.133  66.359  1.00  0.00    -0.107 C  
HETATM   17  C   UNL    20      -9.524   9.436  64.392  1.00  0.00     0.185 C  
HETATM   18  H   UNL    20      -9.612   8.268  62.832  1.00  0.00     0.000 HD 
HETATM   19  C   UNL    20      -9.139   8.369  65.444  1.00  0.00     0.010 C  
HETATM   20  H   UNL    20     -10.908   7.463  65.553  1.00  0.00     0.000 HD 
HETATM   21  O   UNL    20      -9.134   9.041  63.107  1.00  0.00    -0.021 OA 
HETATM   22  O   UNL    20     -10.291   7.925  66.108  1.00  0.00     0.110 OA 
BRANCH  16  23
HETATM   23  O   UNL    20      -8.078   8.811  67.766  1.00  0.00    -0.106 OA 
BRANCH  23  24
HETATM   24  C   UNL    20      -8.722   9.648  68.754  1.00  0.00    -0.126 C  
HETATM   25  O   UNL    20      -8.978   8.874  69.912  1.00  0.00    -0.143 OA 
HETATM   26  C   UNL    20      -7.797   8.524  70.628  1.00  0.00    -0.091 C  
HETATM   27  H   UNL    20      -7.567  12.694  68.483  1.00  0.00     0.000 HD 
HETATM   28  C   UNL    20      -7.000   9.776  71.098  1.00  0.00     0.216 C  
HETATM   29  O   UNL    20      -5.836   9.426  71.805  1.00  0.00    -0.089 OA 
HETATM   30  C   UNL    20      -6.682  10.670  69.908  1.00  0.00    -0.147 C  
HETATM   31  O   UNL    20      -7.987  11.891  68.197  1.00  0.00    -0.134 OA 
HETATM   32  H   UNL    20      -5.350  10.190  72.092  1.00  0.00     0.000 HD 
HETATM   33  O   UNL    20      -6.095  11.859  70.358  1.00  0.00    -0.259 OA 
HETATM   34  C   UNL    20      -8.037  10.956  69.221  1.00  0.00    -0.055 C  
HETATM   35  H   UNL    20      -5.897  12.417  69.615  1.00  0.00     0.000 HD 
BRANCH  26  36
HETATM   36  C   UNL    20      -8.234   7.742  71.892  1.00  0.00    -0.109 C  
HETATM   37  O   UNL    20      -7.141   7.064  72.439  1.00  0.00    -0.065 OA 
HETATM   38  H   UNL    20      -7.409   6.584  73.214  1.00  0.00     0.000 HD 
ENDBRANCH  26  36
ENDBRANCH  23  24
ENDBRANCH  16  23
BRANCH  16  39
HETATM   39  C   UNL    20      -6.702   8.807  65.800  1.00  0.00    -0.068 C  
HETATM   40  O   UNL    20      -5.726   9.596  66.425  1.00  0.00    -0.051 OA 
HETATM   41  H   UNL    20      -4.862   9.397  66.085  1.00  0.00     0.000 HD 
ENDBRANCH  16  39
ENDBRANCH  12  14
TORSDOF 5
ENDMDL
MODEL      214
REMARK 921   NORMALIZED FREE ENERGY PREDICTED BY IDOCK:   -2.53 KCAL/MOL
REMARK 922        TOTAL FREE ENERGY PREDICTED BY IDOCK:   -4.86 KCAL/MOL
REMARK 923 INTER-LIGAND FREE ENERGY PREDICTED BY IDOCK:   -3.79 KCAL/MOL
REMARK 924 INTRA-LIGAND FREE ENERGY PREDICTED BY IDOCK:   -1.06 KCAL/MOL
REMARK 927      BINDING AFFINITY PREDICTED BY RF-SCORE:    0.00 PKD
ROOT
HETATM    1  O   HOH     4     -12.698  15.016  67.948  1.00  0.00     0.033 OA 
HETATM    2  H2  HOH     4     -11.834  15.319  68.202  1.00  0.00     0.000 HD 
HETATM    3 NA   UNL    13      -6.119  16.484  65.826  1.00  0.00     0.040 Na 
HETATM    4  H1  HOH     4     -12.624  14.810  67.023  1.00  0.00     0.000 HD 
HETATM    5 NA   UNL    14     -10.798  16.982  69.263  1.00  0.00    -0.254 Na 
HETATM    6 FE   UNL    15      -8.256  18.239  67.894  1.00  0.00    -0.220 Fe 
HETATM    7 FE   UNL    16     -10.378  14.142  66.856  1.00  0.00    -0.246 Fe 
HETATM    8 FE   UNL    17      -9.288  15.607  70.422  1.00  0.00    -0.242 Fe 
HETATM    9 FE   UNL    18     -11.202  12.518  68.033  1.00  0.00    -0.200 Fe 
HETATM   10 FE   UNL    19      -7.115  12.418  70.917  1.00  0.00     0.029 Fe 
HETATM   11  O   UNL    20      -8.658  13.288  68.715  1.00  0.00    -0.359 OA 
HETATM   12  C   UNL    20      -8.391  12.477  67.602  1.00  0.00    -0.172 C  
HETATM   13  H   UNL    20      -9.446  13.817  68.656  1.00  0.00     0.000 HD 
ENDROOT
BRANCH  12  14
HETATM   14  C   UNL    20      -7.110  11.616  67.697  1.00  0.00    -0.095 C  
HETATM   15  O   UNL    20      -7.416  10.300  68.088  1.00  0.00    -0.084 OA 
HETATM   16  C   UNL    20      -6.313   9.496  67.759  1.00  0.00    -0.057 C  
HETATM   17  C   UNL    20      -6.178  11.555  66.467  1.00  0.00    -0.072 C  
HETATM   18  H   UNL    20      -4.553  12.432  65.838  1.00  0.00     0.000 HD 
HETATM   19  C   UNL    20      -5.655  10.099  66.471  1.00  0.00    -0.047 C  
HETATM   20  H   UNL    20      -5.630   9.828  64.499  1.00  0.00     0.000 HD 
HETATM   21  O   UNL    20      -5.126  12.470  66.594  1.00  0.00    -0.298 OA 
HETATM   22  O   UNL    20      -6.029   9.462  65.280  1.00  0.00    -0.060 OA 
BRANCH  16  23
HETATM   23  O   UNL    20      -6.681   8.100  67.760  1.00  0.00    -0.062 OA 
BRANCH  23  24
HETATM   24  C   UNL    20      -8.058   7.680  67.609  1.00  0.00    -0.121 C  
HETATM   25  O   UNL    20      -8.337   7.514  66.231  1.00  0.00    -0.120 OA 
HETATM   26  C   UNL    20      -7.679   6.390  65.654  1.00  0.00    -0.094 C  
HETATM   27  H   UNL    20      -8.878   5.800  70.154  1.00  0.00     0.000 HD 
HETATM   28  C   UNL    20      -8.073   5.054  66.351  1.00  0.00    -0.108 C  
HETATM   29  O   UNL    20      -7.423   3.948  65.777  1.00  0.00    -0.078 OA 
HETATM   30  C   UNL    20      -7.804   5.147  67.846  1.00  0.00    -0.091 C  
HETATM   31  O   UNL    20      -8.571   6.582  69.710  1.00  0.00    -0.133 OA 
HETATM   32  H   UNL    20      -7.663   3.133  66.202  1.00  0.00     0.000 HD 
HETATM   33  O   UNL    20      -8.295   4.000  68.482  1.00  0.00    -0.084 OA 
HETATM   34  C   UNL    20      -8.558   6.405  68.333  1.00  0.00    -0.115 C  
HETATM   35  H   UNL    20      -8.128   4.057  69.415  1.00  0.00     0.000 HD 
BRANCH  26  36
HETATM   36  C   UNL    20      -8.127   6.299  64.173  1.00  0.00    -0.067 C  
HETATM   37  O   UNL    20      -8.575   7.546  63.729  1.00  0.00    -0.350 OA 
HETATM   38  H   UNL    20      -8.849   7.490  62.821  1.00  0.00     0.000 HD 
ENDBRANCH  26  36
ENDBRANCH  23  24
ENDBRANCH  16  23
BRANCH  16  39
HETATM   39  C   UNL    20      -5.266   9.665  68.903  1.00  0.00    -0.036 C  
HETATM   40  O   UNL    20      -5.414   8.657  69.866  1.00  0.00    -0.029 OA 
HETATM   41  H   UNL    20      -4.777   8.760  70.563  1.00  0.00     0.000 HD 
ENDBRANCH  16  39
ENDBRANCH  12  14
TORSDOF 5
ENDMDL
MODEL      215
REMARK 921   NORMALIZED FREE ENERGY PREDICTED BY IDOCK:   -2.50 KCAL/MOL
REMARK 922        TOTAL FREE ENERGY PREDICTED BY IDOCK:   -4.82 KCAL/MOL
REMARK 923 INTER-LIGAND FREE ENERGY PREDICTED BY IDOCK:   -4.40 KCAL/MOL
REMARK 924 INTRA-LIGAND FREE ENERGY PREDICTED BY IDOCK:   -0.42 KCAL/MOL
REMARK 927      BINDING AFFINITY PREDICTED BY RF-SCORE:    0.00 PKD
ROOT
HETATM    1  O   HOH     4     -12.818  14.185  67.015  1.00  0.00    -0.350 OA 
HETATM    2  H2  HOH     4     -12.229  14.000  67.737  1.00  0.00     0.000 HD 
HETATM    3 NA   UNL    13      -6.293  14.939  69.622  1.00  0.00    -0.094 Na 
HETATM    4  H1  HOH     4     -12.288  14.647  66.377  1.00  0.00     0.000 HD 
HETATM    5 NA   UNL    14     -12.059  14.166  69.952  1.00  0.00    -0.234 Na 
HETATM    6 FE   UNL    15      -9.374  15.305  71.138  1.00  0.00    -0.158 Fe 
HETATM    7 FE   UNL    16     -10.162  13.721  66.753  1.00  0.00    -0.239 Fe 
HETATM    8 FE   UNL    17     -11.103  12.045  70.268  1.00  0.00    -0.420 Fe 
HETATM    9 FE   UNL    18     -11.211  12.015  65.920  1.00  0.00    -0.259 Fe 
HETATM   10 FE   UNL    19      -9.006   8.947  69.200  1.00  0.00    -0.125 Fe 
HETATM   11  O   UNL    20      -9.427  11.432  67.922  1.00  0.00    -0.164 OA 
HETATM   12  C   UNL    20      -8.556  11.554  66.830  1.00  0.00    -0.170 C  
HETATM   13  H   UNL    20     -10.158  12.040  67.933  1.00  0.00     0.000 HD 
ENDROOT
BRANCH  12  14
HETATM   14  C   UNL    20      -7.368  10.565  66.811  1.00  0.00    -0.114 C  
HETATM   15  O   UNL    20      -7.819   9.235  66.885  1.00  0.00    -0.097 OA 
HETATM   16  C   UNL    20      -6.768   8.409  66.455  1.00  0.00    -0.060 C  
HETATM   17  C   UNL    20      -6.347  10.671  65.656  1.00  0.00    -0.103 C  
HETATM   18  H   UNL    20      -4.606  11.489  65.335  1.00  0.00     0.000 HD 
HETATM   19  C   UNL    20      -5.956   9.202  65.373  1.00  0.00    -0.058 C  
HETATM   20  H   UNL    20      -5.794   9.354  63.395  1.00  0.00     0.000 HD 
HETATM   21  O   UNL    20      -5.233  11.424  66.045  1.00  0.00    -0.249 OA 
HETATM   22  O   UNL    20      -6.286   8.874  64.051  1.00  0.00    -0.072 OA 
BRANCH  16  23
HETATM   23  O   UNL    20      -7.255   7.091  66.127  1.00  0.00    -0.071 OA 
BRANCH  23  24
HETATM   24  C   UNL    20      -8.426   6.901  65.298  1.00  0.00    -0.055 C  
HETATM   25  O   UNL    20      -8.221   5.772  64.469  1.00  0.00    -0.132 OA 
HETATM   26  C   UNL    20      -8.231   4.540  65.184  1.00  0.00    -0.112 C  
HETATM   27  H   UNL    20     -11.077   7.814  66.978  1.00  0.00     0.000 HD 
HETATM   28  C   UNL    20      -9.576   4.303  65.932  1.00  0.00    -0.191 C  
HETATM   29  O   UNL    20      -9.583   3.085  66.634  1.00  0.00    -0.392 OA 
HETATM   30  C   UNL    20      -9.877   5.479  66.850  1.00  0.00    -0.163 C  
HETATM   31  O   UNL    20     -10.223   7.914  66.574  1.00  0.00    -0.251 OA 
HETATM   32  H   UNL    20     -10.404   2.941  67.090  1.00  0.00     0.000 HD 
HETATM   33  O   UNL    20     -11.153   5.326  67.405  1.00  0.00    -0.097 OA 
HETATM   34  C   UNL    20      -9.819   6.738  65.956  1.00  0.00     0.292 C  
HETATM   35  H   UNL    20     -11.341   6.060  67.979  1.00  0.00     0.000 HD 
BRANCH  26  36
HETATM   36  C   UNL    20      -8.062   3.399  64.148  1.00  0.00    -0.086 C  
HETATM   37  O   UNL    20      -9.312   2.991  63.675  1.00  0.00    -0.095 OA 
HETATM   38  H   UNL    20      -9.208   2.292  63.039  1.00  0.00     0.000 HD 
ENDBRANCH  26  36
ENDBRANCH  23  24
ENDBRANCH  16  23
BRANCH  16  39
HETATM   39  C   UNL    20      -5.807   8.223  67.670  1.00  0.00    -0.043 C  
HETATM   40  O   UNL    20      -6.214   9.014  68.753  1.00  0.00    -0.044 OA 
HETATM   41  H   UNL    20      -5.629   8.900  69.493  1.00  0.00     0.000 HD 
ENDBRANCH  16  39
ENDBRANCH  12  14
TORSDOF 5
ENDMDL
MODEL      216
REMARK 921   NORMALIZED FREE ENERGY PREDICTED BY IDOCK:   -2.40 KCAL/MOL
REMARK 922        TOTAL FREE ENERGY PREDICTED BY IDOCK:   -4.69 KCAL/MOL
REMARK 923 INTER-LIGAND FREE ENERGY PREDICTED BY IDOCK:   -3.68 KCAL/MOL
REMARK 924 INTRA-LIGAND FREE ENERGY PREDICTED BY IDOCK:   -1.02 KCAL/MOL
REMARK 927      BINDING AFFINITY PREDICTED BY RF-SCORE:    0.00 PKD
ROOT
HETATM    1  O   HOH     4     -12.496  15.834  68.588  1.00  0.00    -0.434 OA 
HETATM    2  H2  HOH     4     -11.592  16.091  68.730  1.00  0.00     0.000 HD 
HETATM    3 NA   UNL    13      -6.075  16.574  65.730  1.00  0.00     0.040 Na 
HETATM    4  H1  HOH     4     -12.528  15.536  67.687  1.00  0.00     0.000 HD 
HETATM    5 NA   UNL    14     -10.343  17.761  69.516  1.00  0.00    -0.314 Na 
HETATM    6 FE   UNL    15      -7.869  18.679  67.797  1.00  0.00    -0.220 Fe 
HETATM    7 FE   UNL    16     -10.361  14.682  67.382  1.00  0.00    -0.227 Fe 
HETATM    8 FE   UNL    17      -8.823  16.389  70.664  1.00  0.00     0.733 Fe 
HETATM    9 FE   UNL    18     -11.174  13.246  68.790  1.00  0.00    -0.204 Fe 
HETATM   10 FE   UNL    19      -6.837  13.100  71.280  1.00  0.00    -0.197 Fe 
HETATM   11  O   UNL    20      -8.528  13.876  69.152  1.00  0.00    -0.353 OA 
HETATM   12  C   UNL    20      -8.429  12.944  68.108  1.00  0.00    -0.176 C  
HETATM   13  H   UNL    20      -9.279  14.457  69.113  1.00  0.00     0.000 HD 
ENDROOT
BRANCH  12  14
HETATM   14  C   UNL    20      -7.208  11.998  68.172  1.00  0.00    -0.090 C  
HETATM   15  O   UNL    20      -7.522  10.817  68.867  1.00  0.00    -0.097 OA 
HETATM   16  C   UNL    20      -6.546   9.862  68.539  1.00  0.00    -0.054 C  
HETATM   17  C   UNL    20      -6.512  11.614  66.848  1.00  0.00    -0.134 C  
HETATM   18  H   UNL    20      -4.971  12.195  65.802  1.00  0.00     0.000 HD 
HETATM   19  C   UNL    20      -6.088  10.143  67.066  1.00  0.00    -0.055 C  
HETATM   20  H   UNL    20      -6.426   9.498  65.214  1.00  0.00     0.000 HD 
HETATM   21  O   UNL    20      -5.398  12.431  66.616  1.00  0.00    -0.308 OA 
HETATM   22  O   UNL    20      -6.703   9.329  66.106  1.00  0.00    -0.072 OA 
BRANCH  16  23
HETATM   23  O   UNL    20      -6.995   8.534  68.883  1.00  0.00    -0.060 OA 
BRANCH  23  24
HETATM   24  C   UNL    20      -8.323   8.072  68.544  1.00  0.00    -0.127 C  
HETATM   25  O   UNL    20      -8.212   6.983  67.646  1.00  0.00    -0.115 OA 
HETATM   26  C   UNL    20      -7.695   5.802  68.253  1.00  0.00    -0.093 C  
HETATM   27  H   UNL    20     -10.278   8.460  71.134  1.00  0.00     0.000 HD 
HETATM   28  C   UNL    20      -8.580   5.313  69.438  1.00  0.00    -0.101 C  
HETATM   29  O   UNL    20      -8.067   4.147  70.033  1.00  0.00    -0.058 OA 
HETATM   30  C   UNL    20      -8.753   6.430  70.456  1.00  0.00    -0.144 C  
HETATM   31  O   UNL    20      -9.679   8.725  70.446  1.00  0.00    -0.167 OA 
HETATM   32  H   UNL    20      -8.607   3.848  70.755  1.00  0.00     0.000 HD 
HETATM   33  O   UNL    20      -9.665   6.030  71.441  1.00  0.00    -0.163 OA 
HETATM   34  C   UNL    20      -9.299   7.641  69.666  1.00  0.00    -0.156 C  
HETATM   35  H   UNL    20      -9.773   6.727  72.077  1.00  0.00     0.000 HD 
BRANCH  26  36
HETATM   36  C   UNL    20      -7.692   4.688  67.176  1.00  0.00    -0.090 C  
HETATM   37  O   UNL    20      -8.788   3.840  67.359  1.00  0.00    -0.107 OA 
HETATM   38  H   UNL    20      -8.787   3.157  66.699  1.00  0.00     0.000 HD 
ENDBRANCH  26  36
ENDBRANCH  23  24
ENDBRANCH  16  23
BRANCH  16  39
HETATM   39  C   UNL    20      -5.306  10.146  69.443  1.00  0.00    -0.038 C  
HETATM   40  O   UNL    20      -5.700  10.704  70.667  1.00  0.00    -0.093 OA 
HETATM   41  H   UNL    20      -4.945  10.876  71.217  1.00  0.00     0.000 HD 
ENDBRANCH  16  39
ENDBRANCH  12  14
TORSDOF 5
ENDMDL
MODEL      217
REMARK 921   NORMALIZED FREE ENERGY PREDICTED BY IDOCK:   -2.38 KCAL/MOL
REMARK 922        TOTAL FREE ENERGY PREDICTED BY IDOCK:   -4.67 KCAL/MOL
REMARK 923 INTER-LIGAND FREE ENERGY PREDICTED BY IDOCK:   -4.53 KCAL/MOL
REMARK 924 INTRA-LIGAND FREE ENERGY PREDICTED BY IDOCK:   -0.14 KCAL/MOL
REMARK 927      BINDING AFFINITY PREDICTED BY RF-SCORE:    0.00 PKD
ROOT
HETATM    1  O   HOH     4     -10.581   4.545  71.148  1.00  0.00    -0.010 OA 
HETATM    2  H2  HOH     4     -10.319   4.550  70.235  1.00  0.00     0.000 HD 
HETATM    3 NA   UNL    13      -5.212   4.954  66.571  1.00  0.00    -0.006 Na 
HETATM    4  H1  HOH     4      -9.775   4.667  71.636  1.00  0.00     0.000 HD 
HETATM    5 NA   UNL    14     -10.544   3.403  68.337  1.00  0.00     0.235 Na 
HETATM    6 FE   UNL    15      -7.951   2.852  66.638  1.00  0.00    -0.071 Fe 
HETATM    7 FE   UNL    16      -8.504   5.971  70.149  1.00  0.00    -0.107 Fe 
HETATM    8 FE   UNL    17     -10.839   5.286  66.967  1.00  0.00    -0.204 Fe 
HETATM    9 FE   UNL    18     -10.061   7.376  70.700  1.00  0.00    -0.182 Fe 
HETATM   10 FE   UNL    19     -10.365   9.022  65.985  1.00  0.00    -0.260 Fe 
HETATM   11  O   UNL    20      -9.243   7.498  68.084  1.00  0.00    -0.138 OA 
HETATM   12  C   UNL    20      -8.222   8.232  68.706  1.00  0.00    -0.117 C  
HETATM   13  H   UNL    20      -9.566   6.750  68.574  1.00  0.00     0.000 HD 
ENDROOT
BRANCH  12  14
HETATM   14  C   UNL    20      -7.697   9.449  67.911  1.00  0.00    -0.088 C  
HETATM   15  O   UNL    20      -8.755  10.294  67.528  1.00  0.00    -0.125 OA 
HETATM   16  C   UNL    20      -8.198  11.540  67.194  1.00  0.00    -0.161 C  
HETATM   17  C   UNL    20      -6.587  10.315  68.548  1.00  0.00    -0.052 C  
HETATM   18  H   UNL    20      -4.644  10.464  68.467  1.00  0.00     0.000 HD 
HETATM   19  C   UNL    20      -6.938  11.753  68.101  1.00  0.00    -0.076 C  
HETATM   20  H   UNL    20      -6.403  12.683  69.777  1.00  0.00     0.000 HD 
HETATM   21  O   UNL    20      -5.326   9.932  68.076  1.00  0.00    -0.039 OA 
HETATM   22  O   UNL    20      -7.166  12.554  69.228  1.00  0.00     0.005 OA 
BRANCH  16  23
HETATM   23  O   UNL    20      -9.215  12.564  67.171  1.00  0.00    -0.191 OA 
BRANCH  23  24
HETATM   24  C   UNL    20      -9.110  13.717  66.303  1.00  0.00     0.028 C  
HETATM   25  O   UNL    20      -9.556  13.357  65.009  1.00  0.00     0.037 OA 
HETATM   26  C   UNL    20     -10.961  13.133  64.938  1.00  0.00    -0.318 C  
HETATM   27  H   UNL    20      -9.704  16.416  68.049  1.00  0.00     0.000 HD 
HETATM   28  C   UNL    20     -11.780  14.388  65.357  1.00  0.00    -0.362 C  
HETATM   29  O   UNL    20     -13.166  14.163  65.285  1.00  0.00    -0.760 OA 
HETATM   30  C   UNL    20     -11.361  14.846  66.747  1.00  0.00    -0.328 C  
HETATM   31  O   UNL    20      -9.263  15.607  67.816  1.00  0.00    -0.192 OA 
HETATM   32  H   UNL    20     -13.666  14.929  65.540  1.00  0.00     0.000 HD 
HETATM   33  O   UNL    20     -11.996  16.055  67.053  1.00  0.00     0.607 OA 
HETATM   34  C   UNL    20      -9.828  15.036  66.684  1.00  0.00    -0.254 C  
HETATM   35  H   UNL    20     -11.735  16.341  67.921  1.00  0.00     0.000 HD 
BRANCH  26  36
HETATM   36  C   UNL    20     -11.308  12.815  63.462  1.00  0.00    -0.420 C  
HETATM   37  O   UNL    20     -12.483  13.474  63.092  1.00  0.00    -0.948 OA 
HETATM   38  H   UNL    20     -12.696  13.279  62.187  1.00  0.00     0.000 HD 
ENDBRANCH  26  36
ENDBRANCH  23  24
ENDBRANCH  16  23
BRANCH  16  39
HETATM   39  C   UNL    20      -7.669  11.426  65.731  1.00  0.00     0.332 C  
HETATM   40  O   UNL    20      -6.274  11.287  65.715  1.00  0.00    -0.365 OA 
HETATM   41  H   UNL    20      -5.952  11.217  64.825  1.00  0.00     0.000 HD 
ENDBRANCH  16  39
ENDBRANCH  12  14
TORSDOF 5
ENDMDL
MODEL      218
REMARK 921   NORMALIZED FREE ENERGY PREDICTED BY IDOCK:   -2.17 KCAL/MOL
REMARK 922        TOTAL FREE ENERGY PREDICTED BY IDOCK:   -4.39 KCAL/MOL
REMARK 923 INTER-LIGAND FREE ENERGY PREDICTED BY IDOCK:   -3.96 KCAL/MOL
REMARK 924 INTRA-LIGAND FREE ENERGY PREDICTED BY IDOCK:   -0.42 KCAL/MOL
REMARK 927      BINDING AFFINITY PREDICTED BY RF-SCORE:    0.00 PKD
ROOT
HETATM    1  O   HOH     4     -13.850  12.299  64.857  1.00  0.00     0.369 OA 
HETATM    2  H2  HOH     4     -12.989  12.221  64.461  1.00  0.00     0.000 HD 
HETATM    3 NA   UNL    13      -7.564   9.073  65.031  1.00  0.00    -0.088 Na 
HETATM    4  H1  HOH     4     -13.836  11.701  65.595  1.00  0.00     0.000 HD 
HETATM    5 NA   UNL    14     -11.981  11.909  62.499  1.00  0.00    -0.605 Na 
HETATM    6 FE   UNL    15      -9.639   9.807  62.370  1.00  0.00    -0.248 Fe 
HETATM    7 FE   UNL    16     -11.571  11.758  66.220  1.00  0.00    -0.287 Fe 
HETATM    8 FE   UNL    17     -10.300  13.510  62.849  1.00  0.00     0.035 Fe 
HETATM    9 FE   UNL    18     -12.195  13.765  66.755  1.00  0.00    -0.327 Fe 
HETATM   10 FE   UNL    19      -7.896  15.655  65.031  1.00  0.00     0.965 Fe 
HETATM   11  O   UNL    20      -9.660  13.560  65.726  1.00  0.00    -0.468 OA 
HETATM   12  C   UNL    20      -9.430  13.171  67.054  1.00  0.00    -0.242 C  
HETATM   13  H   UNL    20     -10.482  13.265  65.349  1.00  0.00     0.000 HD 
ENDROOT
BRANCH  12  14
HETATM   14  C   UNL    20      -8.094  13.650  67.666  1.00  0.00    -0.177 C  
HETATM   15  O   UNL    20      -7.700  14.882  67.113  1.00  0.00    -0.202 OA 
HETATM   16  C   UNL    20      -6.744  15.444  67.975  1.00  0.00    -0.144 C  
HETATM   17  C   UNL    20      -7.990  13.751  69.204  1.00  0.00     0.247 C  
HETATM   18  H   UNL    20      -7.332  12.665  70.684  1.00  0.00     0.000 HD 
HETATM   19  C   UNL    20      -7.103  14.998  69.434  1.00  0.00    -0.186 C  
HETATM   20  H   UNL    20      -8.033  15.682  71.055  1.00  0.00     0.000 HD 
HETATM   21  O   UNL    20      -7.395  12.602  69.739  1.00  0.00     0.478 OA 
HETATM   22  O   UNL    20      -7.816  15.953  70.171  1.00  0.00     0.401 OA 
BRANCH  16  23
HETATM   23  O   UNL    20      -6.578  16.852  67.703  1.00  0.00    -0.131 OA 
BRANCH  23  24
HETATM   24  C   UNL    20      -7.632  17.806  67.976  1.00  0.00    -0.236 C  
HETATM   25  O   UNL    20      -7.238  18.623  69.063  1.00  0.00    -0.296 OA 
HETATM   26  C   UNL    20      -6.181  19.521  68.739  1.00  0.00    -0.249 C  
HETATM   27  H   UNL    20      -9.085  18.617  65.163  1.00  0.00     0.000 HD 
HETATM   28  C   UNL    20      -6.560  20.483  67.575  1.00  0.00    -0.277 C  
HETATM   29  O   UNL    20      -5.514  21.368  67.259  1.00  0.00    -0.271 OA 
HETATM   30  C   UNL    20      -6.999  19.681  66.358  1.00  0.00    -0.226 C  
HETATM   31  O   UNL    20      -8.780  18.039  65.853  1.00  0.00    -0.506 OA 
HETATM   32  H   UNL    20      -5.746  21.955  66.549  1.00  0.00     0.000 HD 
HETATM   33  O   UNL    20      -7.475  20.552  65.370  1.00  0.00    -0.530 OA 
HETATM   34  C   UNL    20      -8.128  18.748  66.852  1.00  0.00    -0.259 C  
HETATM   35  H   UNL    20      -7.750  20.052  64.610  1.00  0.00     0.000 HD 
BRANCH  26  36
HETATM   36  C   UNL    20      -5.904  20.387  69.994  1.00  0.00    -0.352 C  
HETATM   37  O   UNL    20      -6.953  20.255  70.909  1.00  0.00    -0.147 OA 
HETATM   38  H   UNL    20      -6.783  20.786  71.678  1.00  0.00     0.000 HD 
ENDBRANCH  26  36
ENDBRANCH  23  24
ENDBRANCH  16  23
BRANCH  16  39
HETATM   39  C   UNL    20      -5.375  14.777  67.639  1.00  0.00     0.075 C  
HETATM   40  O   UNL    20      -5.139  13.676  68.475  1.00  0.00    -0.078 OA 
HETATM   41  H   UNL    20      -4.306  13.270  68.270  1.00  0.00     0.000 HD 
ENDBRANCH  16  39
ENDBRANCH  12  14
TORSDOF 5
ENDMDL
MODEL      219
REMARK 921   NORMALIZED FREE ENERGY PREDICTED BY IDOCK:   -2.16 KCAL/MOL
REMARK 922        TOTAL FREE ENERGY PREDICTED BY IDOCK:   -4.38 KCAL/MOL
REMARK 923 INTER-LIGAND FREE ENERGY PREDICTED BY IDOCK:   -3.94 KCAL/MOL
REMARK 924 INTRA-LIGAND FREE ENERGY PREDICTED BY IDOCK:   -0.44 KCAL/MOL
REMARK 927      BINDING AFFINITY PREDICTED BY RF-SCORE:    0.00 PKD
ROOT
HETATM    1  O   HOH     4      -9.507  14.455  69.219  1.00  0.00    -0.401 OA 
HETATM    2  H2  HOH     4      -9.678  13.524  69.304  1.00  0.00     0.000 HD 
HETATM    3 NA   UNL    13      -6.844   8.107  70.820  1.00  0.00    -0.037 Na 
HETATM    4  H1  HOH     4      -8.582  14.554  69.416  1.00  0.00     0.000 HD 
HETATM    5 NA   UNL    14     -11.075  12.075  70.260  1.00  0.00    -0.420 Na 
HETATM    6 FE   UNL    15      -9.829   9.587  71.733  1.00  0.00    -0.268 Fe 
HETATM    7 FE   UNL    16      -7.708  12.503  68.674  1.00  0.00    -0.096 Fe 
HETATM    8 FE   UNL    17     -11.257  10.667  68.391  1.00  0.00    -0.180 Fe 
HETATM    9 FE   UNL    18      -8.286  13.409  66.790  1.00  0.00    -0.170 Fe 
HETATM   10 FE   UNL    19      -9.991   9.019  65.101  1.00  0.00    -0.363 Fe 
HETATM   11  O   UNL    20      -8.682  10.699  66.959  1.00  0.00    -0.127 OA 
HETATM   12  C   UNL    20      -7.309  10.741  66.671  1.00  0.00    -0.134 C  
HETATM   13  H   UNL    20      -9.000  11.385  67.535  1.00  0.00     0.000 HD 
ENDROOT
BRANCH  12  14
HETATM   14  C   UNL    20      -6.791   9.625  65.734  1.00  0.00    -0.093 C  
HETATM   15  O   UNL    20      -7.042   8.353  66.280  1.00  0.00    -0.075 OA 
HETATM   16  C   UNL    20      -6.936   7.419  65.236  1.00  0.00    -0.059 C  
HETATM   17  C   UNL    20      -7.265   9.628  64.264  1.00  0.00    -0.122 C  
HETATM   18  H   UNL    20      -6.612  10.249  62.534  1.00  0.00     0.000 HD 
HETATM   19  C   UNL    20      -7.408   8.127  63.919  1.00  0.00    -0.101 C  
HETATM   20  H   UNL    20      -9.021   8.279  62.762  1.00  0.00     0.000 HD 
HETATM   21  O   UNL    20      -6.320  10.248  63.438  1.00  0.00    -0.138 OA 
HETATM   22  O   UNL    20      -8.734   7.851  63.560  1.00  0.00     0.248 OA 
BRANCH  16  23
HETATM   23  O   UNL    20      -7.550   6.167  65.608  1.00  0.00    -0.080 OA 
BRANCH  23  24
HETATM   24  C   UNL    20      -8.911   6.106  66.094  1.00  0.00    -0.155 C  
HETATM   25  O   UNL    20      -9.325   4.753  66.125  1.00  0.00    -0.135 OA 
HETATM   26  C   UNL    20      -8.676   3.988  67.137  1.00  0.00    -0.112 C  
HETATM   27  H   UNL    20      -9.364   8.487  68.287  1.00  0.00     0.000 HD 
HETATM   28  C   UNL    20      -8.926   4.562  68.562  1.00  0.00    -0.112 C  
HETATM   29  O   UNL    20      -8.285   3.804  69.557  1.00  0.00    -0.054 OA 
HETATM   30  C   UNL    20      -8.507   6.024  68.617  1.00  0.00    -0.113 C  
HETATM   31  O   UNL    20      -9.146   8.107  67.444  1.00  0.00    -0.132 OA 
HETATM   32  H   UNL    20      -8.439   4.154  70.427  1.00  0.00     0.000 HD 
HETATM   33  O   UNL    20      -8.870   6.570  69.854  1.00  0.00    -0.141 OA 
HETATM   34  C   UNL    20      -9.268   6.725  67.468  1.00  0.00    -0.122 C  
HETATM   35  H   UNL    20      -8.609   7.483  69.889  1.00  0.00     0.000 HD 
BRANCH  26  36
HETATM   36  C   UNL    20      -9.271   2.558  67.094  1.00  0.00    -0.109 C  
HETATM   37  O   UNL    20      -8.591   1.783  66.151  1.00  0.00    -0.101 OA 
HETATM   38  H   UNL    20      -8.956   0.906  66.124  1.00  0.00     0.000 HD 
ENDBRANCH  26  36
ENDBRANCH  23  24
ENDBRANCH  16  23
BRANCH  16  39
HETATM   39  C   UNL    20      -5.418   7.114  65.047  1.00  0.00    -0.032 C  
HETATM   40  O   UNL    20      -5.192   5.732  64.975  1.00  0.00    -0.009 OA 
HETATM   41  H   UNL    20      -4.268   5.547  64.860  1.00  0.00     0.000 HD 
ENDBRANCH  16  39
ENDBRANCH  12  14
TORSDOF 5
ENDMDL
MODEL      220
REMARK 921   NORMALIZED FREE ENERGY PREDICTED BY IDOCK:   -2.10 KCAL/MOL
REMARK 922        TOTAL FREE ENERGY PREDICTED BY IDOCK:   -4.30 KCAL/MOL
REMARK 923 INTER-LIGAND FREE ENERGY PREDICTED BY IDOCK:   -4.53 KCAL/MOL
REMARK 924 INTRA-LIGAND FREE ENERGY PREDICTED BY IDOCK:    0.23 KCAL/MOL
REMARK 927      BINDING AFFINITY PREDICTED BY RF-SCORE:    0.00 PKD
ROOT
HETATM    1  O   HOH     4     -11.989  15.517  63.959  1.00  0.00    -0.918 OA 
HETATM    2  H2  HOH     4     -11.480  15.786  64.715  1.00  0.00     0.000 HD 
HETATM    3 NA   UNL    13      -5.547  16.115  66.801  1.00  0.00    -0.131 Na 
HETATM    4  H1  HOH     4     -11.354  15.165  63.347  1.00  0.00     0.000 HD 
HETATM    5 NA   UNL    14     -11.161  17.506  66.094  1.00  0.00    -0.217 Na 
HETATM    6 FE   UNL    15      -8.194  18.332  66.750  1.00  0.00    -0.208 Fe 
HETATM    7 FE   UNL    16      -9.715  14.304  64.794  1.00  0.00    -0.369 Fe 
HETATM    8 FE   UNL    17     -11.057  16.213  68.051  1.00  0.00    -0.274 Fe 
HETATM    9 FE   UNL    18     -11.364  12.952  65.190  1.00  0.00    -0.285 Fe 
HETATM   10 FE   UNL    19     -10.324  12.977  70.084  1.00  0.00    -0.233 Fe 
HETATM   11  O   UNL    20      -9.840  13.615  67.374  1.00  0.00    -0.227 OA 
HETATM   12  C   UNL    20      -9.036  12.623  66.792  1.00  0.00    -0.214 C  
HETATM   13  H   UNL    20     -10.288  14.189  66.763  1.00  0.00     0.000 HD 
ENDROOT
BRANCH  12  14
HETATM   14  C   UNL    20      -8.308  11.689  67.786  1.00  0.00    -0.143 C  
HETATM   15  O   UNL    20      -8.583  10.340  67.501  1.00  0.00    -0.119 OA 
HETATM   16  C   UNL    20      -7.602   9.565  68.141  1.00  0.00    -0.079 C  
HETATM   17  C   UNL    20      -6.780  11.850  67.953  1.00  0.00    -0.079 C  
HETATM   18  H   UNL    20      -5.545  12.749  69.166  1.00  0.00     0.000 HD 
HETATM   19  C   UNL    20      -6.276  10.402  68.157  1.00  0.00    -0.051 C  
HETATM   20  H   UNL    20      -4.569  10.578  67.149  1.00  0.00     0.000 HD 
HETATM   21  O   UNL    20      -6.484  12.650  69.063  1.00  0.00    -0.085 OA 
HETATM   22  O   UNL    20      -5.372  10.071  67.139  1.00  0.00    -0.041 OA 
BRANCH  16  23
HETATM   23  O   UNL    20      -7.570   8.229  67.597  1.00  0.00    -0.095 OA 
BRANCH  23  24
HETATM   24  C   UNL    20      -6.785   7.907  66.424  1.00  0.00    -0.054 C  
HETATM   25  O   UNL    20      -6.608   6.504  66.364  1.00  0.00    -0.045 OA 
HETATM   26  C   UNL    20      -7.804   5.798  66.052  1.00  0.00    -0.101 C  
HETATM   27  H   UNL    20      -7.507  10.032  64.047  1.00  0.00     0.000 HD 
HETATM   28  C   UNL    20      -8.403   6.229  64.681  1.00  0.00    -0.026 C  
HETATM   29  O   UNL    20      -9.583   5.528  64.376  1.00  0.00    -0.030 OA 
HETATM   30  C   UNL    20      -8.626   7.734  64.659  1.00  0.00     0.179 C  
HETATM   31  O   UNL    20      -7.212   9.750  64.905  1.00  0.00    -0.116 OA 
HETATM   32  H   UNL    20      -9.948   5.790  63.539  1.00  0.00     0.000 HD 
HETATM   33  O   UNL    20      -9.026   8.130  63.376  1.00  0.00    -0.120 OA 
HETATM   34  C   UNL    20      -7.265   8.368  65.025  1.00  0.00    -0.084 C  
HETATM   35  H   UNL    20      -9.165   9.069  63.362  1.00  0.00     0.000 HD 
BRANCH  26  36
HETATM   36  C   UNL    20      -7.445   4.293  65.957  1.00  0.00    -0.085 C  
HETATM   37  O   UNL    20      -7.938   3.757  64.764  1.00  0.00    -0.088 OA 
HETATM   38  H   UNL    20      -7.717   2.834  64.706  1.00  0.00     0.000 HD 
ENDBRANCH  26  36
ENDBRANCH  23  24
ENDBRANCH  16  23
BRANCH  16  39
HETATM   39  C   UNL    20      -8.039   9.412  69.631  1.00  0.00    -0.123 C  
HETATM   40  O   UNL    20      -6.922   9.257  70.464  1.00  0.00    -0.069 OA 
HETATM   41  H   UNL    20      -7.188   9.164  71.371  1.00  0.00     0.000 HD 
ENDBRANCH  16  39
ENDBRANCH  12  14
TORSDOF 5
ENDMDL
MODEL      221
REMARK 921   NORMALIZED FREE ENERGY PREDICTED BY IDOCK:   -2.08 KCAL/MOL
REMARK 922        TOTAL FREE ENERGY PREDICTED BY IDOCK:   -4.27 KCAL/MOL
REMARK 923 INTER-LIGAND FREE ENERGY PREDICTED BY IDOCK:   -2.93 KCAL/MOL
REMARK 924 INTRA-LIGAND FREE ENERGY PREDICTED BY IDOCK:   -1.34 KCAL/MOL
REMARK 927      BINDING AFFINITY PREDICTED BY RF-SCORE:    0.00 PKD
ROOT
HETATM    1  O   HOH     4     -14.210  11.884  64.743  1.00  0.00     1.828 OA 
HETATM    2  H2  HOH     4     -13.338  11.809  64.374  1.00  0.00     0.000 HD 
HETATM    3 NA   UNL    13      -7.881   8.771  65.187  1.00  0.00    -0.085 Na 
HETATM    4  H1  HOH     4     -14.207  11.309  65.500  1.00  0.00     0.000 HD 
HETATM    5 NA   UNL    14     -12.271  11.453  62.450  1.00  0.00    -0.724 Na 
HETATM    6 FE   UNL    15      -9.894   9.388  62.449  1.00  0.00    -0.419 Fe 
HETATM    7 FE   UNL    16     -11.961  11.423  66.183  1.00  0.00    -0.291 Fe 
HETATM    8 FE   UNL    17     -10.626  13.092  62.795  1.00  0.00    -0.399 Fe 
HETATM    9 FE   UNL    18     -12.632  13.435  66.638  1.00  0.00    -0.364 Fe 
HETATM   10 FE   UNL    19      -8.317  15.343  64.973  1.00  0.00     0.267 Fe 
HETATM   11  O   UNL    20     -10.066  13.241  65.685  1.00  0.00    -0.287 OA 
HETATM   12  C   UNL    20      -9.866  12.897  67.030  1.00  0.00    -0.233 C  
HETATM   13  H   UNL    20     -10.872  12.921  65.296  1.00  0.00     0.000 HD 
ENDROOT
BRANCH  12  14
HETATM   14  C   UNL    20      -8.555  13.417  67.663  1.00  0.00    -0.193 C  
HETATM   15  O   UNL    20      -8.288  14.736  67.255  1.00  0.00    -0.185 OA 
HETATM   16  C   UNL    20      -7.355  15.275  68.156  1.00  0.00    -0.114 C  
HETATM   17  C   UNL    20      -8.406  13.342  69.199  1.00  0.00     0.510 C  
HETATM   18  H   UNL    20      -7.604  12.149  70.518  1.00  0.00     0.000 HD 
HETATM   19  C   UNL    20      -7.622  14.626  69.557  1.00  0.00    -0.042 C  
HETATM   20  H   UNL    20      -8.549  15.026  71.273  1.00  0.00     0.000 HD 
HETATM   21  O   UNL    20      -7.696  12.195  69.574  1.00  0.00     0.378 OA 
HETATM   22  O   UNL    20      -8.387  15.419  70.424  1.00  0.00     0.545 OA 
BRANCH  16  23
HETATM   23  O   UNL    20      -7.320  16.714  68.054  1.00  0.00    -0.149 OA 
BRANCH  23  24
HETATM   24  C   UNL    20      -6.071  17.445  68.064  1.00  0.00    -0.150 C  
HETATM   25  O   UNL    20      -5.908  18.088  66.813  1.00  0.00    -0.137 OA 
HETATM   26  C   UNL    20      -6.815  19.168  66.612  1.00  0.00    -0.195 C  
HETATM   27  H   UNL    20      -5.518  18.566  71.084  1.00  0.00     0.000 HD 
HETATM   28  C   UNL    20      -6.668  20.271  67.701  1.00  0.00    -0.264 C  
HETATM   29  O   UNL    20      -7.564  21.335  67.499  1.00  0.00    -0.514 OA 
HETATM   30  C   UNL    20      -6.829  19.662  69.087  1.00  0.00    -0.348 C  
HETATM   31  O   UNL    20      -5.681  17.915  70.411  1.00  0.00    -0.238 OA 
HETATM   32  H   UNL    20      -7.474  22.009  68.163  1.00  0.00     0.000 HD 
HETATM   33  O   UNL    20      -6.552  20.630  70.060  1.00  0.00    -0.200 OA 
HETATM   34  C   UNL    20      -5.806  18.506  69.161  1.00  0.00    -0.227 C  
HETATM   35  H   UNL    20      -6.653  20.250  70.925  1.00  0.00     0.000 HD 
BRANCH  26  36
HETATM   36  C   UNL    20      -6.478  19.810  65.243  1.00  0.00    -0.276 C  
HETATM   37  O   UNL    20      -5.930  21.082  65.431  1.00  0.00    -0.241 OA 
HETATM   38  H   UNL    20      -5.723  21.476  64.592  1.00  0.00     0.000 HD 
ENDBRANCH  26  36
ENDBRANCH  23  24
ENDBRANCH  16  23
BRANCH  16  39
HETATM   39  C   UNL    20      -5.946  14.778  67.706  1.00  0.00    -0.107 C  
HETATM   40  O   UNL    20      -5.375  13.951  68.683  1.00  0.00    -0.080 OA 
HETATM   41  H   UNL    20      -4.517  13.648  68.409  1.00  0.00     0.000 HD 
ENDBRANCH  16  39
ENDBRANCH  12  14
TORSDOF 5
ENDMDL
MODEL      222
REMARK 921   NORMALIZED FREE ENERGY PREDICTED BY IDOCK:   -2.07 KCAL/MOL
REMARK 922        TOTAL FREE ENERGY PREDICTED BY IDOCK:   -4.27 KCAL/MOL
REMARK 923 INTER-LIGAND FREE ENERGY PREDICTED BY IDOCK:   -4.58 KCAL/MOL
REMARK 924 INTRA-LIGAND FREE ENERGY PREDICTED BY IDOCK:    0.32 KCAL/MOL
REMARK 927      BINDING AFFINITY PREDICTED BY RF-SCORE:    0.00 PKD
ROOT
HETATM    1  O   HOH     4     -12.358  14.802  68.626  1.00  0.00    -0.583 OA 
HETATM    2  H2  HOH     4     -11.716  14.599  67.955  1.00  0.00     0.000 HD 
HETATM    3 NA   UNL    13      -9.880   9.941  64.134  1.00  0.00    -0.261 Na 
HETATM    4  H1  HOH     4     -12.852  13.999  68.744  1.00  0.00     0.000 HD 
HETATM    5 NA   UNL    14     -10.886  15.358  66.032  1.00  0.00    -0.281 Na 
HETATM    6 FE   UNL    15     -10.527  13.302  63.674  1.00  0.00    -0.377 Fe 
HETATM    7 FE   UNL    16     -11.240  12.362  68.253  1.00  0.00    -0.190 Fe 
HETATM    8 FE   UNL    17      -8.644  14.896  66.553  1.00  0.00    -0.194 Fe 
HETATM    9 FE   UNL    18     -10.456  13.167  70.108  1.00  0.00    -0.368 Fe 
HETATM   10 FE   UNL    19      -5.784  12.947  68.333  1.00  0.00    -0.055 Fe 
HETATM   11  O   UNL    20      -8.569  12.479  68.239  1.00  0.00    -0.180 OA 
HETATM   12  C   UNL    20      -8.855  11.221  68.790  1.00  0.00    -0.102 C  
HETATM   13  H   UNL    20      -9.313  13.065  68.148  1.00  0.00     0.000 HD 
ENDROOT
BRANCH  12  14
HETATM   14  C   UNL    20      -7.646  10.269  68.938  1.00  0.00    -0.094 C  
HETATM   15  O   UNL    20      -7.985   9.141  69.707  1.00  0.00    -0.083 OA 
HETATM   16  C   UNL    20      -7.015   8.156  69.459  1.00  0.00    -0.050 C  
HETATM   17  C   UNL    20      -6.934   9.788  67.654  1.00  0.00    -0.086 C  
HETATM   18  H   UNL    20      -5.370  10.280  66.597  1.00  0.00     0.000 HD 
HETATM   19  C   UNL    20      -6.531   8.330  67.979  1.00  0.00    -0.057 C  
HETATM   20  H   UNL    20      -6.847   7.565  66.169  1.00  0.00     0.000 HD 
HETATM   21  O   UNL    20      -5.807  10.576  67.386  1.00  0.00    -0.044 OA 
HETATM   22  O   UNL    20      -7.140   7.460  67.066  1.00  0.00    -0.079 OA 
BRANCH  16  23
HETATM   23  O   UNL    20      -7.485   6.859  69.885  1.00  0.00    -0.089 OA 
BRANCH  23  24
HETATM   24  C   UNL    20      -7.754   6.571  71.277  1.00  0.00    -0.095 C  
HETATM   25  O   UNL    20      -8.622   7.565  71.791  1.00  0.00    -0.113 OA 
HETATM   26  C   UNL    20      -9.945   7.483  71.269  1.00  0.00    -0.186 C  
HETATM   27  H   UNL    20      -7.799   3.330  71.701  1.00  0.00     0.000 HD 
HETATM   28  C   UNL    20     -10.614   6.110  71.572  1.00  0.00    -0.239 C  
HETATM   29  O   UNL    20     -11.920   6.034  71.057  1.00  0.00    -0.051 OA 
HETATM   30  C   UNL    20      -9.741   4.977  71.052  1.00  0.00    -0.184 C  
HETATM   31  O   UNL    20      -7.436   4.173  71.455  1.00  0.00    -0.055 OA 
HETATM   32  H   UNL    20     -12.328   5.196  71.243  1.00  0.00     0.000 HD 
HETATM   33  O   UNL    20     -10.277   3.748  71.456  1.00  0.00    -0.108 OA 
HETATM   34  C   UNL    20      -8.346   5.197  71.679  1.00  0.00    -0.117 C  
HETATM   35  H   UNL    20      -9.732   3.041  71.132  1.00  0.00     0.000 HD 
BRANCH  26  36
HETATM   36  C   UNL    20     -10.788   8.582  71.964  1.00  0.00    -0.335 C  
HETATM   37  O   UNL    20     -10.269   9.845  71.666  1.00  0.00     0.129 OA 
HETATM   38  H   UNL    20     -10.787  10.519  72.091  1.00  0.00     0.000 HD 
ENDBRANCH  26  36
ENDBRANCH  23  24
ENDBRANCH  16  23
BRANCH  16  39
HETATM   39  C   UNL    20      -5.787   8.486  70.362  1.00  0.00    -0.027 C  
HETATM   40  O   UNL    20      -5.429   7.377  71.142  1.00  0.00    -0.027 OA 
HETATM   41  H   UNL    20      -4.681   7.579  71.691  1.00  0.00     0.000 HD 
ENDBRANCH  16  39
ENDBRANCH  12  14
TORSDOF 5
ENDMDL
MODEL      223
REMARK 921   NORMALIZED FREE ENERGY PREDICTED BY IDOCK:   -2.06 KCAL/MOL
REMARK 922        TOTAL FREE ENERGY PREDICTED BY IDOCK:   -4.25 KCAL/MOL
REMARK 923 INTER-LIGAND FREE ENERGY PREDICTED BY IDOCK:   -4.94 KCAL/MOL
REMARK 924 INTRA-LIGAND FREE ENERGY PREDICTED BY IDOCK:    0.69 KCAL/MOL
REMARK 927      BINDING AFFINITY PREDICTED BY RF-SCORE:    0.00 PKD
ROOT
HETATM    1  O   HOH     4      -8.923   7.517  62.392  1.00  0.00    -0.301 OA 
HETATM    2  H2  HOH     4      -9.157   6.890  63.067  1.00  0.00     0.000 HD 
HETATM    3 NA   UNL    13     -12.492   6.381  68.385  1.00  0.00    -0.335 Na 
HETATM    4  H1  HOH     4      -9.331   8.331  62.662  1.00  0.00     0.000 HD 
HETATM    5 NA   UNL    14      -9.997   4.845  63.349  1.00  0.00    -0.331 Na 
HETATM    6 FE   UNL    15     -12.244   4.466  65.522  1.00  0.00    -0.481 Fe 
HETATM    7 FE   UNL    16      -9.304   8.134  65.003  1.00  0.00    -0.351 Fe 
HETATM    8 FE   UNL    17      -8.492   4.211  65.036  1.00  0.00    -0.102 Fe 
HETATM    9 FE   UNL    18      -7.186   8.334  64.583  1.00  0.00    -0.069 Fe 
HETATM   10 FE   UNL    19      -6.087   4.872  68.023  1.00  0.00    -0.021 Fe 
HETATM   11  O   UNL    20      -7.820   6.606  66.617  1.00  0.00    -0.100 OA 
HETATM   12  C   UNL    20      -7.904   7.834  67.289  1.00  0.00    -0.117 C  
HETATM   13  H   UNL    20      -8.131   6.609  65.719  1.00  0.00     0.000 HD 
ENDROOT
BRANCH  12  14
HETATM   14  C   UNL    20      -7.399   7.831  68.751  1.00  0.00    -0.087 C  
HETATM   15  O   UNL    20      -8.119   6.906  69.529  1.00  0.00    -0.125 OA 
HETATM   16  C   UNL    20      -7.366   6.655  70.687  1.00  0.00    -0.075 C  
HETATM   17  C   UNL    20      -5.891   7.610  69.001  1.00  0.00    -0.030 C  
HETATM   18  H   UNL    20      -4.304   8.697  69.322  1.00  0.00     0.000 HD 
HETATM   19  C   UNL    20      -5.851   6.772  70.301  1.00  0.00    -0.023 C  
HETATM   20  H   UNL    20      -4.304   5.617  69.817  1.00  0.00     0.000 HD 
HETATM   21  O   UNL    20      -5.231   8.833  69.168  1.00  0.00    -0.035 OA 
HETATM   22  O   UNL    20      -5.222   5.546  70.051  1.00  0.00    -0.004 OA 
BRANCH  16  23
HETATM   23  O   UNL    20      -7.821   5.451  71.341  1.00  0.00    -0.104 OA 
BRANCH  23  24
HETATM   24  C   UNL    20      -8.033   5.400  72.772  1.00  0.00    -0.102 C  
HETATM   25  O   UNL    20      -8.811   6.518  73.159  1.00  0.00    -0.128 OA 
HETATM   26  C   UNL    20     -10.162   6.445  72.714  1.00  0.00    -0.186 C  
HETATM   27  H   UNL    20      -8.249   2.274  73.702  1.00  0.00     0.000 HD 
HETATM   28  C   UNL    20     -10.895   5.184  73.259  1.00  0.00    -0.295 C  
HETATM   29  O   UNL    20     -12.229   5.118  72.819  1.00  0.00    -0.293 OA 
HETATM   30  C   UNL    20     -10.121   3.928  72.886  1.00  0.00    -0.156 C  
HETATM   31  O   UNL    20      -7.850   3.042  73.310  1.00  0.00    -0.061 OA 
HETATM   32  H   UNL    20     -12.676   4.348  73.151  1.00  0.00     0.000 HD 
HETATM   33  O   UNL    20     -10.707   2.816  73.501  1.00  0.00    -0.150 OA 
HETATM   34  C   UNL    20      -8.684   4.147  73.410  1.00  0.00    -0.091 C  
HETATM   35  H   UNL    20     -10.224   2.032  73.269  1.00  0.00     0.000 HD 
BRANCH  26  36
HETATM   36  C   UNL    20     -10.900   7.693  73.263  1.00  0.00    -0.321 C  
HETATM   37  O   UNL    20     -10.663   8.794  72.436  1.00  0.00    -0.315 OA 
HETATM   38  H   UNL    20     -11.115   9.559  72.772  1.00  0.00     0.000 HD 
ENDBRANCH  26  36
ENDBRANCH  23  24
ENDBRANCH  16  23
BRANCH  16  39
HETATM   39  C   UNL    20      -7.654   7.821  71.683  1.00  0.00    -0.086 C  
HETATM   40  O   UNL    20      -6.485   8.547  71.952  1.00  0.00    -0.061 OA 
HETATM   41  H   UNL    20      -6.661   9.256  72.557  1.00  0.00     0.000 HD 
ENDBRANCH  16  39
ENDBRANCH  12  14
TORSDOF 5
ENDMDL
MODEL      224
REMARK 921   NORMALIZED FREE ENERGY PREDICTED BY IDOCK:   -2.00 KCAL/MOL
REMARK 922        TOTAL FREE ENERGY PREDICTED BY IDOCK:   -4.17 KCAL/MOL
REMARK 923 INTER-LIGAND FREE ENERGY PREDICTED BY IDOCK:   -4.01 KCAL/MOL
REMARK 924 INTRA-LIGAND FREE ENERGY PREDICTED BY IDOCK:   -0.15 KCAL/MOL
REMARK 927      BINDING AFFINITY PREDICTED BY RF-SCORE:    0.00 PKD
ROOT
HETATM    1  O   HOH     4     -12.615  15.339  68.922  1.00  0.00    -0.501 OA 
HETATM    2  H2  HOH     4     -12.280  14.812  68.206  1.00  0.00     0.000 HD 
HETATM    3 NA   UNL    13     -11.603   8.821  66.386  1.00  0.00     0.320 Na 
HETATM    4  H1  HOH     4     -12.919  14.712  69.568  1.00  0.00     0.000 HD 
HETATM    5 NA   UNL    14     -12.398  14.580  65.993  1.00  0.00    -0.355 Na 
HETATM    6 FE   UNL    15     -12.780  11.675  64.839  1.00  0.00    -0.247 Fe 
HETATM    7 FE   UNL    16     -11.459  12.906  69.210  1.00  0.00    -0.206 Fe 
HETATM    8 FE   UNL    17     -10.099  14.221  65.679  1.00  0.00    -0.251 Fe 
HETATM    9 FE   UNL    18     -10.095  14.381  70.025  1.00  0.00    -0.387 Fe 
HETATM   10 FE   UNL    19      -6.552  13.038  66.757  1.00  0.00    -0.258 Fe 
HETATM   11  O   UNL    20      -9.059  12.796  68.040  1.00  0.00    -0.194 OA 
HETATM   12  C   UNL    20      -8.943  11.935  69.142  1.00  0.00     0.488 C  
HETATM   13  H   UNL    20      -9.840  13.337  68.024  1.00  0.00     0.000 HD 
ENDROOT
BRANCH  12  14
HETATM   14  C   UNL    20      -7.673  11.054  69.169  1.00  0.00    -0.102 C  
HETATM   15  O   UNL    20      -7.955   9.751  68.722  1.00  0.00    -0.083 OA 
HETATM   16  C   UNL    20      -6.733   9.148  68.382  1.00  0.00    -0.059 C  
HETATM   17  C   UNL    20      -6.416  11.562  68.428  1.00  0.00    -0.051 C  
HETATM   18  H   UNL    20      -4.769  12.513  68.858  1.00  0.00     0.000 HD 
HETATM   19  C   UNL    20      -5.783  10.275  67.849  1.00  0.00    -0.041 C  
HETATM   20  H   UNL    20      -5.148  11.049  66.129  1.00  0.00     0.000 HD 
HETATM   21  O   UNL    20      -5.541  12.202  69.314  1.00  0.00    -0.063 OA 
HETATM   22  O   UNL    20      -5.723  10.366  66.452  1.00  0.00    -0.058 OA 
BRANCH  16  23
HETATM   23  O   UNL    20      -6.951   7.981  67.562  1.00  0.00    -0.071 OA 
BRANCH  23  24
HETATM   24  C   UNL    20      -7.143   6.670  68.145  1.00  0.00    -0.083 C  
HETATM   25  O   UNL    20      -8.329   6.683  68.917  1.00  0.00    -0.118 OA 
HETATM   26  C   UNL    20      -9.514   6.771  68.130  1.00  0.00    -0.120 C  
HETATM   27  H   UNL    20      -6.019   4.409  66.069  1.00  0.00     0.000 HD 
HETATM   28  C   UNL    20      -9.647   5.585  67.131  1.00  0.00    -0.134 C  
HETATM   29  O   UNL    20     -10.817   5.674  66.357  1.00  0.00    -0.571 OA 
HETATM   30  C   UNL    20      -8.405   5.496  66.256  1.00  0.00    -0.112 C  
HETATM   31  O   UNL    20      -5.980   5.175  66.630  1.00  0.00    -0.021 OA 
HETATM   32  H   UNL    20     -10.899   4.950  65.748  1.00  0.00     0.000 HD 
HETATM   33  O   UNL    20      -8.470   4.343  65.464  1.00  0.00    -0.113 OA 
HETATM   34  C   UNL    20      -7.207   5.422  67.230  1.00  0.00    -0.075 C  
HETATM   35  H   UNL    20      -7.695   4.288  64.918  1.00  0.00     0.000 HD 
BRANCH  26  36
HETATM   36  C   UNL    20     -10.722   6.710  69.098  1.00  0.00    -0.264 C  
HETATM   37  O   UNL    20     -11.005   5.382  69.429  1.00  0.00    -0.191 OA 
HETATM   38  H   UNL    20     -11.746   5.344  70.023  1.00  0.00     0.000 HD 
ENDBRANCH  26  36
ENDBRANCH  23  24
ENDBRANCH  16  23
BRANCH  16  39
HETATM   39  C   UNL    20      -6.094   8.629  69.708  1.00  0.00    -0.035 C  
HETATM   40  O   UNL    20      -6.921   8.914  70.804  1.00  0.00    -0.057 OA 
HETATM   41  H   UNL    20      -6.532   8.598  71.610  1.00  0.00     0.000 HD 
ENDBRANCH  16  39
ENDBRANCH  12  14
TORSDOF 5
ENDMDL
MODEL      225
REMARK 921   NORMALIZED FREE ENERGY PREDICTED BY IDOCK:   -1.88 KCAL/MOL
REMARK 922        TOTAL FREE ENERGY PREDICTED BY IDOCK:   -4.01 KCAL/MOL
REMARK 923 INTER-LIGAND FREE ENERGY PREDICTED BY IDOCK:   -2.83 KCAL/MOL
REMARK 924 INTRA-LIGAND FREE ENERGY PREDICTED BY IDOCK:   -1.18 KCAL/MOL
REMARK 927      BINDING AFFINITY PREDICTED BY RF-SCORE:    0.00 PKD
ROOT
HETATM    1  O   HOH     4     -12.496  15.834  68.590  1.00  0.00    -0.434 OA 
HETATM    2  H2  HOH     4     -11.592  16.087  68.738  1.00  0.00     0.000 HD 
HETATM    3 NA   UNL    13      -6.049  16.536  65.783  1.00  0.00     0.040 Na 
HETATM    4  H1  HOH     4     -12.523  15.534  67.689  1.00  0.00     0.000 HD 
HETATM    5 NA   UNL    14     -10.342  17.753  69.530  1.00  0.00    -0.314 Na 
HETATM    6 FE   UNL    15      -7.850  18.655  67.829  1.00  0.00    -0.220 Fe 
HETATM    7 FE   UNL    16     -10.357  14.668  67.404  1.00  0.00    -0.227 Fe 
HETATM    8 FE   UNL    17      -8.838  16.377  70.694  1.00  0.00     0.733 Fe 
HETATM    9 FE   UNL    18     -11.188  13.240  68.809  1.00  0.00    -0.204 Fe 
HETATM   10 FE   UNL    19      -6.872  13.080  71.335  1.00  0.00    -0.004 Fe 
HETATM   11  O   UNL    20      -8.542  13.858  69.192  1.00  0.00    -0.356 OA 
HETATM   12  C   UNL    20      -8.439  12.924  68.150  1.00  0.00    -0.176 C  
HETATM   13  H   UNL    20      -9.290  14.443  69.144  1.00  0.00     0.000 HD 
ENDROOT
BRANCH  12  14
HETATM   14  C   UNL    20      -7.223  11.972  68.227  1.00  0.00    -0.090 C  
HETATM   15  O   UNL    20      -7.549  10.794  68.922  1.00  0.00    -0.102 OA 
HETATM   16  C   UNL    20      -6.575   9.834  68.603  1.00  0.00    -0.051 C  
HETATM   17  C   UNL    20      -6.517  11.583  66.909  1.00  0.00    -0.144 C  
HETATM   18  H   UNL    20      -4.965  12.154  65.876  1.00  0.00     0.000 HD 
HETATM   19  C   UNL    20      -6.103  10.109  67.134  1.00  0.00    -0.051 C  
HETATM   20  H   UNL    20      -6.427   9.463  65.280  1.00  0.00     0.000 HD 
HETATM   21  O   UNL    20      -5.398  12.394  66.686  1.00  0.00    -0.308 OA 
HETATM   22  O   UNL    20      -6.713   9.296  66.170  1.00  0.00    -0.072 OA 
BRANCH  16  23
HETATM   23  O   UNL    20      -7.033   8.509  68.946  1.00  0.00    -0.060 OA 
BRANCH  23  24
HETATM   24  C   UNL    20      -6.112   7.473  69.363  1.00  0.00    -0.031 C  
HETATM   25  O   UNL    20      -6.413   7.103  70.695  1.00  0.00    -0.042 OA 
HETATM   26  C   UNL    20      -7.642   6.394  70.819  1.00  0.00    -0.096 C  
HETATM   27  H   UNL    20      -5.378   5.604  66.783  1.00  0.00     0.000 HD 
HETATM   28  C   UNL    20      -7.654   5.082  69.980  1.00  0.00    -0.060 C  
HETATM   29  O   UNL    20      -8.867   4.385  70.106  1.00  0.00    -0.075 OA 
HETATM   30  C   UNL    20      -7.335   5.391  68.524  1.00  0.00    -0.075 C  
HETATM   31  O   UNL    20      -5.447   6.406  67.288  1.00  0.00    -0.011 OA 
HETATM   32  H   UNL    20      -8.874   3.584  69.595  1.00  0.00     0.000 HD 
HETATM   33  O   UNL    20      -7.204   4.194  67.809  1.00  0.00    -0.062 OA 
HETATM   34  C   UNL    20      -5.998   6.166  68.540  1.00  0.00    -0.016 C  
HETATM   35  H   UNL    20      -7.006   4.387  66.900  1.00  0.00     0.000 HD 
BRANCH  26  36
HETATM   36  C   UNL    20      -7.805   6.001  72.309  1.00  0.00    -0.102 C  
HETATM   37  O   UNL    20      -7.458   4.660  72.493  1.00  0.00    -0.080 OA 
HETATM   38  H   UNL    20      -7.557   4.419  73.407  1.00  0.00     0.000 HD 
ENDBRANCH  26  36
ENDBRANCH  23  24
ENDBRANCH  16  23
BRANCH  16  39
HETATM   39  C   UNL    20      -5.342  10.113  69.517  1.00  0.00    -0.038 C  
HETATM   40  O   UNL    20      -5.743  10.676  70.737  1.00  0.00    -0.104 OA 
HETATM   41  H   UNL    20      -4.993  10.845  71.293  1.00  0.00     0.000 HD 
ENDBRANCH  16  39
ENDBRANCH  12  14
TORSDOF 5
ENDMDL
MODEL      226
REMARK 921   NORMALIZED FREE ENERGY PREDICTED BY IDOCK:   -1.85 KCAL/MOL
REMARK 922        TOTAL FREE ENERGY PREDICTED BY IDOCK:   -3.98 KCAL/MOL
REMARK 923 INTER-LIGAND FREE ENERGY PREDICTED BY IDOCK:   -5.21 KCAL/MOL
REMARK 924 INTRA-LIGAND FREE ENERGY PREDICTED BY IDOCK:    1.23 KCAL/MOL
REMARK 927      BINDING AFFINITY PREDICTED BY RF-SCORE:    0.00 PKD
ROOT
HETATM    1  O   HOH     4     -11.644  13.861  68.306  1.00  0.00    -0.295 OA 
HETATM    2  H2  HOH     4     -10.981  13.604  67.676  1.00  0.00     0.000 HD 
HETATM    3 NA   UNL    13      -9.340   8.828  63.913  1.00  0.00    -0.415 Na 
HETATM    4  H1  HOH     4     -12.219  13.108  68.380  1.00  0.00     0.000 HD 
HETATM    5 NA   UNL    14      -9.957  14.299  65.823  1.00  0.00    -0.247 Na 
HETATM    6 FE   UNL    15      -9.636  12.239  63.463  1.00  0.00    -0.297 Fe 
HETATM    7 FE   UNL    16     -10.738  11.330  67.971  1.00  0.00    -0.166 Fe 
HETATM    8 FE   UNL    17      -7.808  13.622  66.483  1.00  0.00    -0.361 Fe 
HETATM    9 FE   UNL    18     -10.007  12.041  69.885  1.00  0.00    -0.369 Fe 
HETATM   10 FE   UNL    19      -5.269  11.395  68.416  1.00  0.00    -0.042 Fe 
HETATM   11  O   UNL    20      -8.073  11.194  68.133  1.00  0.00    -0.116 OA 
HETATM   12  C   UNL    20      -8.512   9.963  68.645  1.00  0.00    -0.114 C  
HETATM   13  H   UNL    20      -8.751  11.848  68.002  1.00  0.00     0.000 HD 
ENDROOT
BRANCH  12  14
HETATM   14  C   UNL    20      -7.410   8.900  68.858  1.00  0.00    -0.075 C  
HETATM   15  O   UNL    20      -7.884   7.614  68.540  1.00  0.00    -0.116 OA 
HETATM   16  C   UNL    20      -6.765   6.786  68.355  1.00  0.00    -0.065 C  
HETATM   17  C   UNL    20      -6.051   9.106  68.153  1.00  0.00    -0.050 C  
HETATM   18  H   UNL    20      -4.291   9.825  68.589  1.00  0.00     0.000 HD 
HETATM   19  C   UNL    20      -5.614   7.673  67.767  1.00  0.00    -0.035 C  
HETATM   20  H   UNL    20      -4.773   8.122  66.019  1.00  0.00     0.000 HD 
HETATM   21  O   UNL    20      -5.126   9.699  69.022  1.00  0.00    -0.037 OA 
HETATM   22  O   UNL    20      -5.470   7.585  66.376  1.00  0.00    -0.024 OA 
BRANCH  16  23
HETATM   23  O   UNL    20      -7.134   5.579  67.656  1.00  0.00    -0.068 OA 
BRANCH  23  24
HETATM   24  C   UNL    20      -8.097   4.649  68.205  1.00  0.00    -0.084 C  
HETATM   25  O   UNL    20      -9.285   5.353  68.517  1.00  0.00    -0.107 OA 
HETATM   26  C   UNL    20     -10.002   5.787  67.365  1.00  0.00    -0.150 C  
HETATM   27  H   UNL    20      -7.702   1.738  66.772  1.00  0.00     0.000 HD 
HETATM   28  C   UNL    20     -10.417   4.600  66.447  1.00  0.00    -0.163 C  
HETATM   29  O   UNL    20     -11.125   5.032  65.312  1.00  0.00    -0.680 OA 
HETATM   30  C   UNL    20      -9.192   3.784  66.063  1.00  0.00    -0.161 C  
HETATM   31  O   UNL    20      -7.449   2.507  67.270  1.00  0.00    -0.060 OA 
HETATM   32  H   UNL    20     -11.379   4.308  64.752  1.00  0.00     0.000 HD 
HETATM   33  O   UNL    20      -9.591   2.640  65.361  1.00  0.00    -0.345 OA 
HETATM   34  C   UNL    20      -8.509   3.396  67.394  1.00  0.00    -0.097 C  
HETATM   35  H   UNL    20      -8.826   2.130  65.121  1.00  0.00     0.000 HD 
BRANCH  26  36
HETATM   36  C   UNL    20     -11.299   6.478  67.856  1.00  0.00     0.012 C  
HETATM   37  O   UNL    20     -10.982   7.599  68.629  1.00  0.00    -0.421 OA 
HETATM   38  H   UNL    20     -11.778   8.023  68.931  1.00  0.00     0.000 HD 
ENDBRANCH  26  36
ENDBRANCH  23  24
ENDBRANCH  16  23
BRANCH  16  39
HETATM   39  C   UNL    20      -6.289   6.336  69.770  1.00  0.00    -0.038 C  
HETATM   40  O   UNL    20      -6.207   4.938  69.847  1.00  0.00    -0.024 OA 
HETATM   41  H   UNL    20      -5.917   4.665  70.709  1.00  0.00     0.000 HD 
ENDBRANCH  16  39
ENDBRANCH  12  14
TORSDOF 5
ENDMDL
MODEL      227
REMARK 921   NORMALIZED FREE ENERGY PREDICTED BY IDOCK:   -1.76 KCAL/MOL
REMARK 922        TOTAL FREE ENERGY PREDICTED BY IDOCK:   -3.87 KCAL/MOL
REMARK 923 INTER-LIGAND FREE ENERGY PREDICTED BY IDOCK:   -6.93 KCAL/MOL
REMARK 924 INTRA-LIGAND FREE ENERGY PREDICTED BY IDOCK:    3.06 KCAL/MOL
REMARK 927      BINDING AFFINITY PREDICTED BY RF-SCORE:    0.00 PKD
ROOT
HETATM    1  O   HOH     4     -11.247  18.014  71.883  1.00  0.00     1.106 OA 
HETATM    2  H2  HOH     4     -11.657  17.182  71.677  1.00  0.00     0.000 HD 
HETATM    3 NA   UNL    13     -10.280  11.126  70.632  1.00  0.00    -0.323 Na 
HETATM    4  H1  HOH     4     -10.315  17.829  71.909  1.00  0.00     0.000 HD 
HETATM    5 NA   UNL    14     -13.287  15.816  72.342  1.00  0.00    -0.340 Na 
HETATM    6 FE   UNL    15     -12.622  12.747  72.585  1.00  0.00    -0.207 Fe 
HETATM    7 FE   UNL    16     -10.127  16.083  70.347  1.00  0.00    -0.258 Fe 
HETATM    8 FE   UNL    17     -14.054  15.307  70.182  1.00  0.00    -0.593 Fe 
HETATM    9 FE   UNL    18     -10.635  17.744  69.048  1.00  0.00    -0.299 Fe 
HETATM   10 FE   UNL    19     -13.658  14.817  66.342  1.00  0.00    -0.384 Fe 
HETATM   11  O   UNL    20     -11.741  15.331  68.354  1.00  0.00    -0.344 OA 
HETATM   12  C   UNL    20     -10.451  15.183  67.825  1.00  0.00    -0.247 C  
HETATM   13  H   UNL    20     -11.793  15.795  69.183  1.00  0.00     0.000 HD 
ENDROOT
BRANCH  12  14
HETATM   14  C   UNL    20     -10.366  14.429  66.478  1.00  0.00    -0.281 C  
HETATM   15  O   UNL    20     -10.454  13.039  66.673  1.00  0.00    -0.260 OA 
HETATM   16  C   UNL    20     -10.783  12.460  65.436  1.00  0.00    -0.282 C  
HETATM   17  C   UNL    20     -11.349  14.827  65.355  1.00  0.00    -0.356 C  
HETATM   18  H   UNL    20     -11.354  15.971  63.775  1.00  0.00     0.000 HD 
HETATM   19  C   UNL    20     -11.676  13.486  64.657  1.00  0.00    -0.381 C  
HETATM   20  H   UNL    20     -13.594  13.856  64.271  1.00  0.00     0.000 HD 
HETATM   21  O   UNL    20     -10.750  15.727  64.465  1.00  0.00    -0.449 OA 
HETATM   22  O   UNL    20     -13.052  13.235  64.743  1.00  0.00    -0.709 OA 
BRANCH  16  23
HETATM   23  O   UNL    20     -11.271  11.114  65.617  1.00  0.00    -0.093 OA 
BRANCH  23  24
HETATM   24  C   UNL    20     -11.280  10.479  66.917  1.00  0.00     0.081 C  
HETATM   25  O   UNL    20     -10.713   9.188  66.799  1.00  0.00    -0.177 OA 
HETATM   26  C   UNL    20      -9.310   9.208  66.552  1.00  0.00    -0.190 C  
HETATM   27  H   UNL    20     -10.835  12.760  69.215  1.00  0.00     0.000 HD 
HETATM   28  C   UNL    20      -8.524   9.937  67.681  1.00  0.00    -0.114 C  
HETATM   29  O   UNL    20      -7.140   9.953  67.435  1.00  0.00    -0.083 OA 
HETATM   30  C   UNL    20      -9.073  11.343  67.877  1.00  0.00    -0.164 C  
HETATM   31  O   UNL    20     -11.258  12.335  68.479  1.00  0.00    -0.231 OA 
HETATM   32  H   UNL    20      -6.660  10.398  68.124  1.00  0.00     0.000 HD 
HETATM   33  O   UNL    20      -8.460  11.935  68.987  1.00  0.00    -0.366 OA 
HETATM   34  C   UNL    20     -10.590  11.173  68.118  1.00  0.00    -0.193 C  
HETATM   35  H   UNL    20      -8.802  12.813  69.109  1.00  0.00     0.000 HD 
BRANCH  26  36
HETATM   36  C   UNL    20      -8.823   7.738  66.512  1.00  0.00    -0.153 C  
HETATM   37  O   UNL    20      -9.916   6.872  66.413  1.00  0.00    -0.383 OA 
HETATM   38  H   UNL    20      -9.618   5.971  66.388  1.00  0.00     0.000 HD 
ENDBRANCH  26  36
ENDBRANCH  23  24
ENDBRANCH  16  23
BRANCH  16  39
HETATM   39  C   UNL    20      -9.457  12.332  64.624  1.00  0.00     0.241 C  
HETATM   40  O   UNL    20      -9.719  11.950  63.300  1.00  0.00    -0.495 OA 
HETATM   41  H   UNL    20      -8.912  11.872  62.806  1.00  0.00     0.000 HD 
ENDBRANCH  16  39
ENDBRANCH  12  14
TORSDOF 5
ENDMDL
MODEL      228
REMARK 921   NORMALIZED FREE ENERGY PREDICTED BY IDOCK:   -1.69 KCAL/MOL
REMARK 922        TOTAL FREE ENERGY PREDICTED BY IDOCK:   -3.78 KCAL/MOL
REMARK 923 INTER-LIGAND FREE ENERGY PREDICTED BY IDOCK:   -3.20 KCAL/MOL
REMARK 924 INTRA-LIGAND FREE ENERGY PREDICTED BY IDOCK:   -0.58 KCAL/MOL
REMARK 927      BINDING AFFINITY PREDICTED BY RF-SCORE:    0.00 PKD
ROOT
HETATM    1  O   HOH     4      -6.343   2.018  66.346  1.00  0.00    -0.023 OA 
HETATM    2  H2  HOH     4      -7.087   2.609  66.357  1.00  0.00     0.000 HD 
HETATM    3 NA   UNL    13      -9.097   8.054  63.914  1.00  0.00    -0.392 Na 
HETATM    4  H1  HOH     4      -5.703   2.438  65.784  1.00  0.00     0.000 HD 
HETATM    5 NA   UNL    14      -9.299   2.653  66.092  1.00  0.00    -0.134 Na 
HETATM    6 FE   UNL    15     -10.515   4.927  64.285  1.00  0.00    -0.382 Fe 
HETATM    7 FE   UNL    16      -6.170   4.714  66.139  1.00  0.00    -0.024 Fe 
HETATM    8 FE   UNL    17      -9.716   4.095  67.897  1.00  0.00    -0.130 Fe 
HETATM    9 FE   UNL    18      -5.372   4.151  68.075  1.00  0.00    -0.009 Fe 
HETATM   10 FE   UNL    19      -8.818   6.933  70.402  1.00  0.00    -0.134 Fe 
HETATM   11  O   UNL    20      -7.441   5.952  68.138  1.00  0.00    -0.079 OA 
HETATM   12  C   UNL    20      -6.369   6.804  67.833  1.00  0.00    -0.048 C  
HETATM   13  H   UNL    20      -7.410   5.094  67.731  1.00  0.00     0.000 HD 
ENDROOT
BRANCH  12  14
HETATM   14  C   UNL    20      -6.418   8.201  68.494  1.00  0.00    -0.054 C  
HETATM   15  O   UNL    20      -7.264   9.067  67.777  1.00  0.00    -0.081 OA 
HETATM   16  C   UNL    20      -7.585  10.139  68.626  1.00  0.00    -0.086 C  
HETATM   17  C   UNL    20      -6.788   8.287  69.991  1.00  0.00    -0.043 C  
HETATM   18  H   UNL    20      -5.864   8.415  71.704  1.00  0.00     0.000 HD 
HETATM   19  C   UNL    20      -7.621   9.586  70.092  1.00  0.00    -0.142 C  
HETATM   20  H   UNL    20      -8.927   8.952  71.453  1.00  0.00     0.000 HD 
HETATM   21  O   UNL    20      -5.636   8.362  70.784  1.00  0.00    -0.028 OA 
HETATM   22  O   UNL    20      -8.905   9.286  70.565  1.00  0.00    -0.206 OA 
BRANCH  16  23
HETATM   23  O   UNL    20      -8.735  10.856  68.128  1.00  0.00    -0.124 OA 
BRANCH  23  24
HETATM   24  C   UNL    20      -9.247  12.028  68.804  1.00  0.00     0.069 C  
HETATM   25  O   UNL    20      -8.967  13.170  68.015  1.00  0.00    -0.181 OA 
HETATM   26  C   UNL    20      -9.735  13.230  66.817  1.00  0.00    -0.258 C  
HETATM   27  H   UNL    20     -11.968  11.217  70.423  1.00  0.00     0.000 HD 
HETATM   28  C   UNL    20     -11.266  13.250  67.099  1.00  0.00    -0.299 C  
HETATM   29  O   UNL    20     -12.021  13.310  65.915  1.00  0.00    -0.375 OA 
HETATM   30  C   UNL    20     -11.657  12.049  67.949  1.00  0.00    -0.337 C  
HETATM   31  O   UNL    20     -11.050  11.173  70.183  1.00  0.00    -0.205 OA 
HETATM   32  H   UNL    20     -12.955  13.323  66.087  1.00  0.00     0.000 HD 
HETATM   33  O   UNL    20     -13.003  12.154  68.319  1.00  0.00     1.400 OA 
HETATM   34  C   UNL    20     -10.744  12.100  69.196  1.00  0.00    -0.061 C  
HETATM   35  H   UNL    20     -13.247  11.404  68.850  1.00  0.00     0.000 HD 
BRANCH  26  36
HETATM   36  C   UNL    20      -9.372  14.552  66.096  1.00  0.00    -0.209 C  
HETATM   37  O   UNL    20      -9.854  14.532  64.784  1.00  0.00    -0.450 OA 
HETATM   38  H   UNL    20      -9.631  15.343  64.342  1.00  0.00     0.000 HD 
ENDBRANCH  26  36
ENDBRANCH  23  24
ENDBRANCH  16  23
BRANCH  16  39
HETATM   39  C   UNL    20      -6.393  11.143  68.567  1.00  0.00    -0.046 C  
HETATM   40  O   UNL    20      -6.339  11.921  69.732  1.00  0.00    -0.129 OA 
HETATM   41  H   UNL    20      -5.613  12.532  69.696  1.00  0.00     0.000 HD 
ENDBRANCH  16  39
ENDBRANCH  12  14
TORSDOF 5
ENDMDL
MODEL      229
REMARK 921   NORMALIZED FREE ENERGY PREDICTED BY IDOCK:   -1.66 KCAL/MOL
REMARK 922        TOTAL FREE ENERGY PREDICTED BY IDOCK:   -3.73 KCAL/MOL
REMARK 923 INTER-LIGAND FREE ENERGY PREDICTED BY IDOCK:   -2.96 KCAL/MOL
REMARK 924 INTRA-LIGAND FREE ENERGY PREDICTED BY IDOCK:   -0.77 KCAL/MOL
REMARK 927      BINDING AFFINITY PREDICTED BY RF-SCORE:    0.00 PKD
ROOT
HETATM    1  O   HOH     4     -11.142  16.881  66.104  1.00  0.00     0.082 OA 
HETATM    2  H2  HOH     4     -10.591  16.428  66.732  1.00  0.00     0.000 HD 
HETATM    3 NA   UNL    13      -6.394  11.749  67.132  1.00  0.00    -0.062 Na 
HETATM    4  H1  HOH     4     -10.999  16.431  65.280  1.00  0.00     0.000 HD 
HETATM    5 NA   UNL    14      -9.063  16.793  68.312  1.00  0.00    -0.190 Na 
HETATM    6 FE   UNL    15      -6.474  15.001  68.293  1.00  0.00    -0.084 Fe 
HETATM    7 FE   UNL    16     -10.539  14.242  65.999  1.00  0.00    -0.269 Fe 
HETATM    8 FE   UNL    17      -9.931  15.230  69.834  1.00  0.00    -0.196 Fe 
HETATM    9 FE   UNL    18     -12.635  14.416  66.526  1.00  0.00    -0.398 Fe 
HETATM   10 FE   UNL    19     -11.843  11.991  70.830  1.00  0.00    -0.309 Fe 
HETATM   11  O   UNL    20     -11.093  12.998  68.299  1.00  0.00    -0.238 OA 
HETATM   12  C   UNL    20     -11.319  12.021  67.317  1.00  0.00    -0.330 C  
HETATM   13  H   UNL    20     -10.968  13.883  67.975  1.00  0.00     0.000 HD 
ENDROOT
BRANCH  12  14
HETATM   14  C   UNL    20     -11.523  10.582  67.844  1.00  0.00    -0.109 C  
HETATM   15  O   UNL    20     -10.557   9.710  67.311  1.00  0.00    -0.258 OA 
HETATM   16  C   UNL    20     -10.535   8.561  68.119  1.00  0.00    -0.182 C  
HETATM   17  C   UNL    20     -11.585  10.366  69.372  1.00  0.00    -0.202 C  
HETATM   18  H   UNL    20     -12.951  10.185  70.753  1.00  0.00     0.000 HD 
HETATM   19  C   UNL    20     -10.877   9.007  69.582  1.00  0.00    -0.186 C  
HETATM   20  H   UNL    20      -9.967   9.450  71.295  1.00  0.00     0.000 HD 
HETATM   21  O   UNL    20     -12.913  10.318  69.814  1.00  0.00     0.018 OA 
HETATM   22  O   UNL    20      -9.760   9.181  70.409  1.00  0.00    -0.188 OA 
BRANCH  16  23
HETATM   23  O   UNL    20      -9.330   7.800  67.891  1.00  0.00    -0.140 OA 
BRANCH  23  24
HETATM   24  C   UNL    20      -8.164   8.394  67.273  1.00  0.00    -0.112 C  
HETATM   25  O   UNL    20      -7.523   9.232  68.217  1.00  0.00    -0.078 OA 
HETATM   26  C   UNL    20      -6.893   8.513  69.273  1.00  0.00    -0.050 C  
HETATM   27  H   UNL    20      -6.882   6.260  65.155  1.00  0.00     0.000 HD 
HETATM   28  C   UNL    20      -5.811   7.524  68.750  1.00  0.00    -0.023 C  
HETATM   29  O   UNL    20      -5.191   6.818  69.795  1.00  0.00    -0.014 OA 
HETATM   30  C   UNL    20      -6.418   6.581  67.722  1.00  0.00    -0.052 C  
HETATM   31  O   UNL    20      -7.551   6.818  65.534  1.00  0.00    -0.079 OA 
HETATM   32  H   UNL    20      -4.530   6.215  69.476  1.00  0.00     0.000 HD 
HETATM   33  O   UNL    20      -5.409   5.795  67.152  1.00  0.00    -0.005 OA 
HETATM   34  C   UNL    20      -7.073   7.486  66.653  1.00  0.00    -0.078 C  
HETATM   35  H   UNL    20      -5.788   5.206  66.510  1.00  0.00     0.000 HD 
BRANCH  26  36
HETATM   36  C   UNL    20      -6.185   9.548  70.183  1.00  0.00    -0.059 C  
HETATM   37  O   UNL    20      -7.109  10.487  70.652  1.00  0.00    -0.455 OA 
HETATM   38  H   UNL    20      -6.675  11.121  71.210  1.00  0.00     0.000 HD 
ENDBRANCH  26  36
ENDBRANCH  23  24
ENDBRANCH  16  23
BRANCH  16  39
HETATM   39  C   UNL    20     -11.713   7.652  67.652  1.00  0.00     1.915 C  
HETATM   40  O   UNL    20     -11.244   6.605  66.845  1.00  0.00    -0.626 OA 
HETATM   41  H   UNL    20     -11.962   6.051  66.561  1.00  0.00     0.000 HD 
ENDBRANCH  16  39
ENDBRANCH  12  14
TORSDOF 5
ENDMDL
MODEL      230
REMARK 921   NORMALIZED FREE ENERGY PREDICTED BY IDOCK:   -1.48 KCAL/MOL
REMARK 922        TOTAL FREE ENERGY PREDICTED BY IDOCK:   -3.50 KCAL/MOL
REMARK 923 INTER-LIGAND FREE ENERGY PREDICTED BY IDOCK:   -3.72 KCAL/MOL
REMARK 924 INTRA-LIGAND FREE ENERGY PREDICTED BY IDOCK:    0.21 KCAL/MOL
REMARK 927      BINDING AFFINITY PREDICTED BY RF-SCORE:    0.00 PKD
ROOT
HETATM    1  O   HOH     4     -10.657   4.818  70.615  1.00  0.00    -0.106 OA 
HETATM    2  H2  HOH     4      -9.753   4.996  70.381  1.00  0.00     0.000 HD 
HETATM    3 NA   UNL    13      -5.177   9.235  71.251  1.00  0.00    -0.029 Na 
HETATM    4  H1  HOH     4     -10.928   5.565  71.135  1.00  0.00     0.000 HD 
HETATM    5 NA   UNL    14      -7.726   4.069  70.371  1.00  0.00    -0.042 Na 
HETATM    6 FE   UNL    15      -5.320   5.790  71.450  1.00  0.00    -0.011 Fe 
HETATM    7 FE   UNL    16      -9.630   7.292  70.212  1.00  0.00    -0.157 Fe 
HETATM    8 FE   UNL    17      -7.123   4.863  68.246  1.00  0.00    -0.050 Fe 
HETATM    9 FE   UNL    18     -10.972   6.862  68.564  1.00  0.00    -0.186 Fe 
HETATM   10 FE   UNL    19      -7.237   7.373  65.274  1.00  0.00    -0.055 Fe 
HETATM   11  O   UNL    20      -8.399   7.490  67.848  1.00  0.00    -0.122 OA 
HETATM   12  C   UNL    20      -8.923   8.772  68.070  1.00  0.00    -0.140 C  
HETATM   13  H   UNL    20      -8.704   6.814  68.443  1.00  0.00     0.000 HD 
ENDROOT
BRANCH  12  14
HETATM   14  C   UNL    20      -8.427   9.872  67.103  1.00  0.00    -0.121 C  
HETATM   15  O   UNL    20      -8.944  11.129  67.463  1.00  0.00    -0.138 OA 
HETATM   16  C   UNL    20      -8.155  12.105  66.833  1.00  0.00    -0.112 C  
HETATM   17  C   UNL    20      -6.905  10.016  66.881  1.00  0.00    -0.087 C  
HETATM   18  H   UNL    20      -5.570   9.427  65.586  1.00  0.00     0.000 HD 
HETATM   19  C   UNL    20      -6.696  11.542  66.734  1.00  0.00    -0.121 C  
HETATM   20  H   UNL    20      -4.948  11.656  67.679  1.00  0.00     0.000 HD 
HETATM   21  O   UNL    20      -6.506   9.338  65.723  1.00  0.00    -0.066 OA 
HETATM   22  O   UNL    20      -5.832  11.997  67.739  1.00  0.00    -0.056 OA 
BRANCH  16  23
HETATM   23  O   UNL    20      -8.358  13.398  67.443  1.00  0.00    -0.172 OA 
BRANCH  23  24
HETATM   24  C   UNL    20      -8.813  14.535  66.674  1.00  0.00    -0.184 C  
HETATM   25  O   UNL    20     -10.229  14.535  66.652  1.00  0.00    -0.266 OA 
HETATM   26  C   UNL    20     -10.813  14.849  67.912  1.00  0.00    -0.276 C  
HETATM   27  H   UNL    20      -6.726  17.013  67.107  1.00  0.00     0.000 HD 
HETATM   28  C   UNL    20     -10.378  16.251  68.431  1.00  0.00    -0.271 C  
HETATM   29  O   UNL    20     -10.958  16.558  69.674  1.00  0.00    -0.325 OA 
HETATM   30  C   UNL    20      -8.859  16.339  68.486  1.00  0.00    -0.219 C  
HETATM   31  O   UNL    20      -7.002  16.137  66.864  1.00  0.00    -0.208 OA 
HETATM   32  H   UNL    20     -10.692  17.414  69.990  1.00  0.00     0.000 HD 
HETATM   33  O   UNL    20      -8.477  17.646  68.812  1.00  0.00    -0.280 OA 
HETATM   34  C   UNL    20      -8.363  15.964  67.071  1.00  0.00    -0.223 C  
HETATM   35  H   UNL    20      -7.529  17.702  68.847  1.00  0.00     0.000 HD 
BRANCH  26  36
HETATM   36  C   UNL    20     -12.351  14.875  67.719  1.00  0.00     0.304 C  
HETATM   37  O   UNL    20     -12.706  14.119  66.599  1.00  0.00    -0.523 OA 
HETATM   38  H   UNL    20     -13.649  14.135  66.481  1.00  0.00     0.000 HD 
ENDBRANCH  26  36
ENDBRANCH  23  24
ENDBRANCH  16  23
BRANCH  16  39
HETATM   39  C   UNL    20      -8.673  12.236  65.367  1.00  0.00     0.847 C  
HETATM   40  O   UNL    20     -10.026  12.605  65.348  1.00  0.00    -0.324 OA 
HETATM   41  H   UNL    20     -10.340  12.684  64.456  1.00  0.00     0.000 HD 
ENDBRANCH  16  39
ENDBRANCH  12  14
TORSDOF 5
ENDMDL
MODEL      231
REMARK 921   NORMALIZED FREE ENERGY PREDICTED BY IDOCK:   -1.47 KCAL/MOL
REMARK 922        TOTAL FREE ENERGY PREDICTED BY IDOCK:   -3.49 KCAL/MOL
REMARK 923 INTER-LIGAND FREE ENERGY PREDICTED BY IDOCK:   -6.58 KCAL/MOL
REMARK 924 INTRA-LIGAND FREE ENERGY PREDICTED BY IDOCK:    3.10 KCAL/MOL
REMARK 927      BINDING AFFINITY PREDICTED BY RF-SCORE:    0.00 PKD
ROOT
HETATM    1  O   HOH     4     -10.716   7.394  73.342  1.00  0.00    -0.379 OA 
HETATM    2  H2  HOH     4      -9.927   7.646  72.876  1.00  0.00     0.000 HD 
HETATM    3 NA   UNL    13      -7.036  12.677  70.429  1.00  0.00    -0.364 Na 
HETATM    4  H1  HOH     4     -11.219   8.196  73.425  1.00  0.00     0.000 HD 
HETATM    5 NA   UNL    14      -7.707   7.472  72.962  1.00  0.00    -0.081 Na 
HETATM    6 FE   UNL    15      -6.010  10.077  72.457  1.00  0.00    -0.020 Fe 
HETATM    7 FE   UNL    16     -10.584   9.367  71.489  1.00  0.00    -0.217 Fe 
HETATM    8 FE   UNL    17      -7.423   7.045  70.671  1.00  0.00    -0.069 Fe 
HETATM    9 FE   UNL    18     -11.718   7.731  70.627  1.00  0.00    -0.269 Fe 
HETATM   10 FE   UNL    19      -8.399   7.274  66.911  1.00  0.00    -0.103 Fe 
HETATM   11  O   UNL    20      -9.511   8.512  69.195  1.00  0.00    -0.153 OA 
HETATM   12  C   UNL    20     -10.434   9.491  68.798  1.00  0.00    -0.219 C  
HETATM   13  H   UNL    20      -9.567   8.242  70.105  1.00  0.00     0.000 HD 
ENDROOT
BRANCH  12  14
HETATM   14  C   UNL    20     -10.345   9.930  67.319  1.00  0.00    -0.245 C  
HETATM   15  O   UNL    20     -10.260  11.330  67.214  1.00  0.00    -0.186 OA 
HETATM   16  C   UNL    20      -9.775  11.628  65.930  1.00  0.00    -0.235 C  
HETATM   17  C   UNL    20      -9.240   9.307  66.438  1.00  0.00    -0.180 C  
HETATM   18  H   UNL    20      -9.062   7.845  65.158  1.00  0.00     0.000 HD 
HETATM   19  C   UNL    20      -8.810  10.466  65.508  1.00  0.00    -0.176 C  
HETATM   20  H   UNL    20      -6.866  10.043  65.447  1.00  0.00     0.000 HD 
HETATM   21  O   UNL    20      -9.742   8.228  65.700  1.00  0.00     0.072 OA 
HETATM   22  O   UNL    20      -7.451  10.746  65.702  1.00  0.00    -0.125 OA 
BRANCH  16  23
HETATM   23  O   UNL    20      -9.291  12.986  65.869  1.00  0.00    -0.102 OA 
BRANCH  23  24
HETATM   24  C   UNL    20      -8.839  13.683  67.053  1.00  0.00    -0.223 C  
HETATM   25  O   UNL    20      -9.164  15.055  66.929  1.00  0.00    -0.218 OA 
HETATM   26  C   UNL    20     -10.561  15.314  67.018  1.00  0.00    -0.306 C  
HETATM   27  H   UNL    20      -9.118  11.690  69.629  1.00  0.00     0.000 HD 
HETATM   28  C   UNL    20     -11.164  14.837  68.372  1.00  0.00    -0.284 C  
HETATM   29  O   UNL    20     -12.543  15.095  68.456  1.00  0.00    -0.363 OA 
HETATM   30  C   UNL    20     -10.859  13.361  68.588  1.00  0.00    -0.263 C  
HETATM   31  O   UNL    20      -8.820  11.972  68.773  1.00  0.00    -0.064 OA 
HETATM   32  H   UNL    20     -12.911  14.804  69.282  1.00  0.00     0.000 HD 
HETATM   33  O   UNL    20     -11.276  12.979  69.869  1.00  0.00    -0.491 OA 
HETATM   34  C   UNL    20      -9.325  13.224  68.451  1.00  0.00    -0.157 C  
HETATM   35  H   UNL    20     -11.085  12.058  70.004  1.00  0.00     0.000 HD 
BRANCH  26  36
HETATM   36  C   UNL    20     -10.757  16.849  66.930  1.00  0.00    -0.130 C  
HETATM   37  O   UNL    20      -9.516  17.492  66.935  1.00  0.00    -0.258 OA 
HETATM   38  H   UNL    20      -9.636  18.433  66.882  1.00  0.00     0.000 HD 
ENDBRANCH  26  36
ENDBRANCH  23  24
ENDBRANCH  16  23
BRANCH  16  39
HETATM   39  C   UNL    20     -10.991  11.560  64.955  1.00  0.00    -0.254 C  
HETATM   40  O   UNL    20     -12.078  12.284  65.464  1.00  0.00    -0.523 OA 
HETATM   41  H   UNL    20     -12.818  12.243  64.870  1.00  0.00     0.000 HD 
ENDBRANCH  16  39
ENDBRANCH  12  14
TORSDOF 5
ENDMDL
MODEL      232
REMARK 921   NORMALIZED FREE ENERGY PREDICTED BY IDOCK:   -1.46 KCAL/MOL
REMARK 922        TOTAL FREE ENERGY PREDICTED BY IDOCK:   -3.48 KCAL/MOL
REMARK 923 INTER-LIGAND FREE ENERGY PREDICTED BY IDOCK:   -3.84 KCAL/MOL
REMARK 924 INTRA-LIGAND FREE ENERGY PREDICTED BY IDOCK:    0.37 KCAL/MOL
REMARK 927      BINDING AFFINITY PREDICTED BY RF-SCORE:    0.00 PKD
ROOT
HETATM    1  O   HOH     4      -9.832  18.633  66.389  1.00  0.00    -0.340 OA 
HETATM    2  H2  HOH     4      -9.914  17.917  67.009  1.00  0.00     0.000 HD 
HETATM    3 NA   UNL    13      -6.791  12.901  69.189  1.00  0.00    -0.078 Na 
HETATM    4  H1  HOH     4      -8.995  18.494  65.962  1.00  0.00     0.000 HD 
HETATM    5 NA   UNL    14     -10.385  17.488  69.144  1.00  0.00    -0.260 Na 
HETATM    6 FE   UNL    15      -8.497  15.500  70.693  1.00  0.00     0.043 Fe 
HETATM    7 FE   UNL    16      -8.806  16.152  66.020  1.00  0.00    -0.200 Fe 
HETATM    8 FE   UNL    17     -11.726  15.610  68.709  1.00  0.00    -0.257 Fe 
HETATM    9 FE   UNL    18     -10.450  16.397  64.626  1.00  0.00    -0.328 Fe 
HETATM   10 FE   UNL    19     -12.860  12.509  66.651  1.00  0.00    -0.176 Fe 
HETATM   11  O   UNL    20     -10.659  14.250  66.322  1.00  0.00    -0.283 OA 
HETATM   12  C   UNL    20      -9.787  13.729  65.354  1.00  0.00    -0.143 C  
HETATM   13  H   UNL    20     -10.533  15.168  66.535  1.00  0.00     0.000 HD 
ENDROOT
BRANCH  12  14
HETATM   14  C   UNL    20      -9.992  12.236  65.007  1.00  0.00    -0.205 C  
HETATM   15  O   UNL    20      -9.001  11.439  65.609  1.00  0.00    -0.198 OA 
HETATM   16  C   UNL    20      -9.467  10.114  65.606  1.00  0.00    -0.220 C  
HETATM   17  C   UNL    20     -11.370  11.602  65.297  1.00  0.00    -0.154 C  
HETATM   18  H   UNL    20     -13.013  11.206  64.323  1.00  0.00     0.000 HD 
HETATM   19  C   UNL    20     -11.027  10.162  65.746  1.00  0.00     0.567 C  
HETATM   20  H   UNL    20     -12.441   9.981  67.135  1.00  0.00     0.000 HD 
HETATM   21  O   UNL    20     -12.166  11.596  64.145  1.00  0.00    -0.211 OA 
HETATM   22  O   UNL    20     -11.496   9.952  67.050  1.00  0.00     0.159 OA 
BRANCH  16  23
HETATM   23  O   UNL    20      -8.713   9.306  66.534  1.00  0.00    -0.127 OA 
BRANCH  23  24
HETATM   24  C   UNL    20      -8.473   9.738  67.893  1.00  0.00    -0.125 C  
HETATM   25  O   UNL    20      -9.378   9.069  68.752  1.00  0.00    -0.139 OA 
HETATM   26  C   UNL    20      -9.101   7.679  68.890  1.00  0.00    -0.140 C  
HETATM   27  H   UNL    20      -5.282  10.337  68.271  1.00  0.00     0.000 HD 
HETATM   28  C   UNL    20      -7.675   7.415  69.457  1.00  0.00    -0.108 C  
HETATM   29  O   UNL    20      -7.405   6.042  69.593  1.00  0.00    -0.075 OA 
HETATM   30  C   UNL    20      -6.632   8.105  68.588  1.00  0.00    -0.058 C  
HETATM   31  O   UNL    20      -6.148  10.429  67.891  1.00  0.00    -0.048 OA 
HETATM   32  H   UNL    20      -6.535   5.882  69.939  1.00  0.00     0.000 HD 
HETATM   33  O   UNL    20      -5.371   7.986  69.185  1.00  0.00    -0.025 OA 
HETATM   34  C   UNL    20      -7.061   9.588  68.512  1.00  0.00    -0.070 C  
HETATM   35  H   UNL    20      -4.720   8.416  68.643  1.00  0.00     0.000 HD 
BRANCH  26  36
HETATM   36  C   UNL    20     -10.123   7.098  69.900  1.00  0.00    -0.191 C  
HETATM   37  O   UNL    20      -9.543   7.001  71.168  1.00  0.00    -0.166 OA 
HETATM   38  H   UNL    20     -10.170   6.646  71.787  1.00  0.00     0.000 HD 
ENDBRANCH  26  36
ENDBRANCH  23  24
ENDBRANCH  16  23
BRANCH  16  39
HETATM   39  C   UNL    20      -9.174   9.530  64.189  1.00  0.00    -0.084 C  
HETATM   40  O   UNL    20      -9.040  10.557  63.245  1.00  0.00    -0.202 OA 
HETATM   41  H   UNL    20      -8.861  10.201  62.383  1.00  0.00     0.000 HD 
ENDBRANCH  16  39
ENDBRANCH  12  14
TORSDOF 5
ENDMDL
MODEL      233
REMARK 921   NORMALIZED FREE ENERGY PREDICTED BY IDOCK:   -1.40 KCAL/MOL
REMARK 922        TOTAL FREE ENERGY PREDICTED BY IDOCK:   -3.40 KCAL/MOL
REMARK 923 INTER-LIGAND FREE ENERGY PREDICTED BY IDOCK:   -3.67 KCAL/MOL
REMARK 924 INTRA-LIGAND FREE ENERGY PREDICTED BY IDOCK:    0.28 KCAL/MOL
REMARK 927      BINDING AFFINITY PREDICTED BY RF-SCORE:    0.00 PKD
ROOT
HETATM    1  O   HOH     4     -11.805  18.311  67.960  1.00  0.00     1.027 OA 
HETATM    2  H2  HOH     4     -11.460  17.679  67.340  1.00  0.00     0.000 HD 
HETATM    3 NA   UNL    13     -11.262  11.487  66.204  1.00  0.00    -0.255 Na 
HETATM    4  H1  HOH     4     -12.238  17.790  68.627  1.00  0.00     0.000 HD 
HETATM    5 NA   UNL    14     -11.382  17.219  65.161  1.00  0.00    -0.336 Na 
HETATM    6 FE   UNL    15     -11.962  14.257  64.264  1.00  0.00    -0.356 Fe 
HETATM    7 FE   UNL    16     -10.955  15.822  68.611  1.00  0.00    -0.225 Fe 
HETATM    8 FE   UNL    17      -9.117  16.605  65.139  1.00  0.00    -0.094 Fe 
HETATM    9 FE   UNL    18      -9.525  17.237  69.422  1.00  0.00    -0.244 Fe 
HETATM   10 FE   UNL    19      -5.844  15.205  66.711  1.00  0.00     0.050 Fe 
HETATM   11  O   UNL    20      -8.477  15.350  67.728  1.00  0.00    -0.144 OA 
HETATM   12  C   UNL    20      -8.565  14.608  68.915  1.00  0.00    -0.131 C  
HETATM   13  H   UNL    20      -9.189  15.961  67.573  1.00  0.00     0.000 HD 
ENDROOT
BRANCH  12  14
HETATM   14  C   UNL    20      -7.407  13.615  69.168  1.00  0.00     0.047 C  
HETATM   15  O   UNL    20      -7.741  12.327  68.712  1.00  0.00    -0.100 OA 
HETATM   16  C   UNL    20      -6.545  11.601  68.589  1.00  0.00    -0.066 C  
HETATM   17  C   UNL    20      -6.005  13.976  68.628  1.00  0.00    -0.088 C  
HETATM   18  H   UNL    20      -4.362  14.787  69.296  1.00  0.00     0.000 HD 
HETATM   19  C   UNL    20      -5.417  12.614  68.190  1.00  0.00    -0.073 C  
HETATM   20  H   UNL    20      -4.444  13.259  66.577  1.00  0.00     0.000 HD 
HETATM   21  O   UNL    20      -5.224  14.565  69.628  1.00  0.00    -0.092 OA 
HETATM   22  O   UNL    20      -5.128  12.645  66.819  1.00  0.00    -0.313 OA 
BRANCH  16  23
HETATM   23  O   UNL    20      -6.742  10.428  67.772  1.00  0.00    -0.068 OA 
BRANCH  23  24
HETATM   24  C   UNL    20      -7.235   9.188  68.332  1.00  0.00    -0.077 C  
HETATM   25  O   UNL    20      -8.402   9.460  69.086  1.00  0.00    -0.116 OA 
HETATM   26  C   UNL    20      -9.521   9.821  68.283  1.00  0.00    -0.139 C  
HETATM   27  H   UNL    20      -6.611   6.755  66.241  1.00  0.00     0.000 HD 
HETATM   28  C   UNL    20      -9.900   8.705  67.265  1.00  0.00    -0.197 C  
HETATM   29  O   UNL    20     -11.006   9.065  66.475  1.00  0.00     0.136 OA 
HETATM   30  C   UNL    20      -8.694   8.349  66.408  1.00  0.00    -0.139 C  
HETATM   31  O   UNL    20      -6.411   7.486  66.813  1.00  0.00    -0.046 OA 
HETATM   32  H   UNL    20     -11.238   8.384  65.854  1.00  0.00     0.000 HD 
HETATM   33  O   UNL    20      -9.003   7.249  65.598  1.00  0.00    -0.351 OA 
HETATM   34  C   UNL    20      -7.562   7.996  67.398  1.00  0.00    -0.097 C  
HETATM   35  H   UNL    20      -8.250   7.026  65.063  1.00  0.00     0.000 HD 
BRANCH  26  36
HETATM   36  C   UNL    20     -10.730  10.023  69.232  1.00  0.00    -0.224 C  
HETATM   37  O   UNL    20     -11.616  10.956  68.688  1.00  0.00    -0.287 OA 
HETATM   38  H   UNL    20     -12.357  11.080  69.270  1.00  0.00     0.000 HD 
ENDBRANCH  26  36
ENDBRANCH  23  24
ENDBRANCH  16  23
BRANCH  16  39
HETATM   39  C   UNL    20      -6.178  11.078  70.012  1.00  0.00    -0.139 C  
HETATM   40  O   UNL    20      -6.088  12.138  70.924  1.00  0.00    -0.537 OA 
HETATM   41  H   UNL    20      -5.865  11.819  71.791  1.00  0.00     0.000 HD 
ENDBRANCH  16  39
ENDBRANCH  12  14
TORSDOF 5
ENDMDL
MODEL      234
REMARK 921   NORMALIZED FREE ENERGY PREDICTED BY IDOCK:   -1.29 KCAL/MOL
REMARK 922        TOTAL FREE ENERGY PREDICTED BY IDOCK:   -3.25 KCAL/MOL
REMARK 923 INTER-LIGAND FREE ENERGY PREDICTED BY IDOCK:   -4.73 KCAL/MOL
REMARK 924 INTRA-LIGAND FREE ENERGY PREDICTED BY IDOCK:    1.48 KCAL/MOL
REMARK 927      BINDING AFFINITY PREDICTED BY RF-SCORE:    0.00 PKD
ROOT
HETATM    1  O   HOH     4     -13.226  15.108  70.120  1.00  0.00    -0.638 OA 
HETATM    2  H2  HOH     4     -12.529  15.343  69.517  1.00  0.00     0.000 HD 
HETATM    3 NA   UNL    13     -10.082  13.738  63.940  1.00  0.00    -0.446 Na 
HETATM    4  H1  HOH     4     -13.658  14.364  69.718  1.00  0.00     0.000 HD 
HETATM    5 NA   UNL    14     -11.650  17.087  68.445  1.00  0.00    -0.332 Na 
HETATM    6 FE   UNL    15     -10.978  16.743  65.387  1.00  0.00    -0.324 Fe 
HETATM    7 FE   UNL    16     -11.888  13.349  68.552  1.00  0.00    -0.239 Fe 
HETATM    8 FE   UNL    17      -9.413  16.487  68.831  1.00  0.00    -0.193 Fe 
HETATM    9 FE   UNL    18     -11.289  12.987  70.605  1.00  0.00    -0.479 Fe 
HETATM   10 FE   UNL    19      -6.515  13.972  69.477  1.00  0.00    -0.085 Fe 
HETATM   11  O   UNL    20      -9.241  13.545  68.866  1.00  0.00    -0.392 OA 
HETATM   12  C   UNL    20      -9.453  12.187  68.584  1.00  0.00    -0.045 C  
HETATM   13  H   UNL    20     -10.023  14.053  69.048  1.00  0.00     0.000 HD 
ENDROOT
BRANCH  12  14
HETATM   14  C   UNL    20      -8.181  11.361  68.289  1.00  0.00    -0.150 C  
HETATM   15  O   UNL    20      -8.335  10.029  68.715  1.00  0.00    -0.109 OA 
HETATM   16  C   UNL    20      -7.355   9.263  68.065  1.00  0.00    -0.080 C  
HETATM   17  C   UNL    20      -7.637  11.350  66.843  1.00  0.00    -0.151 C  
HETATM   18  H   UNL    20      -6.277  12.285  65.803  1.00  0.00     0.000 HD 
HETATM   19  C   UNL    20      -7.104   9.910  66.659  1.00  0.00    -0.087 C  
HETATM   20  H   UNL    20      -7.635   9.678  64.755  1.00  0.00     0.000 HD 
HETATM   21  O   UNL    20      -6.611  12.291  66.691  1.00  0.00     0.002 OA 
HETATM   22  O   UNL    20      -7.787   9.286  65.607  1.00  0.00    -0.097 OA 
BRANCH  16  23
HETATM   23  O   UNL    20      -7.678   7.858  68.132  1.00  0.00    -0.119 OA 
BRANCH  23  24
HETATM   24  C   UNL    20      -8.769   7.294  67.367  1.00  0.00    -0.121 C  
HETATM   25  O   UNL    20      -8.981   5.959  67.788  1.00  0.00    -0.113 OA 
HETATM   26  C   UNL    20      -9.532   5.862  69.097  1.00  0.00    -0.128 C  
HETATM   27  H   UNL    20     -10.934   9.652  66.708  1.00  0.00     0.000 HD 
HETATM   28  C   UNL    20     -10.905   6.588  69.214  1.00  0.00    -0.307 C  
HETATM   29  O   UNL    20     -11.447   6.488  70.508  1.00  0.00    -0.338 OA 
HETATM   30  C   UNL    20     -10.767   8.039  68.777  1.00  0.00    -0.045 C  
HETATM   31  O   UNL    20     -10.088   9.221  66.712  1.00  0.00    -0.225 OA 
HETATM   32  H   UNL    20     -12.284   6.931  70.579  1.00  0.00     0.000 HD 
HETATM   33  O   UNL    20     -12.031   8.641  68.746  1.00  0.00     1.063 OA 
HETATM   34  C   UNL    20     -10.150   7.996  67.360  1.00  0.00    -0.228 C  
HETATM   35  H   UNL    20     -11.945   9.547  68.473  1.00  0.00     0.000 HD 
BRANCH  26  36
HETATM   36  C   UNL    20      -9.768   4.359  69.393  1.00  0.00    -0.197 C  
HETATM   37  O   UNL    20      -8.709   3.848  70.150  1.00  0.00    -0.066 OA 
HETATM   38  H   UNL    20      -8.853   2.926  70.331  1.00  0.00     0.000 HD 
ENDBRANCH  26  36
ENDBRANCH  23  24
ENDBRANCH  16  23
BRANCH  16  39
HETATM   39  C   UNL    20      -6.029   9.438  68.869  1.00  0.00    -0.043 C  
HETATM   40  O   UNL    20      -5.366   8.211  69.010  1.00  0.00    -0.026 OA 
HETATM   41  H   UNL    20      -4.559   8.318  69.499  1.00  0.00     0.000 HD 
ENDBRANCH  16  39
ENDBRANCH  12  14
TORSDOF 5
ENDMDL
MODEL      235
REMARK 921   NORMALIZED FREE ENERGY PREDICTED BY IDOCK:   -1.05 KCAL/MOL
REMARK 922        TOTAL FREE ENERGY PREDICTED BY IDOCK:   -2.95 KCAL/MOL
REMARK 923 INTER-LIGAND FREE ENERGY PREDICTED BY IDOCK:   -2.85 KCAL/MOL
REMARK 924 INTRA-LIGAND FREE ENERGY PREDICTED BY IDOCK:   -0.09 KCAL/MOL
REMARK 927      BINDING AFFINITY PREDICTED BY RF-SCORE:    0.00 PKD
ROOT
HETATM    1  O   HOH     4      -9.999   1.636  70.695  1.00  0.00    -0.015 OA 
HETATM    2  H2  HOH     4     -10.152   2.477  71.109  1.00  0.00     0.000 HD 
HETATM    3 NA   UNL    13     -12.445   8.220  69.911  1.00  0.00    -0.395 Na 
HETATM    4  H1  HOH     4     -10.277   1.751  69.794  1.00  0.00     0.000 HD 
HETATM    5 NA   UNL    14     -11.094   3.405  72.903  1.00  0.00    -0.161 Na 
HETATM    6 FE   UNL    15     -12.910   5.939  72.463  1.00  0.00    -0.401 Fe 
HETATM    7 FE   UNL    16      -9.821   4.028  69.435  1.00  0.00    -0.139 Fe 
HETATM    8 FE   UNL    17      -9.356   4.929  73.311  1.00  0.00    -0.119 Fe 
HETATM    9 FE   UNL    18      -7.812   3.231  69.616  1.00  0.00    -0.048 Fe 
HETATM   10 FE   UNL    19      -6.379   7.214  72.283  1.00  0.00    -0.044 Fe 
HETATM   11  O   UNL    20      -8.193   5.715  70.719  1.00  0.00    -0.114 OA 
HETATM   12  C   UNL    20      -8.042   6.055  69.366  1.00  0.00    -0.111 C  
HETATM   13  H   UNL    20      -8.667   4.909  70.888  1.00  0.00     0.000 HD 
ENDROOT
BRANCH  12  14
HETATM   14  C   UNL    20      -7.271   7.366  69.091  1.00  0.00    -0.084 C  
HETATM   15  O   UNL    20      -7.669   7.938  67.869  1.00  0.00    -0.119 OA 
HETATM   16  C   UNL    20      -7.261   9.281  67.880  1.00  0.00    -0.079 C  
HETATM   17  C   UNL    20      -7.292   8.467  70.174  1.00  0.00    -0.051 C  
HETATM   18  H   UNL    20      -6.160   9.075  71.642  1.00  0.00     0.000 HD 
HETATM   19  C   UNL    20      -7.326   9.784  69.363  1.00  0.00    -0.087 C  
HETATM   20  H   UNL    20      -8.528  10.805  70.577  1.00  0.00     0.000 HD 
HETATM   21  O   UNL    20      -6.147   8.398  70.977  1.00  0.00    -0.033 OA 
HETATM   22  O   UNL    20      -8.488  10.501  69.678  1.00  0.00    -0.108 OA 
BRANCH  16  23
HETATM   23  O   UNL    20      -7.956  10.034  66.863  1.00  0.00    -0.112 OA 
BRANCH  23  24
HETATM   24  C   UNL    20      -7.353  11.186  66.228  1.00  0.00    -0.055 C  
HETATM   25  O   UNL    20      -7.650  11.153  64.844  1.00  0.00     0.379 OA 
HETATM   26  C   UNL    20      -9.021  11.411  64.555  1.00  0.00     0.185 C  
HETATM   27  H   UNL    20      -7.398  13.696  68.321  1.00  0.00     0.000 HD 
HETATM   28  C   UNL    20      -9.481  12.804  65.075  1.00  0.00     0.332 C  
HETATM   29  O   UNL    20     -10.834  13.055  64.787  1.00  0.00    -0.304 OA 
HETATM   30  C   UNL    20      -9.195  12.926  66.565  1.00  0.00    -0.182 C  
HETATM   31  O   UNL    20      -7.190  12.823  68.011  1.00  0.00    -0.091 OA 
HETATM   32  H   UNL    20     -11.114  13.906  65.104  1.00  0.00     0.000 HD 
HETATM   33  O   UNL    20      -9.477  14.230  66.991  1.00  0.00    -0.234 OA 
HETATM   34  C   UNL    20      -7.692  12.610  66.734  1.00  0.00     0.221 C  
HETATM   35  H   UNL    20      -9.299  14.307  67.921  1.00  0.00     0.000 HD 
BRANCH  26  36
HETATM   36  C   UNL    20      -9.181  11.407  63.014  1.00  0.00    -0.257 C  
HETATM   37  O   UNL    20     -10.531  11.515  62.671  1.00  0.00    -0.557 OA 
HETATM   38  H   UNL    20     -10.629  11.512  61.726  1.00  0.00     0.000 HD 
ENDBRANCH  26  36
ENDBRANCH  23  24
ENDBRANCH  16  23
BRANCH  16  39
HETATM   39  C   UNL    20      -5.754   9.304  67.477  1.00  0.00    -0.042 C  
HETATM   40  O   UNL    20      -5.361   8.068  66.946  1.00  0.00    -0.030 OA 
HETATM   41  H   UNL    20      -4.443   8.082  66.701  1.00  0.00     0.000 HD 
ENDBRANCH  16  39
ENDBRANCH  12  14
TORSDOF 5
ENDMDL
MODEL      236
REMARK 921   NORMALIZED FREE ENERGY PREDICTED BY IDOCK:   -0.62 KCAL/MOL
REMARK 922        TOTAL FREE ENERGY PREDICTED BY IDOCK:   -2.39 KCAL/MOL
REMARK 923 INTER-LIGAND FREE ENERGY PREDICTED BY IDOCK:   -3.94 KCAL/MOL
REMARK 924 INTRA-LIGAND FREE ENERGY PREDICTED BY IDOCK:    1.56 KCAL/MOL
REMARK 927      BINDING AFFINITY PREDICTED BY RF-SCORE:    0.00 PKD
ROOT
HETATM    1  O   HOH     4     -10.150   2.162  71.224  1.00  0.00    -0.067 OA 
HETATM    2  H2  HOH     4     -10.340   3.031  71.558  1.00  0.00     0.000 HD 
HETATM    3 NA   UNL    13     -12.632   8.614  69.756  1.00  0.00    -0.209 Na 
HETATM    4  H1  HOH     4     -10.374   2.199  70.301  1.00  0.00     0.000 HD 
HETATM    5 NA   UNL    14     -11.403   4.084  73.209  1.00  0.00    -0.179 Na 
HETATM    6 FE   UNL    15     -13.223   6.540  72.454  1.00  0.00    -0.437 Fe 
HETATM    7 FE   UNL    16      -9.928   4.447  69.785  1.00  0.00    -0.139 Fe 
HETATM    8 FE   UNL    17      -9.714   5.668  73.594  1.00  0.00    -0.138 Fe 
HETATM    9 FE   UNL    18      -7.923   3.705  70.152  1.00  0.00    -0.046 Fe 
HETATM   10 FE   UNL    19      -6.710   7.917  72.563  1.00  0.00    -0.053 Fe 
HETATM   11  O   UNL    20      -8.404   6.262  71.021  1.00  0.00    -0.121 OA 
HETATM   12  C   UNL    20      -8.175   6.494  69.657  1.00  0.00    -0.126 C  
HETATM   13  H   UNL    20      -8.877   5.464  71.227  1.00  0.00     0.000 HD 
ENDROOT
BRANCH  12  14
HETATM   14  C   UNL    20      -7.406   7.793  69.322  1.00  0.00    -0.087 C  
HETATM   15  O   UNL    20      -7.339   7.993  67.931  1.00  0.00    -0.088 OA 
HETATM   16  C   UNL    20      -7.015   9.343  67.716  1.00  0.00    -0.080 C  
HETATM   17  C   UNL    20      -7.873   9.109  69.983  1.00  0.00    -0.099 C  
HETATM   18  H   UNL    20      -7.396  10.200  71.528  1.00  0.00     0.000 HD 
HETATM   19  C   UNL    20      -7.649  10.174  68.883  1.00  0.00    -0.090 C  
HETATM   20  H   UNL    20      -9.255  11.285  69.269  1.00  0.00     0.000 HD 
HETATM   21  O   UNL    20      -7.109   9.391  71.122  1.00  0.00    -0.244 OA 
HETATM   22  O   UNL    20      -8.870  10.781  68.562  1.00  0.00    -0.135 OA 
BRANCH  16  23
HETATM   23  O   UNL    20      -7.306   9.726  66.355  1.00  0.00    -0.093 OA 
BRANCH  23  24
HETATM   24  C   UNL    20      -8.241   8.981  65.541  1.00  0.00    -0.122 C  
HETATM   25  O   UNL    20      -9.190   8.359  66.389  1.00  0.00    -0.174 OA 
HETATM   26  C   UNL    20     -10.087   9.280  67.002  1.00  0.00    -0.247 C  
HETATM   27  H   UNL    20      -8.676  10.555  62.710  1.00  0.00     0.000 HD 
HETATM   28  C   UNL    20     -10.897  10.100  65.955  1.00  0.00     0.220 C  
HETATM   29  O   UNL    20     -11.782  11.007  66.564  1.00  0.00    -0.134 OA 
HETATM   30  C   UNL    20      -9.948  10.805  64.996  1.00  0.00    -0.300 C  
HETATM   31  O   UNL    20      -8.191  10.114  63.397  1.00  0.00    -0.152 OA 
HETATM   32  H   UNL    20     -12.276  11.507  65.925  1.00  0.00     0.000 HD 
HETATM   33  O   UNL    20     -10.684  11.418  63.975  1.00  0.00    -0.341 OA 
HETATM   34  C   UNL    20      -9.032   9.701  64.421  1.00  0.00    -0.234 C  
HETATM   35  H   UNL    20     -10.092  11.858  63.376  1.00  0.00     0.000 HD 
BRANCH  26  36
HETATM   36  C   UNL    20     -11.098   8.458  67.840  1.00  0.00     0.387 C  
HETATM   37  O   UNL    20     -10.754   8.510  69.194  1.00  0.00    -0.335 OA 
HETATM   38  H   UNL    20     -11.374   8.006  69.708  1.00  0.00     0.000 HD 
ENDBRANCH  26  36
ENDBRANCH  23  24
ENDBRANCH  16  23
BRANCH  16  39
HETATM   39  C   UNL    20      -5.468   9.473  67.878  1.00  0.00    -0.040 C  
HETATM   40  O   UNL    20      -5.149  10.402  68.878  1.00  0.00    -0.039 OA 
HETATM   41  H   UNL    20      -4.208  10.481  68.977  1.00  0.00     0.000 HD 
ENDBRANCH  16  39
ENDBRANCH  12  14
TORSDOF 5
ENDMDL
MODEL      237
REMARK 921   NORMALIZED FREE ENERGY PREDICTED BY IDOCK:   -0.49 KCAL/MOL
REMARK 922        TOTAL FREE ENERGY PREDICTED BY IDOCK:   -2.22 KCAL/MOL
REMARK 923 INTER-LIGAND FREE ENERGY PREDICTED BY IDOCK:   -4.25 KCAL/MOL
REMARK 924 INTRA-LIGAND FREE ENERGY PREDICTED BY IDOCK:    2.04 KCAL/MOL
REMARK 927      BINDING AFFINITY PREDICTED BY RF-SCORE:    0.00 PKD
ROOT
HETATM    1  O   HOH     4     -13.481  12.573  65.520  1.00  0.00     0.526 OA 
HETATM    2  H2  HOH     4     -12.663  12.608  65.037  1.00  0.00     0.000 HD 
HETATM    3 NA   UNL    13      -7.032   9.811  64.662  1.00  0.00    -0.089 Na 
HETATM    4  H1  HOH     4     -13.355  11.889  66.168  1.00  0.00     0.000 HD 
HETATM    5 NA   UNL    14     -11.848  12.619  62.963  1.00  0.00    -0.415 Na 
HETATM    6 FE   UNL    15      -9.413  10.724  62.333  1.00  0.00    -0.211 Fe 
HETATM    7 FE   UNL    16     -11.045  12.029  66.575  1.00  0.00    -0.232 Fe 
HETATM    8 FE   UNL    17     -10.237  14.279  63.360  1.00  0.00     0.074 Fe 
HETATM    9 FE   UNL    18     -11.727  13.903  67.428  1.00  0.00    -0.269 Fe 
HETATM   10 FE   UNL    19      -7.749  16.300  65.567  1.00  0.00    -0.130 Fe 
HETATM   11  O   UNL    20      -9.305  14.012  66.143  1.00  0.00    -0.456 OA 
HETATM   12  C   UNL    20      -8.915  13.476  67.380  1.00  0.00    -0.219 C  
HETATM   13  H   UNL    20     -10.142  13.709  65.812  1.00  0.00     0.000 HD 
ENDROOT
BRANCH  12  14
HETATM   14  C   UNL    20      -7.553  13.969  67.920  1.00  0.00    -0.155 C  
HETATM   15  O   UNL    20      -7.529  15.372  68.020  1.00  0.00    -0.116 OA 
HETATM   16  C   UNL    20      -6.470  15.715  68.876  1.00  0.00    -0.113 C  
HETATM   17  C   UNL    20      -7.037  13.376  69.250  1.00  0.00     0.060 C  
HETATM   18  H   UNL    20      -5.825  11.962  69.830  1.00  0.00     0.000 HD 
HETATM   19  C   UNL    20      -6.328  14.568  69.935  1.00  0.00    -0.157 C  
HETATM   20  H   UNL    20      -6.858  14.144  71.806  1.00  0.00     0.000 HD 
HETATM   21  O   UNL    20      -6.142  12.326  69.012  1.00  0.00    -0.065 OA 
HETATM   22  O   UNL    20      -6.944  14.838  71.164  1.00  0.00     0.597 OA 
BRANCH  16  23
HETATM   23  O   UNL    20      -6.610  17.074  69.342  1.00  0.00    -0.229 OA 
BRANCH  23  24
HETATM   24  C   UNL    20      -7.911  17.680  69.529  1.00  0.00     0.505 C  
HETATM   25  O   UNL    20      -7.848  19.033  69.117  1.00  0.00    -0.270 OA 
HETATM   26  C   UNL    20      -7.712  19.187  67.707  1.00  0.00    -0.262 C  
HETATM   27  H   UNL    20     -10.219  15.430  68.988  1.00  0.00     0.000 HD 
HETATM   28  C   UNL    20      -8.894  18.539  66.927  1.00  0.00    -0.283 C  
HETATM   29  O   UNL    20      -8.758  18.695  65.537  1.00  0.00    -0.043 OA 
HETATM   30  C   UNL    20      -9.035  17.074  67.314  1.00  0.00    -0.215 C  
HETATM   31  O   UNL    20      -9.455  15.814  69.402  1.00  0.00    -0.254 OA 
HETATM   32  H   UNL    20      -9.479  18.300  65.061  1.00  0.00     0.000 HD 
HETATM   33  O   UNL    20     -10.185  16.541  66.721  1.00  0.00    -0.281 OA 
HETATM   34  C   UNL    20      -9.157  17.055  68.855  1.00  0.00    -0.208 C  
HETATM   35  H   UNL    20     -10.274  15.626  66.962  1.00  0.00     0.000 HD 
BRANCH  26  36
HETATM   36  C   UNL    20      -7.723  20.706  67.401  1.00  0.00    -0.311 C  
HETATM   37  O   UNL    20      -9.036  21.153  67.232  1.00  0.00    -0.559 OA 
HETATM   38  H   UNL    20      -9.043  22.085  67.045  1.00  0.00     0.000 HD 
ENDBRANCH  26  36
ENDBRANCH  23  24
ENDBRANCH  16  23
BRANCH  16  39
HETATM   39  C   UNL    20      -5.164  15.685  68.023  1.00  0.00    -0.124 C  
HETATM   40  O   UNL    20      -5.334  16.397  66.827  1.00  0.00    -0.348 OA 
HETATM   41  H   UNL    20      -4.539  16.379  66.309  1.00  0.00     0.000 HD 
ENDBRANCH  16  39
ENDBRANCH  12  14
TORSDOF 5
ENDMDL
MODEL      238
REMARK 921   NORMALIZED FREE ENERGY PREDICTED BY IDOCK:   -0.29 KCAL/MOL
REMARK 922        TOTAL FREE ENERGY PREDICTED BY IDOCK:   -1.96 KCAL/MOL
REMARK 923 INTER-LIGAND FREE ENERGY PREDICTED BY IDOCK:   -2.07 KCAL/MOL
REMARK 924 INTRA-LIGAND FREE ENERGY PREDICTED BY IDOCK:    0.11 KCAL/MOL
REMARK 927      BINDING AFFINITY PREDICTED BY RF-SCORE:    0.00 PKD
ROOT
HETATM    1  O   HOH     4     -10.360   2.427  71.414  1.00  0.00     0.151 OA 
HETATM    2  H2  HOH     4     -10.120   2.593  70.510  1.00  0.00     0.000 HD 
HETATM    3 NA   UNL    13      -5.616   5.269  67.014  1.00  0.00    -0.009 Na 
HETATM    4  H1  HOH     4      -9.677   2.839  71.930  1.00  0.00     0.000 HD 
HETATM    5 NA   UNL    14      -9.849   1.570  68.549  1.00  0.00    -0.134 Na 
HETATM    6 FE   UNL    15      -7.252   2.230  66.895  1.00  0.00    -0.044 Fe 
HETATM    7 FE   UNL    16      -9.047   4.634  70.550  1.00  0.00    -0.094 Fe 
HETATM    8 FE   UNL    17     -10.886   3.245  67.272  1.00  0.00     0.227 Fe 
HETATM    9 FE   UNL    18     -11.046   5.244  71.132  1.00  0.00    -0.234 Fe 
HETATM   10 FE   UNL    19     -11.982   6.899  66.504  1.00  0.00    -0.393 Fe 
HETATM   11  O   UNL    20     -10.340   5.845  68.549  1.00  0.00    -0.174 OA 
HETATM   12  C   UNL    20      -9.713   6.895  69.237  1.00  0.00    -0.156 C  
HETATM   13  H   UNL    20     -10.330   5.003  68.989  1.00  0.00     0.000 HD 
ENDROOT
BRANCH  12  14
HETATM   14  C   UNL    20      -9.730   8.265  68.522  1.00  0.00    -0.156 C  
HETATM   15  O   UNL    20      -9.262   9.282  69.373  1.00  0.00    -0.149 OA 
HETATM   16  C   UNL    20      -8.917  10.380  68.567  1.00  0.00    -0.139 C  
HETATM   17  C   UNL    20      -9.002   8.390  67.165  1.00  0.00    -0.137 C  
HETATM   18  H   UNL    20      -9.454   8.318  65.269  1.00  0.00     0.000 HD 
HETATM   19  C   UNL    20      -8.405   9.817  67.196  1.00  0.00    -0.121 C  
HETATM   20  H   UNL    20      -6.700   9.404  66.256  1.00  0.00     0.000 HD 
HETATM   21  O   UNL    20      -9.902   8.241  66.103  1.00  0.00    -0.196 OA 
HETATM   22  O   UNL    20      -7.010   9.745  67.086  1.00  0.00    -0.083 OA 
BRANCH  16  23
HETATM   23  O   UNL    20      -8.077  11.302  69.293  1.00  0.00    -0.039 OA 
BRANCH  23  24
HETATM   24  C   UNL    20      -6.642  11.330  69.104  1.00  0.00    -0.088 C  
HETATM   25  O   UNL    20      -6.347  12.105  67.957  1.00  0.00    -0.058 OA 
HETATM   26  C   UNL    20      -6.592  13.496  68.138  1.00  0.00    -0.121 C  
HETATM   27  H   UNL    20      -5.185  11.279  72.029  1.00  0.00     0.000 HD 
HETATM   28  C   UNL    20      -5.754  14.095  69.306  1.00  0.00    -0.084 C  
HETATM   29  O   UNL    20      -5.997  15.468  69.480  1.00  0.00    -0.113 OA 
HETATM   30  C   UNL    20      -6.011  13.315  70.587  1.00  0.00    -0.089 C  
HETATM   31  O   UNL    20      -5.748  10.969  71.330  1.00  0.00    -0.334 OA 
HETATM   32  H   UNL    20      -5.485  15.834  70.193  1.00  0.00     0.000 HD 
HETATM   33  O   UNL    20      -5.147  13.766  71.592  1.00  0.00    -0.137 OA 
HETATM   34  C   UNL    20      -5.725  11.835  70.245  1.00  0.00    -0.155 C  
HETATM   35  H   UNL    20      -5.308  13.279  72.392  1.00  0.00     0.000 HD 
BRANCH  26  36
HETATM   36  C   UNL    20      -6.166  14.218  66.834  1.00  0.00     1.605 C  
HETATM   37  O   UNL    20      -6.737  15.492  66.783  1.00  0.00    -0.210 OA 
HETATM   38  H   UNL    20      -6.476  15.935  65.983  1.00  0.00     0.000 HD 
ENDBRANCH  26  36
ENDBRANCH  23  24
ENDBRANCH  16  23
BRANCH  16  39
HETATM   39  C   UNL    20     -10.236  11.152  68.256  1.00  0.00    -0.182 C  
HETATM   40  O   UNL    20     -10.434  11.262  66.872  1.00  0.00    -0.224 OA 
HETATM   41  H   UNL    20     -11.238  11.732  66.684  1.00  0.00     0.000 HD 
ENDBRANCH  16  39
ENDBRANCH  12  14
TORSDOF 5
ENDMDL
MODEL      239
REMARK 921   NORMALIZED FREE ENERGY PREDICTED BY IDOCK:   -0.26 KCAL/MOL
REMARK 922        TOTAL FREE ENERGY PREDICTED BY IDOCK:   -1.92 KCAL/MOL
REMARK 923 INTER-LIGAND FREE ENERGY PREDICTED BY IDOCK:   -2.38 KCAL/MOL
REMARK 924 INTRA-LIGAND FREE ENERGY PREDICTED BY IDOCK:    0.46 KCAL/MOL
REMARK 927      BINDING AFFINITY PREDICTED BY RF-SCORE:    0.00 PKD
ROOT
HETATM    1  O   HOH     4     -14.033  10.871  72.702  1.00  0.00    -0.096 OA 
HETATM    2  H2  HOH     4     -13.636  11.711  72.504  1.00  0.00     0.000 HD 
HETATM    3 NA   UNL    13     -14.347  16.749  68.793  1.00  0.00     1.006 Na 
HETATM    4  H1  HOH     4     -14.765  10.797  72.101  1.00  0.00     0.000 HD 
HETATM    5 NA   UNL    14     -12.916  13.585  73.472  1.00  0.00    -0.431 Na 
HETATM    6 FE   UNL    15     -13.754  16.326  72.168  1.00  0.00    -0.449 Fe 
HETATM    7 FE   UNL    16     -13.990  12.012  70.245  1.00  0.00     0.812 Fe 
HETATM    8 FE   UNL    17     -10.958  13.766  72.189  1.00  0.00     0.354 Fe 
HETATM    9 FE   UNL    18     -12.663  10.297  70.196  1.00  0.00    -0.277 Fe 
HETATM   10 FE   UNL    19      -8.783  13.224  69.008  1.00  0.00    -0.263 Fe 
HETATM   11  O   UNL    20     -11.514  12.690  69.502  1.00  0.00    -0.350 OA 
HETATM   12  C   UNL    20     -12.154  12.355  68.299  1.00  0.00    -0.048 C  
HETATM   13  H   UNL    20     -11.988  12.464  70.295  1.00  0.00     0.000 HD 
ENDROOT
BRANCH  12  14
HETATM   14  C   UNL    20     -11.384  12.722  67.010  1.00  0.00    -0.314 C  
HETATM   15  O   UNL    20     -10.334  11.816  66.775  1.00  0.00    -0.211 OA 
HETATM   16  C   UNL    20      -9.958  11.947  65.429  1.00  0.00    -0.252 C  
HETATM   17  C   UNL    20     -12.188  12.887  65.701  1.00  0.00    -0.463 C  
HETATM   18  H   UNL    20     -12.977  14.336  64.661  1.00  0.00     0.000 HD 
HETATM   19  C   UNL    20     -11.243  12.324  64.614  1.00  0.00    -0.315 C  
HETATM   20  H   UNL    20     -12.635  11.470  63.477  1.00  0.00     0.000 HD 
HETATM   21  O   UNL    20     -12.483  14.235  65.466  1.00  0.00    -0.444 OA 
HETATM   22  O   UNL    20     -11.857  11.241  63.971  1.00  0.00    -0.031 OA 
BRANCH  16  23
HETATM   23  O   UNL    20      -9.178  10.809  65.004  1.00  0.00    -0.195 OA 
BRANCH  23  24
HETATM   24  C   UNL    20      -9.519   9.463  65.410  1.00  0.00    -0.253 C  
HETATM   25  O   UNL    20      -8.880   8.548  64.539  1.00  0.00    -0.029 OA 
HETATM   26  C   UNL    20      -7.467   8.498  64.711  1.00  0.00    -0.095 C  
HETATM   27  H   UNL    20      -9.842   9.384  68.661  1.00  0.00     0.000 HD 
HETATM   28  C   UNL    20      -7.062   8.091  66.158  1.00  0.00    -0.062 C  
HETATM   29  O   UNL    20      -5.667   8.042  66.322  1.00  0.00    -0.038 OA 
HETATM   30  C   UNL    20      -7.711   9.029  67.165  1.00  0.00    -0.099 C  
HETATM   31  O   UNL    20     -10.022   9.670  67.773  1.00  0.00    -0.156 OA 
HETATM   32  H   UNL    20      -5.421   7.793  67.205  1.00  0.00     0.000 HD 
HETATM   33  O   UNL    20      -7.461   8.569  68.464  1.00  0.00    -0.090 OA 
HETATM   34  C   UNL    20      -9.225   8.997  66.858  1.00  0.00    -0.142 C  
HETATM   35  H   UNL    20      -7.866   9.154  69.093  1.00  0.00     0.000 HD 
BRANCH  26  36
HETATM   36  C   UNL    20      -6.918   7.417  63.746  1.00  0.00    -0.059 C  
HETATM   37  O   UNL    20      -6.773   7.949  62.462  1.00  0.00    -0.083 OA 
HETATM   38  H   UNL    20      -6.436   7.285  61.870  1.00  0.00     0.000 HD 
ENDBRANCH  26  36
ENDBRANCH  23  24
ENDBRANCH  16  23
BRANCH  16  39
HETATM   39  C   UNL    20      -9.006  13.180  65.337  1.00  0.00     1.112 C  
HETATM   40  O   UNL    20      -8.700  13.669  66.615  1.00  0.00    -0.422 OA 
HETATM   41  H   UNL    20      -8.121  14.419  66.559  1.00  0.00     0.000 HD 
ENDBRANCH  16  39
ENDBRANCH  12  14
TORSDOF 5
ENDMDL
MODEL      240
REMARK 921   NORMALIZED FREE ENERGY PREDICTED BY IDOCK:   -0.08 KCAL/MOL
REMARK 922        TOTAL FREE ENERGY PREDICTED BY IDOCK:   -1.69 KCAL/MOL
REMARK 923 INTER-LIGAND FREE ENERGY PREDICTED BY IDOCK:   -1.80 KCAL/MOL
REMARK 924 INTRA-LIGAND FREE ENERGY PREDICTED BY IDOCK:    0.11 KCAL/MOL
REMARK 927      BINDING AFFINITY PREDICTED BY RF-SCORE:    0.00 PKD
ROOT
HETATM    1  O   HOH     4     -13.852  11.265  73.291  1.00  0.00     1.548 OA 
HETATM    2  H2  HOH     4     -13.445  12.073  73.000  1.00  0.00     0.000 HD 
HETATM    3 NA   UNL    13     -13.512  16.194  68.237  1.00  0.00     0.447 Na 
HETATM    4  H1  HOH     4     -14.442  11.021  72.588  1.00  0.00     0.000 HD 
HETATM    5 NA   UNL    14     -12.989  14.149  73.669  1.00  0.00    -0.494 Na 
HETATM    6 FE   UNL    15     -13.614  16.505  71.675  1.00  0.00    -0.309 Fe 
HETATM    7 FE   UNL    16     -13.336  11.886  70.704  1.00  0.00    -0.180 Fe 
HETATM    8 FE   UNL    17     -10.814  14.201  72.785  1.00  0.00     0.355 Fe 
HETATM    9 FE   UNL    18     -11.982  10.292  71.280  1.00  0.00    -0.257 Fe 
HETATM   10 FE   UNL    19      -8.019  13.177  70.279  1.00  0.00     0.317 Fe 
HETATM   11  O   UNL    20     -10.779  12.568  70.332  1.00  0.00     0.804 OA 
HETATM   12  C   UNL    20     -11.148  11.953  69.126  1.00  0.00    -0.228 C  
HETATM   13  H   UNL    20     -11.399  12.475  71.046  1.00  0.00     0.000 HD 
ENDROOT
BRANCH  12  14
HETATM   14  C   UNL    20     -10.140  12.104  67.964  1.00  0.00    -0.204 C  
HETATM   15  O   UNL    20     -10.089  13.435  67.512  1.00  0.00    -0.223 OA 
HETATM   16  C   UNL    20      -8.902  13.585  66.777  1.00  0.00    -0.131 C  
HETATM   17  C   UNL    20      -8.694  11.608  68.183  1.00  0.00    -0.159 C  
HETATM   18  H   UNL    20      -7.638  10.012  67.802  1.00  0.00     0.000 HD 
HETATM   19  C   UNL    20      -7.830  12.633  67.411  1.00  0.00    -0.175 C  
HETATM   20  H   UNL    20      -6.298  12.690  68.680  1.00  0.00     0.000 HD 
HETATM   21  O   UNL    20      -8.528  10.317  67.668  1.00  0.00    -0.118 OA 
HETATM   22  O   UNL    20      -6.948  13.266  68.296  1.00  0.00    -0.085 OA 
BRANCH  16  23
HETATM   23  O   UNL    20      -8.577  14.981  66.613  1.00  0.00    -0.258 OA 
BRANCH  23  24
HETATM   24  C   UNL    20      -8.098  15.783  67.718  1.00  0.00    -0.144 C  
HETATM   25  O   UNL    20      -7.673  17.039  67.222  1.00  0.00    -0.160 OA 
HETATM   26  C   UNL    20      -8.748  17.862  66.778  1.00  0.00    -0.254 C  
HETATM   27  H   UNL    20      -9.846  15.066  70.385  1.00  0.00     0.000 HD 
HETATM   28  C   UNL    20      -9.773  18.156  67.912  1.00  0.00    -0.299 C  
HETATM   29  O   UNL    20     -10.831  18.969  67.470  1.00  0.00    -0.463 OA 
HETATM   30  C   UNL    20     -10.283  16.851  68.506  1.00  0.00    -0.310 C  
HETATM   31  O   UNL    20      -9.278  14.896  69.643  1.00  0.00    -0.058 OA 
HETATM   32  H   UNL    20     -11.456  19.149  68.162  1.00  0.00     0.000 HD 
HETATM   33  O   UNL    20     -11.089  17.125  69.618  1.00  0.00    -0.288 OA 
HETATM   34  C   UNL    20      -9.024  16.059  68.928  1.00  0.00    -0.239 C  
HETATM   35  H   UNL    20     -11.408  16.311  69.989  1.00  0.00     0.000 HD 
BRANCH  26  36
HETATM   36  C   UNL    20      -8.142  19.215  66.328  1.00  0.00    -0.297 C  
HETATM   37  O   UNL    20      -7.551  19.862  67.416  1.00  0.00    -0.254 OA 
HETATM   38  H   UNL    20      -7.179  20.692  67.140  1.00  0.00     0.000 HD 
ENDBRANCH  26  36
ENDBRANCH  23  24
ENDBRANCH  16  23
BRANCH  16  39
HETATM   39  C   UNL    20      -9.179  13.036  65.343  1.00  0.00     0.568 C  
HETATM   40  O   UNL    20     -10.320  12.221  65.334  1.00  0.00    -0.256 OA 
HETATM   41  H   UNL    20     -10.489  11.888  64.461  1.00  0.00     0.000 HD 
ENDBRANCH  16  39
ENDBRANCH  12  14
TORSDOF 5
ENDMDL
MODEL      241
REMARK 921   NORMALIZED FREE ENERGY PREDICTED BY IDOCK:   -0.06 KCAL/MOL
REMARK 922        TOTAL FREE ENERGY PREDICTED BY IDOCK:   -1.66 KCAL/MOL
REMARK 923 INTER-LIGAND FREE ENERGY PREDICTED BY IDOCK:   -5.70 KCAL/MOL
REMARK 924 INTRA-LIGAND FREE ENERGY PREDICTED BY IDOCK:    4.04 KCAL/MOL
REMARK 927      BINDING AFFINITY PREDICTED BY RF-SCORE:    0.00 PKD
ROOT
HETATM    1  O   HOH     4      -7.918   8.793  71.079  1.00  0.00    -0.116 OA 
HETATM    2  H2  HOH     4      -7.759   9.718  70.930  1.00  0.00     0.000 HD 
HETATM    3 NA   UNL    13     -10.491  15.356  71.576  1.00  0.00    -0.302 Na 
HETATM    4  H1  HOH     4      -8.804   8.747  71.418  1.00  0.00     0.000 HD 
HETATM    5 NA   UNL    14      -6.281  11.334  71.336  1.00  0.00    -0.022 Na 
HETATM    6 FE   UNL    15      -7.375  14.099  72.374  1.00  0.00     0.243 Fe 
HETATM    7 FE   UNL    16      -9.821  10.585  70.366  1.00  0.00    -0.327 Fe 
HETATM    8 FE   UNL    17      -6.389  12.287  69.193  1.00  0.00    -0.058 Fe 
HETATM    9 FE   UNL    18      -9.483   9.276  68.670  1.00  0.00    -0.137 Fe 
HETATM   10 FE   UNL    19      -8.131  13.164  65.826  1.00  0.00    -0.090 Fe 
HETATM   11  O   UNL    20      -9.134  11.952  68.174  1.00  0.00    -0.178 OA 
HETATM   12  C   UNL    20     -10.531  11.857  68.095  1.00  0.00    -0.207 C  
HETATM   13  H   UNL    20      -8.724  11.410  68.839  1.00  0.00     0.000 HD 
ENDROOT
BRANCH  12  14
HETATM   14  C   UNL    20     -11.199  12.737  67.014  1.00  0.00    -0.292 C  
HETATM   15  O   UNL    20     -10.562  13.987  66.920  1.00  0.00    -0.277 OA 
HETATM   16  C   UNL    20     -10.926  14.553  65.687  1.00  0.00    -0.323 C  
HETATM   17  C   UNL    20     -11.349  12.157  65.590  1.00  0.00    -0.347 C  
HETATM   18  H   UNL    20     -12.718  11.257  64.531  1.00  0.00     0.000 HD 
HETATM   19  C   UNL    20     -11.125  13.379  64.668  1.00  0.00    -0.366 C  
HETATM   20  H   UNL    20     -10.143  12.432  63.218  1.00  0.00     0.000 HD 
HETATM   21  O   UNL    20     -12.626  11.613  65.407  1.00  0.00     0.321 OA 
HETATM   22  O   UNL    20     -10.023  13.144  63.835  1.00  0.00    -0.270 OA 
BRANCH  16  23
HETATM   23  O   UNL    20     -10.032  15.630  65.335  1.00  0.00    -0.331 OA 
BRANCH  23  24
HETATM   24  C   UNL    20      -9.032  16.117  66.261  1.00  0.00    -0.344 C  
HETATM   25  O   UNL    20      -9.392  17.420  66.679  1.00  0.00    -0.248 OA 
HETATM   26  C   UNL    20     -10.535  17.444  67.528  1.00  0.00    -0.354 C  
HETATM   27  H   UNL    20      -7.882  13.600  68.003  1.00  0.00     0.000 HD 
HETATM   28  C   UNL    20     -10.327  16.605  68.823  1.00  0.00    -0.301 C  
HETATM   29  O   UNL    20     -11.457  16.632  69.658  1.00  0.00    -0.290 OA 
HETATM   30  C   UNL    20      -9.933  15.179  68.463  1.00  0.00    -0.223 C  
HETATM   31  O   UNL    20      -8.085  14.100  67.220  1.00  0.00    -0.187 OA 
HETATM   32  H   UNL    20     -11.329  16.120  70.448  1.00  0.00     0.000 HD 
HETATM   33  O   UNL    20      -9.606  14.474  69.628  1.00  0.00    -0.398 OA 
HETATM   34  C   UNL    20      -8.701  15.303  67.537  1.00  0.00    -0.178 C  
HETATM   35  H   UNL    20      -9.360  13.585  69.403  1.00  0.00     0.000 HD 
BRANCH  26  36
HETATM   36  C   UNL    20     -10.768  18.916  67.954  1.00  0.00    -0.288 C  
HETATM   37  O   UNL    20     -10.089  19.184  69.146  1.00  0.00    -0.521 OA 
HETATM   38  H   UNL    20     -10.232  20.086  69.407  1.00  0.00     0.000 HD 
ENDBRANCH  26  36
ENDBRANCH  23  24
ENDBRANCH  16  23
BRANCH  16  39
HETATM   39  C   UNL    20     -12.330  15.206  65.879  1.00  0.00     0.489 C  
HETATM   40  O   UNL    20     -12.860  14.885  67.137  1.00  0.00     0.221 OA 
HETATM   41  H   UNL    20     -13.715  15.282  67.254  1.00  0.00     0.000 HD 
ENDBRANCH  16  39
ENDBRANCH  12  14
TORSDOF 5
ENDMDL
MODEL      242
REMARK 921   NORMALIZED FREE ENERGY PREDICTED BY IDOCK:    0.42 KCAL/MOL
REMARK 922        TOTAL FREE ENERGY PREDICTED BY IDOCK:   -1.05 KCAL/MOL
REMARK 923 INTER-LIGAND FREE ENERGY PREDICTED BY IDOCK:   -5.04 KCAL/MOL
REMARK 924 INTRA-LIGAND FREE ENERGY PREDICTED BY IDOCK:    3.99 KCAL/MOL
REMARK 927      BINDING AFFINITY PREDICTED BY RF-SCORE:    0.00 PKD
ROOT
HETATM    1  O   HOH     4     -10.765  12.898  68.203  1.00  0.00    -0.226 OA 
HETATM    2  H2  HOH     4     -10.181  12.345  67.696  1.00  0.00     0.000 HD 
HETATM    3 NA   UNL    13      -9.738   6.546  65.279  1.00  0.00    -0.380 Na 
HETATM    4  H1  HOH     4     -11.507  12.343  68.414  1.00  0.00     0.000 HD 
HETATM    5 NA   UNL    14      -9.007  12.304  65.802  1.00  0.00    -0.236 Na 
HETATM    6 FE   UNL    15      -9.187   9.714  64.020  1.00  0.00    -0.192 Fe 
HETATM    7 FE   UNL    16     -10.505  10.221  68.533  1.00  0.00    -0.153 Fe 
HETATM    8 FE   UNL    17      -7.094  11.320  66.742  1.00  0.00    -0.090 Fe 
HETATM    9 FE   UNL    18      -9.634  11.185  70.270  1.00  0.00    -0.331 Fe 
HETATM   10 FE   UNL    19      -5.189   9.099  69.307  1.00  0.00    -0.032 Fe 
HETATM   11  O   UNL    20      -7.956   9.503  68.897  1.00  0.00    -0.088 OA 
HETATM   12  C   UNL    20      -8.685   8.575  69.654  1.00  0.00    -0.133 C  
HETATM   13  H   UNL    20      -8.452  10.246  68.572  1.00  0.00     0.000 HD 
ENDROOT
BRANCH  12  14
HETATM   14  C   UNL    20      -7.879   7.366  70.183  1.00  0.00    -0.099 C  
HETATM   15  O   UNL    20      -8.644   6.608  71.088  1.00  0.00    -0.128 OA 
HETATM   16  C   UNL    20      -8.036   5.348  71.201  1.00  0.00    -0.109 C  
HETATM   17  C   UNL    20      -7.247   6.403  69.153  1.00  0.00    -0.090 C  
HETATM   18  H   UNL    20      -5.515   6.136  68.296  1.00  0.00     0.000 HD 
HETATM   19  C   UNL    20      -7.382   5.012  69.816  1.00  0.00    -0.056 C  
HETATM   20  H   UNL    20      -7.760   3.972  68.162  1.00  0.00     0.000 HD 
HETATM   21  O   UNL    20      -5.904   6.728  68.929  1.00  0.00    -0.017 OA 
HETATM   22  O   UNL    20      -8.155   4.176  69.001  1.00  0.00    -0.070 OA 
BRANCH  16  23
HETATM   23  O   UNL    20      -8.946   4.392  71.786  1.00  0.00    -0.119 OA 
BRANCH  23  24
HETATM   24  C   UNL    20      -9.583   4.636  73.062  1.00  0.00    -0.129 C  
HETATM   25  O   UNL    20      -8.920   5.708  73.707  1.00  0.00    -0.124 OA 
HETATM   26  C   UNL    20      -9.146   6.968  73.082  1.00  0.00    -0.135 C  
HETATM   27  H   UNL    20     -12.780   4.010  72.790  1.00  0.00     0.000 HD 
HETATM   28  C   UNL    20     -10.657   7.342  73.039  1.00  0.00    -0.343 C  
HETATM   29  O   UNL    20     -10.876   8.587  72.423  1.00  0.00    -0.346 OA 
HETATM   30  C   UNL    20     -11.450   6.236  72.358  1.00  0.00    -0.293 C  
HETATM   31  O   UNL    20     -11.849   3.826  72.754  1.00  0.00     0.460 OA 
HETATM   32  H   UNL    20     -11.797   8.815  72.397  1.00  0.00     0.000 HD 
HETATM   33  O   UNL    20     -12.819   6.513  72.454  1.00  0.00    -0.536 OA 
HETATM   34  C   UNL    20     -11.102   4.937  73.120  1.00  0.00    -0.322 C  
HETATM   35  H   UNL    20     -13.314   5.822  72.029  1.00  0.00     0.000 HD 
BRANCH  26  36
HETATM   36  C   UNL    20      -8.419   8.044  73.928  1.00  0.00    -0.260 C  
HETATM   37  O   UNL    20      -7.629   8.849  73.103  1.00  0.00    -0.366 OA 
HETATM   38  H   UNL    20      -7.183   9.509  73.621  1.00  0.00     0.000 HD 
ENDBRANCH  26  36
ENDBRANCH  23  24
ENDBRANCH  16  23
BRANCH  16  39
HETATM   39  C   UNL    20      -6.859   5.497  72.214  1.00  0.00    -0.079 C  
HETATM   40  O   UNL    20      -6.023   4.372  72.176  1.00  0.00    -0.014 OA 
HETATM   41  H   UNL    20      -5.307   4.463  72.792  1.00  0.00     0.000 HD 
ENDBRANCH  16  39
ENDBRANCH  12  14
TORSDOF 5
ENDMDL
MODEL      243
REMARK 921   NORMALIZED FREE ENERGY PREDICTED BY IDOCK:    1.19 KCAL/MOL
REMARK 922        TOTAL FREE ENERGY PREDICTED BY IDOCK:   -0.05 KCAL/MOL
REMARK 923 INTER-LIGAND FREE ENERGY PREDICTED BY IDOCK:    0.23 KCAL/MOL
REMARK 924 INTRA-LIGAND FREE ENERGY PREDICTED BY IDOCK:   -0.28 KCAL/MOL
REMARK 927      BINDING AFFINITY PREDICTED BY RF-SCORE:    0.00 PKD
ROOT
HETATM    1  O   HOH     4      -5.151  16.449  71.903  1.00  0.00    -0.274 OA 
HETATM    2  H2  HOH     4      -5.672  15.655  71.918  1.00  0.00     0.000 HD 
HETATM    3 NA   UNL    13      -6.959  10.535  68.483  1.00  0.00    -0.058 Na 
HETATM    4  H1  HOH     4      -4.710  16.438  71.061  1.00  0.00     0.000 HD 
HETATM    5 NA   UNL    14      -6.131  13.879  73.183  1.00  0.00    -0.210 Na 
HETATM    6 FE   UNL    15      -6.138  11.052  71.798  1.00  0.00     0.088 Fe 
HETATM    7 FE   UNL    16      -6.262  15.296  69.717  1.00  0.00    -0.105 Fe 
HETATM    8 FE   UNL    17      -8.443  13.899  72.774  1.00  0.00     2.980 Fe 
HETATM    9 FE   UNL    18      -7.331  17.144  70.100  1.00  0.00    -0.031 Fe 
HETATM   10 FE   UNL    19     -11.628  14.643  70.665  1.00  0.00    -0.233 Fe 
HETATM   11  O   UNL    20      -8.884  14.883  70.030  1.00  0.00    -0.397 OA 
HETATM   12  C   UNL    20      -8.738  15.136  68.658  1.00  0.00    -0.174 C  
HETATM   13  H   UNL    20      -8.118  15.064  70.564  1.00  0.00     0.000 HD 
ENDROOT
BRANCH  12  14
HETATM   14  C   UNL    20      -9.983  14.842  67.790  1.00  0.00    -0.223 C  
HETATM   15  O   UNL    20      -9.653  14.015  66.701  1.00  0.00    -0.270 OA 
HETATM   16  C   UNL    20     -10.849  13.462  66.215  1.00  0.00    -0.289 C  
HETATM   17  C   UNL    20     -11.235  14.259  68.483  1.00  0.00    -0.266 C  
HETATM   18  H   UNL    20     -12.919  14.915  69.217  1.00  0.00     0.000 HD 
HETATM   19  C   UNL    20     -11.818  13.283  67.434  1.00  0.00    -0.366 C  
HETATM   20  H   UNL    20     -12.432  11.877  68.702  1.00  0.00     0.000 HD 
HETATM   21  O   UNL    20     -12.149  15.274  68.792  1.00  0.00    -0.273 OA 
HETATM   22  O   UNL    20     -11.845  11.986  67.963  1.00  0.00    -0.428 OA 
BRANCH  16  23
HETATM   23  O   UNL    20     -10.579  12.322  65.372  1.00  0.00    -0.259 OA 
BRANCH  23  24
HETATM   24  C   UNL    20      -9.274  11.698  65.337  1.00  0.00    -0.065 C  
HETATM   25  O   UNL    20      -9.117  10.902  66.497  1.00  0.00    -0.161 OA 
HETATM   26  C   UNL    20      -9.938   9.738  66.497  1.00  0.00    -0.239 C  
HETATM   27  H   UNL    20      -8.487  11.054  62.231  1.00  0.00     0.000 HD 
HETATM   28  C   UNL    20      -9.648   8.812  65.280  1.00  0.00     0.307 C  
HETATM   29  O   UNL    20     -10.459   7.664  65.285  1.00  0.00     2.178 OA 
HETATM   30  C   UNL    20      -9.794   9.593  63.982  1.00  0.00     0.656 C  
HETATM   31  O   UNL    20      -8.735  11.590  62.975  1.00  0.00    -0.033 OA 
HETATM   32  H   UNL    20     -10.282   7.098  64.542  1.00  0.00     0.000 HD 
HETATM   33  O   UNL    20      -9.391   8.794  62.906  1.00  0.00    -0.301 OA 
HETATM   34  C   UNL    20      -8.869  10.824  64.124  1.00  0.00    -0.111 C  
HETATM   35  H   UNL    20      -9.482   9.282  62.095  1.00  0.00     0.000 HD 
BRANCH  26  36
HETATM   36  C   UNL    20      -9.613   8.939  67.785  1.00  0.00    -0.147 C  
HETATM   37  O   UNL    20     -10.084   7.629  67.668  1.00  0.00    -0.166 OA 
HETATM   38  H   UNL    20      -9.885   7.139  68.458  1.00  0.00     0.000 HD 
ENDBRANCH  26  36
ENDBRANCH  23  24
ENDBRANCH  16  23
BRANCH  16  39
HETATM   39  C   UNL    20     -11.506  14.534  65.290  1.00  0.00    -0.355 C  
HETATM   40  O   UNL    20     -10.576  15.031  64.365  1.00  0.00    -0.544 OA 
HETATM   41  H   UNL    20     -10.976  15.683  63.803  1.00  0.00     0.000 HD 
ENDBRANCH  16  39
ENDBRANCH  12  14
TORSDOF 5
ENDMDL
MODEL      244
REMARK 921   NORMALIZED FREE ENERGY PREDICTED BY IDOCK:    1.62 KCAL/MOL
REMARK 922        TOTAL FREE ENERGY PREDICTED BY IDOCK:    0.51 KCAL/MOL
REMARK 923 INTER-LIGAND FREE ENERGY PREDICTED BY IDOCK:   -1.53 KCAL/MOL
REMARK 924 INTRA-LIGAND FREE ENERGY PREDICTED BY IDOCK:    2.03 KCAL/MOL
REMARK 927      BINDING AFFINITY PREDICTED BY RF-SCORE:    0.00 PKD
ROOT
HETATM    1  O   HOH     4      -6.200   4.856  62.783  1.00  0.00    -0.020 OA 
HETATM    2  H2  HOH     4      -6.621   4.527  63.569  1.00  0.00     0.000 HD 
HETATM    3 NA   UNL    13     -11.833   5.235  67.033  1.00  0.00    -0.185 Na 
HETATM    4  H1  HOH     4      -6.782   5.530  62.455  1.00  0.00     0.000 HD 
HETATM    5 NA   UNL    14      -7.236   2.634  64.571  1.00  0.00    -0.043 Na 
HETATM    6 FE   UNL    15     -10.135   2.495  65.794  1.00  0.00    -0.362 Fe 
HETATM    7 FE   UNL    16      -7.744   6.344  64.439  1.00  0.00    -0.064 Fe 
HETATM    8 FE   UNL    17      -6.542   3.277  66.719  1.00  0.00    -0.031 Fe 
HETATM    9 FE   UNL    18      -5.696   7.018  64.669  1.00  0.00    -0.027 Fe 
HETATM   10 FE   UNL    19      -5.766   5.850  69.533  1.00  0.00    -0.010 Fe 
HETATM   11  O   UNL    20      -6.924   6.188  66.978  1.00  0.00    -0.067 OA 
HETATM   12  C   UNL    20      -7.444   7.487  66.864  1.00  0.00    -0.098 C  
HETATM   13  H   UNL    20      -6.814   5.718  66.159  1.00  0.00     0.000 HD 
ENDROOT
BRANCH  12  14
HETATM   14  C   UNL    20      -7.623   8.252  68.195  1.00  0.00    -0.098 C  
HETATM   15  O   UNL    20      -7.359   9.623  68.027  1.00  0.00    -0.081 OA 
HETATM   16  C   UNL    20      -7.926  10.298  69.120  1.00  0.00    -0.135 C  
HETATM   17  C   UNL    20      -8.963   8.102  68.948  1.00  0.00    -0.141 C  
HETATM   18  H   UNL    20      -9.688   7.037  70.414  1.00  0.00     0.000 HD 
HETATM   19  C   UNL    20      -9.206   9.504  69.554  1.00  0.00    -0.189 C  
HETATM   20  H   UNL    20     -11.182   9.549  69.321  1.00  0.00     0.000 HD 
HETATM   21  O   UNL    20      -8.864   7.129  69.950  1.00  0.00    -0.141 OA 
HETATM   22  O   UNL    20     -10.407  10.029  69.058  1.00  0.00    -0.184 OA 
BRANCH  16  23
HETATM   23  O   UNL    20      -8.048  11.709  68.841  1.00  0.00    -0.108 OA 
BRANCH  23  24
HETATM   24  C   UNL    20      -9.252  12.443  69.163  1.00  0.00     0.652 C  
HETATM   25  O   UNL    20      -8.891  13.712  69.676  1.00  0.00     0.979 OA 
HETATM   26  C   UNL    20      -8.337  14.581  68.692  1.00  0.00    -0.164 C  
HETATM   27  H   UNL    20     -11.591  11.636  67.026  1.00  0.00     0.000 HD 
HETATM   28  C   UNL    20      -9.321  14.842  67.515  1.00  0.00    -0.193 C  
HETATM   29  O   UNL    20      -8.771  15.701  66.547  1.00  0.00    -0.260 OA 
HETATM   30  C   UNL    20      -9.764  13.521  66.902  1.00  0.00    -0.261 C  
HETATM   31  O   UNL    20     -10.933  11.490  67.696  1.00  0.00    -0.212 OA 
HETATM   32  H   UNL    20      -9.372  15.860  65.829  1.00  0.00     0.000 HD 
HETATM   33  O   UNL    20     -10.757  13.759  65.943  1.00  0.00    -0.279 OA 
HETATM   34  C   UNL    20     -10.325  12.681  68.071  1.00  0.00    -0.228 C  
HETATM   35  H   UNL    20     -11.034  12.935  65.561  1.00  0.00     0.000 HD 
BRANCH  26  36
HETATM   36  C   UNL    20      -8.053  15.941  69.379  1.00  0.00    -0.178 C  
HETATM   37  O   UNL    20      -6.890  15.855  70.150  1.00  0.00     0.001 OA 
HETATM   38  H   UNL    20      -6.716  16.689  70.572  1.00  0.00     0.000 HD 
ENDBRANCH  26  36
ENDBRANCH  23  24
ENDBRANCH  16  23
BRANCH  16  39
HETATM   39  C   UNL    20      -6.917  10.179  70.304  1.00  0.00    -0.145 C  
HETATM   40  O   UNL    20      -7.016  11.288  71.156  1.00  0.00     0.744 OA 
HETATM   41  H   UNL    20      -6.402  11.215  71.877  1.00  0.00     0.000 HD 
ENDBRANCH  16  39
ENDBRANCH  12  14
TORSDOF 5
ENDMDL
MODEL      245
REMARK 921   NORMALIZED FREE ENERGY PREDICTED BY IDOCK:    1.80 KCAL/MOL
REMARK 922        TOTAL FREE ENERGY PREDICTED BY IDOCK:    0.73 KCAL/MOL
REMARK 923 INTER-LIGAND FREE ENERGY PREDICTED BY IDOCK:   -4.11 KCAL/MOL
REMARK 924 INTRA-LIGAND FREE ENERGY PREDICTED BY IDOCK:    4.85 KCAL/MOL
REMARK 927      BINDING AFFINITY PREDICTED BY RF-SCORE:    0.00 PKD
ROOT
HETATM    1  O   HOH     4      -9.824  16.190  65.061  1.00  0.00    -0.325 OA 
HETATM    2  H2  HOH     4      -9.847  15.760  65.908  1.00  0.00     0.000 HD 
HETATM    3 NA   UNL    13      -6.340  12.173  69.716  1.00  0.00    -0.080 Na 
HETATM    4  H1  HOH     4      -8.982  15.955  64.689  1.00  0.00     0.000 HD 
HETATM    5 NA   UNL    14     -10.269  16.145  68.062  1.00  0.00    -0.220 Na 
HETATM    6 FE   UNL    15      -8.226  15.028  70.182  1.00  0.00    -0.265 Fe 
HETATM    7 FE   UNL    16      -8.617  13.830  65.624  1.00  0.00    -0.382 Fe 
HETATM    8 FE   UNL    17     -11.468  14.159  68.418  1.00  0.00    -0.225 Fe 
HETATM    9 FE   UNL    18     -10.284  13.416  64.300  1.00  0.00    -0.333 Fe 
HETATM   10 FE   UNL    19     -12.381  10.439  67.731  1.00  0.00    -0.308 Fe 
HETATM   11  O   UNL    20     -10.319  12.067  66.689  1.00  0.00    -0.205 OA 
HETATM   12  C   UNL    20      -9.417  11.276  65.961  1.00  0.00    -0.216 C  
HETATM   13  H   UNL    20     -10.261  13.003  66.534  1.00  0.00     0.000 HD 
ENDROOT
BRANCH  12  14
HETATM   14  C   UNL    20      -9.511   9.754  66.213  1.00  0.00    -0.195 C  
HETATM   15  O   UNL    20      -8.302   9.114  65.886  1.00  0.00    -0.115 OA 
HETATM   16  C   UNL    20      -8.311   7.855  66.508  1.00  0.00    -0.127 C  
HETATM   17  C   UNL    20      -9.956   9.272  67.612  1.00  0.00    -0.196 C  
HETATM   18  H   UNL    20     -11.599   8.686  68.486  1.00  0.00     0.000 HD 
HETATM   19  C   UNL    20      -9.114   7.995  67.847  1.00  0.00    -0.132 C  
HETATM   20  H   UNL    20      -8.801   8.247  69.796  1.00  0.00     0.000 HD 
HETATM   21  O   UNL    20     -11.326   8.983  67.626  1.00  0.00     0.314 OA 
HETATM   22  O   UNL    20      -8.315   8.162  68.985  1.00  0.00    -0.125 OA 
BRANCH  16  23
HETATM   23  O   UNL    20      -6.979   7.301  66.556  1.00  0.00    -0.069 OA 
BRANCH  23  24
HETATM   24  C   UNL    20      -6.755   5.876  66.667  1.00  0.00    -0.057 C  
HETATM   25  O   UNL    20      -5.812   5.640  67.696  1.00  0.00    -0.012 OA 
HETATM   26  C   UNL    20      -6.323   5.904  68.999  1.00  0.00    -0.041 C  
HETATM   27  H   UNL    20      -9.537   4.306  65.975  1.00  0.00     0.000 HD 
HETATM   28  C   UNL    20      -7.570   5.033  69.332  1.00  0.00    -0.061 C  
HETATM   29  O   UNL    20      -8.070   5.296  70.619  1.00  0.00    -0.103 OA 
HETATM   30  C   UNL    20      -8.640   5.226  68.267  1.00  0.00    -0.099 C  
HETATM   31  O   UNL    20      -8.803   4.890  65.821  1.00  0.00    -0.126 OA 
HETATM   32  H   UNL    20      -8.830   4.764  70.822  1.00  0.00     0.000 HD 
HETATM   33  O   UNL    20      -9.694   4.333  68.495  1.00  0.00    -0.149 OA 
HETATM   34  C   UNL    20      -7.952   4.925  66.917  1.00  0.00    -0.103 C  
HETATM   35  H   UNL    20     -10.363   4.454  67.830  1.00  0.00     0.000 HD 
BRANCH  26  36
HETATM   36  C   UNL    20      -5.211   5.542  70.017  1.00  0.00    -0.004 C  
HETATM   37  O   UNL    20      -5.732   5.533  71.314  1.00  0.00    -0.018 OA 
HETATM   38  H   UNL    20      -5.051   5.311  71.938  1.00  0.00     0.000 HD 
ENDBRANCH  26  36
ENDBRANCH  23  24
ENDBRANCH  16  23
BRANCH  16  39
HETATM   39  C   UNL    20      -9.142   6.900  65.598  1.00  0.00     0.136 C  
HETATM   40  O   UNL    20      -8.776   7.050  64.253  1.00  0.00    -0.275 OA 
HETATM   41  H   UNL    20      -9.282   6.468  63.699  1.00  0.00     0.000 HD 
ENDBRANCH  16  39
ENDBRANCH  12  14
TORSDOF 5
ENDMDL
MODEL      246
REMARK 921   NORMALIZED FREE ENERGY PREDICTED BY IDOCK:    2.06 KCAL/MOL
REMARK 922        TOTAL FREE ENERGY PREDICTED BY IDOCK:    1.08 KCAL/MOL
REMARK 923 INTER-LIGAND FREE ENERGY PREDICTED BY IDOCK:   -1.34 KCAL/MOL
REMARK 924 INTRA-LIGAND FREE ENERGY PREDICTED BY IDOCK:    2.42 KCAL/MOL
REMARK 927      BINDING AFFINITY PREDICTED BY RF-SCORE:    0.00 PKD
ROOT
HETATM    1  O   HOH     4      -7.504   1.917  70.368  1.00  0.00    -0.036 OA 
HETATM    2  H2  HOH     4      -7.486   2.408  69.555  1.00  0.00     0.000 HD 
HETATM    3 NA   UNL    13      -5.273   7.755  67.069  1.00  0.00    -0.022 Na 
HETATM    4  H1  HOH     4      -7.041   2.461  70.994  1.00  0.00     0.000 HD 
HETATM    5 NA   UNL    14      -7.007   2.201  67.388  1.00  0.00    -0.035 Na 
HETATM    6 FE   UNL    15      -5.265   4.456  66.048  1.00  0.00    -0.006 Fe 
HETATM    7 FE   UNL    16      -7.519   4.621  70.202  1.00  0.00    -0.045 Fe 
HETATM    8 FE   UNL    17      -8.865   3.416  66.626  1.00  0.00    -0.101 Fe 
HETATM    9 FE   UNL    18      -9.477   3.994  70.893  1.00  0.00    -0.095 Fe 
HETATM   10 FE   UNL    19     -11.654   6.113  66.918  1.00  0.00    -0.436 Fe 
HETATM   11  O   UNL    20      -9.470   5.513  68.607  1.00  0.00    -0.121 OA 
HETATM   12  C   UNL    20      -9.338   6.514  69.581  1.00  0.00    -0.142 C  
HETATM   13  H   UNL    20      -9.005   4.703  68.787  1.00  0.00     0.000 HD 
ENDROOT
BRANCH  12  14
HETATM   14  C   UNL    20     -10.094   7.831  69.289  1.00  0.00    -0.199 C  
HETATM   15  O   UNL    20      -9.242   8.941  69.424  1.00  0.00    -0.143 OA 
HETATM   16  C   UNL    20      -9.849  10.021  68.764  1.00  0.00    -0.167 C  
HETATM   17  C   UNL    20     -10.851   7.956  67.948  1.00  0.00     0.007 C  
HETATM   18  H   UNL    20     -12.672   7.726  67.288  1.00  0.00     0.000 HD 
HETATM   19  C   UNL    20     -10.660   9.440  67.554  1.00  0.00    -0.267 C  
HETATM   20  H   UNL    20     -10.485   9.165  65.591  1.00  0.00     0.000 HD 
HETATM   21  O   UNL    20     -12.207   7.648  68.112  1.00  0.00     2.745 OA 
HETATM   22  O   UNL    20      -9.994   9.517  66.323  1.00  0.00    -0.249 OA 
BRANCH  16  23
HETATM   23  O   UNL    20      -8.891  11.071  68.514  1.00  0.00    -0.147 OA 
BRANCH  23  24
HETATM   24  C   UNL    20      -8.696  11.619  67.189  1.00  0.00    -0.164 C  
HETATM   25  O   UNL    20      -9.961  11.837  66.593  1.00  0.00    -0.196 OA 
HETATM   26  C   UNL    20     -10.689  12.906  67.190  1.00  0.00    -0.253 C  
HETATM   27  H   UNL    20      -6.035  13.518  67.207  1.00  0.00     0.000 HD 
HETATM   28  C   UNL    20      -9.922  14.259  67.109  1.00  0.00    -0.255 C  
HETATM   29  O   UNL    20     -10.645  15.311  67.697  1.00  0.00    -0.259 OA 
HETATM   30  C   UNL    20      -8.541  14.114  67.730  1.00  0.00    -0.184 C  
HETATM   31  O   UNL    20      -6.538  12.720  67.319  1.00  0.00    -0.159 OA 
HETATM   32  H   UNL    20     -10.177  16.137  67.648  1.00  0.00     0.000 HD 
HETATM   33  O   UNL    20      -7.808  15.288  67.523  1.00  0.00    -0.144 OA 
HETATM   34  C   UNL    20      -7.876  12.921  67.007  1.00  0.00     0.004 C  
HETATM   35  H   UNL    20      -6.945  15.198  67.911  1.00  0.00     0.000 HD 
BRANCH  26  36
HETATM   36  C   UNL    20     -12.012  13.067  66.399  1.00  0.00    -0.402 C  
HETATM   37  O   UNL    20     -11.797  12.800  65.044  1.00  0.00    -0.341 OA 
HETATM   38  H   UNL    20     -12.608  12.898  64.559  1.00  0.00     0.000 HD 
ENDBRANCH  26  36
ENDBRANCH  23  24
ENDBRANCH  16  23
BRANCH  16  39
HETATM   39  C   UNL    20     -10.902  10.624  69.744  1.00  0.00    -0.261 C  
HETATM   40  O   UNL    20     -10.362  10.762  71.031  1.00  0.00     0.734 OA 
HETATM   41  H   UNL    20     -11.003  11.129  71.628  1.00  0.00     0.000 HD 
ENDBRANCH  16  39
ENDBRANCH  12  14
TORSDOF 5
ENDMDL
MODEL      247
REMARK 921   NORMALIZED FREE ENERGY PREDICTED BY IDOCK:    2.29 KCAL/MOL
REMARK 922        TOTAL FREE ENERGY PREDICTED BY IDOCK:    1.37 KCAL/MOL
REMARK 923 INTER-LIGAND FREE ENERGY PREDICTED BY IDOCK:    0.66 KCAL/MOL
REMARK 924 INTRA-LIGAND FREE ENERGY PREDICTED BY IDOCK:    0.71 KCAL/MOL
REMARK 927      BINDING AFFINITY PREDICTED BY RF-SCORE:    0.00 PKD
ROOT
HETATM    1  O   HOH     4      -6.988   2.026  68.975  1.00  0.00    -0.036 OA 
HETATM    2  H2  HOH     4      -7.647   2.554  69.410  1.00  0.00     0.000 HD 
HETATM    3 NA   UNL    13     -11.797   7.161  68.303  1.00  0.00    -0.457 Na 
HETATM    4  H1  HOH     4      -6.963   2.350  68.082  1.00  0.00     0.000 HD 
HETATM    5 NA   UNL    14      -9.458   2.391  70.698  1.00  0.00    -0.080 Na 
HETATM    6 FE   UNL    15     -11.976   4.112  69.916  1.00  0.00     3.427 Fe 
HETATM    7 FE   UNL    16      -7.534   4.611  68.372  1.00  0.00    -0.058 Fe 
HETATM    8 FE   UNL    17      -8.889   4.173  72.117  1.00  0.00    -0.093 Fe 
HETATM    9 FE   UNL    18      -5.583   4.555  69.318  1.00  0.00    -0.010 Fe 
HETATM   10 FE   UNL    19      -7.178   7.558  72.988  1.00  0.00    -0.067 Fe 
HETATM   11  O   UNL    20      -7.428   6.183  70.531  1.00  0.00    -0.085 OA 
HETATM   12  C   UNL    20      -7.005   7.012  69.482  1.00  0.00    -0.062 C  
HETATM   13  H   UNL    20      -7.496   5.258  70.321  1.00  0.00     0.000 HD 
ENDROOT
BRANCH  12  14
HETATM   14  C   UNL    20      -6.895   8.516  69.824  1.00  0.00    -0.043 C  
HETATM   15  O   UNL    20      -7.108   9.309  68.682  1.00  0.00    -0.068 OA 
HETATM   16  C   UNL    20      -7.403  10.610  69.121  1.00  0.00    -0.111 C  
HETATM   17  C   UNL    20      -7.768   9.069  70.972  1.00  0.00    -0.125 C  
HETATM   18  H   UNL    20      -7.578   9.465  72.872  1.00  0.00     0.000 HD 
HETATM   19  C   UNL    20      -8.157  10.487  70.490  1.00  0.00     1.334 C  
HETATM   20  H   UNL    20     -10.009  10.509  71.219  1.00  0.00     0.000 HD 
HETATM   21  O   UNL    20      -7.041   9.125  72.167  1.00  0.00    -0.324 OA 
HETATM   22  O   UNL    20      -9.552  10.583  70.390  1.00  0.00     0.431 OA 
BRANCH  16  23
HETATM   23  O   UNL    20      -8.010  11.381  68.063  1.00  0.00    -0.116 OA 
BRANCH  23  24
HETATM   24  C   UNL    20      -9.442  11.393  67.861  1.00  0.00    -0.174 C  
HETATM   25  O   UNL    20      -9.822  12.661  67.358  1.00  0.00    -0.201 OA 
HETATM   26  C   UNL    20      -9.389  12.890  66.020  1.00  0.00    -0.024 C  
HETATM   27  H   UNL    20     -10.414   8.406  66.958  1.00  0.00     0.000 HD 
HETATM   28  C   UNL    20      -9.956  11.832  65.029  1.00  0.00    -0.254 C  
HETATM   29  O   UNL    20      -9.528  12.062  63.709  1.00  0.00    -0.533 OA 
HETATM   30  C   UNL    20      -9.593  10.430  65.497  1.00  0.00    -0.234 C  
HETATM   31  O   UNL    20     -10.009   9.060  67.515  1.00  0.00    -0.180 OA 
HETATM   32  H   UNL    20      -9.874  11.416  63.104  1.00  0.00     0.000 HD 
HETATM   33  O   UNL    20     -10.228   9.484  64.683  1.00  0.00    -0.188 OA 
HETATM   34  C   UNL    20     -10.102  10.326  66.953  1.00  0.00    -0.221 C  
HETATM   35  H   UNL    20     -10.001   8.609  64.975  1.00  0.00     0.000 HD 
BRANCH  26  36
HETATM   36  C   UNL    20      -9.928  14.277  65.588  1.00  0.00    -0.320 C  
HETATM   37  O   UNL    20      -9.696  14.478  64.224  1.00  0.00    -0.199 OA 
HETATM   38  H   UNL    20     -10.026  15.329  63.959  1.00  0.00     0.000 HD 
ENDBRANCH  26  36
ENDBRANCH  23  24
ENDBRANCH  16  23
BRANCH  16  39
HETATM   39  C   UNL    20      -6.042  11.306  69.435  1.00  0.00    -0.074 C  
HETATM   40  O   UNL    20      -5.732  11.202  70.798  1.00  0.00    -0.194 OA 
HETATM   41  H   UNL    20      -4.904  11.626  70.989  1.00  0.00     0.000 HD 
ENDBRANCH  16  39
ENDBRANCH  12  14
TORSDOF 5
ENDMDL
MODEL      248
REMARK 921   NORMALIZED FREE ENERGY PREDICTED BY IDOCK:    2.43 KCAL/MOL
REMARK 922        TOTAL FREE ENERGY PREDICTED BY IDOCK:    1.55 KCAL/MOL
REMARK 923 INTER-LIGAND FREE ENERGY PREDICTED BY IDOCK:   -0.58 KCAL/MOL
REMARK 924 INTRA-LIGAND FREE ENERGY PREDICTED BY IDOCK:    2.13 KCAL/MOL
REMARK 927      BINDING AFFINITY PREDICTED BY RF-SCORE:    0.00 PKD
ROOT
HETATM    1  O   HOH     4      -6.861  19.956  65.776  1.00  0.00    -0.248 OA 
HETATM    2  H2  HOH     4      -7.680  19.680  66.173  1.00  0.00     0.000 HD 
HETATM    3 NA   UNL    13      -9.954  16.832  71.310  1.00  0.00     0.994 Na 
HETATM    4  H1  HOH     4      -6.186  19.665  66.378  1.00  0.00     0.000 HD 
HETATM    5 NA   UNL    14      -9.701  20.431  66.733  1.00  0.00    -0.317 Na 
HETATM    6 FE   UNL    15     -10.793  19.712  69.598  1.00  0.00    -0.528 Fe 
HETATM    7 FE   UNL    16      -7.160  17.738  67.304  1.00  0.00    -0.159 Fe 
HETATM    8 FE   UNL    17     -10.863  18.528  65.997  1.00  0.00    -0.354 Fe 
HETATM    9 FE   UNL    18      -6.826  17.089  65.261  1.00  0.00    -0.043 Fe 
HETATM   10 FE   UNL    19     -11.243  14.740  65.194  1.00  0.00    -0.295 Fe 
HETATM   11  O   UNL    20      -9.139  16.175  66.420  1.00  0.00    -0.248 OA 
HETATM   12  C   UNL    20      -8.209  15.276  66.962  1.00  0.00    -0.233 C  
HETATM   13  H   UNL    20      -8.835  17.070  66.322  1.00  0.00     0.000 HD 
ENDROOT
BRANCH  12  14
HETATM   14  C   UNL    20      -8.704  13.820  67.121  1.00  0.00    -0.221 C  
HETATM   15  O   UNL    20      -7.659  12.906  66.893  1.00  0.00    -0.001 OA 
HETATM   16  C   UNL    20      -8.050  11.675  67.444  1.00  0.00    -0.153 C  
HETATM   17  C   UNL    20      -9.415  13.430  68.436  1.00  0.00    -0.176 C  
HETATM   18  H   UNL    20     -11.242  13.254  69.095  1.00  0.00     0.000 HD 
HETATM   19  C   UNL    20      -8.946  11.978  68.693  1.00  0.00    -0.023 C  
HETATM   20  H   UNL    20      -8.813  12.096  70.675  1.00  0.00     0.000 HD 
HETATM   21  O   UNL    20     -10.805  13.494  68.287  1.00  0.00    -0.243 OA 
HETATM   22  O   UNL    20      -8.270  11.912  69.918  1.00  0.00     1.347 OA 
BRANCH  16  23
HETATM   23  O   UNL    20      -6.910  10.804  67.605  1.00  0.00    -0.071 OA 
BRANCH  23  24
HETATM   24  C   UNL    20      -6.004  10.531  66.511  1.00  0.00    -0.077 C  
HETATM   25  O   UNL    20      -5.274   9.354  66.803  1.00  0.00    -0.037 OA 
HETATM   26  C   UNL    20      -6.068   8.172  66.756  1.00  0.00    -0.053 C  
HETATM   27  H   UNL    20      -7.396  11.492  63.714  1.00  0.00     0.000 HD 
HETATM   28  C   UNL    20      -6.719   7.955  65.358  1.00  0.00    -0.048 C  
HETATM   29  O   UNL    20      -7.500   6.788  65.315  1.00  0.00    -0.077 OA 
HETATM   30  C   UNL    20      -7.527   9.183  64.962  1.00  0.00    -0.105 C  
HETATM   31  O   UNL    20      -7.057  11.585  64.597  1.00  0.00     1.427 OA 
HETATM   32  H   UNL    20      -7.897   6.655  64.462  1.00  0.00     0.000 HD 
HETATM   33  O   UNL    20      -7.986   9.038  63.647  1.00  0.00    -0.134 OA 
HETATM   34  C   UNL    20      -6.556  10.380  65.071  1.00  0.00    -0.075 C  
HETATM   35  H   UNL    20      -8.490   9.804  63.400  1.00  0.00     0.000 HD 
BRANCH  26  36
HETATM   36  C   UNL    20      -5.130   6.970  67.030  1.00  0.00    -0.013 C  
HETATM   37  O   UNL    20      -5.882   5.844  67.377  1.00  0.00    -0.016 OA 
HETATM   38  H   UNL    20      -5.306   5.106  67.545  1.00  0.00     0.000 HD 
ENDBRANCH  26  36
ENDBRANCH  23  24
ENDBRANCH  16  23
BRANCH  16  39
HETATM   39  C   UNL    20      -8.978  10.980  66.399  1.00  0.00    -0.181 C  
HETATM   40  O   UNL    20     -10.313  11.002  66.827  1.00  0.00    -0.220 OA 
HETATM   41  H   UNL    20     -10.877  10.580  66.191  1.00  0.00     0.000 HD 
ENDBRANCH  16  39
ENDBRANCH  12  14
TORSDOF 5
ENDMDL
MODEL      249
REMARK 921   NORMALIZED FREE ENERGY PREDICTED BY IDOCK:    3.34 KCAL/MOL
REMARK 922        TOTAL FREE ENERGY PREDICTED BY IDOCK:    2.73 KCAL/MOL
REMARK 923 INTER-LIGAND FREE ENERGY PREDICTED BY IDOCK:    2.73 KCAL/MOL
REMARK 924 INTRA-LIGAND FREE ENERGY PREDICTED BY IDOCK:    0.00 KCAL/MOL
REMARK 927      BINDING AFFINITY PREDICTED BY RF-SCORE:    0.00 PKD
ROOT
HETATM    1  O   HOH     4      -5.128  14.795  73.126  1.00  0.00    -0.263 OA 
HETATM    2  H2  HOH     4      -5.961  14.353  73.013  1.00  0.00     0.000 HD 
HETATM    3 NA   UNL    13      -9.047  10.587  69.017  1.00  0.00    -0.124 Na 
HETATM    4  H1  HOH     4      -4.634  14.593  72.340  1.00  0.00     0.000 HD 
HETATM    5 NA   UNL    14      -7.382  12.991  74.058  1.00  0.00     2.164 Na 
HETATM    6 FE   UNL    15      -8.546  10.557  72.434  1.00  0.00     2.548 Fe 
HETATM    7 FE   UNL    16      -6.340  14.381  70.738  1.00  0.00    -0.143 Fe 
HETATM    8 FE   UNL    17      -9.322  14.139  73.403  1.00  0.00     1.826 Fe 
HETATM    9 FE   UNL    18      -6.439  16.505  71.165  1.00  0.00     0.246 Fe 
HETATM   10 FE   UNL    19     -11.439  16.387  71.035  1.00  0.00    -0.307 Fe 
HETATM   11  O   UNL    20      -8.856  15.283  70.727  1.00  0.00     0.610 OA 
HETATM   12  C   UNL    20      -8.419  15.468  69.406  1.00  0.00    -0.256 C  
HETATM   13  H   UNL    20      -8.179  15.056  71.354  1.00  0.00     0.000 HD 
ENDROOT
BRANCH  12  14
HETATM   14  C   UNL    20      -9.520  15.836  68.385  1.00  0.00    -0.196 C  
HETATM   15  O   UNL    20      -9.552  14.913  67.325  1.00  0.00    -0.210 OA 
HETATM   16  C   UNL    20     -10.793  15.053  66.681  1.00  0.00    -0.318 C  
HETATM   17  C   UNL    20     -10.962  16.032  68.905  1.00  0.00    -0.309 C  
HETATM   18  H   UNL    20     -12.118  17.508  69.444  1.00  0.00     0.000 HD 
HETATM   19  C   UNL    20     -11.845  15.464  67.769  1.00  0.00    -0.030 C  
HETATM   20  H   UNL    20     -13.252  14.649  68.916  1.00  0.00     0.000 HD 
HETATM   21  O   UNL    20     -11.232  17.388  69.125  1.00  0.00     0.281 OA 
HETATM   22  O   UNL    20     -12.615  14.401  68.257  1.00  0.00     0.068 OA 
BRANCH  16  23
HETATM   23  O   UNL    20     -11.068  13.906  65.850  1.00  0.00    -0.290 OA 
BRANCH  23  24
HETATM   24  C   UNL    20     -10.564  13.812  64.497  1.00  0.00    -0.386 C  
HETATM   25  O   UNL    20      -9.332  13.114  64.516  1.00  0.00     0.489 OA 
HETATM   26  C   UNL    20      -9.474  11.728  64.816  1.00  0.00    -0.011 C  
HETATM   27  H   UNL    20     -13.088  13.551  62.438  1.00  0.00     0.000 HD 
HETATM   28  C   UNL    20     -10.385  10.994  63.789  1.00  0.00    -0.364 C  
HETATM   29  O   UNL    20     -10.522   9.627  64.087  1.00  0.00     0.208 OA 
HETATM   30  C   UNL    20     -11.739  11.684  63.704  1.00  0.00    -0.303 C  
HETATM   31  O   UNL    20     -12.553  13.946  63.116  1.00  0.00    -0.775 OA 
HETATM   32  H   UNL    20     -11.077   9.178  63.460  1.00  0.00     0.000 HD 
HETATM   33  O   UNL    20     -12.496  11.108  62.676  1.00  0.00    -0.639 OA 
HETATM   34  C   UNL    20     -11.437  13.168  63.392  1.00  0.00    -0.149 C  
HETATM   35  H   UNL    20     -13.341  11.539  62.623  1.00  0.00     0.000 HD 
BRANCH  26  36
HETATM   36  C   UNL    20      -8.065  11.088  64.738  1.00  0.00     0.333 C  
HETATM   37  O   UNL    20      -7.849  10.558  63.462  1.00  0.00    -0.290 OA 
HETATM   38  H   UNL    20      -6.985  10.166  63.414  1.00  0.00     0.000 HD 
ENDBRANCH  26  36
ENDBRANCH  23  24
ENDBRANCH  16  23
BRANCH  16  39
HETATM   39  C   UNL    20     -10.671  16.269  65.711  1.00  0.00    -0.255 C  
HETATM   40  O   UNL    20      -9.548  17.048  66.027  1.00  0.00    -0.428 OA 
HETATM   41  H   UNL    20      -9.474  17.787  65.436  1.00  0.00     0.000 HD 
ENDBRANCH  16  39
ENDBRANCH  12  14
TORSDOF 5
ENDMDL
MODEL      250
REMARK 921   NORMALIZED FREE ENERGY PREDICTED BY IDOCK:    3.95 KCAL/MOL
REMARK 922        TOTAL FREE ENERGY PREDICTED BY IDOCK:    3.51 KCAL/MOL
REMARK 923 INTER-LIGAND FREE ENERGY PREDICTED BY IDOCK:    2.11 KCAL/MOL
REMARK 924 INTRA-LIGAND FREE ENERGY PREDICTED BY IDOCK:    1.40 KCAL/MOL
REMARK 927      BINDING AFFINITY PREDICTED BY RF-SCORE:    0.00 PKD
ROOT
HETATM    1  O   HOH     4     -10.272  20.209  67.588  1.00  0.00    -0.403 OA 
HETATM    2  H2  HOH     4     -10.785  19.473  67.901  1.00  0.00     0.000 HD 
HETATM    3 NA   UNL    13     -11.093  15.335  72.639  1.00  0.00    -0.393 Na 
HETATM    4  H1  HOH     4      -9.567  20.303  68.218  1.00  0.00     0.000 HD 
HETATM    5 NA   UNL    14     -12.878  18.858  68.354  1.00  0.00     1.644 Na 
HETATM    6 FE   UNL    15     -13.412  17.357  71.071  1.00  0.00     2.638 Fe 
HETATM    7 FE   UNL    16      -9.258  18.085  68.931  1.00  0.00    -0.258 Fe 
HETATM    8 FE   UNL    17     -12.699  16.720  67.401  1.00  0.00     1.070 Fe 
HETATM    9 FE   UNL    18      -8.563  17.958  66.881  1.00  0.00    -0.207 Fe 
HETATM   10 FE   UNL    19     -10.785  13.511  66.313  1.00  0.00    -0.269 Fe 
HETATM   11  O   UNL    20      -9.938  15.765  67.792  1.00  0.00    -0.224 OA 
HETATM   12  C   UNL    20      -8.671  15.519  68.341  1.00  0.00    -0.174 C  
HETATM   13  H   UNL    20     -10.209  16.676  67.780  1.00  0.00     0.000 HD 
ENDROOT
BRANCH  12  14
HETATM   14  C   UNL    20      -8.229  14.038  68.361  1.00  0.00    -0.150 C  
HETATM   15  O   UNL    20      -8.607  13.384  67.175  1.00  0.00    -0.204 OA 
HETATM   16  C   UNL    20      -7.841  12.211  67.077  1.00  0.00    -0.123 C  
HETATM   17  C   UNL    20      -6.743  13.722  68.640  1.00  0.00    -0.099 C  
HETATM   18  H   UNL    20      -5.631  13.220  70.162  1.00  0.00     0.000 HD 
HETATM   19  C   UNL    20      -6.449  12.500  67.739  1.00  0.00    -0.120 C  
HETATM   20  H   UNL    20      -4.590  12.994  67.229  1.00  0.00     0.000 HD 
HETATM   21  O   UNL    20      -6.545  13.414  69.991  1.00  0.00    -0.016 OA 
HETATM   22  O   UNL    20      -5.433  12.819  66.829  1.00  0.00    -0.223 OA 
BRANCH  16  23
HETATM   23  O   UNL    20      -7.873  11.691  65.732  1.00  0.00     0.278 OA 
BRANCH  23  24
HETATM   24  C   UNL    20      -6.736  11.004  65.158  1.00  0.00     0.440 C  
HETATM   25  O   UNL    20      -6.155  10.176  66.148  1.00  0.00    -0.068 OA 
HETATM   26  C   UNL    20      -6.963   9.055  66.491  1.00  0.00    -0.080 C  
HETATM   27  H   UNL    20      -7.348  10.388  62.006  1.00  0.00     0.000 HD 
HETATM   28  C   UNL    20      -7.256   8.141  65.264  1.00  0.00    -0.068 C  
HETATM   29  O   UNL    20      -8.053   7.035  65.607  1.00  0.00    -0.115 OA 
HETATM   30  C   UNL    20      -7.886   8.957  64.144  1.00  0.00    -0.135 C  
HETATM   31  O   UNL    20      -7.235  10.920  62.785  1.00  0.00    -0.000 OA 
HETATM   32  H   UNL    20      -8.231   6.478  64.859  1.00  0.00     0.000 HD 
HETATM   33  O   UNL    20      -8.010   8.162  62.998  1.00  0.00    -0.148 OA 
HETATM   34  C   UNL    20      -6.921  10.137  63.887  1.00  0.00    -0.103 C  
HETATM   35  H   UNL    20      -8.403   8.671  62.299  1.00  0.00     0.000 HD 
BRANCH  26  36
HETATM   36  C   UNL    20      -6.176   8.213  67.528  1.00  0.00    -0.052 C  
HETATM   37  O   UNL    20      -6.676   6.908  67.564  1.00  0.00    -0.062 OA 
HETATM   38  H   UNL    20      -6.193   6.392  68.200  1.00  0.00     0.000 HD 
ENDBRANCH  26  36
ENDBRANCH  23  24
ENDBRANCH  16  23
BRANCH  16  39
HETATM   39  C   UNL    20      -8.534  11.137  67.971  1.00  0.00    -0.135 C  
HETATM   40  O   UNL    20      -7.746  10.837  69.091  1.00  0.00    -0.125 OA 
HETATM   41  H   UNL    20      -8.169  10.183  69.635  1.00  0.00     0.000 HD 
ENDBRANCH  16  39
ENDBRANCH  12  14
TORSDOF 5
ENDMDL
MODEL      251
REMARK 921   NORMALIZED FREE ENERGY PREDICTED BY IDOCK:    4.03 KCAL/MOL
REMARK 922        TOTAL FREE ENERGY PREDICTED BY IDOCK:    3.63 KCAL/MOL
REMARK 923 INTER-LIGAND FREE ENERGY PREDICTED BY IDOCK:   -2.33 KCAL/MOL
REMARK 924 INTRA-LIGAND FREE ENERGY PREDICTED BY IDOCK:    5.96 KCAL/MOL
REMARK 927      BINDING AFFINITY PREDICTED BY RF-SCORE:    0.00 PKD
ROOT
HETATM    1  O   HOH     4      -7.191   6.995  68.213  1.00  0.00    -0.085 OA 
HETATM    2  H2  HOH     4      -7.797   7.504  67.687  1.00  0.00     0.000 HD 
HETATM    3 NA   UNL    13      -7.937  11.667  62.963  1.00  0.00    -0.393 Na 
HETATM    4  H1  HOH     4      -6.328   7.246  67.904  1.00  0.00     0.000 HD 
HETATM    5 NA   UNL    14      -9.631   7.306  66.437  1.00  0.00    -0.151 Na 
HETATM    6 FE   UNL    15      -9.667   8.757  63.642  1.00  0.00    -0.327 Fe 
HETATM    7 FE   UNL    16      -6.681   9.471  67.239  1.00  0.00    -0.062 Fe 
HETATM    8 FE   UNL    17     -10.680   9.237  67.264  1.00  0.00    -0.205 Fe 
HETATM    9 FE   UNL    18      -6.907   9.645  69.389  1.00  0.00    -0.045 Fe 
HETATM   10 FE   UNL    19     -10.744  12.805  68.817  1.00  0.00    -0.202 Fe 
HETATM   11  O   UNL    20      -8.592  11.218  67.900  1.00  0.00    -0.126 OA 
HETATM   12  C   UNL    20      -7.421  11.989  67.862  1.00  0.00    -0.114 C  
HETATM   13  H   UNL    20      -8.464  10.277  67.860  1.00  0.00     0.000 HD 
ENDROOT
BRANCH  12  14
HETATM   14  C   UNL    20      -7.628  13.520  67.928  1.00  0.00    -0.151 C  
HETATM   15  O   UNL    20      -8.306  13.985  66.787  1.00  0.00    -0.088 OA 
HETATM   16  C   UNL    20      -8.816  15.258  67.090  1.00  0.00    -0.212 C  
HETATM   17  C   UNL    20      -8.317  14.110  69.179  1.00  0.00     0.185 C  
HETATM   18  H   UNL    20      -7.792  14.936  70.866  1.00  0.00     0.000 HD 
HETATM   19  C   UNL    20      -9.166  15.275  68.618  1.00  0.00    -0.201 C  
HETATM   20  H   UNL    20     -10.731  15.062  69.828  1.00  0.00     0.000 HD 
HETATM   21  O   UNL    20      -7.368  14.573  70.097  1.00  0.00     0.062 OA 
HETATM   22  O   UNL    20     -10.519  15.052  68.903  1.00  0.00    -0.226 OA 
BRANCH  16  23
HETATM   23  O   UNL    20      -9.837  15.638  66.142  1.00  0.00    -0.268 OA 
BRANCH  23  24
HETATM   24  C   UNL    20     -10.843  16.625  66.467  1.00  0.00    -0.017 C  
HETATM   25  O   UNL    20     -10.600  17.113  67.773  1.00  0.00    -0.352 OA 
HETATM   26  C   UNL    20      -9.431  17.923  67.864  1.00  0.00    -0.272 C  
HETATM   27  H   UNL    20     -11.661  18.242  63.746  1.00  0.00     0.000 HD 
HETATM   28  C   UNL    20      -9.502  19.168  66.932  1.00  0.00    -0.320 C  
HETATM   29  O   UNL    20      -8.348  19.965  67.026  1.00  0.00    -0.294 OA 
HETATM   30  C   UNL    20      -9.764  18.732  65.498  1.00  0.00     0.760 C  
HETATM   31  O   UNL    20     -11.542  17.486  64.309  1.00  0.00    -0.135 OA 
HETATM   32  H   UNL    20      -8.392  20.725  66.458  1.00  0.00     0.000 HD 
HETATM   33  O   UNL    20      -9.971  19.860  64.695  1.00  0.00     1.242 OA 
HETATM   34  C   UNL    20     -11.038  17.858  65.548  1.00  0.00     0.517 C  
HETATM   35  H   UNL    20     -10.135  19.588  63.799  1.00  0.00     0.000 HD 
BRANCH  26  36
HETATM   36  C   UNL    20      -9.331  18.433  69.324  1.00  0.00     0.137 C  
HETATM   37  O   UNL    20     -10.061  19.616  69.471  1.00  0.00    -0.579 OA 
HETATM   38  H   UNL    20     -10.000  19.929  70.366  1.00  0.00     0.000 HD 
ENDBRANCH  26  36
ENDBRANCH  23  24
ENDBRANCH  16  23
BRANCH  16  39
HETATM   39  C   UNL    20      -7.650  16.277  66.897  1.00  0.00    -0.244 C  
HETATM   40  O   UNL    20      -7.296  16.865  68.120  1.00  0.00    -0.169 OA 
HETATM   41  H   UNL    20      -6.586  17.484  68.003  1.00  0.00     0.000 HD 
ENDBRANCH  16  39
ENDBRANCH  12  14
TORSDOF 5
ENDMDL
MODEL      252
REMARK 921   NORMALIZED FREE ENERGY PREDICTED BY IDOCK:    4.26 KCAL/MOL
REMARK 922        TOTAL FREE ENERGY PREDICTED BY IDOCK:    3.91 KCAL/MOL
REMARK 923 INTER-LIGAND FREE ENERGY PREDICTED BY IDOCK:    3.39 KCAL/MOL
REMARK 924 INTRA-LIGAND FREE ENERGY PREDICTED BY IDOCK:    0.52 KCAL/MOL
REMARK 927      BINDING AFFINITY PREDICTED BY RF-SCORE:    0.00 PKD
ROOT
HETATM    1  O   HOH     4     -12.932  14.029  71.855  1.00  0.00    -0.330 OA 
HETATM    2  H2  HOH     4     -12.387  13.616  71.196  1.00  0.00     0.000 HD 
HETATM    3 NA   UNL    13     -12.710   9.689  66.282  1.00  0.00     3.905 Na 
HETATM    4  H1  HOH     4     -13.806  13.691  71.698  1.00  0.00     0.000 HD 
HETATM    5 NA   UNL    14     -10.858  14.076  69.641  1.00  0.00    -0.228 Na 
HETATM    6 FE   UNL    15     -11.204  12.753  66.805  1.00  0.00    -0.243 Fe 
HETATM    7 FE   UNL    16     -13.351  11.551  70.843  1.00  0.00    -0.310 Fe 
HETATM    8 FE   UNL    17      -9.469  12.250  70.139  1.00  0.00     0.539 Fe 
HETATM    9 FE   UNL    18     -12.699  11.319  72.898  1.00  0.00    -0.194 Fe 
HETATM   10 FE   UNL    19      -8.727   8.655  71.430  1.00  0.00    -0.105 Fe 
HETATM   11  O   UNL    20     -11.172  10.015  71.029  1.00  0.00    -0.341 OA 
HETATM   12  C   UNL    20     -12.239   9.114  71.162  1.00  0.00    -0.285 C  
HETATM   13  H   UNL    20     -11.405  10.935  71.071  1.00  0.00     0.000 HD 
ENDROOT
BRANCH  12  14
HETATM   14  C   UNL    20     -11.859   7.616  71.094  1.00  0.00    -0.293 C  
HETATM   15  O   UNL    20     -11.017   7.360  69.997  1.00  0.00    -0.257 OA 
HETATM   16  C   UNL    20     -10.393   6.123  70.225  1.00  0.00    -0.214 C  
HETATM   17  C   UNL    20     -11.239   6.963  72.349  1.00  0.00    -0.266 C  
HETATM   18  H   UNL    20     -11.836   5.897  73.869  1.00  0.00     0.000 HD 
HETATM   19  C   UNL    20     -10.205   5.967  71.774  1.00  0.00    -0.203 C  
HETATM   20  H   UNL    20      -8.810   6.204  73.173  1.00  0.00     0.000 HD 
HETATM   21  O   UNL    20     -12.218   6.299  73.098  1.00  0.00     0.602 OA 
HETATM   22  O   UNL    20      -8.925   6.299  72.236  1.00  0.00    -0.137 OA 
BRANCH  16  23
HETATM   23  O   UNL    20      -9.242   5.966  69.369  1.00  0.00    -0.129 OA 
BRANCH  23  24
HETATM   24  C   UNL    20      -8.388   7.085  69.035  1.00  0.00    -0.126 C  
HETATM   25  O   UNL    20      -7.343   6.628  68.197  1.00  0.00    -0.085 OA 
HETATM   26  C   UNL    20      -7.783   6.265  66.892  1.00  0.00    -0.100 C  
HETATM   27  H   UNL    20     -10.215   9.787  68.821  1.00  0.00     0.000 HD 
HETATM   28  C   UNL    20      -8.461   7.452  66.148  1.00  0.00    -0.145 C  
HETATM   29  O   UNL    20      -8.893   7.091  64.860  1.00  0.00    -0.349 OA 
HETATM   30  C   UNL    20      -9.605   8.009  66.984  1.00  0.00    -0.196 C  
HETATM   31  O   UNL    20      -9.843   9.016  69.232  1.00  0.00    -0.171 OA 
HETATM   32  H   UNL    20      -9.307   7.815  64.405  1.00  0.00     0.000 HD 
HETATM   33  O   UNL    20     -10.112   9.163  66.376  1.00  0.00    -0.283 OA 
HETATM   34  C   UNL    20      -8.994   8.343  68.364  1.00  0.00    -0.136 C  
HETATM   35  H   UNL    20     -10.826   9.511  66.898  1.00  0.00     0.000 HD 
BRANCH  26  36
HETATM   36  C   UNL    20      -6.532   5.851  66.077  1.00  0.00    -0.043 C  
HETATM   37  O   UNL    20      -6.904   5.023  65.014  1.00  0.00    -0.047 OA 
HETATM   38  H   UNL    20      -6.137   4.769  64.514  1.00  0.00     0.000 HD 
ENDBRANCH  26  36
ENDBRANCH  23  24
ENDBRANCH  16  23
BRANCH  16  39
HETATM   39  C   UNL    20     -11.404   5.015  69.795  1.00  0.00     2.248 C  
HETATM   40  O   UNL    20     -10.765   4.025  69.036  1.00  0.00     1.311 OA 
HETATM   41  H   UNL    20     -11.380   3.351  68.774  1.00  0.00     0.000 HD 
ENDBRANCH  16  39
ENDBRANCH  12  14
TORSDOF 5
ENDMDL
MODEL      253
REMARK 921   NORMALIZED FREE ENERGY PREDICTED BY IDOCK:    5.12 KCAL/MOL
REMARK 922        TOTAL FREE ENERGY PREDICTED BY IDOCK:    5.03 KCAL/MOL
REMARK 923 INTER-LIGAND FREE ENERGY PREDICTED BY IDOCK:   -2.46 KCAL/MOL
REMARK 924 INTRA-LIGAND FREE ENERGY PREDICTED BY IDOCK:    7.49 KCAL/MOL
REMARK 927      BINDING AFFINITY PREDICTED BY RF-SCORE:    0.00 PKD
ROOT
HETATM    1  O   HOH     4      -9.654   8.194  74.289  1.00  0.00     0.120 OA 
HETATM    2  H2  HOH     4     -10.400   8.282  73.707  1.00  0.00     0.000 HD 
HETATM    3 NA   UNL    13     -12.492   6.445  68.057  1.00  0.00    -0.328 Na 
HETATM    4  H1  HOH     4      -9.029   7.663  73.809  1.00  0.00     0.000 HD 
HETATM    5 NA   UNL    14     -12.618   8.074  73.651  1.00  0.00    -0.513 Na 
HETATM    6 FE   UNL    15     -13.887   6.533  71.215  1.00  0.00    -0.233 Fe 
HETATM    7 FE   UNL    16      -9.498   8.255  71.584  1.00  0.00    -0.132 Fe 
HETATM    8 FE   UNL    17     -12.999  10.024  72.400  1.00  0.00    -0.350 Fe 
HETATM    9 FE   UNL    18      -8.651  10.106  72.333  1.00  0.00     1.278 Fe 
HETATM   10 FE   UNL    19     -12.053  12.780  69.822  1.00  0.00    -0.245 Fe 
HETATM   11  O   UNL    20     -10.726  10.397  70.561  1.00  0.00    -0.421 OA 
HETATM   12  C   UNL    20      -9.665  10.154  69.676  1.00  0.00    -0.221 C  
HETATM   13  H   UNL    20     -10.701   9.906  71.375  1.00  0.00     0.000 HD 
ENDROOT
BRANCH  12  14
HETATM   14  C   UNL    20      -9.705  10.953  68.353  1.00  0.00    -0.176 C  
HETATM   15  O   UNL    20      -8.452  11.528  68.074  1.00  0.00    -0.135 OA 
HETATM   16  C   UNL    20      -8.439  11.869  66.712  1.00  0.00    -0.167 C  
HETATM   17  C   UNL    20     -10.206  10.234  67.081  1.00  0.00    -0.225 C  
HETATM   18  H   UNL    20     -11.868  10.067  66.073  1.00  0.00     0.000 HD 
HETATM   19  C   UNL    20      -9.323  10.819  65.954  1.00  0.00    -0.189 C  
HETATM   20  H   UNL    20      -9.133   9.153  64.882  1.00  0.00     0.000 HD 
HETATM   21  O   UNL    20     -11.560  10.509  66.855  1.00  0.00    -0.086 OA 
HETATM   22  O   UNL    20      -8.597   9.788  65.341  1.00  0.00    -0.135 OA 
BRANCH  16  23
HETATM   23  O   UNL    20      -7.088  12.094  66.255  1.00  0.00     0.415 OA 
BRANCH  23  24
HETATM   24  C   UNL    20      -5.964  11.398  66.842  1.00  0.00    -0.122 C  
HETATM   25  O   UNL    20      -5.306  12.269  67.743  1.00  0.00    -0.063 OA 
HETATM   26  C   UNL    20      -6.062  12.538  68.921  1.00  0.00    -0.075 C  
HETATM   27  H   UNL    20      -6.724   8.235  67.164  1.00  0.00     0.000 HD 
HETATM   28  C   UNL    20      -6.393  11.242  69.718  1.00  0.00    -0.137 C  
HETATM   29  O   UNL    20      -7.137  11.511  70.879  1.00  0.00     0.739 OA 
HETATM   30  C   UNL    20      -7.105  10.242  68.817  1.00  0.00    -0.072 C  
HETATM   31  O   UNL    20      -6.585   9.057  66.708  1.00  0.00    -0.063 OA 
HETATM   32  H   UNL    20      -7.338  10.720  71.365  1.00  0.00     0.000 HD 
HETATM   33  O   UNL    20      -7.267   9.030  69.498  1.00  0.00    -0.057 OA 
HETATM   34  C   UNL    20      -6.190  10.058  67.585  1.00  0.00    -0.058 C  
HETATM   35  H   UNL    20      -7.711   8.406  68.936  1.00  0.00     0.000 HD 
BRANCH  26  36
HETATM   36  C   UNL    20      -5.197  13.444  69.833  1.00  0.00    -0.087 C  
HETATM   37  O   UNL    20      -5.927  13.826  70.962  1.00  0.00    -0.314 OA 
HETATM   38  H   UNL    20      -5.397  14.381  71.521  1.00  0.00     0.000 HD 
ENDBRANCH  26  36
ENDBRANCH  23  24
ENDBRANCH  16  23
BRANCH  16  39
HETATM   39  C   UNL    20      -9.173  13.238  66.575  1.00  0.00    -0.172 C  
HETATM   40  O   UNL    20     -10.305  13.281  67.403  1.00  0.00    -0.240 OA 
HETATM   41  H   UNL    20     -10.751  14.114  67.320  1.00  0.00     0.000 HD 
ENDBRANCH  16  39
ENDBRANCH  12  14
TORSDOF 5
ENDMDL
MODEL      254
REMARK 921   NORMALIZED FREE ENERGY PREDICTED BY IDOCK:    5.15 KCAL/MOL
REMARK 922        TOTAL FREE ENERGY PREDICTED BY IDOCK:    5.07 KCAL/MOL
REMARK 923 INTER-LIGAND FREE ENERGY PREDICTED BY IDOCK:    4.23 KCAL/MOL
REMARK 924 INTRA-LIGAND FREE ENERGY PREDICTED BY IDOCK:    0.84 KCAL/MOL
REMARK 927      BINDING AFFINITY PREDICTED BY RF-SCORE:    0.00 PKD
ROOT
HETATM    1  O   HOH     4     -13.149  10.760  63.496  1.00  0.00     1.457 OA 
HETATM    2  H2  HOH     4     -12.657  11.081  64.244  1.00  0.00     0.000 HD 
HETATM    3 NA   UNL    13      -6.888  12.990  65.899  1.00  0.00     0.531 Na 
HETATM    4  H1  HOH     4     -12.515  10.702  62.791  1.00  0.00     0.000 HD 
HETATM    5 NA   UNL    14     -12.704  12.633  65.842  1.00  0.00    -0.416 Na 
HETATM    6 FE   UNL    15     -10.062  14.257  66.389  1.00  0.00    -0.240 Fe 
HETATM    7 FE   UNL    16     -10.533  10.227  63.961  1.00  0.00    -0.324 Fe 
HETATM    8 FE   UNL    17     -11.985  11.208  67.564  1.00  0.00    -0.275 Fe 
HETATM    9 FE   UNL    18     -11.643   8.389  64.270  1.00  0.00     5.806 Fe 
HETATM   10 FE   UNL    19     -10.082   8.140  69.017  1.00  0.00    -0.170 Fe 
HETATM   11  O   UNL    20     -10.138   9.224  66.407  1.00  0.00    -0.271 OA 
HETATM   12  C   UNL    20      -9.150   8.611  65.621  1.00  0.00    -0.164 C  
HETATM   13  H   UNL    20     -10.807   9.699  65.927  1.00  0.00     0.000 HD 
ENDROOT
BRANCH  12  14
HETATM   14  C   UNL    20      -8.063   7.838  66.402  1.00  0.00    -0.109 C  
HETATM   15  O   UNL    20      -8.496   7.540  67.706  1.00  0.00    -0.118 OA 
HETATM   16  C   UNL    20      -7.671   6.515  68.200  1.00  0.00    -0.105 C  
HETATM   17  C   UNL    20      -7.490   6.549  65.772  1.00  0.00    -0.082 C  
HETATM   18  H   UNL    20      -5.939   6.023  64.712  1.00  0.00     0.000 HD 
HETATM   19  C   UNL    20      -7.254   5.618  66.985  1.00  0.00    -0.075 C  
HETATM   20  H   UNL    20      -7.764   3.909  66.102  1.00  0.00     0.000 HD 
HETATM   21  O   UNL    20      -6.291   6.815  65.099  1.00  0.00    -0.040 OA 
HETATM   22  O   UNL    20      -8.017   4.452  66.838  1.00  0.00    -0.100 OA 
BRANCH  16  23
HETATM   23  O   UNL    20      -8.274   5.885  69.351  1.00  0.00    -0.110 OA 
BRANCH  23  24
HETATM   24  C   UNL    20      -7.618   5.878  70.640  1.00  0.00    -0.092 C  
HETATM   25  O   UNL    20      -7.228   7.200  70.962  1.00  0.00    -0.071 OA 
HETATM   26  C   UNL    20      -8.327   8.056  71.258  1.00  0.00    -0.117 C  
HETATM   27  H   UNL    20      -8.994   3.584  72.518  1.00  0.00     0.000 HD 
HETATM   28  C   UNL    20      -9.172   7.538  72.459  1.00  0.00    -0.147 C  
HETATM   29  O   UNL    20     -10.255   8.386  72.748  1.00  0.00    -0.292 OA 
HETATM   30  C   UNL    20      -9.635   6.112  72.195  1.00  0.00    -0.150 C  
HETATM   31  O   UNL    20      -8.542   3.935  71.760  1.00  0.00    -0.091 OA 
HETATM   32  H   UNL    20     -10.770   8.070  73.481  1.00  0.00     0.000 HD 
HETATM   33  O   UNL    20     -10.267   5.605  73.337  1.00  0.00    -0.182 OA 
HETATM   34  C   UNL    20      -8.355   5.305  71.877  1.00  0.00    -0.122 C  
HETATM   35  H   UNL    20     -10.555   4.715  73.172  1.00  0.00     0.000 HD 
BRANCH  26  36
HETATM   36  C   UNL    20      -7.748   9.439  71.652  1.00  0.00     0.559 C  
HETATM   37  O   UNL    20      -6.386   9.493  71.347  1.00  0.00    -0.202 OA 
HETATM   38  H   UNL    20      -6.030  10.341  71.588  1.00  0.00     0.000 HD 
ENDBRANCH  26  36
ENDBRANCH  23  24
ENDBRANCH  16  23
BRANCH  16  39
HETATM   39  C   UNL    20      -6.362   7.190  68.715  1.00  0.00    -0.031 C  
HETATM   40  O   UNL    20      -5.464   7.404  67.660  1.00  0.00    -0.026 OA 
HETATM   41  H   UNL    20      -4.668   7.815  67.973  1.00  0.00     0.000 HD 
ENDBRANCH  16  39
ENDBRANCH  12  14
TORSDOF 5
ENDMDL
MODEL      255
REMARK 921   NORMALIZED FREE ENERGY PREDICTED BY IDOCK:    5.43 KCAL/MOL
REMARK 922        TOTAL FREE ENERGY PREDICTED BY IDOCK:    5.43 KCAL/MOL
REMARK 923 INTER-LIGAND FREE ENERGY PREDICTED BY IDOCK:   -7.21 KCAL/MOL
REMARK 924 INTRA-LIGAND FREE ENERGY PREDICTED BY IDOCK:   12.64 KCAL/MOL
REMARK 927      BINDING AFFINITY PREDICTED BY RF-SCORE:    0.00 PKD
ROOT
HETATM    1  O   HOH     4     -10.639  18.520  65.524  1.00  0.00    -0.621 OA 
HETATM    2  H2  HOH     4     -10.368  18.350  66.419  1.00  0.00     0.000 HD 
HETATM    3 NA   UNL    13      -5.218  17.387  69.915  1.00  0.00    -0.141 Na 
HETATM    4  H1  HOH     4      -9.835  18.512  65.018  1.00  0.00     0.000 HD 
HETATM    5 NA   UNL    14     -10.602  19.111  68.500  1.00  0.00    -0.342 Na 
HETATM    6 FE   UNL    15      -8.006  19.396  70.260  1.00  0.00     0.066 Fe 
HETATM    7 FE   UNL    16      -8.520  16.984  66.225  1.00  0.00    -0.177 Fe 
HETATM    8 FE   UNL    17     -10.839  16.997  69.492  1.00  0.00    -0.266 Fe 
HETATM    9 FE   UNL    18     -10.049  15.669  65.427  1.00  0.00    -0.257 Fe 
HETATM   10 FE   UNL    19     -10.269  13.156  69.747  1.00  0.00    -0.405 Fe 
HETATM   11  O   UNL    20      -9.203  15.076  67.968  1.00  0.00    -0.179 OA 
HETATM   12  C   UNL    20      -8.171  14.498  67.213  1.00  0.00    -0.208 C  
HETATM   13  H   UNL    20      -9.548  15.895  67.631  1.00  0.00     0.000 HD 
ENDROOT
BRANCH  12  14
HETATM   14  C   UNL    20      -7.610  13.166  67.762  1.00  0.00    -0.155 C  
HETATM   15  O   UNL    20      -8.649  12.329  68.210  1.00  0.00    -0.174 OA 
HETATM   16  C   UNL    20      -8.131  11.026  68.298  1.00  0.00    -0.128 C  
HETATM   17  C   UNL    20      -6.674  12.338  66.853  1.00  0.00     0.062 C  
HETATM   18  H   UNL    20      -4.757  12.090  66.596  1.00  0.00     0.000 HD 
HETATM   19  C   UNL    20      -7.045  10.872  67.178  1.00  0.00    -0.103 C  
HETATM   20  H   UNL    20      -6.843  10.141  65.338  1.00  0.00     0.000 HD 
HETATM   21  O   UNL    20      -5.332  12.598  67.155  1.00  0.00    -0.312 OA 
HETATM   22  O   UNL    20      -7.501  10.234  66.017  1.00  0.00    -0.115 OA 
BRANCH  16  23
HETATM   23  O   UNL    20      -9.198  10.057  68.366  1.00  0.00    -0.128 OA 
BRANCH  23  24
HETATM   24  C   UNL    20     -10.224   9.987  67.348  1.00  0.00    -0.219 C  
HETATM   25  O   UNL    20     -11.154  11.031  67.564  1.00  0.00    -0.266 OA 
HETATM   26  C   UNL    20     -10.626  12.324  67.283  1.00  0.00    -0.224 C  
HETATM   27  H   UNL    20      -8.887   8.916  64.564  1.00  0.00     0.000 HD 
HETATM   28  C   UNL    20     -10.145  12.457  65.808  1.00  0.00    -0.253 C  
HETATM   29  O   UNL    20      -9.626  13.734  65.535  1.00  0.00    -0.509 OA 
HETATM   30  C   UNL    20      -9.136  11.364  65.488  1.00  0.00    -0.137 C  
HETATM   31  O   UNL    20      -9.129   8.889  65.482  1.00  0.00    -0.206 OA 
HETATM   32  H   UNL    20      -9.333  13.815  64.635  1.00  0.00     0.000 HD 
HETATM   33  O   UNL    20      -8.821  11.401  64.125  1.00  0.00    -0.384 OA 
HETATM   34  C   UNL    20      -9.829  10.030  65.851  1.00  0.00    -0.264 C  
HETATM   35  H   UNL    20      -8.191  10.719  63.924  1.00  0.00     0.000 HD 
BRANCH  26  36
HETATM   36  C   UNL    20     -11.767  13.350  67.501  1.00  0.00    -0.366 C  
HETATM   37  O   UNL    20     -12.331  13.708  66.273  1.00  0.00    -0.432 OA 
HETATM   38  H   UNL    20     -13.031  14.337  66.406  1.00  0.00     0.000 HD 
ENDBRANCH  26  36
ENDBRANCH  23  24
ENDBRANCH  16  23
BRANCH  16  39
HETATM   39  C   UNL    20      -7.372  10.927  69.658  1.00  0.00    -0.063 C  
HETATM   40  O   UNL    20      -6.997  12.199  70.112  1.00  0.00    -0.304 OA 
HETATM   41  H   UNL    20      -6.535  12.138  70.940  1.00  0.00     0.000 HD 
ENDBRANCH  16  39
ENDBRANCH  12  14
TORSDOF 5
ENDMDL
MODEL      256
REMARK 921   NORMALIZED FREE ENERGY PREDICTED BY IDOCK:    5.76 KCAL/MOL
REMARK 922        TOTAL FREE ENERGY PREDICTED BY IDOCK:    5.86 KCAL/MOL
REMARK 923 INTER-LIGAND FREE ENERGY PREDICTED BY IDOCK:   -2.64 KCAL/MOL
REMARK 924 INTRA-LIGAND FREE ENERGY PREDICTED BY IDOCK:    8.51 KCAL/MOL
REMARK 927      BINDING AFFINITY PREDICTED BY RF-SCORE:    0.00 PKD
ROOT
HETATM    1  O   HOH     4     -12.780  13.156  66.579  1.00  0.00    -0.199 OA 
HETATM    2  H2  HOH     4     -11.977  13.176  66.070  1.00  0.00     0.000 HD 
HETATM    3 NA   UNL    13      -5.860  11.728  66.449  1.00  0.00    -0.109 Na 
HETATM    4  H1  HOH     4     -12.523  12.820  67.429  1.00  0.00     0.000 HD 
HETATM    5 NA   UNL    14     -11.129  12.558  64.104  1.00  0.00    -0.282 Na 
HETATM    6 FE   UNL    15      -8.320  11.136  64.099  1.00  0.00    -0.279 Fe 
HETATM    7 FE   UNL    16     -10.313  13.598  67.610  1.00  0.00    -0.217 Fe 
HETATM    8 FE   UNL    17      -9.937  14.547  63.735  1.00  0.00    -0.193 Fe 
HETATM    9 FE   UNL    18     -11.416  15.463  67.721  1.00  0.00    -0.280 Fe 
HETATM   10 FE   UNL    19      -8.018  17.745  64.844  1.00  0.00     0.376 Fe 
HETATM   11  O   UNL    20      -9.044  15.583  66.346  1.00  0.00    -0.267 OA 
HETATM   12  C   UNL    20      -8.579  15.664  67.668  1.00  0.00    -0.167 C  
HETATM   13  H   UNL    20      -9.785  15.003  66.208  1.00  0.00     0.000 HD 
ENDROOT
BRANCH  12  14
HETATM   14  C   UNL    20      -7.374  16.606  67.893  1.00  0.00    -0.151 C  
HETATM   15  O   UNL    20      -7.630  17.884  67.365  1.00  0.00    -0.201 OA 
HETATM   16  C   UNL    20      -6.713  18.773  67.949  1.00  0.00    -0.215 C  
HETATM   17  C   UNL    20      -6.836  16.772  69.332  1.00  0.00    -0.202 C  
HETATM   18  H   UNL    20      -5.411  16.029  70.437  1.00  0.00     0.000 HD 
HETATM   19  C   UNL    20      -6.416  18.259  69.400  1.00  0.00    -0.232 C  
HETATM   20  H   UNL    20      -6.969  18.597  71.282  1.00  0.00     0.000 HD 
HETATM   21  O   UNL    20      -5.742  15.927  69.553  1.00  0.00    -0.117 OA 
HETATM   22  O   UNL    20      -7.148  18.909  70.403  1.00  0.00     0.643 OA 
BRANCH  16  23
HETATM   23  O   UNL    20      -7.143  20.139  67.774  1.00  0.00    -0.274 OA 
BRANCH  23  24
HETATM   24  C   UNL    20      -8.404  20.611  68.305  1.00  0.00     0.406 C  
HETATM   25  O   UNL    20      -9.331  20.731  67.242  1.00  0.00    -0.397 OA 
HETATM   26  C   UNL    20      -9.749  19.476  66.714  1.00  0.00    -0.366 C  
HETATM   27  H   UNL    20      -8.810  19.397  71.312  1.00  0.00     0.000 HD 
HETATM   28  C   UNL    20     -10.423  18.578  67.791  1.00  0.00    -0.408 C  
HETATM   29  O   UNL    20     -10.835  17.341  67.266  1.00  0.00    -0.258 OA 
HETATM   30  C   UNL    20      -9.488  18.396  68.979  1.00  0.00    -0.139 C  
HETATM   31  O   UNL    20      -8.379  19.881  70.618  1.00  0.00     1.132 OA 
HETATM   32  H   UNL    20     -11.247  16.793  67.923  1.00  0.00     0.000 HD 
HETATM   33  O   UNL    20     -10.156  17.711  70.001  1.00  0.00     0.375 OA 
HETATM   34  C   UNL    20      -9.106  19.822  69.437  1.00  0.00     0.227 C  
HETATM   35  H   UNL    20      -9.573  17.597  70.742  1.00  0.00     0.000 HD 
BRANCH  26  36
HETATM   36  C   UNL    20     -10.802  19.762  65.613  1.00  0.00    -0.232 C  
HETATM   37  O   UNL    20     -10.927  18.655  64.770  1.00  0.00    -0.338 OA 
HETATM   38  H   UNL    20     -11.573  18.830  64.095  1.00  0.00     0.000 HD 
ENDBRANCH  26  36
ENDBRANCH  23  24
ENDBRANCH  16  23
BRANCH  16  39
HETATM   39  C   UNL    20      -5.376  18.638  67.157  1.00  0.00    -0.128 C  
HETATM   40  O   UNL    20      -5.623  18.484  65.786  1.00  0.00    -0.153 OA 
HETATM   41  H   UNL    20      -4.809  18.401  65.303  1.00  0.00     0.000 HD 
ENDBRANCH  16  39
ENDBRANCH  12  14
TORSDOF 5
ENDMDL
MODEL      257
REMARK 921   NORMALIZED FREE ENERGY PREDICTED BY IDOCK:    5.85 KCAL/MOL
REMARK 922        TOTAL FREE ENERGY PREDICTED BY IDOCK:    5.97 KCAL/MOL
REMARK 923 INTER-LIGAND FREE ENERGY PREDICTED BY IDOCK:    6.63 KCAL/MOL
REMARK 924 INTRA-LIGAND FREE ENERGY PREDICTED BY IDOCK:   -0.66 KCAL/MOL
REMARK 927      BINDING AFFINITY PREDICTED BY RF-SCORE:    0.00 PKD
ROOT
HETATM    1  O   HOH     4     -10.898  18.045  72.298  1.00  0.00     1.452 OA 
HETATM    2  H2  HOH     4     -11.174  17.143  72.178  1.00  0.00     0.000 HD 
HETATM    3 NA   UNL    13      -8.869  11.305  71.657  1.00  0.00     3.841 Na 
HETATM    4  H1  HOH     4      -9.949  18.010  72.318  1.00  0.00     0.000 HD 
HETATM    5 NA   UNL    14     -12.562  15.608  73.003  1.00  0.00    -0.303 Na 
HETATM    6 FE   UNL    15     -11.419  12.717  73.509  1.00  0.00     3.083 Fe 
HETATM    7 FE   UNL    16      -9.502  16.177  70.917  1.00  0.00     0.446 Fe 
HETATM    8 FE   UNL    17     -13.259  14.786  70.918  1.00  0.00    -0.303 Fe 
HETATM    9 FE   UNL    18     -10.277  17.609  69.485  1.00  0.00    -0.287 Fe 
HETATM   10 FE   UNL    19     -12.827  14.005  67.130  1.00  0.00    -0.444 Fe 
HETATM   11  O   UNL    20     -10.996  14.998  69.041  1.00  0.00    -0.229 OA 
HETATM   12  C   UNL    20      -9.703  15.004  68.496  1.00  0.00    -0.217 C  
HETATM   13  H   UNL    20     -11.113  15.524  69.824  1.00  0.00     0.000 HD 
ENDROOT
BRANCH  12  14
HETATM   14  C   UNL    20      -9.513  14.150  67.222  1.00  0.00    -0.229 C  
HETATM   15  O   UNL    20      -8.963  12.894  67.536  1.00  0.00    -0.174 OA 
HETATM   16  C   UNL    20      -9.199  12.046  66.441  1.00  0.00    -0.216 C  
HETATM   17  C   UNL    20     -10.734  13.931  66.301  1.00  0.00    -0.285 C  
HETATM   18  H   UNL    20     -11.477  14.711  64.674  1.00  0.00     0.000 HD 
HETATM   19  C   UNL    20     -10.556  12.482  65.790  1.00  0.00    -0.270 C  
HETATM   20  H   UNL    20     -12.480  11.972  65.783  1.00  0.00     0.000 HD 
HETATM   21  O   UNL    20     -10.726  14.845  65.240  1.00  0.00    -0.336 OA 
HETATM   22  O   UNL    20     -11.658  11.708  66.178  1.00  0.00    -0.390 OA 
BRANCH  16  23
HETATM   23  O   UNL    20      -9.026  10.664  66.821  1.00  0.00    -0.137 OA 
BRANCH  23  24
HETATM   24  C   UNL    20      -8.181  10.283  67.932  1.00  0.00    -0.109 C  
HETATM   25  O   UNL    20      -8.760   9.170  68.586  1.00  0.00    -0.127 OA 
HETATM   26  C   UNL    20      -8.700   7.971  67.819  1.00  0.00    -0.127 C  
HETATM   27  H   UNL    20      -5.063  10.859  67.140  1.00  0.00     0.000 HD 
HETATM   28  C   UNL    20      -7.238   7.568  67.467  1.00  0.00    -0.090 C  
HETATM   29  O   UNL    20      -7.183   6.385  66.711  1.00  0.00    -0.074 OA 
HETATM   30  C   UNL    20      -6.536   8.717  66.757  1.00  0.00    -0.061 C  
HETATM   31  O   UNL    20      -5.977  11.068  67.291  1.00  0.00    -0.049 OA 
HETATM   32  H   UNL    20      -6.291   6.139  66.497  1.00  0.00     0.000 HD 
HETATM   33  O   UNL    20      -5.185   8.401  66.576  1.00  0.00    -0.027 OA 
HETATM   34  C   UNL    20      -6.690   9.944  67.685  1.00  0.00    -0.073 C  
HETATM   35  H   UNL    20      -4.746   9.118  66.133  1.00  0.00     0.000 HD 
BRANCH  26  36
HETATM   36  C   UNL    20      -9.307   6.835  68.681  1.00  0.00    -0.131 C  
HETATM   37  O   UNL    20      -8.288   6.051  69.227  1.00  0.00    -0.112 OA 
HETATM   38  H   UNL    20      -8.660   5.354  69.756  1.00  0.00     0.000 HD 
ENDBRANCH  26  36
ENDBRANCH  23  24
ENDBRANCH  16  23
BRANCH  16  39
HETATM   39  C   UNL    20      -8.092  12.343  65.384  1.00  0.00     2.179 C  
HETATM   40  O   UNL    20      -8.493  11.919  64.109  1.00  0.00     0.434 OA 
HETATM   41  H   UNL    20      -7.819  12.101  63.466  1.00  0.00     0.000 HD 
ENDBRANCH  16  39
ENDBRANCH  12  14
TORSDOF 5
ENDMDL
MODEL      258
REMARK 921   NORMALIZED FREE ENERGY PREDICTED BY IDOCK:    6.02 KCAL/MOL
REMARK 922        TOTAL FREE ENERGY PREDICTED BY IDOCK:    6.20 KCAL/MOL
REMARK 923 INTER-LIGAND FREE ENERGY PREDICTED BY IDOCK:   -2.02 KCAL/MOL
REMARK 924 INTRA-LIGAND FREE ENERGY PREDICTED BY IDOCK:    8.22 KCAL/MOL
REMARK 927      BINDING AFFINITY PREDICTED BY RF-SCORE:    0.00 PKD
ROOT
HETATM    1  O   HOH     4     -12.371  15.031  63.789  1.00  0.00    -1.009 OA 
HETATM    2  H2  HOH     4     -11.936  15.229  64.610  1.00  0.00     0.000 HD 
HETATM    3 NA   UNL    13      -6.220  16.288  67.034  1.00  0.00    -0.112 Na 
HETATM    4  H1  HOH     4     -11.671  14.951  63.153  1.00  0.00     0.000 HD 
HETATM    5 NA   UNL    14     -11.994  16.645  66.330  1.00  0.00     0.478 Na 
HETATM    6 FE   UNL    15      -9.269  17.889  67.300  1.00  0.00    -0.234 Fe 
HETATM    7 FE   UNL    16      -9.904  14.149  64.477  1.00  0.00    -0.376 Fe 
HETATM    8 FE   UNL    17     -11.643  15.013  67.981  1.00  0.00    -0.257 Fe 
HETATM    9 FE   UNL    18     -11.240  12.441  64.497  1.00  0.00    -0.280 Fe 
HETATM   10 FE   UNL    19     -10.277  11.632  69.340  1.00  0.00    -0.234 Fe 
HETATM   11  O   UNL    20      -9.909  12.916  66.849  1.00  0.00    -0.224 OA 
HETATM   12  C   UNL    20      -8.911  12.252  66.119  1.00  0.00    -0.005 C  
HETATM   13  H   UNL    20     -10.460  13.505  66.346  1.00  0.00     0.000 HD 
ENDROOT
BRANCH  12  14
HETATM   14  C   UNL    20      -8.015  11.293  66.936  1.00  0.00    -0.155 C  
HETATM   15  O   UNL    20      -8.361   9.952  66.693  1.00  0.00    -0.123 OA 
HETATM   16  C   UNL    20      -7.284   9.156  67.116  1.00  0.00    -0.086 C  
HETATM   17  C   UNL    20      -6.483  11.433  66.801  1.00  0.00    -0.140 C  
HETATM   18  H   UNL    20      -5.019  12.297  67.758  1.00  0.00     0.000 HD 
HETATM   19  C   UNL    20      -5.969   9.977  66.882  1.00  0.00    -0.055 C  
HETATM   20  H   UNL    20      -4.493  10.148  65.558  1.00  0.00     0.000 HD 
HETATM   21  O   UNL    20      -5.961  12.211  67.841  1.00  0.00    -0.057 OA 
HETATM   22  O   UNL    20      -5.289   9.651  65.701  1.00  0.00    -0.041 OA 
BRANCH  16  23
HETATM   23  O   UNL    20      -7.380   7.828  66.558  1.00  0.00    -0.083 OA 
BRANCH  23  24
HETATM   24  C   UNL    20      -8.466   6.937  66.904  1.00  0.00    -0.115 C  
HETATM   25  O   UNL    20      -8.359   6.598  68.274  1.00  0.00    -0.117 OA 
HETATM   26  C   UNL    20      -8.653   7.684  69.149  1.00  0.00    -0.139 C  
HETATM   27  H   UNL    20     -11.101   7.738  65.143  1.00  0.00     0.000 HD 
HETATM   28  C   UNL    20     -10.093   8.237  68.939  1.00  0.00    -0.199 C  
HETATM   29  O   UNL    20     -10.379   9.307  69.804  1.00  0.00    -0.198 OA 
HETATM   30  C   UNL    20     -10.296   8.627  67.482  1.00  0.00    -0.269 C  
HETATM   31  O   UNL    20     -10.202   7.471  65.297  1.00  0.00     2.009 OA 
HETATM   32  H   UNL    20     -11.258   9.644  69.677  1.00  0.00     0.000 HD 
HETATM   33  O   UNL    20     -11.633   8.985  67.274  1.00  0.00     0.559 OA 
HETATM   34  C   UNL    20      -9.931   7.374  66.655  1.00  0.00    -0.191 C  
HETATM   35  H   UNL    20     -11.760   9.229  66.365  1.00  0.00     0.000 HD 
BRANCH  26  36
HETATM   36  C   UNL    20      -8.560   7.151  70.601  1.00  0.00    -0.143 C  
HETATM   37  O   UNL    20      -8.076   8.151  71.449  1.00  0.00    -0.098 OA 
HETATM   38  H   UNL    20      -8.019   7.824  72.339  1.00  0.00     0.000 HD 
ENDBRANCH  26  36
ENDBRANCH  23  24
ENDBRANCH  16  23
BRANCH  16  39
HETATM   39  C   UNL    20      -7.421   8.983  68.661  1.00  0.00    -0.084 C  
HETATM   40  O   UNL    20      -6.231   8.490  69.214  1.00  0.00    -0.040 OA 
HETATM   41  H   UNL    20      -6.314   8.386  70.154  1.00  0.00     0.000 HD 
ENDBRANCH  16  39
ENDBRANCH  12  14
TORSDOF 5
ENDMDL
MODEL      259
REMARK 921   NORMALIZED FREE ENERGY PREDICTED BY IDOCK:    6.05 KCAL/MOL
REMARK 922        TOTAL FREE ENERGY PREDICTED BY IDOCK:    6.23 KCAL/MOL
REMARK 923 INTER-LIGAND FREE ENERGY PREDICTED BY IDOCK:    6.93 KCAL/MOL
REMARK 924 INTRA-LIGAND FREE ENERGY PREDICTED BY IDOCK:   -0.70 KCAL/MOL
REMARK 927      BINDING AFFINITY PREDICTED BY RF-SCORE:    0.00 PKD
ROOT
HETATM    1  O   HOH     4     -11.920  13.867  73.701  1.00  0.00     0.524 OA 
HETATM    2  H2  HOH     4     -11.086  13.473  73.474  1.00  0.00     0.000 HD 
HETATM    3 NA   UNL    13      -7.143  12.718  68.622  1.00  0.00    -0.067 Na 
HETATM    4  H1  HOH     4     -12.242  14.243  72.891  1.00  0.00     0.000 HD 
HETATM    5 NA   UNL    14      -8.955  13.376  74.121  1.00  0.00     3.636 Na 
HETATM    6 FE   UNL    15      -6.735  13.691  71.910  1.00  0.00    -0.248 Fe 
HETATM    7 FE   UNL    16     -11.334  12.785  71.287  1.00  0.00    -0.307 Fe 
HETATM    8 FE   UNL    17      -8.721  11.063  73.789  1.00  0.00     7.027 Fe 
HETATM    9 FE   UNL    18     -12.771  11.483  72.260  1.00  0.00    -0.362 Fe 
HETATM   10 FE   UNL    19      -9.548   7.659  72.095  1.00  0.00    -0.141 Fe 
HETATM   11  O   UNL    20     -10.420  10.283  71.510  1.00  0.00     0.442 OA 
HETATM   12  C   UNL    20     -11.106  10.290  70.286  1.00  0.00    -0.319 C  
HETATM   13  H   UNL    20     -10.550  11.050  72.057  1.00  0.00     0.000 HD 
ENDROOT
BRANCH  12  14
HETATM   14  C   UNL    20     -10.894   9.043  69.397  1.00  0.00    -0.138 C  
HETATM   15  O   UNL    20     -10.205   9.378  68.217  1.00  0.00    -0.180 OA 
HETATM   16  C   UNL    20      -9.694   8.187  67.676  1.00  0.00    -0.159 C  
HETATM   17  C   UNL    20     -10.216   7.806  70.024  1.00  0.00    -0.210 C  
HETATM   18  H   UNL    20     -10.755   6.118  70.839  1.00  0.00     0.000 HD 
HETATM   19  C   UNL    20      -9.359   7.230  68.872  1.00  0.00    -0.144 C  
HETATM   20  H   UNL    20      -7.805   6.647  69.971  1.00  0.00     0.000 HD 
HETATM   21  O   UNL    20     -11.173   6.879  70.454  1.00  0.00    -0.276 OA 
HETATM   22  O   UNL    20      -8.009   7.226  69.247  1.00  0.00    -0.114 OA 
BRANCH  16  23
HETATM   23  O   UNL    20      -8.664   8.468  66.705  1.00  0.00    -0.117 OA 
BRANCH  23  24
HETATM   24  C   UNL    20      -7.267   8.527  67.078  1.00  0.00    -0.079 C  
HETATM   25  O   UNL    20      -6.496   7.913  66.062  1.00  0.00    -0.045 OA 
HETATM   26  C   UNL    20      -6.453   8.667  64.854  1.00  0.00    -0.065 C  
HETATM   27  H   UNL    20      -6.725  11.291  68.737  1.00  0.00     0.000 HD 
HETATM   28  C   UNL    20      -5.855  10.088  65.067  1.00  0.00    -0.105 C  
HETATM   29  O   UNL    20      -5.812  10.828  63.873  1.00  0.00    -0.361 OA 
HETATM   30  C   UNL    20      -6.628  10.823  66.152  1.00  0.00    -0.127 C  
HETATM   31  O   UNL    20      -7.129  10.452  68.547  1.00  0.00    -0.071 OA 
HETATM   32  H   UNL    20      -5.447  11.695  64.003  1.00  0.00     0.000 HD 
HETATM   33  O   UNL    20      -5.995  12.039  66.438  1.00  0.00    -0.499 OA 
HETATM   34  C   UNL    20      -6.608   9.894  67.388  1.00  0.00    -0.069 C  
HETATM   35  H   UNL    20      -6.478  12.498  67.116  1.00  0.00     0.000 HD 
BRANCH  26  36
HETATM   36  C   UNL    20      -5.530   7.910  63.866  1.00  0.00    -0.045 C  
HETATM   37  O   UNL    20      -5.855   8.249  62.550  1.00  0.00    -0.077 OA 
HETATM   38  H   UNL    20      -5.289   7.786  61.944  1.00  0.00     0.000 HD 
ENDBRANCH  26  36
ENDBRANCH  23  24
ENDBRANCH  16  23
BRANCH  16  39
HETATM   39  C   UNL    20     -10.855   7.507  66.887  1.00  0.00    -0.104 C  
HETATM   40  O   UNL    20     -10.618   6.134  66.735  1.00  0.00    -0.275 OA 
HETATM   41  H   UNL    20     -11.325   5.721  66.255  1.00  0.00     0.000 HD 
ENDBRANCH  16  39
ENDBRANCH  12  14
TORSDOF 5
ENDMDL
MODEL      260
REMARK 921   NORMALIZED FREE ENERGY PREDICTED BY IDOCK:    6.25 KCAL/MOL
REMARK 922        TOTAL FREE ENERGY PREDICTED BY IDOCK:    6.48 KCAL/MOL
REMARK 923 INTER-LIGAND FREE ENERGY PREDICTED BY IDOCK:    6.41 KCAL/MOL
REMARK 924 INTRA-LIGAND FREE ENERGY PREDICTED BY IDOCK:    0.07 KCAL/MOL
REMARK 927      BINDING AFFINITY PREDICTED BY RF-SCORE:    0.00 PKD
ROOT
HETATM    1  O   HOH     4     -12.136  14.323  73.868  1.00  0.00    -0.125 OA 
HETATM    2  H2  HOH     4     -11.310  13.878  73.717  1.00  0.00     0.000 HD 
HETATM    3 NA   UNL    13      -7.012  12.852  69.228  1.00  0.00    -0.091 Na 
HETATM    4  H1  HOH     4     -12.364  14.710  73.031  1.00  0.00     0.000 HD 
HETATM    5 NA   UNL    14      -9.253  13.664  74.546  1.00  0.00     2.451 Na 
HETATM    6 FE   UNL    15      -6.834  13.829  72.536  1.00  0.00     0.045 Fe 
HETATM    7 FE   UNL    16     -11.408  13.187  71.519  1.00  0.00    -0.205 Fe 
HETATM    8 FE   UNL    17      -9.127  11.339  74.245  1.00  0.00     7.993 Fe 
HETATM    9 FE   UNL    18     -12.997  11.980  72.368  1.00  0.00    -0.406 Fe 
HETATM   10 FE   UNL    19     -10.003   7.974  72.499  1.00  0.00    -0.155 Fe 
HETATM   11  O   UNL    20     -10.665  10.639  71.830  1.00  0.00     1.520 OA 
HETATM   12  C   UNL    20     -11.240  10.674  70.551  1.00  0.00    -0.185 C  
HETATM   13  H   UNL    20     -10.796  11.416  72.360  1.00  0.00     0.000 HD 
ENDROOT
BRANCH  12  14
HETATM   14  C   UNL    20     -11.026   9.409  69.688  1.00  0.00    -0.197 C  
HETATM   15  O   UNL    20     -10.362   9.725  68.490  1.00  0.00    -0.186 OA 
HETATM   16  C   UNL    20      -9.843   8.528  67.969  1.00  0.00    -0.169 C  
HETATM   17  C   UNL    20     -10.320   8.197  70.334  1.00  0.00    -0.206 C  
HETATM   18  H   UNL    20     -10.822   6.521  71.198  1.00  0.00     0.000 HD 
HETATM   19  C   UNL    20      -9.475   7.605  69.181  1.00  0.00    -0.154 C  
HETATM   20  H   UNL    20      -7.895   7.070  70.267  1.00  0.00     0.000 HD 
HETATM   21  O   UNL    20     -11.257   7.267  70.801  1.00  0.00    -0.259 OA 
HETATM   22  O   UNL    20      -8.118   7.629  69.533  1.00  0.00    -0.122 OA 
BRANCH  16  23
HETATM   23  O   UNL    20      -8.833   8.800  66.974  1.00  0.00    -0.125 OA 
BRANCH  23  24
HETATM   24  C   UNL    20      -8.547  10.148  66.534  1.00  0.00    -0.126 C  
HETATM   25  O   UNL    20      -7.304  10.154  65.857  1.00  0.00    -0.109 OA 
HETATM   26  C   UNL    20      -7.346   9.494  64.595  1.00  0.00    -0.113 C  
HETATM   27  H   UNL    20     -11.356  11.634  65.768  1.00  0.00     0.000 HD 
HETATM   28  C   UNL    20      -8.381  10.139  63.627  1.00  0.00    -0.170 C  
HETATM   29  O   UNL    20      -8.418   9.486  62.383  1.00  0.00    -0.151 OA 
HETATM   30  C   UNL    20      -9.755  10.174  64.280  1.00  0.00    -0.258 C  
HETATM   31  O   UNL    20     -10.734  11.175  66.321  1.00  0.00    -0.266 OA 
HETATM   32  H   UNL    20      -9.050   9.879  61.792  1.00  0.00     0.000 HD 
HETATM   33  O   UNL    20     -10.644  10.884  63.465  1.00  0.00    -0.540 OA 
HETATM   34  C   UNL    20      -9.561  10.896  65.633  1.00  0.00    -0.224 C  
HETATM   35  H   UNL    20     -11.502  10.906  63.872  1.00  0.00     0.000 HD 
BRANCH  26  36
HETATM   36  C   UNL    20      -5.944   9.637  63.949  1.00  0.00    -0.100 C  
HETATM   37  O   UNL    20      -5.427  10.910  64.201  1.00  0.00    -0.350 OA 
HETATM   38  H   UNL    20      -4.567  10.998  63.804  1.00  0.00     0.000 HD 
ENDBRANCH  26  36
ENDBRANCH  23  24
ENDBRANCH  16  23
BRANCH  16  39
HETATM   39  C   UNL    20     -11.008   7.814  67.215  1.00  0.00     0.005 C  
HETATM   40  O   UNL    20     -11.316   6.588  67.822  1.00  0.00    -0.609 OA 
HETATM   41  H   UNL    20     -12.025   6.154  67.363  1.00  0.00     0.000 HD 
ENDBRANCH  16  39
ENDBRANCH  12  14
TORSDOF 5
ENDMDL
MODEL      261
REMARK 921   NORMALIZED FREE ENERGY PREDICTED BY IDOCK:    6.30 KCAL/MOL
REMARK 922        TOTAL FREE ENERGY PREDICTED BY IDOCK:    6.56 KCAL/MOL
REMARK 923 INTER-LIGAND FREE ENERGY PREDICTED BY IDOCK:   -2.60 KCAL/MOL
REMARK 924 INTRA-LIGAND FREE ENERGY PREDICTED BY IDOCK:    9.16 KCAL/MOL
REMARK 927      BINDING AFFINITY PREDICTED BY RF-SCORE:    0.00 PKD
ROOT
HETATM    1  O   HOH     4     -11.261  18.920  65.112  1.00  0.00    -0.215 OA 
HETATM    2  H2  HOH     4     -11.121  18.551  65.976  1.00  0.00     0.000 HD 
HETATM    3 NA   UNL    13      -6.573  16.271  69.688  1.00  0.00    -0.141 Na 
HETATM    4  H1  HOH     4     -10.408  18.899  64.694  1.00  0.00     0.000 HD 
HETATM    5 NA   UNL    14     -11.518  18.934  68.135  1.00  0.00    -0.180 Na 
HETATM    6 FE   UNL    15      -9.138  18.535  70.158  1.00  0.00     0.486 Fe 
HETATM    7 FE   UNL    16      -9.429  17.010  65.691  1.00  0.00    -0.250 Fe 
HETATM    8 FE   UNL    17     -12.110  16.722  68.654  1.00  0.00    -0.261 Fe 
HETATM    9 FE   UNL    18     -10.988  16.085  64.501  1.00  0.00    -0.351 Fe 
HETATM   10 FE   UNL    19     -12.009  12.861  68.188  1.00  0.00    -0.249 Fe 
HETATM   11  O   UNL    20     -10.527  14.919  66.942  1.00  0.00    -0.271 OA 
HETATM   12  C   UNL    20      -9.484  14.360  66.190  1.00  0.00    -0.242 C  
HETATM   13  H   UNL    20     -10.735  15.826  66.744  1.00  0.00     0.000 HD 
ENDROOT
BRANCH  12  14
HETATM   14  C   UNL    20      -9.146  12.886  66.512  1.00  0.00    -0.132 C  
HETATM   15  O   UNL    20     -10.080  12.341  67.411  1.00  0.00    -0.199 OA 
HETATM   16  C   UNL    20      -9.970  10.943  67.337  1.00  0.00    -0.186 C  
HETATM   17  C   UNL    20      -8.973  11.902  65.333  1.00  0.00     0.238 C  
HETATM   18  H   UNL    20      -7.514  11.148  64.281  1.00  0.00     0.000 HD 
HETATM   19  C   UNL    20      -9.569  10.578  65.866  1.00  0.00    -0.204 C  
HETATM   20  H   UNL    20     -10.399   9.963  64.165  1.00  0.00     0.000 HD 
HETATM   21  O   UNL    20      -7.620  11.752  65.006  1.00  0.00     1.416 OA 
HETATM   22  O   UNL    20     -10.642  10.184  65.056  1.00  0.00    -0.044 OA 
BRANCH  16  23
HETATM   23  O   UNL    20     -11.131  10.308  67.915  1.00  0.00    -0.291 OA 
BRANCH  23  24
HETATM   24  C   UNL    20     -11.114   8.917  68.313  1.00  0.00     0.262 C  
HETATM   25  O   UNL    20     -10.635   8.138  67.233  1.00  0.00    -0.299 OA 
HETATM   26  C   UNL    20      -9.247   8.329  66.972  1.00  0.00    -0.152 C  
HETATM   27  H   UNL    20     -10.415   8.733  71.501  1.00  0.00     0.000 HD 
HETATM   28  C   UNL    20      -8.362   7.974  68.203  1.00  0.00    -0.127 C  
HETATM   29  O   UNL    20      -6.994   8.162  67.941  1.00  0.00    -0.074 OA 
HETATM   30  C   UNL    20      -8.813   8.771  69.418  1.00  0.00    -0.143 C  
HETATM   31  O   UNL    20     -10.900   8.998  70.728  1.00  0.00    -0.220 OA 
HETATM   32  H   UNL    20      -6.453   7.945  68.692  1.00  0.00     0.000 HD 
HETATM   33  O   UNL    20      -8.109   8.340  70.549  1.00  0.00    -0.098 OA 
HETATM   34  C   UNL    20     -10.324   8.486  69.574  1.00  0.00    -0.218 C  
HETATM   35  H   UNL    20      -8.390   8.838  71.308  1.00  0.00     0.000 HD 
BRANCH  26  36
HETATM   36  C   UNL    20      -8.855   7.372  65.818  1.00  0.00    -0.075 C  
HETATM   37  O   UNL    20      -8.957   6.044  66.240  1.00  0.00    -0.142 OA 
HETATM   38  H   UNL    20      -8.717   5.457  65.532  1.00  0.00     0.000 HD 
ENDBRANCH  26  36
ENDBRANCH  23  24
ENDBRANCH  16  23
BRANCH  16  39
HETATM   39  C   UNL    20      -8.762  10.530  68.234  1.00  0.00    -0.135 C  
HETATM   40  O   UNL    20      -7.674  11.390  68.030  1.00  0.00    -0.103 OA 
HETATM   41  H   UNL    20      -6.939  11.139  68.576  1.00  0.00     0.000 HD 
ENDBRANCH  16  39
ENDBRANCH  12  14
TORSDOF 5
ENDMDL
MODEL      262
REMARK 921   NORMALIZED FREE ENERGY PREDICTED BY IDOCK:    7.76 KCAL/MOL
REMARK 922        TOTAL FREE ENERGY PREDICTED BY IDOCK:    8.45 KCAL/MOL
REMARK 923 INTER-LIGAND FREE ENERGY PREDICTED BY IDOCK:    8.63 KCAL/MOL
REMARK 924 INTRA-LIGAND FREE ENERGY PREDICTED BY IDOCK:   -0.18 KCAL/MOL
REMARK 927      BINDING AFFINITY PREDICTED BY RF-SCORE:    0.00 PKD
ROOT
HETATM    1  O   HOH     4     -11.020   1.931  63.555  1.00  0.00    -0.368 OA 
HETATM    2  H2  HOH     4     -11.267   2.828  63.753  1.00  0.00     0.000 HD 
HETATM    3 NA   UNL    13      -9.062   8.722  63.494  1.00  0.00    -0.329 Na 
HETATM    4  H1  HOH     4     -10.126   1.987  63.236  1.00  0.00     0.000 HD 
HETATM    5 NA   UNL    14     -12.882   4.322  63.401  1.00  0.00     2.764 Na 
HETATM    6 FE   UNL    15     -12.030   7.231  62.548  1.00  0.00     6.155 Fe 
HETATM    7 FE   UNL    16      -9.307   3.846  64.416  1.00  0.00    -0.117 Fe 
HETATM    8 FE   UNL    17     -12.905   5.153  65.596  1.00  0.00     1.005 Fe 
HETATM    9 FE   UNL    18      -9.554   2.415  66.027  1.00  0.00    -0.191 Fe 
HETATM   10 FE   UNL    19     -11.320   5.989  69.050  1.00  0.00    -0.252 Fe 
HETATM   11  O   UNL    20     -10.162   5.014  66.664  1.00  0.00    -0.214 OA 
HETATM   12  C   UNL    20      -8.763   5.043  66.772  1.00  0.00    -0.108 C  
HETATM   13  H   UNL    20     -10.506   4.476  65.959  1.00  0.00     0.000 HD 
ENDROOT
BRANCH  12  14
HETATM   14  C   UNL    20      -8.202   5.917  67.917  1.00  0.00    -0.108 C  
HETATM   15  O   UNL    20      -8.843   7.168  67.956  1.00  0.00    -0.129 OA 
HETATM   16  C   UNL    20      -8.600   7.727  69.222  1.00  0.00    -0.138 C  
HETATM   17  C   UNL    20      -8.192   5.329  69.346  1.00  0.00    -0.095 C  
HETATM   18  H   UNL    20      -6.934   4.421  70.528  1.00  0.00     0.000 HD 
HETATM   19  C   UNL    20      -8.502   6.547  70.249  1.00  0.00    -0.135 C  
HETATM   20  H   UNL    20      -9.622   5.595  71.591  1.00  0.00     0.000 HD 
HETATM   21  O   UNL    20      -6.940   4.782  69.649  1.00  0.00    -0.050 OA 
HETATM   22  O   UNL    20      -9.681   6.310  70.969  1.00  0.00    -0.174 OA 
BRANCH  16  23
HETATM   23  O   UNL    20      -9.523   8.804  69.490  1.00  0.00    -0.162 OA 
BRANCH  23  24
HETATM   24  C   UNL    20      -9.176   9.896  70.373  1.00  0.00     0.019 C  
HETATM   25  O   UNL    20      -8.242  10.734  69.719  1.00  0.00     0.040 OA 
HETATM   26  C   UNL    20      -8.805  11.470  68.638  1.00  0.00    -0.106 C  
HETATM   27  H   UNL    20     -11.792  10.678  72.171  1.00  0.00     0.000 HD 
HETATM   28  C   UNL    20      -9.978  12.386  69.095  1.00  0.00     0.365 C  
HETATM   29  O   UNL    20     -10.530  13.112  68.025  1.00  0.00    -0.226 OA 
HETATM   30  C   UNL    20     -11.035  11.561  69.814  1.00  0.00     0.014 C  
HETATM   31  O   UNL    20     -11.109  10.117  71.823  1.00  0.00     0.257 OA 
HETATM   32  H   UNL    20     -11.245  13.671  68.305  1.00  0.00     0.000 HD 
HETATM   33  O   UNL    20     -12.011  12.411  70.348  1.00  0.00    -0.455 OA 
HETATM   34  C   UNL    20     -10.290  10.810  70.942  1.00  0.00     1.865 C  
HETATM   35  H   UNL    20     -12.671  11.896  70.797  1.00  0.00     0.000 HD 
BRANCH  26  36
HETATM   36  C   UNL    20      -7.690  12.383  68.065  1.00  0.00    -0.135 C  
HETATM   37  O   UNL    20      -7.580  13.545  68.834  1.00  0.00    -0.240 OA 
HETATM   38  H   UNL    20      -6.897  14.105  68.483  1.00  0.00     0.000 HD 
ENDBRANCH  26  36
ENDBRANCH  23  24
ENDBRANCH  16  23
BRANCH  16  39
HETATM   39  C   UNL    20      -7.183   8.378  69.169  1.00  0.00    -0.065 C  
HETATM   40  O   UNL    20      -6.568   8.133  67.934  1.00  0.00    -0.058 OA 
HETATM   41  H   UNL    20      -5.705   8.529  67.902  1.00  0.00     0.000 HD 
ENDBRANCH  16  39
ENDBRANCH  12  14
TORSDOF 5
ENDMDL
MODEL      263
REMARK 921   NORMALIZED FREE ENERGY PREDICTED BY IDOCK:    8.75 KCAL/MOL
REMARK 922        TOTAL FREE ENERGY PREDICTED BY IDOCK:    9.72 KCAL/MOL
REMARK 923 INTER-LIGAND FREE ENERGY PREDICTED BY IDOCK:    9.99 KCAL/MOL
REMARK 924 INTRA-LIGAND FREE ENERGY PREDICTED BY IDOCK:   -0.27 KCAL/MOL
REMARK 927      BINDING AFFINITY PREDICTED BY RF-SCORE:    0.00 PKD
ROOT
HETATM    1  O   HOH     4     -12.205   5.228  70.269  1.00  0.00     3.081 OA 
HETATM    2  H2  HOH     4     -12.235   5.502  69.359  1.00  0.00     0.000 HD 
HETATM    3 NA   UNL    13      -9.017   5.053  63.964  1.00  0.00    -0.132 Na 
HETATM    4  H1  HOH     4     -11.390   4.748  70.354  1.00  0.00     0.000 HD 
HETATM    5 NA   UNL    14     -13.568   5.519  67.573  1.00  0.00     7.739 Na 
HETATM    6 FE   UNL    15     -12.337   4.631  64.814  1.00  0.00    -0.176 Fe 
HETATM    7 FE   UNL    16     -10.029   5.821  68.767  1.00  0.00    -0.121 Fe 
HETATM    8 FE   UNL    17     -13.038   7.709  66.914  1.00  0.00     3.838 Fe 
HETATM    9 FE   UNL    18     -10.256   7.394  70.242  1.00  0.00    -0.185 Fe 
HETATM   10 FE   UNL    19     -10.729  10.829  66.636  1.00  0.00    -0.205 Fe 
HETATM   11  O   UNL    20     -10.227   8.232  67.630  1.00  0.00    -0.200 OA 
HETATM   12  C   UNL    20      -8.853   8.074  67.864  1.00  0.00    -0.130 C  
HETATM   13  H   UNL    20     -10.789   7.586  68.042  1.00  0.00     0.000 HD 
ENDROOT
BRANCH  12  14
HETATM   14  C   UNL    20      -7.938   9.125  67.194  1.00  0.00    -0.106 C  
HETATM   15  O   UNL    20      -8.698  10.152  66.606  1.00  0.00    -0.126 OA 
HETATM   16  C   UNL    20      -7.839  11.243  66.393  1.00  0.00    -0.109 C  
HETATM   17  C   UNL    20      -6.821   9.770  68.044  1.00  0.00    -0.072 C  
HETATM   18  H   UNL    20      -4.913   9.515  68.360  1.00  0.00     0.000 HD 
HETATM   19  C   UNL    20      -6.768  11.230  67.538  1.00  0.00    -0.074 C  
HETATM   20  H   UNL    20      -6.395  12.099  69.289  1.00  0.00     0.000 HD 
HETATM   21  O   UNL    20      -5.600   9.118  67.837  1.00  0.00    -0.035 OA 
HETATM   22  O   UNL    20      -7.044  12.106  68.596  1.00  0.00    -0.092 OA 
BRANCH  16  23
HETATM   23  O   UNL    20      -8.595  12.451  66.166  1.00  0.00     0.077 OA 
BRANCH  23  24
HETATM   24  C   UNL    20     -10.029  12.495  66.359  1.00  0.00    -0.252 C  
HETATM   25  O   UNL    20     -10.299  12.827  67.708  1.00  0.00    -0.214 OA 
HETATM   26  C   UNL    20      -9.972  14.175  68.033  1.00  0.00    -0.226 C  
HETATM   27  H   UNL    20     -11.436  13.576  63.613  1.00  0.00     0.000 HD 
HETATM   28  C   UNL    20     -10.755  15.199  67.159  1.00  0.00    -0.310 C  
HETATM   29  O   UNL    20     -10.431  16.527  67.484  1.00  0.00    -0.299 OA 
HETATM   30  C   UNL    20     -10.520  14.912  65.683  1.00  0.00    -0.349 C  
HETATM   31  O   UNL    20     -10.904  13.004  64.154  1.00  0.00    -0.378 OA 
HETATM   32  H   UNL    20     -10.908  17.152  66.951  1.00  0.00     0.000 HD 
HETATM   33  O   UNL    20     -11.339  15.741  64.908  1.00  0.00    -0.350 OA 
HETATM   34  C   UNL    20     -10.896  13.427  65.476  1.00  0.00    -0.289 C  
HETATM   35  H   UNL    20     -11.193  15.563  63.986  1.00  0.00     0.000 HD 
BRANCH  26  36
HETATM   36  C   UNL    20     -10.379  14.409  69.510  1.00  0.00     0.049 C  
HETATM   37  O   UNL    20     -11.469  13.600  69.841  1.00  0.00    -0.413 OA 
HETATM   38  H   UNL    20     -11.719  13.744  70.747  1.00  0.00     0.000 HD 
ENDBRANCH  26  36
ENDBRANCH  23  24
ENDBRANCH  16  23
BRANCH  16  39
HETATM   39  C   UNL    20      -7.065  10.964  65.068  1.00  0.00     0.345 C  
HETATM   40  O   UNL    20      -5.683  10.912  65.300  1.00  0.00    -0.291 OA 
HETATM   41  H   UNL    20      -5.212  10.742  64.493  1.00  0.00     0.000 HD 
ENDBRANCH  16  39
ENDBRANCH  12  14
TORSDOF 5
ENDMDL
MODEL      264
REMARK 921   NORMALIZED FREE ENERGY PREDICTED BY IDOCK:    9.16 KCAL/MOL
REMARK 922        TOTAL FREE ENERGY PREDICTED BY IDOCK:   10.25 KCAL/MOL
REMARK 923 INTER-LIGAND FREE ENERGY PREDICTED BY IDOCK:   11.48 KCAL/MOL
REMARK 924 INTRA-LIGAND FREE ENERGY PREDICTED BY IDOCK:   -1.23 KCAL/MOL
REMARK 927      BINDING AFFINITY PREDICTED BY RF-SCORE:    0.00 PKD
ROOT
HETATM    1  O   HOH     4      -7.033   5.853  68.442  1.00  0.00    -0.067 OA 
HETATM    2  H2  HOH     4      -7.423   6.544  67.920  1.00  0.00     0.000 HD 
HETATM    3 NA   UNL    13      -5.879  11.468  64.309  1.00  0.00    -0.340 Na 
HETATM    4  H1  HOH     4      -6.096   6.007  68.393  1.00  0.00     0.000 HD 
HETATM    5 NA   UNL    14      -8.897   6.892  66.285  1.00  0.00    -0.112 Na 
HETATM    6 FE   UNL    15      -8.059   8.816  63.937  1.00  0.00    -0.111 Fe 
HETATM    7 FE   UNL    16      -6.003   8.344  68.169  1.00  0.00    -0.036 Fe 
HETATM    8 FE   UNL    17      -9.880   8.786  67.263  1.00  0.00    -0.144 Fe 
HETATM    9 FE   UNL    18      -6.737   8.156  70.201  1.00  0.00    -0.035 Fe 
HETATM   10 FE   UNL    19      -9.902  11.966  69.505  1.00  0.00    -0.387 Fe 
HETATM   11  O   UNL    20      -7.796  10.236  68.760  1.00  0.00    -0.093 OA 
HETATM   12  C   UNL    20      -6.568  10.793  69.150  1.00  0.00    -0.065 C  
HETATM   13  H   UNL    20      -7.775   9.311  68.544  1.00  0.00     0.000 HD 
ENDROOT
BRANCH  12  14
HETATM   14  C   UNL    20      -6.601  12.298  69.501  1.00  0.00    -0.052 C  
HETATM   15  O   UNL    20      -7.444  13.002  68.622  1.00  0.00    -0.115 OA 
HETATM   16  C   UNL    20      -7.751  14.232  69.227  1.00  0.00     0.048 C  
HETATM   17  C   UNL    20      -6.960  12.702  70.949  1.00  0.00     3.062 C  
HETATM   18  H   UNL    20      -6.022  13.180  72.591  1.00  0.00     0.000 HD 
HETATM   19  C   UNL    20      -7.781  14.002  70.778  1.00  0.00     2.732 C  
HETATM   20  H   UNL    20      -9.083  13.681  72.248  1.00  0.00     0.000 HD 
HETATM   21  O   UNL    20      -5.802  12.931  71.702  1.00  0.00    -0.307 OA 
HETATM   22  O   UNL    20      -9.064  13.821  71.309  1.00  0.00     6.146 OA 
BRANCH  16  23
HETATM   23  O   UNL    20      -8.897  14.839  68.595  1.00  0.00    -0.171 OA 
BRANCH  23  24
HETATM   24  C   UNL    20      -9.305  16.193  68.906  1.00  0.00    -0.235 C  
HETATM   25  O   UNL    20      -8.777  17.065  67.924  1.00  0.00    -0.209 OA 
HETATM   26  C   UNL    20      -9.392  16.917  66.648  1.00  0.00    -0.258 C  
HETATM   27  H   UNL    20     -12.276  16.121  70.266  1.00  0.00     0.000 HD 
HETATM   28  C   UNL    20     -10.926  17.182  66.699  1.00  0.00     0.190 C  
HETATM   29  O   UNL    20     -11.529  17.036  65.438  1.00  0.00     0.364 OA 
HETATM   30  C   UNL    20     -11.577  16.279  67.737  1.00  0.00     0.136 C  
HETATM   31  O   UNL    20     -11.354  15.915  70.174  1.00  0.00    -0.310 OA 
HETATM   32  H   UNL    20     -12.465  17.197  65.469  1.00  0.00     0.000 HD 
HETATM   33  O   UNL    20     -12.927  16.625  67.879  1.00  0.00     2.070 OA 
HETATM   34  C   UNL    20     -10.809  16.529  69.055  1.00  0.00    -0.329 C  
HETATM   35  H   UNL    20     -13.334  16.062  68.526  1.00  0.00     0.000 HD 
BRANCH  26  36
HETATM   36  C   UNL    20      -8.764  17.972  65.703  1.00  0.00     0.687 C  
HETATM   37  O   UNL    20      -8.654  19.201  66.360  1.00  0.00    -0.314 OA 
HETATM   38  H   UNL    20      -8.268  19.848  65.780  1.00  0.00     0.000 HD 
ENDBRANCH  26  36
ENDBRANCH  23  24
ENDBRANCH  16  23
BRANCH  16  39
HETATM   39  C   UNL    20      -6.550  15.189  68.951  1.00  0.00    -0.104 C  
HETATM   40  O   UNL    20      -6.005  15.663  70.153  1.00  0.00    -0.160 OA 
HETATM   41  H   UNL    20      -5.274  16.246  69.985  1.00  0.00     0.000 HD 
ENDBRANCH  16  39
ENDBRANCH  12  14
TORSDOF 5
ENDMDL
MODEL      265
REMARK 921   NORMALIZED FREE ENERGY PREDICTED BY IDOCK:    9.73 KCAL/MOL
REMARK 922        TOTAL FREE ENERGY PREDICTED BY IDOCK:   10.99 KCAL/MOL
REMARK 923 INTER-LIGAND FREE ENERGY PREDICTED BY IDOCK:   -1.04 KCAL/MOL
REMARK 924 INTRA-LIGAND FREE ENERGY PREDICTED BY IDOCK:   12.04 KCAL/MOL
REMARK 927      BINDING AFFINITY PREDICTED BY RF-SCORE:    0.00 PKD
ROOT
HETATM    1  O   HOH     4      -7.545   1.955  70.368  1.00  0.00    -0.036 OA 
HETATM    2  H2  HOH     4      -7.605   2.518  69.605  1.00  0.00     0.000 HD 
HETATM    3 NA   UNL    13      -5.660   8.100  67.431  1.00  0.00    -0.029 Na 
HETATM    4  H1  HOH     4      -7.029   2.446  70.996  1.00  0.00     0.000 HD 
HETATM    5 NA   UNL    14      -7.326   2.517  67.394  1.00  0.00    -0.049 Na 
HETATM    6 FE   UNL    15      -5.728   4.909  66.114  1.00  0.00    -0.013 Fe 
HETATM    7 FE   UNL    16      -7.590   4.663  70.454  1.00  0.00    -0.046 Fe 
HETATM    8 FE   UNL    17      -9.254   3.770  66.920  1.00  0.00    -0.113 Fe 
HETATM    9 FE   UNL    18      -9.472   3.949  71.260  1.00  0.00    -0.097 Fe 
HETATM   10 FE   UNL    19     -12.019   6.391  67.713  1.00  0.00    -0.546 Fe 
HETATM   11  O   UNL    20      -9.684   5.669  69.133  1.00  0.00    -0.131 OA 
HETATM   12  C   UNL    20      -9.468   6.579  70.179  1.00  0.00    -0.157 C  
HETATM   13  H   UNL    20      -9.200   4.853  69.194  1.00  0.00     0.000 HD 
ENDROOT
BRANCH  12  14
HETATM   14  C   UNL    20     -10.256   7.906  70.080  1.00  0.00    -0.202 C  
HETATM   15  O   UNL    20      -9.388   9.012  70.149  1.00  0.00    -0.167 OA 
HETATM   16  C   UNL    20     -10.085  10.125  69.650  1.00  0.00    -0.234 C  
HETATM   17  C   UNL    20     -11.205   8.105  68.878  1.00  0.00     0.466 C  
HETATM   18  H   UNL    20     -13.105   7.902  68.486  1.00  0.00     0.000 HD 
HETATM   19  C   UNL    20     -11.070   9.609  68.545  1.00  0.00    -0.041 C  
HETATM   20  H   UNL    20     -11.193   9.448  66.565  1.00  0.00     0.000 HD 
HETATM   21  O   UNL    20     -12.522   7.780  69.226  1.00  0.00     2.139 OA 
HETATM   22  O   UNL    20     -10.597   9.760  67.234  1.00  0.00    -0.258 OA 
BRANCH  16  23
HETATM   23  O   UNL    20      -9.171  11.192  69.320  1.00  0.00    -0.021 OA 
BRANCH  23  24
HETATM   24  C   UNL    20      -9.064  11.707  67.972  1.00  0.00    -0.177 C  
HETATM   25  O   UNL    20      -7.904  12.513  67.882  1.00  0.00    -0.120 OA 
HETATM   26  C   UNL    20      -6.692  11.766  67.949  1.00  0.00    -0.072 C  
HETATM   27  H   UNL    20     -10.235   9.479  65.887  1.00  0.00     0.000 HD 
HETATM   28  C   UNL    20      -6.588  10.708  66.812  1.00  0.00    -0.091 C  
HETATM   29  O   UNL    20      -5.391   9.974  66.882  1.00  0.00    -0.040 OA 
HETATM   30  C   UNL    20      -7.805   9.794  66.836  1.00  0.00    -0.102 C  
HETATM   31  O   UNL    20     -10.253  10.080  66.622  1.00  0.00    -0.217 OA 
HETATM   32  H   UNL    20      -5.327   9.329  66.188  1.00  0.00     0.000 HD 
HETATM   33  O   UNL    20      -7.773   8.943  65.725  1.00  0.00    -0.092 OA 
HETATM   34  C   UNL    20      -9.035  10.728  66.772  1.00  0.00    -0.147 C  
HETATM   35  H   UNL    20      -8.533   8.372  65.739  1.00  0.00     0.000 HD 
BRANCH  26  36
HETATM   36  C   UNL    20      -5.520  12.764  67.773  1.00  0.00    -0.124 C  
HETATM   37  O   UNL    20      -5.954  13.897  67.080  1.00  0.00    -0.338 OA 
HETATM   38  H   UNL    20      -5.235  14.509  66.972  1.00  0.00     0.000 HD 
ENDBRANCH  26  36
ENDBRANCH  23  24
ENDBRANCH  16  23
BRANCH  16  39
HETATM   39  C   UNL    20     -10.976  10.665  70.811  1.00  0.00     0.315 C  
HETATM   40  O   UNL    20     -12.326  10.360  70.585  1.00  0.00    -0.301 OA 
HETATM   41  H   UNL    20     -12.868  10.689  71.292  1.00  0.00     0.000 HD 
ENDBRANCH  16  39
ENDBRANCH  12  14
TORSDOF 5
ENDMDL
MODEL      266
REMARK 921   NORMALIZED FREE ENERGY PREDICTED BY IDOCK:    9.91 KCAL/MOL
REMARK 922        TOTAL FREE ENERGY PREDICTED BY IDOCK:   11.22 KCAL/MOL
REMARK 923 INTER-LIGAND FREE ENERGY PREDICTED BY IDOCK:   11.42 KCAL/MOL
REMARK 924 INTRA-LIGAND FREE ENERGY PREDICTED BY IDOCK:   -0.21 KCAL/MOL
REMARK 927      BINDING AFFINITY PREDICTED BY RF-SCORE:    0.00 PKD
ROOT
HETATM    1  O   HOH     4     -10.813  13.841  74.217  1.00  0.00     3.516 OA 
HETATM    2  H2  HOH     4     -10.151  13.206  73.969  1.00  0.00     0.000 HD 
HETATM    3 NA   UNL    13      -6.789  11.270  69.008  1.00  0.00    -0.056 Na 
HETATM    4  H1  HOH     4     -11.027  14.300  73.414  1.00  0.00     0.000 HD 
HETATM    5 NA   UNL    14      -8.139  12.448  74.553  1.00  0.00     4.053 Na 
HETATM    6 FE   UNL    15      -5.999  12.059  72.276  1.00  0.00     0.341 Fe 
HETATM    7 FE   UNL    16     -10.668  12.635  71.795  1.00  0.00     2.244 Fe 
HETATM    8 FE   UNL    17      -8.648  10.179  74.231  1.00  0.00     2.108 Fe 
HETATM    9 FE   UNL    18     -12.408  11.844  72.819  1.00  0.00     0.164 Fe 
HETATM   10 FE   UNL    19     -10.546   7.207  72.587  1.00  0.00    -0.194 Fe 
HETATM   11  O   UNL    20     -10.573   9.973  72.009  1.00  0.00     0.886 OA 
HETATM   12  C   UNL    20     -11.259  10.196  70.806  1.00  0.00    -0.336 C  
HETATM   13  H   UNL    20     -10.441  10.741  72.554  1.00  0.00     0.000 HD 
ENDROOT
BRANCH  12  14
HETATM   14  C   UNL    20     -11.474   8.948  69.920  1.00  0.00     0.117 C  
HETATM   15  O   UNL    20     -10.321   8.660  69.167  1.00  0.00    -0.211 OA 
HETATM   16  C   UNL    20     -10.428   7.332  68.724  1.00  0.00    -0.200 C  
HETATM   17  C   UNL    20     -11.951   7.644  70.598  1.00  0.00    -0.099 C  
HETATM   18  H   UNL    20     -13.633   6.704  70.903  1.00  0.00     0.000 HD 
HETATM   19  C   UNL    20     -11.214   6.530  69.818  1.00  0.00    -0.395 C  
HETATM   20  H   UNL    20     -10.876   5.316  71.359  1.00  0.00     0.000 HD 
HETATM   21  O   UNL    20     -13.340   7.505  70.486  1.00  0.00     0.296 OA 
HETATM   22  O   UNL    20     -10.400   5.802  70.696  1.00  0.00    -0.216 OA 
BRANCH  16  23
HETATM   23  O   UNL    20      -9.144   6.834  68.290  1.00  0.00    -0.126 OA 
BRANCH  23  24
HETATM   24  C   UNL    20      -7.917   7.536  68.595  1.00  0.00    -0.123 C  
HETATM   25  O   UNL    20      -7.959   7.965  69.944  1.00  0.00    -0.105 OA 
HETATM   26  C   UNL    20      -7.861   6.895  70.879  1.00  0.00    -0.097 C  
HETATM   27  H   UNL    20      -5.470   6.183  66.902  1.00  0.00     0.000 HD 
HETATM   28  C   UNL    20      -6.542   6.084  70.711  1.00  0.00    -0.048 C  
HETATM   29  O   UNL    20      -6.449   5.030  71.637  1.00  0.00    -0.029 OA 
HETATM   30  C   UNL    20      -6.416   5.583  69.280  1.00  0.00    -0.038 C  
HETATM   31  O   UNL    20      -6.306   6.614  67.033  1.00  0.00    -0.038 OA 
HETATM   32  H   UNL    20      -5.645   4.535  71.535  1.00  0.00     0.000 HD 
HETATM   33  O   UNL    20      -5.163   4.983  69.102  1.00  0.00     0.000 OA 
HETATM   34  C   UNL    20      -6.553   6.833  68.381  1.00  0.00    -0.059 C  
HETATM   35  H   UNL    20      -5.084   4.670  68.209  1.00  0.00     0.000 HD 
BRANCH  26  36
HETATM   36  C   UNL    20      -7.855   7.516  72.298  1.00  0.00    -0.097 C  
HETATM   37  O   UNL    20      -6.540   7.685  72.742  1.00  0.00    -0.059 OA 
HETATM   38  H   UNL    20      -6.537   8.066  73.613  1.00  0.00     0.000 HD 
ENDBRANCH  26  36
ENDBRANCH  23  24
ENDBRANCH  16  23
BRANCH  16  39
HETATM   39  C   UNL    20     -11.336   7.344  67.456  1.00  0.00     0.473 C  
HETATM   40  O   UNL    20     -10.745   8.092  66.427  1.00  0.00    -0.248 OA 
HETATM   41  H   UNL    20     -11.298   8.099  65.655  1.00  0.00     0.000 HD 
ENDBRANCH  16  39
ENDBRANCH  12  14
TORSDOF 5
ENDMDL
MODEL      267
REMARK 921   NORMALIZED FREE ENERGY PREDICTED BY IDOCK:   11.05 KCAL/MOL
REMARK 922        TOTAL FREE ENERGY PREDICTED BY IDOCK:   12.70 KCAL/MOL
REMARK 923 INTER-LIGAND FREE ENERGY PREDICTED BY IDOCK:   -1.89 KCAL/MOL
REMARK 924 INTRA-LIGAND FREE ENERGY PREDICTED BY IDOCK:   14.59 KCAL/MOL
REMARK 927      BINDING AFFINITY PREDICTED BY RF-SCORE:    0.00 PKD
ROOT
HETATM    1  O   HOH     4      -8.256   6.950  72.676  1.00  0.00    -0.109 OA 
HETATM    2  H2  HOH     4      -8.594   6.827  71.796  1.00  0.00     0.000 HD 
HETATM    3 NA   UNL    13      -6.703   5.677  65.900  1.00  0.00    -0.042 Na 
HETATM    4  H1  HOH     4      -7.311   6.898  72.586  1.00  0.00     0.000 HD 
HETATM    5 NA   UNL    14     -10.091   5.648  70.641  1.00  0.00    -0.156 Na 
HETATM    6 FE   UNL    15      -9.158   4.345  67.930  1.00  0.00    -0.102 Fe 
HETATM    7 FE   UNL    16      -6.987   7.733  70.413  1.00  0.00    -0.042 Fe 
HETATM    8 FE   UNL    17     -10.832   7.448  69.327  1.00  0.00    -0.202 Fe 
HETATM    9 FE   UNL    18      -7.651   9.521  71.446  1.00  0.00    -0.119 Fe 
HETATM   10 FE   UNL    19     -10.433  10.866  67.512  1.00  0.00    -0.168 Fe 
HETATM   11  O   UNL    20      -8.549   9.254  68.867  1.00  0.00    -0.126 OA 
HETATM   12  C   UNL    20      -7.255   9.747  68.639  1.00  0.00    -0.073 C  
HETATM   13  H   UNL    20      -8.633   8.647  69.594  1.00  0.00     0.000 HD 
ENDROOT
BRANCH  12  14
HETATM   14  C   UNL    20      -7.118  10.735  67.457  1.00  0.00    -0.089 C  
HETATM   15  O   UNL    20      -8.283  10.741  66.669  1.00  0.00    -0.129 OA 
HETATM   16  C   UNL    20      -8.262  11.914  65.896  1.00  0.00     0.467 C  
HETATM   17  C   UNL    20      -6.733  12.198  67.770  1.00  0.00    -0.103 C  
HETATM   18  H   UNL    20      -5.119  13.293  67.802  1.00  0.00     0.000 HD 
HETATM   19  C   UNL    20      -7.538  13.021  66.737  1.00  0.00     0.473 C  
HETATM   20  H   UNL    20      -7.965  14.567  67.914  1.00  0.00     0.000 HD 
HETATM   21  O   UNL    20      -5.356  12.394  67.610  1.00  0.00    -0.081 OA 
HETATM   22  O   UNL    20      -8.403  13.897  67.405  1.00  0.00    -0.178 OA 
BRANCH  16  23
HETATM   23  O   UNL    20      -9.573  12.197  65.363  1.00  0.00    -0.203 OA 
BRANCH  23  24
HETATM   24  C   UNL    20     -10.620  12.763  66.185  1.00  0.00    -0.266 C  
HETATM   25  O   UNL    20     -10.032  13.358  67.327  1.00  0.00    -0.227 OA 
HETATM   26  C   UNL    20      -9.296  14.541  67.030  1.00  0.00    -0.238 C  
HETATM   27  H   UNL    20     -13.017  13.856  64.251  1.00  0.00     0.000 HD 
HETATM   28  C   UNL    20     -10.181  15.635  66.364  1.00  0.00    -0.290 C  
HETATM   29  O   UNL    20      -9.451  16.801  66.074  1.00  0.00    -0.400 OA 
HETATM   30  C   UNL    20     -10.857  15.075  65.121  1.00  0.00    -0.407 C  
HETATM   31  O   UNL    20     -12.416  13.220  64.621  1.00  0.00    -0.518 OA 
HETATM   32  H   UNL    20      -9.992  17.469  65.668  1.00  0.00     0.000 HD 
HETATM   33  O   UNL    20     -11.760  16.017  64.614  1.00  0.00    -0.236 OA 
HETATM   34  C   UNL    20     -11.599  13.800  65.581  1.00  0.00    -0.330 C  
HETATM   35  H   UNL    20     -12.182  15.667  63.837  1.00  0.00     0.000 HD 
BRANCH  26  36
HETATM   36  C   UNL    20      -8.771  15.112  68.372  1.00  0.00    -0.169 C  
HETATM   37  O   UNL    20      -8.030  16.274  68.141  1.00  0.00    -0.151 OA 
HETATM   38  H   UNL    20      -7.708  16.625  68.964  1.00  0.00     0.000 HD 
ENDBRANCH  26  36
ENDBRANCH  23  24
ENDBRANCH  16  23
BRANCH  16  39
HETATM   39  C   UNL    20      -7.347  11.633  64.664  1.00  0.00     2.376 C  
HETATM   40  O   UNL    20      -8.117  11.373  63.521  1.00  0.00    -0.053 OA 
HETATM   41  H   UNL    20      -7.560  11.202  62.772  1.00  0.00     0.000 HD 
ENDBRANCH  16  39
ENDBRANCH  12  14
TORSDOF 5
ENDMDL
MODEL      268
REMARK 921   NORMALIZED FREE ENERGY PREDICTED BY IDOCK:   12.96 KCAL/MOL
REMARK 922        TOTAL FREE ENERGY PREDICTED BY IDOCK:   15.16 KCAL/MOL
REMARK 923 INTER-LIGAND FREE ENERGY PREDICTED BY IDOCK:   11.57 KCAL/MOL
REMARK 924 INTRA-LIGAND FREE ENERGY PREDICTED BY IDOCK:    3.59 KCAL/MOL
REMARK 927      BINDING AFFINITY PREDICTED BY RF-SCORE:    0.00 PKD
ROOT
HETATM    1  O   HOH     4     -12.528   2.367  72.079  1.00  0.00     3.486 OA 
HETATM    2  H2  HOH     4     -11.631   2.581  71.851  1.00  0.00     0.000 HD 
HETATM    3 NA   UNL    13      -7.400   7.224  72.302  1.00  0.00    -0.067 Na 
HETATM    4  H1  HOH     4     -12.871   3.152  72.489  1.00  0.00     0.000 HD 
HETATM    5 NA   UNL    14      -9.545   1.813  72.021  1.00  0.00    -0.070 Na 
HETATM    6 FE   UNL    15      -7.309   3.831  72.940  1.00  0.00    -0.046 Fe 
HETATM    7 FE   UNL    16     -11.662   4.840  71.390  1.00  0.00     0.194 Fe 
HETATM    8 FE   UNL    17      -8.917   2.374  69.830  1.00  0.00    -0.052 Fe 
HETATM    9 FE   UNL    18     -12.905   4.106  69.772  1.00  0.00     8.578 Fe 
HETATM   10 FE   UNL    19      -9.090   4.471  66.557  1.00  0.00    -0.112 Fe 
HETATM   11  O   UNL    20     -10.356   4.828  69.058  1.00  0.00    -0.111 OA 
HETATM   12  C   UNL    20     -10.977   6.085  69.097  1.00  0.00    -0.359 C  
HETATM   13  H   UNL    20     -10.637   4.212  69.726  1.00  0.00     0.000 HD 
ENDROOT
BRANCH  12  14
HETATM   14  C   UNL    20     -10.522   7.087  68.011  1.00  0.00    -0.208 C  
HETATM   15  O   UNL    20     -10.243   8.346  68.573  1.00  0.00    -0.194 OA 
HETATM   16  C   UNL    20      -9.463   9.057  67.647  1.00  0.00    -0.140 C  
HETATM   17  C   UNL    20      -9.341   6.688  67.098  1.00  0.00    -0.134 C  
HETATM   18  H   UNL    20      -9.080   5.913  65.327  1.00  0.00     0.000 HD 
HETATM   19  C   UNL    20      -8.583   8.017  66.872  1.00  0.00    -0.128 C  
HETATM   20  H   UNL    20      -6.739   7.269  66.882  1.00  0.00     0.000 HD 
HETATM   21  O   UNL    20      -9.806   6.158  65.888  1.00  0.00     0.054 OA 
HETATM   22  O   UNL    20      -7.272   7.899  67.352  1.00  0.00    -0.083 OA 
BRANCH  16  23
HETATM   23  O   UNL    20      -8.812  10.178  68.281  1.00  0.00    -0.121 OA 
BRANCH  23  24
HETATM   24  C   UNL    20      -9.487  11.445  68.460  1.00  0.00    -0.183 C  
HETATM   25  O   UNL    20      -8.614  12.339  69.124  1.00  0.00     0.329 OA 
HETATM   26  C   UNL    20      -7.520  12.763  68.316  1.00  0.00    -0.124 C  
HETATM   27  H   UNL    20     -11.471  11.959  65.912  1.00  0.00     0.000 HD 
HETATM   28  C   UNL    20      -7.989  13.483  67.018  1.00  0.00     0.051 C  
HETATM   29  O   UNL    20      -6.906  13.901  66.225  1.00  0.00     1.586 OA 
HETATM   30  C   UNL    20      -8.939  12.587  66.238  1.00  0.00    -0.003 C  
HETATM   31  O   UNL    20     -11.121  11.500  66.667  1.00  0.00    -0.292 OA 
HETATM   32  H   UNL    20      -7.192  14.341  65.433  1.00  0.00     0.000 HD 
HETATM   33  O   UNL    20      -9.468  13.296  65.153  1.00  0.00    -0.450 OA 
HETATM   34  C   UNL    20     -10.058  12.194  67.229  1.00  0.00    -0.202 C  
HETATM   35  H   UNL    20     -10.061  12.736  64.665  1.00  0.00     0.000 HD 
BRANCH  26  36
HETATM   36  C   UNL    20      -6.694  13.779  69.147  1.00  0.00    -0.112 C  
HETATM   37  O   UNL    20      -5.368  13.792  68.707  1.00  0.00    -0.073 OA 
HETATM   38  H   UNL    20      -4.862  14.415  69.216  1.00  0.00     0.000 HD 
ENDBRANCH  26  36
ENDBRANCH  23  24
ENDBRANCH  16  23
BRANCH  16  39
HETATM   39  C   UNL    20     -10.444   9.667  66.597  1.00  0.00    -0.163 C  
HETATM   40  O   UNL    20     -10.607   8.801  65.507  1.00  0.00     0.721 OA 
HETATM   41  H   UNL    20     -11.204   9.173  64.868  1.00  0.00     0.000 HD 
ENDBRANCH  16  39
ENDBRANCH  12  14
TORSDOF 5
ENDMDL
MODEL      269
REMARK 921   NORMALIZED FREE ENERGY PREDICTED BY IDOCK:   13.36 KCAL/MOL
REMARK 922        TOTAL FREE ENERGY PREDICTED BY IDOCK:   15.68 KCAL/MOL
REMARK 923 INTER-LIGAND FREE ENERGY PREDICTED BY IDOCK:   11.63 KCAL/MOL
REMARK 924 INTRA-LIGAND FREE ENERGY PREDICTED BY IDOCK:    4.05 KCAL/MOL
REMARK 927      BINDING AFFINITY PREDICTED BY RF-SCORE:    0.00 PKD
ROOT
HETATM    1  O   HOH     4     -11.238  16.591  67.201  1.00  0.00    -0.020 OA 
HETATM    2  H2  HOH     4     -10.589  16.044  67.628  1.00  0.00     0.000 HD 
HETATM    3 NA   UNL    13      -5.154  13.060  66.526  1.00  0.00     0.147 Na 
HETATM    4  H1  HOH     4     -10.940  16.670  66.302  1.00  0.00     0.000 HD 
HETATM    5 NA   UNL    14      -9.293  15.947  69.439  1.00  0.00    -0.176 Na 
HETATM    6 FE   UNL    15      -6.275  15.143  69.042  1.00  0.00    -0.091 Fe 
HETATM    7 FE   UNL    16      -9.839  14.619  65.978  1.00  0.00    -0.227 Fe 
HETATM    8 FE   UNL    17      -9.670  13.669  69.866  1.00  0.00    -0.273 Fe 
HETATM    9 FE   UNL    18     -11.898  13.958  66.142  1.00  0.00    -0.310 Fe 
HETATM   10 FE   UNL    19     -10.502  10.002  68.868  1.00  0.00    -0.164 Fe 
HETATM   11  O   UNL    20     -10.037  12.296  67.284  1.00  0.00    -0.203 OA 
HETATM   12  C   UNL    20      -9.921  11.923  65.937  1.00  0.00    -0.234 C  
HETATM   13  H   UNL    20     -10.186  13.222  67.442  1.00  0.00     0.000 HD 
ENDROOT
BRANCH  12  14
HETATM   14  C   UNL    20      -9.679  10.418  65.681  1.00  0.00    -0.236 C  
HETATM   15  O   UNL    20      -9.464   9.730  66.889  1.00  0.00    -0.151 OA 
HETATM   16  C   UNL    20      -9.664   8.363  66.636  1.00  0.00    -0.251 C  
HETATM   17  C   UNL    20     -10.729   9.640  64.857  1.00  0.00     2.181 C  
HETATM   18  H   UNL    20     -10.987   9.072  63.008  1.00  0.00     0.000 HD 
HETATM   19  C   UNL    20     -10.761   8.244  65.523  1.00  0.00     3.623 C  
HETATM   20  H   UNL    20     -12.714   7.910  65.333  1.00  0.00     0.000 HD 
HETATM   21  O   UNL    20     -10.341   9.551  63.515  1.00  0.00     1.850 OA 
HETATM   22  O   UNL    20     -12.049   7.983  66.007  1.00  0.00     6.619 OA 
BRANCH  16  23
HETATM   23  O   UNL    20      -9.849   7.638  67.871  1.00  0.00    -0.147 OA 
BRANCH  23  24
HETATM   24  C   UNL    20     -10.667   8.163  68.942  1.00  0.00    -0.064 C  
HETATM   25  O   UNL    20     -11.411   7.102  69.512  1.00  0.00    -0.088 OA 
HETATM   26  C   UNL    20     -10.609   6.185  70.251  1.00  0.00    -0.258 C  
HETATM   27  H   UNL    20      -9.069  10.617  70.394  1.00  0.00     0.000 HD 
HETATM   28  C   UNL    20      -9.852   6.876  71.422  1.00  0.00    -0.178 C  
HETATM   29  O   UNL    20      -9.063   5.967  72.150  1.00  0.00    -0.143 OA 
HETATM   30  C   UNL    20      -9.022   8.038  70.895  1.00  0.00    -0.140 C  
HETATM   31  O   UNL    20      -9.475  10.144  69.677  1.00  0.00    -0.222 OA 
HETATM   32  H   UNL    20      -8.601   6.388  72.865  1.00  0.00     0.000 HD 
HETATM   33  O   UNL    20      -8.462   8.740  71.970  1.00  0.00    -0.322 OA 
HETATM   34  C   UNL    20     -10.005   8.936  70.110  1.00  0.00    -0.185 C  
HETATM   35  H   UNL    20      -7.944   9.465  71.641  1.00  0.00     0.000 HD 
BRANCH  26  36
HETATM   36  C   UNL    20     -11.559   5.125  70.864  1.00  0.00     1.522 C  
HETATM   37  O   UNL    20     -11.022   4.632  72.056  1.00  0.00    -0.004 OA 
HETATM   38  H   UNL    20     -11.605   3.982  72.432  1.00  0.00     0.000 HD 
ENDBRANCH  26  36
ENDBRANCH  23  24
ENDBRANCH  16  23
BRANCH  16  39
HETATM   39  C   UNL    20      -8.345   7.815  66.010  1.00  0.00    -0.133 C  
HETATM   40  O   UNL    20      -7.356   8.809  65.983  1.00  0.00    -0.086 OA 
HETATM   41  H   UNL    20      -6.553   8.476  65.602  1.00  0.00     0.000 HD 
ENDBRANCH  16  39
ENDBRANCH  12  14
TORSDOF 5
ENDMDL
MODEL      270
REMARK 921   NORMALIZED FREE ENERGY PREDICTED BY IDOCK:   13.95 KCAL/MOL
REMARK 922        TOTAL FREE ENERGY PREDICTED BY IDOCK:   16.44 KCAL/MOL
REMARK 923 INTER-LIGAND FREE ENERGY PREDICTED BY IDOCK:   16.54 KCAL/MOL
REMARK 924 INTRA-LIGAND FREE ENERGY PREDICTED BY IDOCK:   -0.10 KCAL/MOL
REMARK 927      BINDING AFFINITY PREDICTED BY RF-SCORE:    0.00 PKD
ROOT
HETATM    1  O   HOH     4     -10.667  14.695  74.283  1.00  0.00     2.303 OA 
HETATM    2  H2  HOH     4     -10.022  14.061  73.992  1.00  0.00     0.000 HD 
HETATM    3 NA   UNL    13      -6.559  12.497  68.969  1.00  0.00    -0.064 Na 
HETATM    4  H1  HOH     4     -10.831  15.244  73.525  1.00  0.00     0.000 HD 
HETATM    5 NA   UNL    14      -8.066  13.158  74.559  1.00  0.00     2.168 Na 
HETATM    6 FE   UNL    15      -5.860  12.911  72.325  1.00  0.00    -0.043 Fe 
HETATM    7 FE   UNL    16     -10.480  13.740  71.755  1.00  0.00     1.107 Fe 
HETATM    8 FE   UNL    17      -8.654  10.959  73.986  1.00  0.00     5.800 Fe 
HETATM    9 FE   UNL    18     -12.289  12.926  72.632  1.00  0.00    -0.014 Fe 
HETATM   10 FE   UNL    19     -10.610   8.259  71.979  1.00  0.00    -0.194 Fe 
HETATM   11  O   UNL    20     -10.502  11.068  71.692  1.00  0.00     2.943 OA 
HETATM   12  C   UNL    20     -11.134  11.444  70.497  1.00  0.00     0.724 C  
HETATM   13  H   UNL    20     -10.359  11.769  72.318  1.00  0.00     0.000 HD 
ENDROOT
BRANCH  12  14
HETATM   14  C   UNL    20     -11.366  10.304  69.479  1.00  0.00    -0.241 C  
HETATM   15  O   UNL    20     -10.183  10.004  68.781  1.00  0.00    -0.170 OA 
HETATM   16  C   UNL    20     -10.346   8.735  68.202  1.00  0.00    -0.216 C  
HETATM   17  C   UNL    20     -11.980   8.982  69.991  1.00  0.00     0.426 C  
HETATM   18  H   UNL    20     -13.740   8.146  70.087  1.00  0.00     0.000 HD 
HETATM   19  C   UNL    20     -11.264   7.895  69.156  1.00  0.00     0.330 C  
HETATM   20  H   UNL    20     -11.125   6.519  70.588  1.00  0.00     0.000 HD 
HETATM   21  O   UNL    20     -13.363   8.959  69.772  1.00  0.00     2.319 OA 
HETATM   22  O   UNL    20     -10.569   7.028  70.010  1.00  0.00    -0.216 OA 
BRANCH  16  23
HETATM   23  O   UNL    20      -9.071   8.185  67.809  1.00  0.00    -0.135 OA 
BRANCH  23  24
HETATM   24  C   UNL    20      -8.895   7.511  66.541  1.00  0.00    -0.148 C  
HETATM   25  O   UNL    20      -7.539   7.619  66.149  1.00  0.00    -0.084 OA 
HETATM   26  C   UNL    20      -6.657   6.844  66.956  1.00  0.00    -0.047 C  
HETATM   27  H   UNL    20     -10.915   4.944  66.415  1.00  0.00     0.000 HD 
HETATM   28  C   UNL    20      -7.008   5.328  66.926  1.00  0.00    -0.065 C  
HETATM   29  O   UNL    20      -6.134   4.567  67.722  1.00  0.00    -0.029 OA 
HETATM   30  C   UNL    20      -8.460   5.120  67.335  1.00  0.00    -0.105 C  
HETATM   31  O   UNL    20     -10.670   5.858  66.502  1.00  0.00    -0.260 OA 
HETATM   32  H   UNL    20      -6.349   3.642  67.704  1.00  0.00     0.000 HD 
HETATM   33  O   UNL    20      -8.807   3.775  67.166  1.00  0.00    -0.108 OA 
HETATM   34  C   UNL    20      -9.295   6.021  66.398  1.00  0.00    -0.154 C  
HETATM   35  H   UNL    20      -9.713   3.645  67.421  1.00  0.00     0.000 HD 
BRANCH  26  36
HETATM   36  C   UNL    20      -5.230   7.008  66.374  1.00  0.00    -0.022 C  
HETATM   37  O   UNL    20      -5.257   6.853  64.985  1.00  0.00    -0.025 OA 
HETATM   38  H   UNL    20      -4.382   6.954  64.628  1.00  0.00     0.000 HD 
ENDBRANCH  26  36
ENDBRANCH  23  24
ENDBRANCH  16  23
BRANCH  16  39
HETATM   39  C   UNL    20     -11.155   8.934  66.883  1.00  0.00     0.616 C  
HETATM   40  O   UNL    20     -11.622  10.252  66.780  1.00  0.00     0.141 OA 
HETATM   41  H   UNL    20     -12.114  10.373  65.977  1.00  0.00     0.000 HD 
ENDBRANCH  16  39
ENDBRANCH  12  14
TORSDOF 5
ENDMDL
MODEL      271
REMARK 921   NORMALIZED FREE ENERGY PREDICTED BY IDOCK:   15.29 KCAL/MOL
REMARK 922        TOTAL FREE ENERGY PREDICTED BY IDOCK:   18.18 KCAL/MOL
REMARK 923 INTER-LIGAND FREE ENERGY PREDICTED BY IDOCK:   18.37 KCAL/MOL
REMARK 924 INTRA-LIGAND FREE ENERGY PREDICTED BY IDOCK:   -0.19 KCAL/MOL
REMARK 927      BINDING AFFINITY PREDICTED BY RF-SCORE:    0.00 PKD
ROOT
HETATM    1  O   HOH     4      -5.127  13.145  73.936  1.00  0.00    -0.376 OA 
HETATM    2  H2  HOH     4      -6.008  12.832  73.767  1.00  0.00     0.000 HD 
HETATM    3 NA   UNL    13      -9.597  10.438  69.179  1.00  0.00    -0.145 Na 
HETATM    4  H1  HOH     4      -4.678  13.078  73.102  1.00  0.00     0.000 HD 
HETATM    5 NA   UNL    14      -7.550  11.424  74.545  1.00  0.00     3.031 Na 
HETATM    6 FE   UNL    15      -9.022   9.567  72.471  1.00  0.00     0.005 Fe 
HETATM    7 FE   UNL    16      -6.435  13.424  71.580  1.00  0.00    -0.354 Fe 
HETATM    8 FE   UNL    17      -9.361  12.891  74.264  1.00  0.00     5.961 Fe 
HETATM    9 FE   UNL    18      -6.280  15.390  72.482  1.00  0.00     0.509 Fe 
HETATM   10 FE   UNL    19     -11.262  15.836  72.575  1.00  0.00    -0.364 Fe 
HETATM   11  O   UNL    20      -8.831  14.565  71.897  1.00  0.00     3.796 OA 
HETATM   12  C   UNL    20      -8.407  15.003  70.633  1.00  0.00     1.734 C  
HETATM   13  H   UNL    20      -8.169  14.130  72.423  1.00  0.00     0.000 HD 
ENDROOT
BRANCH  12  14
HETATM   14  C   UNL    20      -9.482  15.711  69.778  1.00  0.00    -0.152 C  
HETATM   15  O   UNL    20      -9.627  15.081  68.528  1.00  0.00    -0.197 OA 
HETATM   16  C   UNL    20     -10.858  15.490  67.990  1.00  0.00    -0.300 C  
HETATM   17  C   UNL    20     -10.887  15.910  70.389  1.00  0.00    -0.313 C  
HETATM   18  H   UNL    20     -11.876  17.313  71.315  1.00  0.00     0.000 HD 
HETATM   19  C   UNL    20     -11.843  15.722  69.187  1.00  0.00    -0.354 C  
HETATM   20  H   UNL    20     -13.306  14.790  70.163  1.00  0.00     0.000 HD 
HETATM   21  O   UNL    20     -11.013  17.191  70.939  1.00  0.00     0.384 OA 
HETATM   22  O   UNL    20     -12.709  14.650  69.438  1.00  0.00    -0.046 OA 
BRANCH  16  23
HETATM   23  O   UNL    20     -11.264  14.611  66.920  1.00  0.00    -0.325 OA 
BRANCH  23  24
HETATM   24  C   UNL    20     -10.309  14.082  65.970  1.00  0.00    -0.306 C  
HETATM   25  O   UNL    20     -10.484  12.680  65.880  1.00  0.00    -0.264 OA 
HETATM   26  C   UNL    20     -11.696  12.303  65.235  1.00  0.00    -0.361 C  
HETATM   27  H   UNL    20      -9.825  16.290  63.609  1.00  0.00     0.000 HD 
HETATM   28  C   UNL    20     -11.789  12.857  63.783  1.00  0.00    -0.504 C  
HETATM   29  O   UNL    20     -12.986  12.481  63.149  1.00  0.00    -0.569 OA 
HETATM   30  C   UNL    20     -11.609  14.368  63.787  1.00  0.00     0.350 C  
HETATM   31  O   UNL    20      -9.846  15.952  64.497  1.00  0.00     0.374 OA 
HETATM   32  H   UNL    20     -13.042  12.819  62.263  1.00  0.00     0.000 HD 
HETATM   33  O   UNL    20     -11.548  14.837  62.470  1.00  0.00     2.369 OA 
HETATM   34  C   UNL    20     -10.276  14.633  64.523  1.00  0.00     0.296 C  
HETATM   35  H   UNL    20     -11.436  15.781  62.472  1.00  0.00     0.000 HD 
BRANCH  26  36
HETATM   36  C   UNL    20     -11.718  10.756  65.151  1.00  0.00     1.534 C  
HETATM   37  O   UNL    20     -12.218  10.218  66.340  1.00  0.00     2.551 OA 
HETATM   38  H   UNL    20     -12.231   9.269  66.289  1.00  0.00     0.000 HD 
ENDBRANCH  26  36
ENDBRANCH  23  24
ENDBRANCH  16  23
BRANCH  16  39
HETATM   39  C   UNL    20     -10.629  16.888  67.336  1.00  0.00    -0.294 C  
HETATM   40  O   UNL    20     -11.512  17.086  66.265  1.00  0.00     0.698 OA 
HETATM   41  H   UNL    20     -11.373  17.937  65.867  1.00  0.00     0.000 HD 
ENDBRANCH  16  39
ENDBRANCH  12  14
TORSDOF 5
ENDMDL
MODEL      272
REMARK 921   NORMALIZED FREE ENERGY PREDICTED BY IDOCK:   17.25 KCAL/MOL
REMARK 922        TOTAL FREE ENERGY PREDICTED BY IDOCK:   20.70 KCAL/MOL
REMARK 923 INTER-LIGAND FREE ENERGY PREDICTED BY IDOCK:   -3.20 KCAL/MOL
REMARK 924 INTRA-LIGAND FREE ENERGY PREDICTED BY IDOCK:   23.90 KCAL/MOL
REMARK 927      BINDING AFFINITY PREDICTED BY RF-SCORE:    0.00 PKD
ROOT
HETATM    1  O   HOH     4      -6.625   6.760  73.805  1.00  0.00    -0.071 OA 
HETATM    2  H2  HOH     4      -7.050   6.242  73.131  1.00  0.00     0.000 HD 
HETATM    3 NA   UNL    13      -5.795   3.024  67.864  1.00  0.00    -0.017 Na 
HETATM    4  H1  HOH     4      -5.712   6.798  73.548  1.00  0.00     0.000 HD 
HETATM    5 NA   UNL    14      -8.421   4.509  72.850  1.00  0.00    -0.094 Na 
HETATM    6 FE   UNL    15      -7.626   2.339  70.711  1.00  0.00    -0.032 Fe 
HETATM    7 FE   UNL    16      -5.866   6.700  71.205  1.00  0.00    -0.026 Fe 
HETATM    8 FE   UNL    17      -9.685   5.494  71.134  1.00  0.00    -0.147 Fe 
HETATM    9 FE   UNL    18      -6.730   8.651  71.592  1.00  0.00    -0.045 Fe 
HETATM   10 FE   UNL    19     -10.242   7.882  68.113  1.00  0.00    -0.160 Fe 
HETATM   11  O   UNL    20      -7.902   7.231  69.557  1.00  0.00    -0.113 OA 
HETATM   12  C   UNL    20      -6.779   7.750  68.895  1.00  0.00    -0.050 C  
HETATM   13  H   UNL    20      -7.760   6.972  70.461  1.00  0.00     0.000 HD 
ENDROOT
BRANCH  12  14
HETATM   14  C   UNL    20      -7.009   8.173  67.425  1.00  0.00    -0.075 C  
HETATM   15  O   UNL    20      -8.334   7.913  67.029  1.00  0.00    -0.114 OA 
HETATM   16  C   UNL    20      -8.584   8.674  65.875  1.00  0.00    -0.157 C  
HETATM   17  C   UNL    20      -6.652   9.619  67.017  1.00  0.00    -0.067 C  
HETATM   18  H   UNL    20      -5.157  10.562  66.192  1.00  0.00     0.000 HD 
HETATM   19  C   UNL    20      -7.744   9.992  65.986  1.00  0.00    -0.110 C  
HETATM   20  H   UNL    20      -7.958  11.899  66.515  1.00  0.00     0.000 HD 
HETATM   21  O   UNL    20      -5.376   9.673  66.443  1.00  0.00    -0.042 OA 
HETATM   22  O   UNL    20      -8.467  11.100  66.448  1.00  0.00    -0.160 OA 
BRANCH  16  23
HETATM   23  O   UNL    20     -10.003   8.776  65.630  1.00  0.00    -0.029 OA 
BRANCH  23  24
HETATM   24  C   UNL    20     -10.797   9.839  66.207  1.00  0.00     0.263 C  
HETATM   25  O   UNL    20     -10.503   9.931  67.588  1.00  0.00    -0.210 OA 
HETATM   26  C   UNL    20      -9.198  10.436  67.854  1.00  0.00    -0.139 C  
HETATM   27  H   UNL    20     -11.180  12.205  63.984  1.00  0.00     0.000 HD 
HETATM   28  C   UNL    20      -8.983  11.859  67.259  1.00  0.00    -0.176 C  
HETATM   29  O   UNL    20      -7.695  12.354  67.525  1.00  0.00    -0.140 OA 
HETATM   30  C   UNL    20      -9.281  11.851  65.767  1.00  0.00    -0.103 C  
HETATM   31  O   UNL    20     -11.235  11.327  64.342  1.00  0.00    -0.271 OA 
HETATM   32  H   UNL    20      -7.564  13.222  67.162  1.00  0.00     0.000 HD 
HETATM   33  O   UNL    20      -9.227  13.159  65.271  1.00  0.00    -0.217 OA 
HETATM   34  C   UNL    20     -10.707  11.272  65.624  1.00  0.00    -0.217 C  
HETATM   35  H   UNL    20      -9.413  13.154  64.339  1.00  0.00     0.000 HD 
BRANCH  26  36
HETATM   36  C   UNL    20      -9.044  10.541  69.393  1.00  0.00    -0.104 C  
HETATM   37  O   UNL    20      -7.699  10.721  69.729  1.00  0.00    -0.353 OA 
HETATM   38  H   UNL    20      -7.605  10.786  70.673  1.00  0.00     0.000 HD 
ENDBRANCH  26  36
ENDBRANCH  23  24
ENDBRANCH  16  23
BRANCH  16  39
HETATM   39  C   UNL    20      -7.995   7.881  64.667  1.00  0.00    -0.143 C  
HETATM   40  O   UNL    20      -8.941   6.984  64.152  1.00  0.00     0.118 OA 
HETATM   41  H   UNL    20      -8.582   6.502  63.417  1.00  0.00     0.000 HD 
ENDBRANCH  16  39
ENDBRANCH  12  14
TORSDOF 5
ENDMDL
MODEL      273
REMARK 921   NORMALIZED FREE ENERGY PREDICTED BY IDOCK:   17.63 KCAL/MOL
REMARK 922        TOTAL FREE ENERGY PREDICTED BY IDOCK:   21.20 KCAL/MOL
REMARK 923 INTER-LIGAND FREE ENERGY PREDICTED BY IDOCK:   20.90 KCAL/MOL
REMARK 924 INTRA-LIGAND FREE ENERGY PREDICTED BY IDOCK:    0.30 KCAL/MOL
REMARK 927      BINDING AFFINITY PREDICTED BY RF-SCORE:    0.00 PKD
ROOT
HETATM    1  O   HOH     4     -11.882   8.781  69.824  1.00  0.00    -0.259 OA 
HETATM    2  H2  HOH     4     -11.397   9.283  70.468  1.00  0.00     0.000 HD 
HETATM    3 NA   UNL    13     -11.128  15.011  73.072  1.00  0.00    -0.416 Na 
HETATM    4  H1  HOH     4     -12.511   9.391  69.459  1.00  0.00     0.000 HD 
HETATM    5 NA   UNL    14     -10.705   9.220  72.586  1.00  0.00    -0.278 Na 
HETATM    6 FE   UNL    15     -11.118  11.800  74.343  1.00  0.00     9.543 Fe 
HETATM    7 FE   UNL    16     -11.361  11.433  69.634  1.00  0.00    -0.197 Fe 
HETATM    8 FE   UNL    17      -8.559  10.064  72.149  1.00  0.00     0.709 Fe 
HETATM    9 FE   UNL    18     -10.174  10.421  68.127  1.00  0.00    -0.143 Fe 
HETATM   10 FE   UNL    19      -5.948  12.158  70.164  1.00  0.00    -0.079 Fe 
HETATM   11  O   UNL    20      -8.754  11.960  69.900  1.00  0.00     1.126 OA 
HETATM   12  C   UNL    20      -9.215  12.947  69.017  1.00  0.00     0.498 C  
HETATM   13  H   UNL    20      -9.365  11.253  70.080  1.00  0.00     0.000 HD 
ENDROOT
BRANCH  12  14
HETATM   14  C   UNL    20      -8.223  14.096  68.725  1.00  0.00    -0.074 C  
HETATM   15  O   UNL    20      -8.820  15.348  68.961  1.00  0.00    -0.196 OA 
HETATM   16  C   UNL    20      -7.786  16.291  69.082  1.00  0.00    -0.229 C  
HETATM   17  C   UNL    20      -6.848  14.070  69.428  1.00  0.00    -0.083 C  
HETATM   18  H   UNL    20      -5.028  13.497  69.025  1.00  0.00     0.000 HD 
HETATM   19  C   UNL    20      -6.552  15.561  69.716  1.00  0.00    -0.166 C  
HETATM   20  H   UNL    20      -5.667  15.313  71.481  1.00  0.00     0.000 HD 
HETATM   21  O   UNL    20      -5.873  13.513  68.592  1.00  0.00    -0.078 OA 
HETATM   22  O   UNL    20      -6.414  15.755  71.097  1.00  0.00     0.812 OA 
BRANCH  16  23
HETATM   23  O   UNL    20      -8.269  17.501  69.703  1.00  0.00     0.480 OA 
BRANCH  23  24
HETATM   24  C   UNL    20      -7.971  18.805  69.153  1.00  0.00    -0.051 C  
HETATM   25  O   UNL    20      -9.115  19.285  68.470  1.00  0.00    -0.351 OA 
HETATM   26  C   UNL    20     -10.187  19.632  69.342  1.00  0.00    -0.031 C  
HETATM   27  H   UNL    20      -5.925  20.367  71.168  1.00  0.00     0.000 HD 
HETATM   28  C   UNL    20      -9.784  20.736  70.363  1.00  0.00     1.755 C  
HETATM   29  O   UNL    20     -10.845  21.076  71.220  1.00  0.00     2.661 OA 
HETATM   30  C   UNL    20      -8.553  20.300  71.145  1.00  0.00     2.052 C  
HETATM   31  O   UNL    20      -6.224  19.669  70.596  1.00  0.00    -0.212 OA 
HETATM   32  H   UNL    20     -10.599  21.750  71.843  1.00  0.00     0.000 HD 
HETATM   33  O   UNL    20      -8.113  21.354  71.953  1.00  0.00     2.350 OA 
HETATM   34  C   UNL    20      -7.485  19.943  70.085  1.00  0.00     0.521 C  
HETATM   35  H   UNL    20      -7.344  21.082  72.441  1.00  0.00     0.000 HD 
BRANCH  26  36
HETATM   36  C   UNL    20     -11.335  20.197  68.467  1.00  0.00     1.811 C  
HETATM   37  O   UNL    20     -11.315  19.597  67.204  1.00  0.00    -0.186 OA 
HETATM   38  H   UNL    20     -12.019  19.943  66.668  1.00  0.00     0.000 HD 
ENDBRANCH  26  36
ENDBRANCH  23  24
ENDBRANCH  16  23
BRANCH  16  39
HETATM   39  C   UNL    20      -7.360  16.690  67.635  1.00  0.00    -0.143 C  
HETATM   40  O   UNL    20      -8.022  15.899  66.685  1.00  0.00    -0.247 OA 
HETATM   41  H   UNL    20      -7.762  16.143  65.804  1.00  0.00     0.000 HD 
ENDBRANCH  16  39
ENDBRANCH  12  14
TORSDOF 5
ENDMDL
MODEL      274
REMARK 921   NORMALIZED FREE ENERGY PREDICTED BY IDOCK:   33.01 KCAL/MOL
REMARK 922        TOTAL FREE ENERGY PREDICTED BY IDOCK:   41.08 KCAL/MOL
REMARK 923 INTER-LIGAND FREE ENERGY PREDICTED BY IDOCK:   16.98 KCAL/MOL
REMARK 924 INTRA-LIGAND FREE ENERGY PREDICTED BY IDOCK:   24.10 KCAL/MOL
REMARK 927      BINDING AFFINITY PREDICTED BY RF-SCORE:    0.00 PKD
ROOT
HETATM    1  O   HOH     4     -13.481  12.923  63.901  1.00  0.00     0.253 OA 
HETATM    2  H2  HOH     4     -12.563  12.679  63.948  1.00  0.00     0.000 HD 
HETATM    3 NA   UNL    13      -7.975  11.511  68.102  1.00  0.00    -0.098 Na 
HETATM    4  H1  HOH     4     -13.749  13.043  64.805  1.00  0.00     0.000 HD 
HETATM    5 NA   UNL    14     -11.109  11.164  63.201  1.00  0.00    -0.350 Na 
HETATM    6 FE   UNL    15      -9.127   9.880  65.284  1.00  0.00    -0.144 Fe 
HETATM    7 FE   UNL    16     -11.755  13.777  65.808  1.00  0.00    -0.307 Fe 
HETATM    8 FE   UNL    17      -9.388  12.699  62.761  1.00  0.00    -0.100 Fe 
HETATM    9 FE   UNL    18     -12.225  15.473  64.541  1.00  0.00    -0.377 Fe 
HETATM   10 FE   UNL    19      -7.404  16.001  63.310  1.00  0.00    10.307 Fe 
HETATM   11  O   UNL    20      -9.557  14.868  64.749  1.00  0.00    -0.246 OA 
HETATM   12  C   UNL    20      -9.752  15.579  65.942  1.00  0.00    -0.357 C  
HETATM   13  H   UNL    20     -10.276  14.306  64.485  1.00  0.00     0.000 HD 
ENDROOT
BRANCH  12  14
HETATM   14  C   UNL    20      -8.582  16.493  66.373  1.00  0.00    -0.312 C  
HETATM   15  O   UNL    20      -8.847  17.836  66.047  1.00  0.00    -0.494 OA 
HETATM   16  C   UNL    20      -7.977  18.633  66.810  1.00  0.00    -0.255 C  
HETATM   17  C   UNL    20      -8.109  16.431  67.842  1.00  0.00    -0.158 C  
HETATM   18  H   UNL    20      -6.714  15.543  68.877  1.00  0.00     0.000 HD 
HETATM   19  C   UNL    20      -7.730  17.894  68.170  1.00  0.00    -0.256 C  
HETATM   20  H   UNL    20      -8.369  17.912  70.055  1.00  0.00     0.000 HD 
HETATM   21  O   UNL    20      -7.005  15.581  67.973  1.00  0.00    -0.113 OA 
HETATM   22  O   UNL    20      -8.519  18.359  69.231  1.00  0.00     0.021 OA 
BRANCH  16  23
HETATM   23  O   UNL    20      -8.433  20.002  66.839  1.00  0.00    -0.306 OA 
BRANCH  23  24
HETATM   24  C   UNL    20      -8.356  20.801  68.042  1.00  0.00     0.267 C  
HETATM   25  O   UNL    20      -9.429  20.447  68.896  1.00  0.00     0.174 OA 
HETATM   26  C   UNL    20      -9.292  19.147  69.462  1.00  0.00     0.208 C  
HETATM   27  H   UNL    20      -5.213  21.358  68.748  1.00  0.00     0.000 HD 
HETATM   28  C   UNL    20      -7.990  19.004  70.303  1.00  0.00     1.660 C  
HETATM   29  O   UNL    20      -7.860  17.721  70.862  1.00  0.00     4.432 OA 
HETATM   30  C   UNL    20      -6.779  19.370  69.457  1.00  0.00    -0.292 C  
HETATM   31  O   UNL    20      -6.005  21.370  68.222  1.00  0.00    -0.288 OA 
HETATM   32  H   UNL    20      -7.065  17.634  71.375  1.00  0.00     0.000 HD 
HETATM   33  O   UNL    20      -5.632  19.379  70.259  1.00  0.00    -0.220 OA 
HETATM   34  C   UNL    20      -7.065  20.782  68.899  1.00  0.00     0.488 C  
HETATM   35  H   UNL    20      -4.876  19.608  69.731  1.00  0.00     0.000 HD 
BRANCH  26  36
HETATM   36  C   UNL    20     -10.495  18.926  70.415  1.00  0.00     1.825 C  
HETATM   37  O   UNL    20     -10.057  18.899  71.742  1.00  0.00     2.427 OA 
HETATM   38  H   UNL    20     -10.794  18.764  72.326  1.00  0.00     0.000 HD 
ENDBRANCH  26  36
ENDBRANCH  23  24
ENDBRANCH  16  23
BRANCH  16  39
HETATM   39  C   UNL    20      -6.605  18.652  66.068  1.00  0.00    -0.241 C  
HETATM   40  O   UNL    20      -5.779  19.666  66.574  1.00  0.00    -0.169 OA 
HETATM   41  H   UNL    20      -4.944  19.677  66.122  1.00  0.00     0.000 HD 
ENDBRANCH  16  39
ENDBRANCH  12  14
TORSDOF 5
ENDMDL
MODEL      275
REMARK 921   NORMALIZED FREE ENERGY PREDICTED BY IDOCK:   37.41 KCAL/MOL
REMARK 922        TOTAL FREE ENERGY PREDICTED BY IDOCK:   46.76 KCAL/MOL
REMARK 923 INTER-LIGAND FREE ENERGY PREDICTED BY IDOCK:   18.88 KCAL/MOL
REMARK 924 INTRA-LIGAND FREE ENERGY PREDICTED BY IDOCK:   27.88 KCAL/MOL
REMARK 927      BINDING AFFINITY PREDICTED BY RF-SCORE:    0.00 PKD
ROOT
HETATM    1  O   HOH     4     -10.374  20.442  67.613  1.00  0.00    -0.321 OA 
HETATM    2  H2  HOH     4     -11.115  19.934  67.921  1.00  0.00     0.000 HD 
HETATM    3 NA   UNL    13     -12.939  16.281  72.717  1.00  0.00    -0.387 Na 
HETATM    4  H1  HOH     4      -9.695  20.307  68.264  1.00  0.00     0.000 HD 
HETATM    5 NA   UNL    14     -13.303  20.082  68.315  1.00  0.00     1.082 Na 
HETATM    6 FE   UNL    15     -14.387  18.928  71.037  1.00  0.00    13.946 Fe 
HETATM    7 FE   UNL    16     -10.181  18.138  69.026  1.00  0.00    -0.298 Fe 
HETATM    8 FE   UNL    17     -13.841  17.985  67.405  1.00  0.00     3.745 Fe 
HETATM    9 FE   UNL    18      -9.519  17.724  67.002  1.00  0.00    -0.237 Fe 
HETATM   10 FE   UNL    19     -13.111  14.288  66.437  1.00  0.00    -0.472 Fe 
HETATM   11  O   UNL    20     -11.583  16.158  67.905  1.00  0.00    -0.181 OA 
HETATM   12  C   UNL    20     -10.490  15.510  68.500  1.00  0.00    -0.238 C  
HETATM   13  H   UNL    20     -11.526  17.106  67.868  1.00  0.00     0.000 HD 
ENDROOT
BRANCH  12  14
HETATM   14  C   UNL    20     -10.582  13.968  68.561  1.00  0.00    -0.254 C  
HETATM   15  O   UNL    20     -10.950  13.437  67.311  1.00  0.00    -0.266 OA 
HETATM   16  C   UNL    20     -10.617  12.072  67.320  1.00  0.00    -0.222 C  
HETATM   17  C   UNL    20      -9.358  13.184  69.083  1.00  0.00     0.629 C  
HETATM   18  H   UNL    20      -8.756  12.393  70.761  1.00  0.00     0.000 HD 
HETATM   19  C   UNL    20      -9.343  11.902  68.217  1.00  0.00    -0.193 C  
HETATM   20  H   UNL    20      -7.368  11.727  68.047  1.00  0.00     0.000 HD 
HETATM   21  O   UNL    20      -9.508  12.875  70.440  1.00  0.00     4.087 OA 
HETATM   22  O   UNL    20      -8.140  11.830  67.504  1.00  0.00    -0.136 OA 
BRANCH  16  23
HETATM   23  O   UNL    20     -10.593  11.545  65.976  1.00  0.00    -0.247 OA 
BRANCH  23  24
HETATM   24  C   UNL    20      -9.422  10.883  65.444  1.00  0.00    -0.214 C  
HETATM   25  O   UNL    20      -8.305  11.740  65.591  1.00  0.00     0.228 OA 
HETATM   26  C   UNL    20      -7.893  11.902  66.945  1.00  0.00    -0.120 C  
HETATM   27  H   UNL    20      -9.681   7.669  65.984  1.00  0.00     0.000 HD 
HETATM   28  C   UNL    20      -7.504  10.549  67.608  1.00  0.00    -0.092 C  
HETATM   29  O   UNL    20      -7.096  10.713  68.944  1.00  0.00    -0.066 OA 
HETATM   30  C   UNL    20      -8.655   9.560  67.494  1.00  0.00    -0.126 C  
HETATM   31  O   UNL    20      -9.936   8.521  65.649  1.00  0.00     0.128 OA 
HETATM   32  H   UNL    20      -6.858   9.887  69.349  1.00  0.00     0.000 HD 
HETATM   33  O   UNL    20      -8.245   8.306  67.961  1.00  0.00    -0.125 OA 
HETATM   34  C   UNL    20      -9.006   9.494  65.990  1.00  0.00    -0.163 C  
HETATM   35  H   UNL    20      -8.964   7.689  67.890  1.00  0.00     0.000 HD 
BRANCH  26  36
HETATM   36  C   UNL    20      -6.633  12.805  66.943  1.00  0.00     0.493 C  
HETATM   37  O   UNL    20      -7.008  14.150  67.009  1.00  0.00    -0.377 OA 
HETATM   38  H   UNL    20      -6.235  14.704  67.008  1.00  0.00     0.000 HD 
ENDBRANCH  26  36
ENDBRANCH  23  24
ENDBRANCH  16  23
BRANCH  16  39
HETATM   39  C   UNL    20     -11.772  11.324  68.055  1.00  0.00    -0.233 C  
HETATM   40  O   UNL    20     -11.367  10.038  68.439  1.00  0.00    -0.492 OA 
HETATM   41  H   UNL    20     -12.070   9.583  68.887  1.00  0.00     0.000 HD 
ENDBRANCH  16  39
ENDBRANCH  12  14
TORSDOF 5
ENDMDL
MODEL      276
REMARK 921   NORMALIZED FREE ENERGY PREDICTED BY IDOCK:   37.49 KCAL/MOL
REMARK 922        TOTAL FREE ENERGY PREDICTED BY IDOCK:   46.86 KCAL/MOL
REMARK 923 INTER-LIGAND FREE ENERGY PREDICTED BY IDOCK:   31.31 KCAL/MOL
REMARK 924 INTRA-LIGAND FREE ENERGY PREDICTED BY IDOCK:   15.55 KCAL/MOL
REMARK 927      BINDING AFFINITY PREDICTED BY RF-SCORE:    0.00 PKD
ROOT
HETATM    1  O   HOH     4      -8.990  17.629  68.413  1.00  0.00    -0.268 OA 
HETATM    2  H2  HOH     4      -9.345  17.129  69.140  1.00  0.00     0.000 HD 
HETATM    3 NA   UNL    13      -7.706  12.817  73.427  1.00  0.00     5.314 Na 
HETATM    4  H1  HOH     4      -8.092  17.330  68.324  1.00  0.00     0.000 HD 
HETATM    5 NA   UNL    14     -10.468  17.364  71.050  1.00  0.00     0.284 Na 
HETATM    6 FE   UNL    15      -9.400  15.822  73.579  1.00  0.00     4.924 Fe 
HETATM    7 FE   UNL    16      -8.252  15.100  69.049  1.00  0.00    -0.120 Fe 
HETATM    8 FE   UNL    17     -11.870  15.510  70.719  1.00  0.00    -0.238 Fe 
HETATM    9 FE   UNL    18      -9.372  15.010  67.195  1.00  0.00    -0.184 Fe 
HETATM   10 FE   UNL    19     -12.776  12.005  69.295  1.00  0.00    -0.191 Fe 
HETATM   11  O   UNL    20     -10.356  13.463  69.236  1.00  0.00    -0.432 OA 
HETATM   12  C   UNL    20      -9.321  12.640  68.766  1.00  0.00     0.142 C  
HETATM   13  H   UNL    20     -10.172  14.395  69.230  1.00  0.00     0.000 HD 
ENDROOT
BRANCH  12  14
HETATM   14  C   UNL    20      -9.620  11.123  68.775  1.00  0.00    -0.172 C  
HETATM   15  O   UNL    20     -11.005  10.883  68.736  1.00  0.00    -0.202 OA 
HETATM   16  C   UNL    20     -11.191   9.550  68.335  1.00  0.00     0.125 C  
HETATM   17  C   UNL    20      -8.942  10.239  67.704  1.00  0.00    -0.134 C  
HETATM   18  H   UNL    20      -7.370   9.094  67.559  1.00  0.00     0.000 HD 
HETATM   19  C   UNL    20     -10.018   9.181  67.363  1.00  0.00    -0.206 C  
HETATM   20  H   UNL    20      -9.636   9.043  65.415  1.00  0.00     0.000 HD 
HETATM   21  O   UNL    20      -7.786   9.638  68.217  1.00  0.00    -0.085 OA 
HETATM   22  O   UNL    20     -10.346   9.267  66.004  1.00  0.00    -0.205 OA 
BRANCH  16  23
HETATM   23  O   UNL    20     -12.548   9.334  67.895  1.00  0.00     4.914 OA 
BRANCH  23  24
HETATM   24  C   UNL    20     -13.674   9.546  68.779  1.00  0.00     8.675 C  
HETATM   25  O   UNL    20     -14.035   8.309  69.365  1.00  0.00     5.352 OA 
HETATM   26  C   UNL    20     -13.078   7.832  70.307  1.00  0.00     1.300 C  
HETATM   27  H   UNL    20     -13.418  12.511  70.131  1.00  0.00     0.000 HD 
HETATM   28  C   UNL    20     -12.856   8.831  71.480  1.00  0.00    -0.325 C  
HETATM   29  O   UNL    20     -11.913   8.356  72.408  1.00  0.00    -0.372 OA 
HETATM   30  C   UNL    20     -12.464  10.197  70.935  1.00  0.00    -0.360 C  
HETATM   31  O   UNL    20     -13.482  11.875  69.428  1.00  0.00     1.973 OA 
HETATM   32  H   UNL    20     -11.778   8.966  73.123  1.00  0.00     0.000 HD 
HETATM   33  O   UNL    20     -12.409  11.123  71.984  1.00  0.00     0.078 OA 
HETATM   34  C   UNL    20     -13.569  10.582  69.925  1.00  0.00     1.387 C  
HETATM   35  H   UNL    20     -12.164  11.976  71.644  1.00  0.00     0.000 HD 
BRANCH  26  36
HETATM   36  C   UNL    20     -13.634   6.516  70.908  1.00  0.00     1.187 C  
HETATM   37  O   UNL    20     -13.166   6.351  72.215  1.00  0.00    -0.516 OA 
HETATM   38  H   UNL    20     -13.506   5.544  72.584  1.00  0.00     0.000 HD 
ENDBRANCH  26  36
ENDBRANCH  23  24
ENDBRANCH  16  23
BRANCH  16  39
HETATM   39  C   UNL    20     -11.003   8.661  69.603  1.00  0.00    -0.091 C  
HETATM   40  O   UNL    20     -10.551   9.427  70.687  1.00  0.00    -0.243 OA 
HETATM   41  H   UNL    20     -10.437   8.886  71.458  1.00  0.00     0.000 HD 
ENDBRANCH  16  39
ENDBRANCH  12  14
TORSDOF 5
ENDMDL
MODEL      277
REMARK 921   NORMALIZED FREE ENERGY PREDICTED BY IDOCK:   60.35 KCAL/MOL
REMARK 922        TOTAL FREE ENERGY PREDICTED BY IDOCK:   76.41 KCAL/MOL
REMARK 923 INTER-LIGAND FREE ENERGY PREDICTED BY IDOCK:   55.80 KCAL/MOL
REMARK 924 INTRA-LIGAND FREE ENERGY PREDICTED BY IDOCK:   20.60 KCAL/MOL
REMARK 927      BINDING AFFINITY PREDICTED BY RF-SCORE:    0.00 PKD
ROOT
HETATM    1  O   HOH     4     -13.491  12.931  63.939  1.00  0.00     0.253 OA 
HETATM    2  H2  HOH     4     -12.606  12.665  64.158  1.00  0.00     0.000 HD 
HETATM    3 NA   UNL    13      -9.101  10.710  69.012  1.00  0.00    -0.127 Na 
HETATM    4  H1  HOH     4     -13.968  12.900  64.760  1.00  0.00     0.000 HD 
HETATM    5 NA   UNL    14     -10.984  11.274  63.526  1.00  0.00    -0.305 Na 
HETATM    6 FE   UNL    15      -9.521   9.612  65.765  1.00  0.00    -0.145 Fe 
HETATM    7 FE   UNL    16     -12.283  13.410  66.316  1.00  0.00    -0.325 Fe 
HETATM    8 FE   UNL    17      -9.241  12.827  63.775  1.00  0.00    -0.524 Fe 
HETATM    9 FE   UNL    18     -12.478  15.308  65.285  1.00  0.00    -0.238 Fe 
HETATM   10 FE   UNL    19      -7.516  15.946  65.336  1.00  0.00     0.376 Fe 
HETATM   11  O   UNL    20      -9.922  14.624  66.010  1.00  0.00    -0.284 OA 
HETATM   12  C   UNL    20     -10.409  15.123  67.227  1.00  0.00    -0.261 C  
HETATM   13  H   UNL    20     -10.546  14.131  65.491  1.00  0.00     0.000 HD 
ENDROOT
BRANCH  12  14
HETATM   14  C   UNL    20      -9.393  15.926  68.072  1.00  0.00    -0.201 C  
HETATM   15  O   UNL    20      -9.602  17.310  67.929  1.00  0.00    -0.258 OA 
HETATM   16  C   UNL    20      -8.955  17.947  69.000  1.00  0.00    -0.004 C  
HETATM   17  C   UNL    20      -9.280  15.604  69.579  1.00  0.00    -0.259 C  
HETATM   18  H   UNL    20      -8.150  14.524  70.746  1.00  0.00     0.000 HD 
HETATM   19  C   UNL    20      -9.020  16.981  70.233  1.00  0.00     2.619 C  
HETATM   20  H   UNL    20     -10.087  16.688  71.887  1.00  0.00     0.000 HD 
HETATM   21  O   UNL    20      -8.219  14.722  69.820  1.00  0.00     0.022 OA 
HETATM   22  O   UNL    20     -10.047  17.272  71.140  1.00  0.00     2.619 OA 
BRANCH  16  23
HETATM   23  O   UNL    20      -9.434  19.300  69.154  1.00  0.00    -0.343 OA 
BRANCH  23  24
HETATM   24  C   UNL    20      -9.189  20.057  70.362  1.00  0.00     1.339 C  
HETATM   25  O   UNL    20     -10.168  19.710  71.325  1.00  0.00     1.534 OA 
HETATM   26  C   UNL    20     -10.013  18.389  71.835  1.00  0.00     5.781 C  
HETATM   27  H   UNL    20      -5.968  20.490  70.711  1.00  0.00     0.000 HD 
HETATM   28  C   UNL    20      -8.628  18.178  72.514  1.00  0.00    15.232 C  
HETATM   29  O   UNL    20      -8.480  16.874  73.017  1.00  0.00    15.947 OA 
HETATM   30  C   UNL    20      -7.511  18.531  71.542  1.00  0.00     5.875 C  
HETATM   31  O   UNL    20      -6.814  20.544  70.282  1.00  0.00    -0.158 OA 
HETATM   32  H   UNL    20      -7.635  16.745  73.432  1.00  0.00     0.000 HD 
HETATM   33  O   UNL    20      -6.279  18.478  72.205  1.00  0.00     1.242 OA 
HETATM   34  C   UNL    20      -7.810  19.969  71.061  1.00  0.00     1.663 C  
HETATM   35  H   UNL    20      -5.581  18.699  71.599  1.00  0.00     0.000 HD 
BRANCH  26  36
HETATM   36  C   UNL    20     -11.104  18.177  72.916  1.00  0.00     2.613 C  
HETATM   37  O   UNL    20     -10.517  18.099  74.182  1.00  0.00     2.675 OA 
HETATM   38  H   UNL    20     -11.186  17.969  74.844  1.00  0.00     0.000 HD 
ENDBRANCH  26  36
ENDBRANCH  23  24
ENDBRANCH  16  23
BRANCH  16  39
HETATM   39  C   UNL    20      -7.447  18.066  68.618  1.00  0.00    -0.286 C  
HETATM   40  O   UNL    20      -6.786  18.960  69.472  1.00  0.00    -0.268 OA 
HETATM   41  H   UNL    20      -5.868  19.032  69.239  1.00  0.00     0.000 HD 
ENDBRANCH  16  39
ENDBRANCH  12  14
TORSDOF 5
ENDMDL
MODEL      278
REMARK 921   NORMALIZED FREE ENERGY PREDICTED BY IDOCK:   72.24 KCAL/MOL
REMARK 922        TOTAL FREE ENERGY PREDICTED BY IDOCK:   91.77 KCAL/MOL
REMARK 923 INTER-LIGAND FREE ENERGY PREDICTED BY IDOCK:   75.43 KCAL/MOL
REMARK 924 INTRA-LIGAND FREE ENERGY PREDICTED BY IDOCK:   16.34 KCAL/MOL
REMARK 927      BINDING AFFINITY PREDICTED BY RF-SCORE:    0.00 PKD
ROOT
HETATM    1  O   HOH     4     -10.371  20.448  67.602  1.00  0.00    -0.321 OA 
HETATM    2  H2  HOH     4     -11.099  19.908  67.889  1.00  0.00     0.000 HD 
HETATM    3 NA   UNL    13     -12.800  15.968  72.498  1.00  0.00    -0.342 Na 
HETATM    4  H1  HOH     4      -9.684  20.293  68.240  1.00  0.00     0.000 HD 
HETATM    5 NA   UNL    14     -13.286  19.989  68.309  1.00  0.00     1.082 Na 
HETATM    6 FE   UNL    15     -14.319  18.669  70.975  1.00  0.00    13.307 Fe 
HETATM    7 FE   UNL    16     -10.117  18.077  68.889  1.00  0.00    -0.272 Fe 
HETATM    8 FE   UNL    17     -13.789  17.932  67.293  1.00  0.00     4.220 Fe 
HETATM    9 FE   UNL    18      -9.466  17.786  66.841  1.00  0.00    -0.232 Fe 
HETATM   10 FE   UNL    19     -12.990  14.308  66.122  1.00  0.00    -0.431 Fe 
HETATM   11  O   UNL    20     -11.488  16.130  67.675  1.00  0.00    -0.143 OA 
HETATM   12  C   UNL    20     -10.377  15.475  68.226  1.00  0.00    -0.235 C  
HETATM   13  H   UNL    20     -11.452  17.080  67.689  1.00  0.00     0.000 HD 
ENDROOT
BRANCH  12  14
HETATM   14  C   UNL    20     -10.436  13.930  68.205  1.00  0.00    -0.245 C  
HETATM   15  O   UNL    20     -10.834  13.459  66.941  1.00  0.00    -0.274 OA 
HETATM   16  C   UNL    20     -10.474  12.104  66.864  1.00  0.00    -0.225 C  
HETATM   17  C   UNL    20      -9.180  13.145  68.644  1.00  0.00     0.029 C  
HETATM   18  H   UNL    20      -8.507  12.278  70.257  1.00  0.00     0.000 HD 
HETATM   19  C   UNL    20      -9.168  11.913  67.710  1.00  0.00    -0.184 C  
HETATM   20  H   UNL    20      -7.196  11.790  67.468  1.00  0.00     0.000 HD 
HETATM   21  O   UNL    20      -9.279  12.760  69.987  1.00  0.00     2.678 OA 
HETATM   22  O   UNL    20      -7.987  11.906  66.955  1.00  0.00    -0.158 OA 
BRANCH  16  23
HETATM   23  O   UNL    20     -10.483  11.650  65.493  1.00  0.00    -0.255 OA 
BRANCH  23  24
HETATM   24  C   UNL    20     -11.717  11.496  64.755  1.00  0.00     0.057 C  
HETATM   25  O   UNL    20     -12.579  10.637  65.478  1.00  0.00     3.719 OA 
HETATM   26  C   UNL    20     -13.087  11.223  66.673  1.00  0.00     7.428 C  
HETATM   27  H   UNL    20     -12.375  14.291  63.191  1.00  0.00     0.000 HD 
HETATM   28  C   UNL    20     -13.891  12.527  66.394  1.00  0.00     8.042 C  
HETATM   29  O   UNL    20     -14.392  13.101  67.575  1.00  0.00    10.222 OA 
HETATM   30  C   UNL    20     -13.034  13.513  65.614  1.00  0.00    -0.168 C  
HETATM   31  O   UNL    20     -11.869  13.523  63.431  1.00  0.00    -0.369 OA 
HETATM   32  H   UNL    20     -14.883  13.896  67.405  1.00  0.00     0.000 HD 
HETATM   33  O   UNL    20     -13.811  14.617  65.243  1.00  0.00     0.146 OA 
HETATM   34  C   UNL    20     -12.543  12.748  64.364  1.00  0.00    -0.352 C  
HETATM   35  H   UNL    20     -13.276  15.233  64.755  1.00  0.00     0.000 HD 
BRANCH  26  36
HETATM   36  C   UNL    20     -14.056  10.200  67.318  1.00  0.00    21.147 C  
HETATM   37  O   UNL    20     -13.351   9.338  68.162  1.00  0.00     8.167 OA 
HETATM   38  H   UNL    20     -13.945   8.711  68.558  1.00  0.00     0.000 HD 
ENDBRANCH  26  36
ENDBRANCH  23  24
ENDBRANCH  16  23
BRANCH  16  39
HETATM   39  C   UNL    20     -11.589  11.292  67.593  1.00  0.00    -0.210 C  
HETATM   40  O   UNL    20     -11.145   9.996  67.894  1.00  0.00    -0.403 OA 
HETATM   41  H   UNL    20     -11.824   9.503  68.338  1.00  0.00     0.000 HD 
ENDBRANCH  16  39
ENDBRANCH  12  14
TORSDOF 5
ENDMDL
