MODEL        1
REMARK 921   NORMALIZED FREE ENERGY PREDICTED BY IDOCK:   -6.42 KCAL/MOL
REMARK 922        TOTAL FREE ENERGY PREDICTED BY IDOCK:  -13.52 KCAL/MOL
REMARK 923 INTER-LIGAND FREE ENERGY PREDICTED BY IDOCK:  -10.54 KCAL/MOL
REMARK 924 INTRA-LIGAND FREE ENERGY PREDICTED BY IDOCK:   -2.98 KCAL/MOL
REMARK 927      BINDING AFFINITY PREDICTED BY RF-SCORE:    0.00 PKD
ROOT
HETATM    1  C   UNL     1      -9.190  10.942  64.033  1.00  0.00    -0.197 C  
HETATM    2  C   UNL     1      -9.982  11.034  62.722  1.00  0.00    -0.193 C  
ENDROOT
BRANCH   1   3
HETATM    3  O   UNL     1      -9.137   9.589  64.522  1.00  0.00    -0.230 OA 
BRANCH   3   4
HETATM    4  C   UNL     1      -7.940   9.362  65.181  1.00  0.00    -0.116 C  
HETATM    5  N   UNL     1      -7.999   8.557  66.319  1.00  0.00    -0.100 N  
HETATM    6  C   UNL     1      -6.699   8.161  66.878  1.00  0.00    -0.065 C  
HETATM    7  O   UNL     1      -6.899   9.889  64.796  1.00  0.00    -0.116 OA 
BRANCH   5   8
HETATM    8  C   UNL     1      -8.992   7.552  66.451  1.00  0.00    -0.167 A  
HETATM    9  C   UNL     1      -9.399   5.262  66.448  1.00  0.00    -0.148 A  
HETATM   10  N   UNL     1      -8.578   6.293  66.160  1.00  0.00    -0.137 NA 
HETATM   11  C   UNL     1     -10.240   7.813  67.027  1.00  0.00    -0.375 A  
HETATM   12  C   UNL     1     -11.079   6.709  67.271  1.00  0.00    -0.418 A  
HETATM   13  C   UNL     1     -10.655   5.417  66.991  1.00  0.00    -0.298 A  
BRANCH  11  14
HETATM   14  C   UNL     1     -10.774   9.167  67.411  1.00  0.00    -0.177 C  
BRANCH  14  15
HETATM   15  O   UNL     1     -10.442   9.589  68.736  1.00  0.00    -0.209 OA 
BRANCH  15  16
HETATM   16  C   UNL     1     -11.449  10.247  69.387  1.00  0.00    -0.186 C  
HETATM   17  O   UNL     1     -12.276  10.970  68.849  1.00  0.00    -0.519 OA 
BRANCH  16  18
HETATM   18  C   UNL     1     -11.374   9.879  70.870  1.00  0.00    -0.370 C  
BRANCH  18  19
HETATM   19  N   UNL     1     -12.556  10.348  71.602  1.00  0.00    -0.419 NA 
HETATM   20  H   UNL     1     -12.952  11.185  71.175  1.00  0.00     0.000 HD 
HETATM   21  C   UNL     1     -13.552   9.296  71.735  1.00  0.00    -0.398 C  
ENDBRANCH  18  19
ENDBRANCH  16  18
ENDBRANCH  15  16
ENDBRANCH  14  15
ENDBRANCH  11  14
ENDBRANCH   5   8
ENDBRANCH   3   4
ENDBRANCH   1   3
BRANCH   1  22
HETATM   22  N   UNL     1      -9.798  11.834  65.032  1.00  0.00    -0.246 NA 
HETATM   23  N   UNL     1     -11.405  12.703  66.308  1.00  0.00    -0.311 NA 
HETATM   24  C   UNL     1      -9.201  12.532  66.005  1.00  0.00    -0.013 A  
HETATM   25  C   UNL     1     -11.148  12.006  65.260  1.00  0.00    -0.317 A  
HETATM   26  N   UNL     1     -10.179  13.011  66.808  1.00  0.00    -0.243 NA 
BRANCH  26  27
HETATM   27  C   UNL     1      -9.992  13.647  68.121  1.00  0.00    -0.246 C  
HETATM   28  S   UNL     1      -5.888  12.571  67.210  1.00  0.00    -0.023 SA 
HETATM   29  C   UNL     1      -9.470  16.269  67.931  1.00  0.00    -0.218 A  
HETATM   30  C   UNL     1      -6.583  15.594  68.894  1.00  0.00    -0.116 C  
HETATM   31  C   UNL     1      -7.008  13.226  68.349  1.00  0.00    -0.105 A  
HETATM   32  O   UNL     1      -9.175  14.919  69.905  1.00  0.00    -0.444 OA 
HETATM   33  C   UNL     1      -9.954  17.268  68.811  1.00  0.00    -0.325 A  
HETATM   34  C   UNL     1      -9.199  16.705  66.618  1.00  0.00    -0.253 A  
HETATM   35  H   UNL     1      -8.601  15.650  70.101  1.00  0.00     0.000 HD 
HETATM   36  C   UNL     1      -9.337  18.039  66.215  1.00  0.00    -0.220 A  
HETATM   37  F   UNL     1      -8.701  15.862  65.707  1.00  0.00    -0.338 F  
HETATM   38  C   UNL     1      -5.631  11.242  68.247  1.00  0.00    -0.045 A  
HETATM   39  C   UNL     1      -9.041  14.859  68.446  1.00  0.00    -0.185 C  
HETATM   40  N   UNL     1      -7.273  12.453  69.382  1.00  0.00     0.136 NA 
HETATM   41  C   UNL     1     -10.061  18.607  68.414  1.00  0.00    -0.383 A  
HETATM   42  F   UNL     1     -10.426  19.530  69.313  1.00  0.00    -0.345 F  
HETATM   43  C   UNL     1      -9.748  19.004  67.124  1.00  0.00    -0.372 A  
HETATM   44  C   UNL     1      -6.490  11.304  69.328  1.00  0.00    -0.089 A  
HETATM   45  C   UNL     1      -7.516  14.630  68.122  1.00  0.00    -0.125 C  
BRANCH  44  46
HETATM   46  C   UNL     1      -6.598  10.238  70.319  1.00  0.00    -0.142 A  
HETATM   47  C   UNL     1      -7.798   9.520  70.462  1.00  0.00    -0.182 A  
HETATM   48  C   UNL     1      -7.932   8.538  71.446  1.00  0.00    -0.168 A  
HETATM   49  C   UNL     1      -6.870   8.252  72.305  1.00  0.00    -0.096 A  
HETATM   50  C   UNL     1      -5.659   8.945  72.154  1.00  0.00    -0.062 A  
HETATM   51  C   UNL     1      -7.023   7.263  73.335  1.00  0.00    -0.068 C  
HETATM   52  C   UNL     1      -5.528   9.935  71.169  1.00  0.00    -0.073 A  
HETATM   53  N   UNL     1      -7.169   6.483  74.180  1.00  0.00    -0.088 NA 
ENDBRANCH  44  46
ENDBRANCH  26  27
ENDBRANCH   1  22
TORSDOF 11
ENDMDL
MODEL        2
REMARK 921   NORMALIZED FREE ENERGY PREDICTED BY IDOCK:   -5.67 KCAL/MOL
REMARK 922        TOTAL FREE ENERGY PREDICTED BY IDOCK:  -12.30 KCAL/MOL
REMARK 923 INTER-LIGAND FREE ENERGY PREDICTED BY IDOCK:  -10.49 KCAL/MOL
REMARK 924 INTRA-LIGAND FREE ENERGY PREDICTED BY IDOCK:   -1.81 KCAL/MOL
REMARK 927      BINDING AFFINITY PREDICTED BY RF-SCORE:    0.00 PKD
ROOT
HETATM    1  C   UNL     1     -11.275  11.929  63.351  1.00  0.00    -0.377 C  
HETATM    2  C   UNL     1     -12.776  11.738  63.093  1.00  0.00    -0.179 C  
ENDROOT
BRANCH   1   3
HETATM    3  O   UNL     1     -10.669  10.718  63.841  1.00  0.00    -0.259 OA 
BRANCH   3   4
HETATM    4  C   UNL     1      -9.305  10.731  63.596  1.00  0.00    -0.273 C  
HETATM    5  N   UNL     1      -8.492  10.160  64.575  1.00  0.00    -0.169 N  
HETATM    6  C   UNL     1      -7.079   9.997  64.203  1.00  0.00    -0.126 C  
HETATM    7  O   UNL     1      -8.852  11.264  62.585  1.00  0.00    -0.287 OA 
BRANCH   5   8
HETATM    8  C   UNL     1      -8.973   9.116  65.406  1.00  0.00    -0.207 A  
HETATM    9  C   UNL     1     -10.628   8.490  66.916  1.00  0.00    -0.209 A  
HETATM   10  N   UNL     1      -9.985   9.464  66.240  1.00  0.00    -0.280 NA 
HETATM   11  C   UNL     1      -8.570   7.787  65.236  1.00  0.00    -0.065 A  
HETATM   12  C   UNL     1      -9.242   6.809  65.995  1.00  0.00    -0.069 A  
HETATM   13  C   UNL     1     -10.290   7.158  66.836  1.00  0.00    -0.349 A  
BRANCH  11  14
HETATM   14  C   UNL     1      -7.481   7.301  64.317  1.00  0.00    -0.101 C  
BRANCH  14  15
HETATM   15  O   UNL     1      -7.942   6.586  63.167  1.00  0.00    -0.114 OA 
BRANCH  15  16
HETATM   16  C   UNL     1      -7.550   5.277  63.123  1.00  0.00    -0.068 C  
HETATM   17  O   UNL     1      -6.440   4.889  62.787  1.00  0.00    -0.025 OA 
BRANCH  16  18
HETATM   18  C   UNL     1      -8.718   4.416  63.607  1.00  0.00    -0.129 C  
BRANCH  18  19
HETATM   19  N   UNL     1      -8.252   3.251  64.366  1.00  0.00    -0.086 NA 
HETATM   20  H   UNL     1      -7.752   3.531  65.210  1.00  0.00     0.000 HD 
HETATM   21  C   UNL     1      -9.346   2.342  64.673  1.00  0.00    -0.133 C  
ENDBRANCH  18  19
ENDBRANCH  16  18
ENDBRANCH  15  16
ENDBRANCH  14  15
ENDBRANCH  11  14
ENDBRANCH   5   8
ENDBRANCH   3   4
ENDBRANCH   1   3
BRANCH   1  22
HETATM   22  N   UNL     1     -11.084  13.032  64.304  1.00  0.00    -0.365 NA 
HETATM   23  N   UNL     1     -11.255  15.097  65.123  1.00  0.00    -0.383 NA 
HETATM   24  C   UNL     1     -10.787  12.971  65.608  1.00  0.00    -0.273 A  
HETATM   25  C   UNL     1     -11.331  14.369  64.069  1.00  0.00     0.166 A  
HETATM   26  N   UNL     1     -10.945  14.217  66.111  1.00  0.00    -0.305 NA 
BRANCH  26  27
HETATM   27  C   UNL     1     -10.944  14.585  67.535  1.00  0.00    -0.293 C  
HETATM   28  S   UNL     1      -7.139  12.514  67.285  1.00  0.00    -0.063 SA 
HETATM   29  C   UNL     1      -9.761  16.948  67.986  1.00  0.00    -0.256 A  
HETATM   30  C   UNL     1      -7.467  15.347  69.365  1.00  0.00    -0.218 C  
HETATM   31  C   UNL     1      -8.312  13.299  68.279  1.00  0.00    -0.154 A  
HETATM   32  O   UNL     1     -10.315  15.311  69.666  1.00  0.00    -0.245 OA 
HETATM   33  C   UNL     1     -10.190  17.912  68.931  1.00  0.00    -0.331 A  
HETATM   34  C   UNL     1      -9.069  17.464  66.871  1.00  0.00    -0.245 A  
HETATM   35  H   UNL     1      -9.647  15.813  70.118  1.00  0.00     0.000 HD 
HETATM   36  C   UNL     1      -8.768  18.824  66.725  1.00  0.00    -0.303 A  
HETATM   37  F   UNL     1      -8.582  16.648  65.931  1.00  0.00    -0.336 F  
HETATM   38  C   UNL     1      -7.487  11.037  68.065  1.00  0.00    -0.090 A  
HETATM   39  C   UNL     1      -9.836  15.417  68.284  1.00  0.00    -0.213 C  
HETATM   40  N   UNL     1      -9.010  12.501  69.060  1.00  0.00     0.361 NA 
HETATM   41  C   UNL     1      -9.859  19.267  68.797  1.00  0.00    -0.447 A  
HETATM   42  F   UNL     1     -10.199  20.123  69.770  1.00  0.00    -0.425 F  
HETATM   43  C   UNL     1      -9.144  19.732  67.706  1.00  0.00    -0.412 A  
HETATM   44  C   UNL     1      -8.547  11.194  68.937  1.00  0.00    -0.087 A  
HETATM   45  C   UNL     1      -8.384  14.807  68.239  1.00  0.00    -0.148 C  
BRANCH  44  46
HETATM   46  C   UNL     1      -9.160  10.077  69.650  1.00  0.00    -0.230 A  
HETATM   47  C   UNL     1     -10.463  10.193  70.164  1.00  0.00    -0.311 A  
HETATM   48  C   UNL     1     -11.038   9.152  70.898  1.00  0.00    -0.356 A  
HETATM   49  C   UNL     1     -10.324   7.977  71.132  1.00  0.00    -0.229 A  
HETATM   50  C   UNL     1      -9.032   7.842  70.602  1.00  0.00    -0.148 A  
HETATM   51  C   UNL     1     -10.908   6.923  71.914  1.00  0.00    -0.229 C  
HETATM   52  C   UNL     1      -8.453   8.889  69.870  1.00  0.00    -0.135 A  
HETATM   53  N   UNL     1     -11.379   6.092  72.570  1.00  0.00    -0.283 NA 
ENDBRANCH  44  46
ENDBRANCH  26  27
ENDBRANCH   1  22
TORSDOF 11
ENDMDL
MODEL        3
REMARK 921   NORMALIZED FREE ENERGY PREDICTED BY IDOCK:   -5.67 KCAL/MOL
REMARK 922        TOTAL FREE ENERGY PREDICTED BY IDOCK:  -12.30 KCAL/MOL
REMARK 923 INTER-LIGAND FREE ENERGY PREDICTED BY IDOCK:   -9.19 KCAL/MOL
REMARK 924 INTRA-LIGAND FREE ENERGY PREDICTED BY IDOCK:   -3.11 KCAL/MOL
REMARK 927      BINDING AFFINITY PREDICTED BY RF-SCORE:    0.00 PKD
ROOT
HETATM    1  C   UNL     1     -10.849   8.129  71.082  1.00  0.00    -0.232 C  
HETATM    2  C   UNL     1      -9.699   8.379  72.067  1.00  0.00    -0.353 C  
ENDROOT
BRANCH   1   3
HETATM    3  O   UNL     1     -10.799   6.795  70.542  1.00  0.00    -0.234 OA 
BRANCH   3   4
HETATM    4  C   UNL     1     -11.027   5.864  71.542  1.00  0.00    -0.262 C  
HETATM    5  N   UNL     1     -10.185   4.751  71.560  1.00  0.00    -0.197 N  
HETATM    6  C   UNL     1     -10.308   3.888  72.743  1.00  0.00    -0.164 C  
HETATM    7  O   UNL     1     -11.956   6.004  72.334  1.00  0.00    -0.302 OA 
BRANCH   5   8
HETATM    8  C   UNL     1      -8.859   4.832  71.064  1.00  0.00    -0.117 A  
HETATM    9  C   UNL     1      -6.638   5.247  71.619  1.00  0.00    -0.040 A  
HETATM   10  N   UNL     1      -7.946   5.322  71.940  1.00  0.00    -0.111 NA 
HETATM   11  C   UNL     1      -8.488   4.265  69.840  1.00  0.00    -0.085 A  
HETATM   12  C   UNL     1      -7.115   4.248  69.529  1.00  0.00    -0.050 A  
HETATM   13  C   UNL     1      -6.175   4.732  70.429  1.00  0.00    -0.022 A  
BRANCH  11  14
HETATM   14  C   UNL     1      -9.421   3.672  68.818  1.00  0.00    -0.144 C  
BRANCH  14  15
HETATM   15  O   UNL     1      -9.154   4.057  67.467  1.00  0.00    -0.124 OA 
BRANCH  15  16
HETATM   16  C   UNL     1     -10.088   4.896  66.925  1.00  0.00    -0.222 C  
HETATM   17  O   UNL     1     -10.818   5.639  67.566  1.00  0.00    -0.233 OA 
BRANCH  16  18
HETATM   18  C   UNL     1     -10.015   4.765  65.403  1.00  0.00    -0.093 C  
BRANCH  18  19
HETATM   19  N   UNL     1     -11.163   4.023  64.869  1.00  0.00    -0.839 NA 
HETATM   20  H   UNL     1     -12.010   4.592  64.874  1.00  0.00     0.000 HD 
HETATM   21  C   UNL     1     -10.885   3.493  63.543  1.00  0.00    -0.198 C  
ENDBRANCH  18  19
ENDBRANCH  16  18
ENDBRANCH  15  16
ENDBRANCH  14  15
ENDBRANCH  11  14
ENDBRANCH   5   8
ENDBRANCH   3   4
ENDBRANCH   1   3
BRANCH   1  22
HETATM   22  N   UNL     1     -10.791   9.130  70.006  1.00  0.00    -0.232 NA 
HETATM   23  N   UNL     1     -10.610  11.149  69.081  1.00  0.00    -0.217 NA 
HETATM   24  C   UNL     1     -10.504   8.951  68.711  1.00  0.00    -0.200 A  
HETATM   25  C   UNL     1     -10.871  10.499  70.157  1.00  0.00    -0.227 A  
HETATM   26  N   UNL     1     -10.342  10.180  68.167  1.00  0.00    -0.175 NA 
BRANCH  26  27
HETATM   27  C   UNL     1      -9.806  10.473  66.829  1.00  0.00    -0.193 C  
HETATM   28  S   UNL     1      -6.923  12.596  69.282  1.00  0.00     0.115 SA 
HETATM   29  C   UNL     1      -7.982   8.678  66.033  1.00  0.00    -0.107 A  
HETATM   30  C   UNL     1      -5.860  10.940  66.351  1.00  0.00    -0.123 C  
HETATM   31  C   UNL     1      -7.490  12.212  67.697  1.00  0.00    -0.129 A  
HETATM   32  O   UNL     1      -8.384  10.820  65.005  1.00  0.00    -0.301 OA 
HETATM   33  C   UNL     1      -7.837   8.186  64.712  1.00  0.00    -0.137 A  
HETATM   34  C   UNL     1      -7.562   7.798  67.052  1.00  0.00    -0.100 A  
HETATM   35  H   UNL     1      -7.505  10.635  64.697  1.00  0.00     0.000 HD 
HETATM   36  C   UNL     1      -6.986   6.548  66.789  1.00  0.00    -0.067 A  
HETATM   37  F   UNL     1      -7.615   8.165  68.336  1.00  0.00    -0.094 F  
HETATM   38  C   UNL     1      -7.376  14.222  69.034  1.00  0.00    -0.117 A  
HETATM   39  C   UNL     1      -8.347  10.168  66.318  1.00  0.00    -0.130 C  
HETATM   40  N   UNL     1      -8.092  13.197  67.062  1.00  0.00    -0.085 NA 
HETATM   41  C   UNL     1      -7.231   6.950  64.453  1.00  0.00    -0.067 A  
HETATM   42  F   UNL     1      -7.024   6.576  63.183  1.00  0.00    -0.043 F  
HETATM   43  C   UNL     1      -6.796   6.128  65.480  1.00  0.00    -0.052 A  
HETATM   44  C   UNL     1      -8.037  14.357  67.829  1.00  0.00    -0.168 A  
HETATM   45  C   UNL     1      -7.186  10.839  67.145  1.00  0.00    -0.100 C  
BRANCH  44  46
HETATM   46  C   UNL     1      -8.662  15.605  67.402  1.00  0.00    -0.194 A  
HETATM   47  C   UNL     1      -9.639  15.601  66.391  1.00  0.00    -0.316 A  
HETATM   48  C   UNL     1     -10.201  16.796  65.934  1.00  0.00    -0.345 A  
HETATM   49  C   UNL     1      -9.800  18.016  66.478  1.00  0.00    -0.353 A  
HETATM   50  C   UNL     1      -8.844  18.029  67.504  1.00  0.00    -0.252 A  
HETATM   51  C   UNL     1     -10.358  19.243  65.982  1.00  0.00    -0.475 C  
HETATM   52  C   UNL     1      -8.276  16.830  67.959  1.00  0.00    -0.192 A  
HETATM   53  N   UNL     1     -10.796  20.228  65.554  1.00  0.00    -0.097 NA 
ENDBRANCH  44  46
ENDBRANCH  26  27
ENDBRANCH   1  22
TORSDOF 11
ENDMDL
MODEL        4
REMARK 921   NORMALIZED FREE ENERGY PREDICTED BY IDOCK:   -5.36 KCAL/MOL
REMARK 922        TOTAL FREE ENERGY PREDICTED BY IDOCK:  -11.78 KCAL/MOL
REMARK 923 INTER-LIGAND FREE ENERGY PREDICTED BY IDOCK:   -9.81 KCAL/MOL
REMARK 924 INTRA-LIGAND FREE ENERGY PREDICTED BY IDOCK:   -1.97 KCAL/MOL
REMARK 927      BINDING AFFINITY PREDICTED BY RF-SCORE:    0.00 PKD
ROOT
HETATM    1  C   UNL     1      -6.779  10.496  66.307  1.00  0.00    -0.123 C  
HETATM    2  C   UNL     1      -5.376  10.948  65.878  1.00  0.00    -0.142 C  
ENDROOT
BRANCH   1   3
HETATM    3  O   UNL     1      -7.763  11.515  66.045  1.00  0.00     0.057 OA 
BRANCH   3   4
HETATM    4  C   UNL     1      -8.873  10.964  65.427  1.00  0.00    -0.180 C  
HETATM    5  N   UNL     1     -10.064  11.683  65.530  1.00  0.00    -0.236 N  
HETATM    6  C   UNL     1     -11.170  11.191  64.697  1.00  0.00     0.018 C  
HETATM    7  O   UNL     1      -8.803   9.874  64.862  1.00  0.00    -0.163 OA 
BRANCH   5   8
HETATM    8  C   UNL     1     -10.054  13.095  65.665  1.00  0.00    -0.271 A  
HETATM    9  C   UNL     1     -10.894  15.097  64.830  1.00  0.00    -0.418 A  
HETATM   10  N   UNL     1     -10.688  13.773  64.676  1.00  0.00    -0.408 NA 
HETATM   11  C   UNL     1      -9.599  13.726  66.829  1.00  0.00    -0.283 A  
HETATM   12  C   UNL     1      -9.799  15.116  66.926  1.00  0.00    -0.243 A  
HETATM   13  C   UNL     1     -10.462  15.812  65.925  1.00  0.00    -0.366 A  
BRANCH  11  14
HETATM   14  C   UNL     1      -8.912  13.057  67.990  1.00  0.00    -0.199 C  
BRANCH  14  15
HETATM   15  O   UNL     1      -8.128  13.931  68.806  1.00  0.00    -0.126 OA 
BRANCH  15  16
HETATM   16  C   UNL     1      -6.819  14.034  68.424  1.00  0.00    -0.099 C  
HETATM   17  O   UNL     1      -6.414  13.936  67.275  1.00  0.00    -0.282 OA 
BRANCH  16  18
HETATM   18  C   UNL     1      -5.985  14.335  69.671  1.00  0.00    -0.112 C  
BRANCH  18  19
HETATM   19  N   UNL     1      -6.346  13.453  70.787  1.00  0.00    -0.471 NA 
HETATM   20  H   UNL     1      -6.656  12.540  70.456  1.00  0.00     0.000 HD 
HETATM   21  C   UNL     1      -5.256  13.332  71.744  1.00  0.00    -0.146 C  
ENDBRANCH  18  19
ENDBRANCH  16  18
ENDBRANCH  15  16
ENDBRANCH  14  15
ENDBRANCH  11  14
ENDBRANCH   5   8
ENDBRANCH   3   4
ENDBRANCH   1   3
BRANCH   1  22
HETATM   22  N   UNL     1      -6.760  10.143  67.734  1.00  0.00    -0.070 NA 
HETATM   23  N   UNL     1      -6.283  10.354  69.900  1.00  0.00    -0.068 NA 
HETATM   24  C   UNL     1      -7.580   9.325  68.405  1.00  0.00    -0.086 A  
HETATM   25  C   UNL     1      -5.973  10.720  68.709  1.00  0.00    -0.039 A  
HETATM   26  N   UNL     1      -7.323   9.498  69.722  1.00  0.00    -0.080 NA 
BRANCH  26  27
HETATM   27  C   UNL     1      -8.125   8.975  70.839  1.00  0.00    -0.169 C  
HETATM   28  S   UNL     1     -11.243   9.558  67.878  1.00  0.00     0.402 SA 
HETATM   29  C   UNL     1      -8.386   6.309  70.762  1.00  0.00    -0.126 A  
HETATM   30  C   UNL     1     -11.387   6.791  70.066  1.00  0.00    -0.396 C  
HETATM   31  C   UNL     1     -10.829   9.126  69.498  1.00  0.00    -0.180 A  
HETATM   32  O   UNL     1      -9.685   7.807  72.131  1.00  0.00    -0.168 OA 
HETATM   33  C   UNL     1      -8.377   5.451  71.889  1.00  0.00    -0.123 A  
HETATM   34  C   UNL     1      -7.942   5.725  69.557  1.00  0.00    -0.097 A  
HETATM   35  H   UNL     1     -10.252   7.046  72.111  1.00  0.00     0.000 HD 
HETATM   36  C   UNL     1      -7.572   4.378  69.456  1.00  0.00    -0.054 A  
HETATM   37  F   UNL     1      -7.941   6.425  68.418  1.00  0.00    -0.100 F  
HETATM   38  C   UNL     1     -12.035  10.949  68.466  1.00  0.00    -0.067 A  
HETATM   39  C   UNL     1      -9.066   7.713  70.805  1.00  0.00    -0.153 C  
HETATM   40  N   UNL     1     -11.149  10.016  70.414  1.00  0.00    -0.305 NA 
HETATM   41  C   UNL     1      -8.037   4.096  71.776  1.00  0.00    -0.090 A  
HETATM   42  F   UNL     1      -8.144   3.303  72.850  1.00  0.00    -0.071 F  
HETATM   43  C   UNL     1      -7.642   3.549  70.567  1.00  0.00    -0.040 A  
HETATM   44  C   UNL     1     -11.838  11.073  69.828  1.00  0.00    -0.347 A  
HETATM   45  C   UNL     1     -10.226   7.763  69.740  1.00  0.00    -0.211 C  
BRANCH  44  46
HETATM   46  C   UNL     1     -12.283  12.235  70.592  1.00  0.00    -0.378 A  
HETATM   47  C   UNL     1     -12.999  12.067  71.788  1.00  0.00    -0.445 A  
HETATM   48  C   UNL     1     -13.480  13.171  72.497  1.00  0.00    -0.579 A  
HETATM   49  C   UNL     1     -13.253  14.464  72.025  1.00  0.00    -0.453 A  
HETATM   50  C   UNL     1     -12.517  14.644  70.844  1.00  0.00    -0.406 A  
HETATM   51  C   UNL     1     -13.776  15.594  72.740  1.00  0.00    -0.578 C  
HETATM   52  C   UNL     1     -12.040  13.535  70.130  1.00  0.00    -0.425 A  
HETATM   53  N   UNL     1     -14.227  16.496  73.312  1.00  0.00     0.282 NA 
ENDBRANCH  44  46
ENDBRANCH  26  27
ENDBRANCH   1  22
TORSDOF 11
ENDMDL
MODEL        5
REMARK 921   NORMALIZED FREE ENERGY PREDICTED BY IDOCK:   -4.91 KCAL/MOL
REMARK 922        TOTAL FREE ENERGY PREDICTED BY IDOCK:  -11.05 KCAL/MOL
REMARK 923 INTER-LIGAND FREE ENERGY PREDICTED BY IDOCK:   -9.50 KCAL/MOL
REMARK 924 INTRA-LIGAND FREE ENERGY PREDICTED BY IDOCK:   -1.55 KCAL/MOL
REMARK 927      BINDING AFFINITY PREDICTED BY RF-SCORE:    0.00 PKD
ROOT
HETATM    1  C   UNL     1     -10.225  11.222  64.109  1.00  0.00    -0.335 C  
HETATM    2  C   UNL     1     -11.622  11.242  63.474  1.00  0.00     0.091 C  
ENDROOT
BRANCH   1   3
HETATM    3  O   UNL     1     -10.019  10.030  64.890  1.00  0.00    -0.325 OA 
BRANCH   3   4
HETATM    4  C   UNL     1      -8.735   9.546  64.697  1.00  0.00    -0.205 C  
HETATM    5  N   UNL     1      -8.198   8.780  65.731  1.00  0.00    -0.115 N  
HETATM    6  C   UNL     1      -6.928   8.107  65.422  1.00  0.00    -0.063 C  
HETATM    7  O   UNL     1      -8.101   9.827  63.682  1.00  0.00    -0.133 OA 
BRANCH   5   8
HETATM    8  C   UNL     1      -9.035   8.021  66.588  1.00  0.00    -0.150 A  
HETATM    9  C   UNL     1     -10.647   8.126  68.263  1.00  0.00    -0.098 A  
HETATM   10  N   UNL     1      -9.686   8.737  67.539  1.00  0.00    -0.159 NA 
HETATM   11  C   UNL     1      -9.320   6.672  66.344  1.00  0.00    -0.175 A  
HETATM   12  C   UNL     1     -10.301   6.066  67.153  1.00  0.00    -0.284 A  
HETATM   13  C   UNL     1     -10.982   6.798  68.115  1.00  0.00    -0.277 A  
BRANCH  11  14
HETATM   14  C   UNL     1      -8.675   5.805  65.297  1.00  0.00    -0.096 C  
BRANCH  14  15
HETATM   15  O   UNL     1      -7.974   4.668  65.809  1.00  0.00    -0.097 OA 
BRANCH  15  16
HETATM   16  C   UNL     1      -8.687   3.502  65.768  1.00  0.00    -0.121 C  
HETATM   17  O   UNL     1      -8.950   2.806  66.739  1.00  0.00    -0.138 OA 
BRANCH  16  18
HETATM   18  C   UNL     1      -9.122   3.264  64.321  1.00  0.00    -0.122 C  
BRANCH  18  19
HETATM   19  N   UNL     1     -10.550   2.937  64.234  1.00  0.00    -0.427 NA 
HETATM   20  H   UNL     1     -11.115   3.577  64.793  1.00  0.00     0.000 HD 
HETATM   21  C   UNL     1     -11.004   2.897  62.852  1.00  0.00    -0.151 C  
ENDBRANCH  18  19
ENDBRANCH  16  18
ENDBRANCH  15  16
ENDBRANCH  14  15
ENDBRANCH  11  14
ENDBRANCH   5   8
ENDBRANCH   3   4
ENDBRANCH   1   3
BRANCH   1  22
HETATM   22  N   UNL     1     -10.053  12.425  64.938  1.00  0.00    -0.263 NA 
HETATM   23  N   UNL     1     -10.333  14.541  65.578  1.00  0.00    -0.336 NA 
HETATM   24  C   UNL     1      -9.650  12.514  66.211  1.00  0.00    -0.245 A  
HETATM   25  C   UNL     1     -10.431  13.709  64.604  1.00  0.00    -0.423 A  
HETATM   26  N   UNL     1      -9.873  13.787  66.611  1.00  0.00    -0.276 NA 
BRANCH  26  27
HETATM   27  C   UNL     1      -9.790  14.292  67.990  1.00  0.00    -0.224 C  
HETATM   28  S   UNL     1      -5.641  13.203  67.332  1.00  0.00     0.179 SA 
HETATM   29  C   UNL     1      -9.209  16.906  68.097  1.00  0.00    -0.234 A  
HETATM   30  C   UNL     1      -6.428  16.071  69.234  1.00  0.00    -0.169 C  
HETATM   31  C   UNL     1      -6.844  13.776  68.429  1.00  0.00    -0.101 A  
HETATM   32  O   UNL     1      -9.110  15.369  69.950  1.00  0.00    -0.376 OA 
HETATM   33  C   UNL     1      -9.751  17.829  69.024  1.00  0.00    -0.187 A  
HETATM   34  C   UNL     1      -8.817  17.457  66.859  1.00  0.00    -0.242 A  
HETATM   35  H   UNL     1      -8.543  16.064  70.263  1.00  0.00     0.000 HD 
HETATM   36  C   UNL     1      -8.897  18.826  66.576  1.00  0.00    -0.315 A  
HETATM   37  F   UNL     1      -8.257  16.691  65.918  1.00  0.00    -0.342 F  
HETATM   38  C   UNL     1      -5.498  11.776  68.255  1.00  0.00    -0.042 A  
HETATM   39  C   UNL     1      -8.850  15.444  68.509  1.00  0.00    -0.183 C  
HETATM   40  N   UNL     1      -7.212  12.917  69.358  1.00  0.00     0.170 NA 
HETATM   41  C   UNL     1      -9.800  19.202  68.749  1.00  0.00    -0.439 A  
HETATM   42  F   UNL     1     -10.226  20.046  69.698  1.00  0.00    -0.461 F  
HETATM   43  C   UNL     1      -9.370  19.711  67.535  1.00  0.00    -0.422 A  
HETATM   44  C   UNL     1      -6.446  11.759  69.260  1.00  0.00    -0.107 A  
HETATM   45  C   UNL     1      -7.307  15.207  68.295  1.00  0.00    -0.114 C  
BRANCH  44  46
HETATM   46  C   UNL     1      -6.658  10.607  70.132  1.00  0.00    -0.151 A  
HETATM   47  C   UNL     1      -7.908   9.966  70.170  1.00  0.00    -0.186 A  
HETATM   48  C   UNL     1      -8.140   8.900  71.043  1.00  0.00    -0.205 A  
HETATM   49  C   UNL     1      -7.128   8.453  71.892  1.00  0.00    -0.103 A  
HETATM   50  C   UNL     1      -5.869   9.069  71.844  1.00  0.00    -0.073 A  
HETATM   51  C   UNL     1      -7.381   7.377  72.810  1.00  0.00    -0.077 C  
HETATM   52  C   UNL     1      -5.639  10.143  70.972  1.00  0.00    -0.085 A  
HETATM   53  N   UNL     1      -7.606   6.527  73.565  1.00  0.00    -0.088 NA 
ENDBRANCH  44  46
ENDBRANCH  26  27
ENDBRANCH   1  22
TORSDOF 11
ENDMDL
MODEL        6
REMARK 921   NORMALIZED FREE ENERGY PREDICTED BY IDOCK:   -4.58 KCAL/MOL
REMARK 922        TOTAL FREE ENERGY PREDICTED BY IDOCK:  -10.51 KCAL/MOL
REMARK 923 INTER-LIGAND FREE ENERGY PREDICTED BY IDOCK:   -8.60 KCAL/MOL
REMARK 924 INTRA-LIGAND FREE ENERGY PREDICTED BY IDOCK:   -1.92 KCAL/MOL
REMARK 927      BINDING AFFINITY PREDICTED BY RF-SCORE:    0.00 PKD
ROOT
HETATM    1  C   UNL     1     -10.422   8.401  70.981  1.00  0.00    -0.206 C  
HETATM    2  C   UNL     1      -9.121   8.835  71.671  1.00  0.00    -0.314 C  
ENDROOT
BRANCH   1   3
HETATM    3  O   UNL     1     -10.390   7.006  70.628  1.00  0.00    -0.205 OA 
BRANCH   3   4
HETATM    4  C   UNL     1     -11.219   6.279  71.466  1.00  0.00    -0.290 C  
HETATM    5  N   UNL     1     -10.606   5.306  72.256  1.00  0.00    -0.217 N  
HETATM    6  C   UNL     1     -11.464   4.696  73.282  1.00  0.00    -0.254 C  
HETATM    7  O   UNL     1     -12.434   6.463  71.465  1.00  0.00    -0.246 OA 
BRANCH   5   8
HETATM    8  C   UNL     1      -9.257   5.447  72.671  1.00  0.00    -0.137 A  
HETATM    9  C   UNL     1      -7.853   6.114  74.401  1.00  0.00    -0.095 A  
HETATM   10  N   UNL     1      -9.080   6.110  73.841  1.00  0.00    -0.127 NA 
HETATM   11  C   UNL     1      -8.209   4.780  72.025  1.00  0.00    -0.110 A  
HETATM   12  C   UNL     1      -6.937   4.849  72.625  1.00  0.00    -0.076 A  
HETATM   13  C   UNL     1      -6.754   5.511  73.831  1.00  0.00    -0.079 A  
BRANCH  11  14
HETATM   14  C   UNL     1      -8.312   3.997  70.744  1.00  0.00    -0.070 C  
BRANCH  14  15
HETATM   15  O   UNL     1      -8.276   4.788  69.553  1.00  0.00    -0.075 OA 
BRANCH  15  16
HETATM   16  C   UNL     1      -8.218   4.061  68.396  1.00  0.00    -0.083 C  
HETATM   17  O   UNL     1      -9.172   3.821  67.670  1.00  0.00    -0.144 OA 
BRANCH  16  18
HETATM   18  C   UNL     1      -6.761   3.656  68.164  1.00  0.00    -0.046 C  
BRANCH  18  19
HETATM   19  N   UNL     1      -6.663   2.342  67.520  1.00  0.00    -0.039 NA 
HETATM   20  H   UNL     1      -7.070   2.353  66.584  1.00  0.00     0.000 HD 
HETATM   21  C   UNL     1      -5.289   1.861  67.497  1.00  0.00    -0.016 C  
ENDBRANCH  18  19
ENDBRANCH  16  18
ENDBRANCH  15  16
ENDBRANCH  14  15
ENDBRANCH  11  14
ENDBRANCH   5   8
ENDBRANCH   3   4
ENDBRANCH   1   3
BRANCH   1  22
HETATM   22  N   UNL     1     -10.641   9.237  69.791  1.00  0.00    -0.223 NA 
HETATM   23  N   UNL     1     -11.203  11.050  68.624  1.00  0.00    -0.239 NA 
HETATM   24  C   UNL     1     -10.124   9.099  68.564  1.00  0.00    -0.191 A  
HETATM   25  C   UNL     1     -11.315  10.440  69.749  1.00  0.00    -0.289 A  
HETATM   26  N   UNL     1     -10.422  10.226  67.878  1.00  0.00    -0.196 NA 
BRANCH  26  27
HETATM   27  C   UNL     1      -9.876  10.616  66.569  1.00  0.00    -0.204 C  
HETATM   28  S   UNL     1      -6.658  11.947  69.159  1.00  0.00    -0.106 SA 
HETATM   29  C   UNL     1      -8.358   8.699  65.473  1.00  0.00    -0.157 A  
HETATM   30  C   UNL     1      -5.915  10.566  65.997  1.00  0.00    -0.111 C  
HETATM   31  C   UNL     1      -7.309  11.867  67.563  1.00  0.00    -0.132 A  
HETATM   32  O   UNL     1      -8.457  10.996  64.750  1.00  0.00    -0.370 OA 
HETATM   33  C   UNL     1      -8.315   8.374  64.095  1.00  0.00    -0.081 A  
HETATM   34  C   UNL     1      -8.053   7.638  66.350  1.00  0.00    -0.113 A  
HETATM   35  H   UNL     1      -7.621  10.729  64.385  1.00  0.00     0.000 HD 
HETATM   36  C   UNL     1      -7.676   6.365  65.904  1.00  0.00    -0.094 A  
HETATM   37  F   UNL     1      -8.023   7.832  67.673  1.00  0.00    -0.113 F  
HETATM   38  C   UNL     1      -6.868  13.640  69.145  1.00  0.00    -0.095 A  
HETATM   39  C   UNL     1      -8.490  10.174  65.965  1.00  0.00    -0.131 C  
HETATM   40  N   UNL     1      -7.770  13.005  67.087  1.00  0.00    -0.098 NA 
HETATM   41  C   UNL     1      -7.906   7.110  63.652  1.00  0.00    -0.106 A  
HETATM   42  F   UNL     1      -7.784   6.884  62.337  1.00  0.00    -0.076 F  
HETATM   43  C   UNL     1      -7.578   6.103  64.544  1.00  0.00    -0.094 A  
HETATM   44  C   UNL     1      -7.526  14.031  67.995  1.00  0.00    -0.141 A  
HETATM   45  C   UNL     1      -7.225  10.552  66.824  1.00  0.00    -0.114 C  
BRANCH  44  46
HETATM   46  C   UNL     1      -7.967  15.403  67.760  1.00  0.00    -0.159 A  
HETATM   47  C   UNL     1      -7.592  16.431  68.642  1.00  0.00    -0.197 A  
HETATM   48  C   UNL     1      -8.055  17.736  68.460  1.00  0.00    -0.297 A  
HETATM   49  C   UNL     1      -8.901  18.040  67.392  1.00  0.00    -0.245 A  
HETATM   50  C   UNL     1      -9.261  17.027  66.491  1.00  0.00    -0.296 A  
HETATM   51  C   UNL     1      -9.400  19.377  67.227  1.00  0.00    -0.314 C  
HETATM   52  C   UNL     1      -8.799  15.715  66.679  1.00  0.00    -0.327 A  
HETATM   53  N   UNL     1      -9.818  20.453  67.121  1.00  0.00    -0.457 NA 
ENDBRANCH  44  46
ENDBRANCH  26  27
ENDBRANCH   1  22
TORSDOF 11
ENDMDL
MODEL        7
REMARK 921   NORMALIZED FREE ENERGY PREDICTED BY IDOCK:   -4.38 KCAL/MOL
REMARK 922        TOTAL FREE ENERGY PREDICTED BY IDOCK:  -10.18 KCAL/MOL
REMARK 923 INTER-LIGAND FREE ENERGY PREDICTED BY IDOCK:   -7.48 KCAL/MOL
REMARK 924 INTRA-LIGAND FREE ENERGY PREDICTED BY IDOCK:   -2.70 KCAL/MOL
REMARK 927      BINDING AFFINITY PREDICTED BY RF-SCORE:    0.00 PKD
ROOT
HETATM    1  C   UNL     1      -8.728  10.013  63.817  1.00  0.00    -0.217 C  
HETATM    2  C   UNL     1      -9.211  10.114  62.364  1.00  0.00    -0.320 C  
ENDROOT
BRANCH   1   3
HETATM    3  O   UNL     1      -8.888   8.678  64.333  1.00  0.00    -0.049 OA 
BRANCH   3   4
HETATM    4  C   UNL     1      -7.746   8.285  65.011  1.00  0.00    -0.105 C  
HETATM    5  N   UNL     1      -7.801   7.053  65.662  1.00  0.00    -0.105 N  
HETATM    6  C   UNL     1      -6.522   6.563  66.195  1.00  0.00    -0.043 C  
HETATM    7  O   UNL     1      -6.761   9.019  65.065  1.00  0.00    -0.068 OA 
BRANCH   5   8
HETATM    8  C   UNL     1      -8.640   6.013  65.185  1.00  0.00    -0.069 A  
HETATM    9  C   UNL     1      -8.811   4.231  63.699  1.00  0.00    -0.129 A  
HETATM   10  N   UNL     1      -8.175   5.353  64.094  1.00  0.00    -0.126 NA 
HETATM   11  C   UNL     1      -9.759   5.574  65.901  1.00  0.00    -0.058 A  
HETATM   12  C   UNL     1     -10.415   4.422  65.426  1.00  0.00    -0.219 A  
HETATM   13  C   UNL     1      -9.934   3.733  64.322  1.00  0.00    -0.196 A  
BRANCH  11  14
HETATM   14  C   UNL     1     -10.332   6.220  67.135  1.00  0.00    -0.229 C  
BRANCH  14  15
HETATM   15  O   UNL     1      -9.509   6.121  68.300  1.00  0.00    -0.119 OA 
BRANCH  15  16
HETATM   16  C   UNL     1     -10.031   5.341  69.294  1.00  0.00    -0.215 C  
HETATM   17  O   UNL     1      -9.468   4.379  69.798  1.00  0.00    -0.146 OA 
BRANCH  16  18
HETATM   18  C   UNL     1     -11.397   5.912  69.677  1.00  0.00    -0.094 C  
BRANCH  18  19
HETATM   19  N   UNL     1     -11.340   7.367  69.863  1.00  0.00    -0.464 NA 
HETATM   20  H   UNL     1     -11.421   7.860  68.973  1.00  0.00     0.000 HD 
HETATM   21  C   UNL     1     -12.340   7.821  70.816  1.00  0.00    -0.007 C  
ENDBRANCH  18  19
ENDBRANCH  16  18
ENDBRANCH  15  16
ENDBRANCH  14  15
ENDBRANCH  11  14
ENDBRANCH   5   8
ENDBRANCH   3   4
ENDBRANCH   1   3
BRANCH   1  22
HETATM   22  N   UNL     1      -9.465  10.983  64.642  1.00  0.00    -0.227 NA 
HETATM   23  N   UNL     1     -11.226  12.101  65.424  1.00  0.00    -0.324 NA 
HETATM   24  C   UNL     1      -9.098  11.548  65.798  1.00  0.00    -0.154 A  
HETATM   25  C   UNL     1     -10.771  11.387  64.458  1.00  0.00    -0.327 A  
HETATM   26  N   UNL     1     -10.186  12.180  66.294  1.00  0.00    -0.219 NA 
BRANCH  26  27
HETATM   27  C   UNL     1     -10.319  12.752  67.643  1.00  0.00    -0.221 C  
HETATM   28  S   UNL     1      -6.143  11.573  67.728  1.00  0.00    -0.058 SA 
HETATM   29  C   UNL     1      -9.705  15.360  67.721  1.00  0.00    -0.211 A  
HETATM   30  C   UNL     1      -7.167  14.543  69.337  1.00  0.00    -0.120 C  
HETATM   31  C   UNL     1      -7.497  12.217  68.585  1.00  0.00    -0.100 A  
HETATM   32  O   UNL     1      -9.945  13.917  69.636  1.00  0.00    -0.177 OA 
HETATM   33  C   UNL     1     -10.371  16.336  68.502  1.00  0.00    -0.261 A  
HETATM   34  C   UNL     1      -9.103  15.843  66.540  1.00  0.00    -0.286 A  
HETATM   35  H   UNL     1      -9.421  14.618  70.005  1.00  0.00     0.000 HD 
HETATM   36  C   UNL     1      -9.105  17.197  66.183  1.00  0.00    -0.214 A  
HETATM   37  F   UNL     1      -8.414  15.022  65.741  1.00  0.00     0.127 F  
HETATM   38  C   UNL     1      -6.185  10.192  68.729  1.00  0.00    -0.047 A  
HETATM   39  C   UNL     1      -9.451  13.915  68.255  1.00  0.00    -0.217 C  
HETATM   40  N   UNL     1      -8.030  11.411  69.479  1.00  0.00     0.273 NA 
HETATM   41  C   UNL     1     -10.343  17.694  68.159  1.00  0.00    -0.386 A  
HETATM   42  F   UNL     1     -10.900  18.590  68.984  1.00  0.00     0.041 F  
HETATM   43  C   UNL     1      -9.709  18.136  67.009  1.00  0.00    -0.307 A  
HETATM   44  C   UNL     1      -7.285  10.238  69.564  1.00  0.00    -0.122 A  
HETATM   45  C   UNL     1      -7.899  13.646  68.309  1.00  0.00    -0.141 C  
BRANCH  44  46
HETATM   46  C   UNL     1      -7.663   9.135  70.442  1.00  0.00    -0.132 A  
HETATM   47  C   UNL     1      -8.681   9.301  71.395  1.00  0.00     0.062 A  
HETATM   48  C   UNL     1      -9.011   8.271  72.279  1.00  0.00    -0.280 A  
HETATM   49  C   UNL     1      -8.331   7.055  72.227  1.00  0.00    -0.115 A  
HETATM   50  C   UNL     1      -7.328   6.869  71.263  1.00  0.00    -0.081 A  
HETATM   51  C   UNL     1      -8.652   6.010  73.159  1.00  0.00    -0.118 C  
HETATM   52  C   UNL     1      -6.994   7.906  70.380  1.00  0.00    -0.045 A  
HETATM   53  N   UNL     1      -8.901   5.186  73.935  1.00  0.00    -0.118 NA 
ENDBRANCH  44  46
ENDBRANCH  26  27
ENDBRANCH   1  22
TORSDOF 11
ENDMDL
MODEL        8
REMARK 921   NORMALIZED FREE ENERGY PREDICTED BY IDOCK:   -4.06 KCAL/MOL
REMARK 922        TOTAL FREE ENERGY PREDICTED BY IDOCK:   -9.65 KCAL/MOL
REMARK 923 INTER-LIGAND FREE ENERGY PREDICTED BY IDOCK:   -7.25 KCAL/MOL
REMARK 924 INTRA-LIGAND FREE ENERGY PREDICTED BY IDOCK:   -2.40 KCAL/MOL
REMARK 927      BINDING AFFINITY PREDICTED BY RF-SCORE:    0.00 PKD
ROOT
HETATM    1  C   UNL     1      -9.146  10.679  64.217  1.00  0.00    -0.220 C  
HETATM    2  C   UNL     1     -10.007  10.876  62.962  1.00  0.00    -0.317 C  
ENDROOT
BRANCH   1   3
HETATM    3  O   UNL     1      -9.070   9.290  64.590  1.00  0.00    -0.210 OA 
BRANCH   3   4
HETATM    4  C   UNL     1      -7.868   9.029  65.228  1.00  0.00    -0.102 C  
HETATM    5  N   UNL     1      -7.914   8.140  66.302  1.00  0.00    -0.098 N  
HETATM    6  C   UNL     1      -6.608   7.719  66.827  1.00  0.00    -0.058 C  
HETATM    7  O   UNL     1      -6.835   9.598  64.882  1.00  0.00    -0.097 OA 
BRANCH   5   8
HETATM    8  C   UNL     1      -8.894   7.116  66.360  1.00  0.00    -0.145 A  
HETATM    9  C   UNL     1      -9.621   5.117  65.418  1.00  0.00     0.004 A  
HETATM   10  N   UNL     1      -8.858   6.227  65.336  1.00  0.00    -0.052 NA 
HETATM   11  C   UNL     1      -9.702   6.925  67.486  1.00  0.00    -0.162 A  
HETATM   12  C   UNL     1     -10.513   5.774  67.507  1.00  0.00    -0.310 A  
HETATM   13  C   UNL     1     -10.467   4.852  66.471  1.00  0.00    -0.299 A  
BRANCH  11  14
HETATM   14  C   UNL     1      -9.790   7.837  68.681  1.00  0.00    -0.169 C  
BRANCH  14  15
HETATM   15  O   UNL     1      -8.703   7.722  69.603  1.00  0.00    -0.134 OA 
BRANCH  15  16
HETATM   16  C   UNL     1      -9.052   7.212  70.823  1.00  0.00    -0.153 C  
HETATM   17  O   UNL     1      -9.332   7.880  71.808  1.00  0.00    -0.139 OA 
BRANCH  16  18
HETATM   18  C   UNL     1      -9.070   5.686  70.710  1.00  0.00    -0.147 C  
BRANCH  18  19
HETATM   19  N   UNL     1      -8.142   5.064  71.662  1.00  0.00    -0.112 NA 
HETATM   20  H   UNL     1      -7.700   5.761  72.262  1.00  0.00     0.000 HD 
HETATM   21  C   UNL     1      -8.797   4.027  72.443  1.00  0.00    -0.106 C  
ENDBRANCH  18  19
ENDBRANCH  16  18
ENDBRANCH  15  16
ENDBRANCH  14  15
ENDBRANCH  11  14
ENDBRANCH   5   8
ENDBRANCH   3   4
ENDBRANCH   1   3
BRANCH   1  22
HETATM   22  N   UNL     1      -9.699  11.485  65.316  1.00  0.00    -0.236 NA 
HETATM   23  N   UNL     1     -11.169  12.120  66.866  1.00  0.00    -0.300 NA 
HETATM   24  C   UNL     1      -9.054  12.285  66.174  1.00  0.00    -0.074 A  
HETATM   25  C   UNL     1     -10.997  11.452  65.783  1.00  0.00    -0.194 A  
HETATM   26  N   UNL     1      -9.937  12.623  67.142  1.00  0.00    -0.215 NA 
BRANCH  26  27
HETATM   27  C   UNL     1      -9.621  13.304  68.406  1.00  0.00    -0.185 C  
HETATM   28  S   UNL     1      -5.611  12.436  66.992  1.00  0.00     0.182 SA 
HETATM   29  C   UNL     1      -9.284  15.945  68.097  1.00  0.00    -0.190 A  
HETATM   30  C   UNL     1      -6.262  15.461  68.691  1.00  0.00    -0.096 C  
HETATM   31  C   UNL     1      -6.612  13.058  68.253  1.00  0.00    -0.094 A  
HETATM   32  O   UNL     1      -8.658  14.669  70.043  1.00  0.00    -0.192 OA 
HETATM   33  C   UNL     1      -9.710  16.939  69.013  1.00  0.00    -0.231 A  
HETATM   34  C   UNL     1      -9.210  16.360  66.751  1.00  0.00    -0.237 A  
HETATM   35  H   UNL     1      -8.108  15.437  70.148  1.00  0.00     0.000 HD 
HETATM   36  C   UNL     1      -9.478  17.672  66.343  1.00  0.00    -0.274 A  
HETATM   37  F   UNL     1      -8.785  15.521  65.801  1.00  0.00    -0.301 F  
HETATM   38  C   UNL     1      -5.144  11.153  68.014  1.00  0.00    -0.043 A  
HETATM   39  C   UNL     1      -8.709  14.577  68.580  1.00  0.00    -0.172 C  
HETATM   40  N   UNL     1      -6.696  12.301  69.328  1.00  0.00    -0.099 NA 
HETATM   41  C   UNL     1      -9.946  18.259  68.605  1.00  0.00    -0.389 A  
HETATM   42  F   UNL     1     -10.246  19.185  69.525  1.00  0.00    -0.373 F  
HETATM   43  C   UNL     1      -9.826  18.637  67.278  1.00  0.00    -0.345 A  
HETATM   44  C   UNL     1      -5.859  11.197  69.195  1.00  0.00    -0.042 A  
HETATM   45  C   UNL     1      -7.228  14.424  68.066  1.00  0.00    -0.146 C  
BRANCH  44  46
HETATM   46  C   UNL     1      -5.775  10.154  70.213  1.00  0.00    -0.060 A  
HETATM   47  C   UNL     1      -5.756  10.492  71.577  1.00  0.00     0.198 A  
HETATM   48  C   UNL     1      -5.618   9.507  72.558  1.00  0.00     0.063 A  
HETATM   49  C   UNL     1      -5.497   8.165  72.195  1.00  0.00    -0.037 A  
HETATM   50  C   UNL     1      -5.540   7.814  70.838  1.00  0.00    -0.030 A  
HETATM   51  C   UNL     1      -5.323   7.159  73.206  1.00  0.00    -0.042 C  
HETATM   52  C   UNL     1      -5.674   8.805  69.854  1.00  0.00    -0.028 A  
HETATM   53  N   UNL     1      -5.156   6.360  74.029  1.00  0.00    -0.039 NA 
ENDBRANCH  44  46
ENDBRANCH  26  27
ENDBRANCH   1  22
TORSDOF 11
ENDMDL
MODEL        9
REMARK 921   NORMALIZED FREE ENERGY PREDICTED BY IDOCK:   -3.97 KCAL/MOL
REMARK 922        TOTAL FREE ENERGY PREDICTED BY IDOCK:   -9.50 KCAL/MOL
REMARK 923 INTER-LIGAND FREE ENERGY PREDICTED BY IDOCK:   -7.10 KCAL/MOL
REMARK 924 INTRA-LIGAND FREE ENERGY PREDICTED BY IDOCK:   -2.41 KCAL/MOL
REMARK 927      BINDING AFFINITY PREDICTED BY RF-SCORE:    0.00 PKD
ROOT
HETATM    1  C   UNL     1      -8.425  10.508  65.352  1.00  0.00    -0.170 C  
HETATM    2  C   UNL     1      -7.369  10.360  64.247  1.00  0.00     0.005 C  
ENDROOT
BRANCH   1   3
HETATM    3  O   UNL     1      -9.189  11.718  65.190  1.00  0.00    -0.088 OA 
BRANCH   3   4
HETATM    4  C   UNL     1     -10.404  11.610  65.846  1.00  0.00    -0.248 C  
HETATM    5  N   UNL     1     -10.869  12.757  66.489  1.00  0.00    -0.254 N  
HETATM    6  C   UNL     1     -12.246  12.681  66.996  1.00  0.00     0.062 C  
HETATM    7  O   UNL     1     -11.004  10.538  65.889  1.00  0.00     0.019 OA 
BRANCH   5   8
HETATM    8  C   UNL     1     -10.520  14.049  66.018  1.00  0.00    -0.304 A  
HETATM    9  C   UNL     1     -11.167  15.823  64.658  1.00  0.00    -0.363 A  
HETATM   10  N   UNL     1     -11.307  14.532  65.024  1.00  0.00    -0.359 NA 
HETATM   11  C   UNL     1      -9.564  14.841  66.664  1.00  0.00    -0.289 A  
HETATM   12  C   UNL     1      -9.424  16.170  66.219  1.00  0.00    -0.347 A  
HETATM   13  C   UNL     1     -10.239  16.674  65.215  1.00  0.00    -0.016 A  
BRANCH  11  14
HETATM   14  C   UNL     1      -8.667  14.406  67.791  1.00  0.00    -0.180 C  
BRANCH  14  15
HETATM   15  O   UNL     1      -7.278  14.687  67.595  1.00  0.00    -0.156 OA 
BRANCH  15  16
HETATM   16  C   UNL     1      -6.700  15.401  68.608  1.00  0.00    -0.102 C  
HETATM   17  O   UNL     1      -6.947  15.257  69.797  1.00  0.00    -0.184 OA 
BRANCH  16  18
HETATM   18  C   UNL     1      -5.678  16.357  67.990  1.00  0.00    -0.112 C  
BRANCH  18  19
HETATM   19  N   UNL     1      -6.311  17.596  67.523  1.00  0.00    -0.158 NA 
HETATM   20  H   UNL     1      -5.845  18.419  67.904  1.00  0.00     0.000 HD 
HETATM   21  C   UNL     1      -6.377  17.645  66.070  1.00  0.00    -0.218 C  
ENDBRANCH  18  19
ENDBRANCH  16  18
ENDBRANCH  15  16
ENDBRANCH  14  15
ENDBRANCH  11  14
ENDBRANCH   5   8
ENDBRANCH   3   4
ENDBRANCH   1   3
BRANCH   1  22
HETATM   22  N   UNL     1      -7.761  10.481  66.664  1.00  0.00    -0.117 NA 
HETATM   23  N   UNL     1      -6.461  11.192  68.328  1.00  0.00    -0.056 NA 
HETATM   24  C   UNL     1      -8.096   9.786  67.757  1.00  0.00    -0.113 A  
HETATM   25  C   UNL     1      -6.733  11.302  67.078  1.00  0.00    -0.126 A  
HETATM   26  N   UNL     1      -7.342  10.259  68.776  1.00  0.00    -0.081 NA 
BRANCH  26  27
HETATM   27  C   UNL     1      -7.519   9.951  70.203  1.00  0.00    -0.170 C  
HETATM   28  S   UNL     1     -11.474   8.958  68.720  1.00  0.00     1.023 SA 
HETATM   29  C   UNL     1      -6.965   7.394  70.782  1.00  0.00    -0.055 A  
HETATM   30  C   UNL     1     -10.019   7.022  71.288  1.00  0.00    -0.196 C  
HETATM   31  C   UNL     1     -10.426   9.134  70.081  1.00  0.00    -0.218 A  
HETATM   32  O   UNL     1      -8.115   8.943  72.227  1.00  0.00    -0.376 OA 
HETATM   33  C   UNL     1      -6.315   6.941  71.956  1.00  0.00    -0.045 A  
HETATM   34  C   UNL     1      -6.799   6.573  69.647  1.00  0.00    -0.065 A  
HETATM   35  H   UNL     1      -8.395   8.113  72.594  1.00  0.00     0.000 HD 
HETATM   36  C   UNL     1      -6.094   5.363  69.679  1.00  0.00    -0.021 A  
HETATM   37  F   UNL     1      -7.397   6.877  68.491  1.00  0.00    -0.079 F  
HETATM   38  C   UNL     1     -12.405  10.271  69.284  1.00  0.00     0.423 A  
HETATM   39  C   UNL     1      -7.984   8.576  70.813  1.00  0.00    -0.107 C  
HETATM   40  N   UNL     1     -10.672  10.177  70.847  1.00  0.00    -0.145 NA 
HETATM   41  C   UNL     1      -5.637   5.715  71.992  1.00  0.00    -0.021 A  
HETATM   42  F   UNL     1      -5.127   5.283  73.152  1.00  0.00    -0.011 F  
HETATM   43  C   UNL     1      -5.527   4.916  70.865  1.00  0.00    -0.004 A  
HETATM   44  C   UNL     1     -11.807  10.842  70.391  1.00  0.00    -0.357 A  
HETATM   45  C   UNL     1      -9.392   8.062  70.327  1.00  0.00    -0.159 C  
BRANCH  44  46
HETATM   46  C   UNL     1     -12.298  12.067  71.016  1.00  0.00    -0.340 A  
HETATM   47  C   UNL     1     -11.665  13.296  70.766  1.00  0.00     0.188 A  
HETATM   48  C   UNL     1     -12.090  14.464  71.404  1.00  0.00    -0.397 A  
HETATM   49  C   UNL     1     -13.156  14.426  72.304  1.00  0.00    -0.474 A  
HETATM   50  C   UNL     1     -13.810  13.209  72.542  1.00  0.00    -0.495 A  
HETATM   51  C   UNL     1     -13.568  15.624  72.981  1.00  0.00    -0.532 C  
HETATM   52  C   UNL     1     -13.379  12.036  71.905  1.00  0.00    -0.408 A  
HETATM   53  N   UNL     1     -13.873  16.591  73.542  1.00  0.00    -0.102 NA 
ENDBRANCH  44  46
ENDBRANCH  26  27
ENDBRANCH   1  22
TORSDOF 11
ENDMDL
MODEL       10
REMARK 921   NORMALIZED FREE ENERGY PREDICTED BY IDOCK:    0.11 KCAL/MOL
REMARK 922        TOTAL FREE ENERGY PREDICTED BY IDOCK:   -2.80 KCAL/MOL
REMARK 923 INTER-LIGAND FREE ENERGY PREDICTED BY IDOCK:   -5.88 KCAL/MOL
REMARK 924 INTRA-LIGAND FREE ENERGY PREDICTED BY IDOCK:    3.08 KCAL/MOL
REMARK 927      BINDING AFFINITY PREDICTED BY RF-SCORE:    0.00 PKD
ROOT
HETATM    1  C   UNL     1     -11.963  11.967  65.947  1.00  0.00    -0.046 C  
HETATM    2  C   UNL     1     -11.158  11.590  64.696  1.00  0.00    -0.317 C  
ENDROOT
BRANCH   1   3
HETATM    3  O   UNL     1     -12.055  13.396  66.102  1.00  0.00    -0.399 OA 
BRANCH   3   4
HETATM    4  C   UNL     1     -12.134  13.729  67.444  1.00  0.00    -0.343 C  
HETATM    5  N   UNL     1     -11.260  14.720  67.892  1.00  0.00    -0.293 N  
HETATM    6  C   UNL     1     -11.502  15.203  69.258  1.00  0.00    -0.311 C  
HETATM    7  O   UNL     1     -12.907  13.139  68.195  1.00  0.00     0.799 OA 
BRANCH   5   8
HETATM    8  C   UNL     1     -10.799  15.736  67.016  1.00  0.00    -0.273 A  
HETATM    9  C   UNL     1     -11.070  16.719  64.925  1.00  0.00    -0.054 A  
HETATM   10  N   UNL     1     -11.302  15.683  65.757  1.00  0.00    -0.072 NA 
HETATM   11  C   UNL     1     -10.042  16.822  67.471  1.00  0.00    -0.276 A  
HETATM   12  C   UNL     1      -9.790  17.860  66.554  1.00  0.00    -0.343 A  
HETATM   13  C   UNL     1     -10.317  17.818  65.270  1.00  0.00     0.431 A  
BRANCH  11  14
HETATM   14  C   UNL     1      -9.467  16.984  68.853  1.00  0.00    -0.235 C  
BRANCH  14  15
HETATM   15  O   UNL     1      -8.203  17.651  68.901  1.00  0.00    -0.250 OA 
BRANCH  15  16
HETATM   16  C   UNL     1      -8.285  19.016  68.871  1.00  0.00    -0.268 C  
HETATM   17  O   UNL     1      -9.319  19.659  68.979  1.00  0.00    -0.352 OA 
BRANCH  16  18
HETATM   18  C   UNL     1      -6.867  19.572  68.725  1.00  0.00    -0.322 C  
BRANCH  18  19
HETATM   19  N   UNL     1      -6.645  20.143  67.392  1.00  0.00    -0.207 NA 
HETATM   20  H   UNL     1      -7.527  20.340  66.919  1.00  0.00     0.000 HD 
HETATM   21  C   UNL     1      -5.798  21.324  67.453  1.00  0.00    -0.351 C  
ENDBRANCH  18  19
ENDBRANCH  16  18
ENDBRANCH  15  16
ENDBRANCH  14  15
ENDBRANCH  11  14
ENDBRANCH   5   8
ENDBRANCH   3   4
ENDBRANCH   1   3
BRANCH   1  22
HETATM   22  N   UNL     1     -11.339  11.353  67.128  1.00  0.00    -0.432 NA 
HETATM   23  N   UNL     1     -10.677   9.718  68.490  1.00  0.00    -0.223 NA 
HETATM   24  C   UNL     1     -10.419  11.868  67.953  1.00  0.00    -0.204 A  
HETATM   25  C   UNL     1     -11.469  10.040  67.533  1.00  0.00     0.544 A  
HETATM   26  N   UNL     1      -9.982  10.859  68.741  1.00  0.00    -0.189 NA 
BRANCH  26  27
HETATM   27  C   UNL     1      -8.821  10.902  69.644  1.00  0.00     0.428 C  
HETATM   28  S   UNL     1      -7.272   8.288  66.546  1.00  0.00    -0.077 SA 
HETATM   29  C   UNL     1      -7.100  12.859  69.017  1.00  0.00    -0.024 A  
HETATM   30  C   UNL     1      -5.132  10.612  68.120  1.00  0.00    -0.033 C  
HETATM   31  C   UNL     1      -7.029   9.035  68.083  1.00  0.00    -0.077 A  
HETATM   32  O   UNL     1      -6.654  11.022  70.511  1.00  0.00    -0.450 OA 
HETATM   33  C   UNL     1      -6.389  13.655  69.948  1.00  0.00    -0.083 A  
HETATM   34  C   UNL     1      -7.359  13.473  67.774  1.00  0.00    -0.163 A  
HETATM   35  H   UNL     1      -5.770  11.286  70.282  1.00  0.00     0.000 HD 
HETATM   36  C   UNL     1      -6.901  14.756  67.449  1.00  0.00    -0.101 A  
HETATM   37  F   UNL     1      -7.990  12.807  66.801  1.00  0.00    -0.123 F  
HETATM   38  C   UNL     1      -7.322   6.764  67.310  1.00  0.00    -0.091 A  
HETATM   39  C   UNL     1      -7.357  11.339  69.264  1.00  0.00    -0.068 C  
HETATM   40  N   UNL     1      -7.101   8.224  69.119  1.00  0.00    -0.063 NA 
HETATM   41  C   UNL     1      -5.905  14.925  69.608  1.00  0.00    -0.108 A  
HETATM   42  F   UNL     1      -5.151  15.596  70.488  1.00  0.00    -0.114 F  
HETATM   43  C   UNL     1      -6.148  15.481  68.362  1.00  0.00    -0.105 A  
HETATM   44  C   UNL     1      -7.277   6.914  68.682  1.00  0.00    -0.088 A  
HETATM   45  C   UNL     1      -6.677  10.503  68.114  1.00  0.00    -0.064 C  
BRANCH  44  46
HETATM   46  C   UNL     1      -7.438   5.797  69.609  1.00  0.00    -0.075 A  
HETATM   47  C   UNL     1      -6.366   5.387  70.420  1.00  0.00    -0.030 A  
HETATM   48  C   UNL     1      -6.490   4.284  71.268  1.00  0.00    -0.019 A  
HETATM   49  C   UNL     1      -7.687   3.569  71.323  1.00  0.00    -0.055 A  
HETATM   50  C   UNL     1      -8.771   3.986  70.536  1.00  0.00    -0.120 A  
HETATM   51  C   UNL     1      -7.799   2.417  72.172  1.00  0.00    -0.053 C  
HETATM   52  C   UNL     1      -8.644   5.090  69.681  1.00  0.00    -0.099 A  
HETATM   53  N   UNL     1      -7.867   1.472  72.841  1.00  0.00    -0.039 NA 
ENDBRANCH  44  46
ENDBRANCH  26  27
ENDBRANCH   1  22
TORSDOF 11
ENDMDL
MODEL       11
REMARK 921   NORMALIZED FREE ENERGY PREDICTED BY IDOCK:    1.09 KCAL/MOL
REMARK 922        TOTAL FREE ENERGY PREDICTED BY IDOCK:   -1.19 KCAL/MOL
REMARK 923 INTER-LIGAND FREE ENERGY PREDICTED BY IDOCK:   -4.17 KCAL/MOL
REMARK 924 INTRA-LIGAND FREE ENERGY PREDICTED BY IDOCK:    2.98 KCAL/MOL
REMARK 927      BINDING AFFINITY PREDICTED BY RF-SCORE:    0.00 PKD
ROOT
HETATM    1  C   UNL     1     -12.092  12.055  66.473  1.00  0.00     0.217 C  
HETATM    2  C   UNL     1     -11.497  11.445  65.197  1.00  0.00     0.006 C  
ENDROOT
BRANCH   1   3
HETATM    3  O   UNL     1     -12.109  13.493  66.411  1.00  0.00    -0.399 OA 
BRANCH   3   4
HETATM    4  C   UNL     1     -12.025  14.030  67.685  1.00  0.00    -0.368 C  
HETATM    5  N   UNL     1     -11.196  15.142  67.838  1.00  0.00    -0.318 N  
HETATM    6  C   UNL     1     -11.284  15.818  69.140  1.00  0.00    -0.322 C  
HETATM    7  O   UNL     1     -12.620  13.512  68.627  1.00  0.00     0.124 OA 
BRANCH   5   8
HETATM    8  C   UNL     1     -10.969  16.036  66.761  1.00  0.00    -0.112 A  
HETATM    9  C   UNL     1     -11.200  16.359  64.468  1.00  0.00    -0.126 A  
HETATM   10  N   UNL     1     -11.201  15.522  65.527  1.00  0.00    -0.243 NA 
HETATM   11  C   UNL     1     -10.718  17.398  66.967  1.00  0.00    -0.162 A  
HETATM   12  C   UNL     1     -10.685  18.225  65.827  1.00  0.00    -0.129 A  
HETATM   13  C   UNL     1     -10.938  17.707  64.565  1.00  0.00     1.987 A  
BRANCH  11  14
HETATM   14  C   UNL     1     -10.478  18.064  68.295  1.00  0.00    -0.343 C  
BRANCH  14  15
HETATM   15  O   UNL     1      -9.155  18.574  68.479  1.00  0.00    -0.318 OA 
BRANCH  15  16
HETATM   16  C   UNL     1      -8.904  19.741  67.812  1.00  0.00    -0.325 C  
HETATM   17  O   UNL     1      -9.742  20.589  67.542  1.00  0.00    -0.430 OA 
BRANCH  16  18
HETATM   18  C   UNL     1      -7.404  19.804  67.518  1.00  0.00    -0.263 C  
BRANCH  18  19
HETATM   19  N   UNL     1      -6.952  21.184  67.310  1.00  0.00    -0.565 NA 
HETATM   20  H   UNL     1      -7.201  21.782  68.098  1.00  0.00     0.000 HD 
HETATM   21  C   UNL     1      -5.526  21.241  67.029  1.00  0.00    -0.282 C  
ENDBRANCH  18  19
ENDBRANCH  16  18
ENDBRANCH  15  16
ENDBRANCH  14  15
ENDBRANCH  11  14
ENDBRANCH   5   8
ENDBRANCH   3   4
ENDBRANCH   1   3
BRANCH   1  22
HETATM   22  N   UNL     1     -11.322  11.591  67.637  1.00  0.00    -0.329 NA 
HETATM   23  N   UNL     1     -10.703  10.223  69.283  1.00  0.00    -0.219 NA 
HETATM   24  C   UNL     1     -10.113  11.987  68.052  1.00  0.00    -0.198 A  
HETATM   25  C   UNL     1     -11.636  10.525  68.454  1.00  0.00    -0.128 A  
HETATM   26  N   UNL     1      -9.719  11.121  69.014  1.00  0.00    -0.147 NA 
BRANCH  26  27
HETATM   27  C   UNL     1      -8.374  11.029  69.602  1.00  0.00     0.457 C  
HETATM   28  S   UNL     1      -7.419  10.344  65.425  1.00  0.00    -0.092 SA 
HETATM   29  C   UNL     1      -7.098  13.385  69.630  1.00  0.00     0.311 A  
HETATM   30  C   UNL     1      -5.204  12.195  67.457  1.00  0.00    -0.100 C  
HETATM   31  C   UNL     1      -6.863  10.414  67.058  1.00  0.00    -0.085 A  
HETATM   32  O   UNL     1      -6.081  11.234  70.007  1.00  0.00    -0.111 OA 
HETATM   33  C   UNL     1      -6.258  13.851  70.670  1.00  0.00    -0.065 A  
HETATM   34  C   UNL     1      -7.738  14.392  68.878  1.00  0.00    -0.128 A  
HETATM   35  H   UNL     1      -5.322  11.750  69.764  1.00  0.00     0.000 HD 
HETATM   36  C   UNL     1      -7.522  15.758  69.095  1.00  0.00    -0.207 A  
HETATM   37  F   UNL     1      -8.526  14.076  67.845  1.00  0.00    -0.136 F  
HETATM   38  C   UNL     1      -7.104   8.669  65.403  1.00  0.00    -0.083 A  
HETATM   39  C   UNL     1      -7.116  11.885  69.198  1.00  0.00    -0.053 C  
HETATM   40  N   UNL     1      -6.574   9.249  67.602  1.00  0.00    -0.063 NA 
HETATM   41  C   UNL     1      -6.019  15.218  70.864  1.00  0.00     0.136 A  
HETATM   42  F   UNL     1      -5.136  15.603  71.795  1.00  0.00    -0.190 F  
HETATM   43  C   UNL     1      -6.637  16.177  70.079  1.00  0.00     0.053 A  
HETATM   44  C   UNL     1      -6.717   8.237  66.657  1.00  0.00    -0.064 A  
HETATM   45  C   UNL     1      -6.676  11.772  67.690  1.00  0.00    -0.091 C  
BRANCH  44  46
HETATM   46  C   UNL     1      -6.508   6.829  66.983  1.00  0.00    -0.043 A  
HETATM   47  C   UNL     1      -7.264   6.215  67.996  1.00  0.00    -0.083 A  
HETATM   48  C   UNL     1      -7.032   4.885  68.357  1.00  0.00    -0.057 A  
HETATM   49  C   UNL     1      -6.042   4.144  67.712  1.00  0.00    -0.032 A  
HETATM   50  C   UNL     1      -5.299   4.740  66.682  1.00  0.00    -0.012 A  
HETATM   51  C   UNL     1      -5.786   2.787  68.108  1.00  0.00    -0.019 C  
HETATM   52  C   UNL     1      -5.528   6.077  66.325  1.00  0.00    -0.010 A  
HETATM   53  N   UNL     1      -5.570   1.702  68.455  1.00  0.00    -0.017 NA 
ENDBRANCH  44  46
ENDBRANCH  26  27
ENDBRANCH   1  22
TORSDOF 11
ENDMDL
MODEL       12
REMARK 921   NORMALIZED FREE ENERGY PREDICTED BY IDOCK:    4.14 KCAL/MOL
REMARK 922        TOTAL FREE ENERGY PREDICTED BY IDOCK:    3.82 KCAL/MOL
REMARK 923 INTER-LIGAND FREE ENERGY PREDICTED BY IDOCK:    1.78 KCAL/MOL
REMARK 924 INTRA-LIGAND FREE ENERGY PREDICTED BY IDOCK:    2.04 KCAL/MOL
REMARK 927      BINDING AFFINITY PREDICTED BY RF-SCORE:    0.00 PKD
ROOT
HETATM    1  C   UNL     1     -12.821  13.007  67.875  1.00  0.00     1.896 C  
HETATM    2  C   UNL     1     -13.283  13.817  66.655  1.00  0.00     1.740 C  
ENDROOT
BRANCH   1   3
HETATM    3  O   UNL     1     -12.545  13.862  69.000  1.00  0.00    -0.054 OA 
BRANCH   3   4
HETATM    4  C   UNL     1     -11.301  13.566  69.533  1.00  0.00    -0.202 C  
HETATM    5  N   UNL     1     -10.261  14.438  69.208  1.00  0.00    -0.129 N  
HETATM    6  C   UNL     1      -9.009  14.226  69.947  1.00  0.00     1.166 C  
HETATM    7  O   UNL     1     -11.132  12.558  70.216  1.00  0.00     0.405 OA 
BRANCH   5   8
HETATM    8  C   UNL     1     -10.516  15.803  68.924  1.00  0.00    -0.223 A  
HETATM    9  C   UNL     1     -10.869  17.910  69.846  1.00  0.00     1.345 A  
HETATM   10  N   UNL     1     -10.809  16.571  70.003  1.00  0.00    -0.321 NA 
HETATM   11  C   UNL     1     -10.288  16.353  67.657  1.00  0.00    -0.284 A  
HETATM   12  C   UNL     1     -10.404  17.751  67.532  1.00  0.00    -0.371 A  
HETATM   13  C   UNL     1     -10.686  18.543  68.637  1.00  0.00     0.233 A  
BRANCH  11  14
HETATM   14  C   UNL     1      -9.931  15.589  66.410  1.00  0.00    -0.283 C  
BRANCH  14  15
HETATM   15  O   UNL     1     -11.049  15.183  65.616  1.00  0.00    -0.336 OA 
BRANCH  15  16
HETATM   16  C   UNL     1     -10.712  14.542  64.455  1.00  0.00    -0.174 C  
HETATM   17  O   UNL     1      -9.573  14.243  64.125  1.00  0.00     1.066 OA 
BRANCH  16  18
HETATM   18  C   UNL     1     -12.001  14.239  63.690  1.00  0.00     0.139 C  
BRANCH  18  19
HETATM   19  N   UNL     1     -11.950  12.922  63.047  1.00  0.00    -0.785 NA 
HETATM   20  H   UNL     1     -11.041  12.753  62.615  1.00  0.00     0.000 HD 
HETATM   21  C   UNL     1     -12.303  11.860  63.977  1.00  0.00    -0.327 C  
ENDBRANCH  18  19
ENDBRANCH  16  18
ENDBRANCH  15  16
ENDBRANCH  14  15
ENDBRANCH  11  14
ENDBRANCH   5   8
ENDBRANCH   3   4
ENDBRANCH   1   3
BRANCH   1  22
HETATM   22  N   UNL     1     -11.633  12.220  67.513  1.00  0.00    -0.362 NA 
HETATM   23  N   UNL     1     -10.445  10.407  66.998  1.00  0.00    -0.243 NA 
HETATM   24  C   UNL     1     -10.491  12.637  66.955  1.00  0.00    -0.232 A  
HETATM   25  C   UNL     1     -11.526  10.844  67.535  1.00  0.00    -0.152 A  
HETATM   26  N   UNL     1      -9.797  11.532  66.595  1.00  0.00    -0.199 NA 
BRANCH  26  27
HETATM   27  C   UNL     1      -8.591  11.499  65.755  1.00  0.00     0.059 C  
HETATM   28  S   UNL     1      -6.781  12.084  69.656  1.00  0.00     0.096 SA 
HETATM   29  C   UNL     1      -7.566   9.033  65.520  1.00  0.00    -0.090 A  
HETATM   30  C   UNL     1      -5.184  10.038  67.263  1.00  0.00    -0.041 C  
HETATM   31  C   UNL     1      -6.563  11.966  67.947  1.00  0.00    -0.075 A  
HETATM   32  O   UNL     1      -6.449  11.081  64.916  1.00  0.00    -0.345 OA 
HETATM   33  C   UNL     1      -6.991   8.493  64.343  1.00  0.00    -0.081 A  
HETATM   34  C   UNL     1      -8.137   8.089  66.398  1.00  0.00    -0.107 A  
HETATM   35  H   UNL     1      -5.707  10.495  65.016  1.00  0.00     0.000 HD 
HETATM   36  C   UNL     1      -8.093   6.709  66.166  1.00  0.00    -0.118 A  
HETATM   37  F   UNL     1      -8.676   8.476  67.559  1.00  0.00    -0.130 F  
HETATM   38  C   UNL     1      -6.315  13.723  69.588  1.00  0.00    -0.116 A  
HETATM   39  C   UNL     1      -7.362  10.528  65.921  1.00  0.00    -0.142 C  
HETATM   40  N   UNL     1      -6.279  13.099  67.338  1.00  0.00    -0.299 NA 
HETATM   41  C   UNL     1      -6.921   7.110  64.130  1.00  0.00    -0.056 A  
HETATM   42  F   UNL     1      -6.276   6.646  63.052  1.00  0.00    -0.037 F  
HETATM   43  C   UNL     1      -7.460   6.211  65.036  1.00  0.00    -0.082 A  
HETATM   44  C   UNL     1      -6.142  14.119  68.276  1.00  0.00    -0.118 A  
HETATM   45  C   UNL     1      -6.628  10.597  67.314  1.00  0.00    -0.073 C  
BRANCH  44  46
HETATM   46  C   UNL     1      -5.872  15.501  67.892  1.00  0.00    -0.161 A  
HETATM   47  C   UNL     1      -6.030  16.541  68.823  1.00  0.00    -0.132 A  
HETATM   48  C   UNL     1      -5.831  17.873  68.451  1.00  0.00    -0.172 A  
HETATM   49  C   UNL     1      -5.470  18.191  67.141  1.00  0.00    -0.145 A  
HETATM   50  C   UNL     1      -5.285  17.159  66.210  1.00  0.00    -0.066 A  
HETATM   51  C   UNL     1      -5.297  19.564  66.755  1.00  0.00    -0.163 C  
HETATM   52  C   UNL     1      -5.490  15.822  66.583  1.00  0.00     1.225 A  
HETATM   53  N   UNL     1      -5.189  20.677  66.450  1.00  0.00    -0.161 NA 
ENDBRANCH  44  46
ENDBRANCH  26  27
ENDBRANCH   1  22
TORSDOF 11
ENDMDL
MODEL       13
REMARK 921   NORMALIZED FREE ENERGY PREDICTED BY IDOCK:    7.21 KCAL/MOL
REMARK 922        TOTAL FREE ENERGY PREDICTED BY IDOCK:    8.86 KCAL/MOL
REMARK 923 INTER-LIGAND FREE ENERGY PREDICTED BY IDOCK:    8.27 KCAL/MOL
REMARK 924 INTRA-LIGAND FREE ENERGY PREDICTED BY IDOCK:    0.59 KCAL/MOL
REMARK 927      BINDING AFFINITY PREDICTED BY RF-SCORE:    0.00 PKD
ROOT
HETATM    1  C   UNL     1     -13.523  13.831  69.705  1.00  0.00     1.937 C  
HETATM    2  C   UNL     1     -13.080  15.020  68.842  1.00  0.00     1.553 C  
ENDROOT
BRANCH   1   3
HETATM    3  O   UNL     1     -13.912  14.256  71.025  1.00  0.00    -0.197 OA 
BRANCH   3   4
HETATM    4  C   UNL     1     -13.268  13.492  71.985  1.00  0.00    -0.439 C  
HETATM    5  N   UNL     1     -12.203  14.098  72.651  1.00  0.00     0.060 N  
HETATM    6  C   UNL     1     -11.672  13.352  73.801  1.00  0.00     5.554 C  
HETATM    7  O   UNL     1     -13.601  12.327  72.190  1.00  0.00    -0.461 OA 
BRANCH   5   8
HETATM    8  C   UNL     1     -12.162  15.504  72.833  1.00  0.00    -0.439 A  
HETATM    9  C   UNL     1     -12.463  17.240  74.352  1.00  0.00     0.577 A  
HETATM   10  N   UNL     1     -12.646  15.945  74.021  1.00  0.00    -0.590 NA 
HETATM   11  C   UNL     1     -11.492  16.349  71.940  1.00  0.00    -0.209 A  
HETATM   12  C   UNL     1     -11.363  17.702  72.310  1.00  0.00     2.040 A  
HETATM   13  C   UNL     1     -11.841  18.154  73.532  1.00  0.00     1.994 A  
BRANCH  11  14
HETATM   14  C   UNL     1     -10.897  15.948  70.617  1.00  0.00    -0.213 C  
BRANCH  14  15
HETATM   15  O   UNL     1     -11.095  16.892  69.561  1.00  0.00    -0.174 OA 
BRANCH  15  16
HETATM   16  C   UNL     1      -9.944  17.462  69.092  1.00  0.00    -0.200 C  
HETATM   17  O   UNL     1      -8.813  17.082  69.361  1.00  0.00     0.017 OA 
BRANCH  16  18
HETATM   18  C   UNL     1     -10.331  18.606  68.153  1.00  0.00    -0.359 C  
BRANCH  18  19
HETATM   19  N   UNL     1      -9.168  19.121  67.422  1.00  0.00    -0.295 NA 
HETATM   20  H   UNL     1      -8.599  18.363  67.044  1.00  0.00     0.000 HD 
HETATM   21  C   UNL     1      -9.564  20.059  66.383  1.00  0.00    -0.421 C  
ENDBRANCH  18  19
ENDBRANCH  16  18
ENDBRANCH  15  16
ENDBRANCH  14  15
ENDBRANCH  11  14
ENDBRANCH   5   8
ENDBRANCH   3   4
ENDBRANCH   1   3
BRANCH   1  22
HETATM   22  N   UNL     1     -12.431  12.848  69.773  1.00  0.00    -0.015 NA 
HETATM   23  N   UNL     1     -11.414  10.881  69.523  1.00  0.00    -0.273 NA 
HETATM   24  C   UNL     1     -11.114  13.065  69.867  1.00  0.00     0.295 A  
HETATM   25  C   UNL     1     -12.545  11.485  69.593  1.00  0.00     0.111 A  
HETATM   26  N   UNL     1     -10.500  11.877  69.660  1.00  0.00     0.347 NA 
BRANCH  26  27
HETATM   27  C   UNL     1      -9.059  11.669  69.453  1.00  0.00     0.758 C  
HETATM   28  S   UNL     1     -10.646   9.244  66.223  1.00  0.00     0.378 SA 
HETATM   29  C   UNL     1      -7.994  13.446  67.753  1.00  0.00    -0.167 A  
HETATM   30  C   UNL     1      -7.670  11.082  65.746  1.00  0.00     0.037 C  
HETATM   31  C   UNL     1      -9.261   9.775  67.106  1.00  0.00    -0.138 A  
HETATM   32  O   UNL     1      -6.941  11.410  68.496  1.00  0.00    -0.070 OA 
HETATM   33  C   UNL     1      -6.712  14.034  67.878  1.00  0.00    -0.171 A  
HETATM   34  C   UNL     1      -8.949  14.225  67.067  1.00  0.00    -0.236 A  
HETATM   35  H   UNL     1      -6.455  11.582  67.698  1.00  0.00     0.000 HD 
HETATM   36  C   UNL     1      -8.648  15.467  66.494  1.00  0.00    -0.320 A  
HETATM   37  F   UNL     1     -10.184  13.760  66.853  1.00  0.00    -0.249 F  
HETATM   38  C   UNL     1     -10.398   7.663  66.811  1.00  0.00    -0.273 A  
HETATM   39  C   UNL     1      -8.253  11.954  68.130  1.00  0.00    -0.158 C  
HETATM   40  N   UNL     1      -8.713   8.868  67.888  1.00  0.00    -0.129 NA 
HETATM   41  C   UNL     1      -6.406  15.262  67.275  1.00  0.00     0.139 A  
HETATM   42  F   UNL     1      -5.151  15.726  67.335  1.00  0.00    -0.129 F  
HETATM   43  C   UNL     1      -7.361  15.981  66.576  1.00  0.00     0.057 A  
HETATM   44  C   UNL     1      -9.367   7.649  67.731  1.00  0.00    -0.142 A  
HETATM   45  C   UNL     1      -8.748  11.173  66.854  1.00  0.00    -0.152 C  
BRANCH  44  46
HETATM   46  C   UNL     1      -9.009   6.465  68.505  1.00  0.00    -0.125 A  
HETATM   47  C   UNL     1      -9.963   5.466  68.758  1.00  0.00    -0.235 A  
HETATM   48  C   UNL     1      -9.648   4.357  69.547  1.00  0.00    -0.271 A  
HETATM   49  C   UNL     1      -8.373   4.224  70.098  1.00  0.00    -0.081 A  
HETATM   50  C   UNL     1      -7.405   5.204  69.832  1.00  0.00    -0.060 A  
HETATM   51  C   UNL     1      -8.064   3.099  70.934  1.00  0.00    -0.053 C  
HETATM   52  C   UNL     1      -7.724   6.320  69.044  1.00  0.00    -0.100 A  
HETATM   53  N   UNL     1      -7.835   2.200  71.630  1.00  0.00    -0.041 NA 
ENDBRANCH  44  46
ENDBRANCH  26  27
ENDBRANCH   1  22
TORSDOF 11
ENDMDL
MODEL       14
REMARK 921   NORMALIZED FREE ENERGY PREDICTED BY IDOCK:    8.60 KCAL/MOL
REMARK 922        TOTAL FREE ENERGY PREDICTED BY IDOCK:   11.14 KCAL/MOL
REMARK 923 INTER-LIGAND FREE ENERGY PREDICTED BY IDOCK:    8.12 KCAL/MOL
REMARK 924 INTRA-LIGAND FREE ENERGY PREDICTED BY IDOCK:    3.02 KCAL/MOL
REMARK 927      BINDING AFFINITY PREDICTED BY RF-SCORE:    0.00 PKD
ROOT
HETATM    1  C   UNL     1     -12.842  13.995  69.034  1.00  0.00     0.994 C  
HETATM    2  C   UNL     1     -12.853  14.909  67.801  1.00  0.00     1.666 C  
ENDROOT
BRANCH   1   3
HETATM    3  O   UNL     1     -12.842  14.758  70.255  1.00  0.00    -0.310 OA 
BRANCH   3   4
HETATM    4  C   UNL     1     -11.793  14.362  71.069  1.00  0.00    -0.270 C  
HETATM    5  N   UNL     1     -10.593  15.057  70.918  1.00  0.00     0.040 N  
HETATM    6  C   UNL     1      -9.565  14.765  71.927  1.00  0.00     4.532 C  
HETATM    7  O   UNL     1     -11.919  13.416  71.843  1.00  0.00     0.487 OA 
BRANCH   5   8
HETATM    8  C   UNL     1     -10.581  16.407  70.486  1.00  0.00     0.232 A  
HETATM    9  C   UNL     1     -10.679  18.629  71.169  1.00  0.00     2.999 A  
HETATM   10  N   UNL     1     -10.863  17.322  71.447  1.00  0.00     1.363 NA 
HETATM   11  C   UNL     1     -10.120  16.777  69.217  1.00  0.00    -0.240 A  
HETATM   12  C   UNL     1      -9.984  18.155  68.958  1.00  0.00    -0.294 A  
HETATM   13  C   UNL     1     -10.255  19.094  69.944  1.00  0.00     0.674 A  
BRANCH  11  14
HETATM   14  C   UNL     1      -9.755  15.839  68.098  1.00  0.00    -0.211 C  
BRANCH  14  15
HETATM   15  O   UNL     1     -10.744  15.716  67.072  1.00  0.00    -0.313 OA 
BRANCH  15  16
HETATM   16  C   UNL     1     -10.234  15.581  65.811  1.00  0.00    -0.366 C  
HETATM   17  O   UNL     1      -9.196  14.996  65.533  1.00  0.00    -0.070 OA 
BRANCH  16  18
HETATM   18  C   UNL     1     -11.206  16.243  64.834  1.00  0.00    -0.236 C  
BRANCH  18  19
HETATM   19  N   UNL     1     -11.661  15.302  63.804  1.00  0.00    -0.630 NA 
HETATM   20  H   UNL     1     -10.897  15.025  63.188  1.00  0.00     0.000 HD 
HETATM   21  C   UNL     1     -12.317  14.144  64.393  1.00  0.00    -0.381 C  
ENDBRANCH  18  19
ENDBRANCH  16  18
ENDBRANCH  15  16
ENDBRANCH  14  15
ENDBRANCH  11  14
ENDBRANCH   5   8
ENDBRANCH   3   4
ENDBRANCH   1   3
BRANCH   1  22
HETATM   22  N   UNL     1     -11.668  13.110  68.971  1.00  0.00    -0.302 NA 
HETATM   23  N   UNL     1     -10.529  11.196  69.021  1.00  0.00    -0.213 NA 
HETATM   24  C   UNL     1     -10.475  13.341  68.411  1.00  0.00    -0.253 A  
HETATM   25  C   UNL     1     -11.622  11.784  69.349  1.00  0.00    -0.322 A  
HETATM   26  N   UNL     1      -9.809  12.164  68.395  1.00  0.00    -0.212 NA 
BRANCH  26  27
HETATM   27  C   UNL     1      -8.554  11.886  67.681  1.00  0.00    -0.156 C  
HETATM   28  S   UNL     1      -7.052  14.355  70.918  1.00  0.00     1.475 SA 
HETATM   29  C   UNL     1      -7.302   9.704  68.608  1.00  0.00    -0.074 A  
HETATM   30  C   UNL     1      -5.133  11.635  69.742  1.00  0.00    -0.063 C  
HETATM   31  C   UNL     1      -6.717  13.504  69.453  1.00  0.00    -0.051 A  
HETATM   32  O   UNL     1      -6.334  11.367  67.157  1.00  0.00    -0.084 OA 
HETATM   33  C   UNL     1      -6.609   8.757  67.815  1.00  0.00    -0.061 A  
HETATM   34  C   UNL     1      -7.842   9.202  69.810  1.00  0.00    -0.088 A  
HETATM   35  H   UNL     1      -5.552  10.973  67.524  1.00  0.00     0.000 HD 
HETATM   36  C   UNL     1      -7.662   7.878  70.231  1.00  0.00    -0.088 A  
HETATM   37  F   UNL     1      -8.485  10.009  70.660  1.00  0.00    -0.149 F  
HETATM   38  C   UNL     1      -6.729  15.828  70.120  1.00  0.00     0.118 A  
HETATM   39  C   UNL     1      -7.257  11.232  68.290  1.00  0.00    -0.080 C  
HETATM   40  N   UNL     1      -6.497  14.265  68.401  1.00  0.00    -0.096 NA 
HETATM   41  C   UNL     1      -6.403   7.443  68.254  1.00  0.00    -0.040 A  
HETATM   42  F   UNL     1      -5.654   6.615  67.515  1.00  0.00    -0.010 F  
HETATM   43  C   UNL     1      -6.917   6.996  69.460  1.00  0.00    -0.062 A  
HETATM   44  C   UNL     1      -6.510  15.606  68.775  1.00  0.00    -0.109 A  
HETATM   45  C   UNL     1      -6.620  11.998  69.510  1.00  0.00    -0.079 C  
BRANCH  44  46
HETATM   46  C   UNL     1      -6.339  16.687  67.809  1.00  0.00    -0.158 A  
HETATM   47  C   UNL     1      -6.596  16.469  66.445  1.00  0.00     0.276 A  
HETATM   48  C   UNL     1      -6.381  17.479  65.504  1.00  0.00     0.239 A  
HETATM   49  C   UNL     1      -5.906  18.727  65.908  1.00  0.00    -0.205 A  
HETATM   50  C   UNL     1      -5.669  18.964  67.271  1.00  0.00    -0.162 A  
HETATM   51  C   UNL     1      -5.656  19.752  64.934  1.00  0.00    -0.184 C  
HETATM   52  C   UNL     1      -5.881  17.947  68.213  1.00  0.00    -0.168 A  
HETATM   53  N   UNL     1      -5.432  20.561  64.134  1.00  0.00    -0.187 NA 
ENDBRANCH  44  46
ENDBRANCH  26  27
ENDBRANCH   1  22
TORSDOF 11
ENDMDL
MODEL       15
REMARK 921   NORMALIZED FREE ENERGY PREDICTED BY IDOCK:   10.76 KCAL/MOL
REMARK 922        TOTAL FREE ENERGY PREDICTED BY IDOCK:   14.69 KCAL/MOL
REMARK 923 INTER-LIGAND FREE ENERGY PREDICTED BY IDOCK:    6.21 KCAL/MOL
REMARK 924 INTRA-LIGAND FREE ENERGY PREDICTED BY IDOCK:    8.48 KCAL/MOL
REMARK 927      BINDING AFFINITY PREDICTED BY RF-SCORE:    0.00 PKD
ROOT
HETATM    1  C   UNL     1      -9.782   7.297  71.578  1.00  0.00    -0.159 C  
HETATM    2  C   UNL     1      -8.341   7.415  72.092  1.00  0.00    -0.122 C  
ENDROOT
BRANCH   1   3
HETATM    3  O   UNL     1     -10.118   5.934  71.260  1.00  0.00    -0.186 OA 
BRANCH   3   4
HETATM    4  C   UNL     1     -10.739   5.868  70.023  1.00  0.00    -0.326 C  
HETATM    5  N   UNL     1     -12.109   6.129  70.001  1.00  0.00     0.361 N  
HETATM    6  C   UNL     1     -12.704   6.259  68.663  1.00  0.00     6.847 C  
HETATM    7  O   UNL     1     -10.108   5.550  69.017  1.00  0.00    -0.170 OA 
BRANCH   5   8
HETATM    8  C   UNL     1     -12.704   6.987  70.961  1.00  0.00    -0.246 A  
HETATM    9  C   UNL     1     -13.085   9.202  71.563  1.00  0.00    -0.349 A  
HETATM   10  N   UNL     1     -12.407   8.303  70.819  1.00  0.00    -0.033 NA 
HETATM   11  C   UNL     1     -13.677   6.535  71.859  1.00  0.00     0.105 A  
HETATM   12  C   UNL     1     -14.328   7.505  72.645  1.00  0.00     0.256 A  
HETATM   13  C   UNL     1     -14.040   8.855  72.491  1.00  0.00    -0.441 A  
BRANCH  11  14
HETATM   14  C   UNL     1     -14.095   5.104  72.067  1.00  0.00     3.336 C  
BRANCH  14  15
HETATM   15  O   UNL     1     -13.379   4.413  73.094  1.00  0.00     0.645 OA 
BRANCH  15  16
HETATM   16  C   UNL     1     -12.021   4.560  73.029  1.00  0.00     0.194 C  
HETATM   17  O   UNL     1     -11.406   5.558  73.378  1.00  0.00    -0.234 OA 
BRANCH  16  18
HETATM   18  C   UNL     1     -11.429   3.255  72.493  1.00  0.00     0.977 C  
BRANCH  18  19
HETATM   19  N   UNL     1     -10.062   3.447  71.996  1.00  0.00    -0.147 NA 
HETATM   20  H   UNL     1      -9.980   4.304  71.449  1.00  0.00     0.000 HD 
HETATM   21  C   UNL     1      -9.091   3.413  73.079  1.00  0.00    -0.094 C  
ENDBRANCH  18  19
ENDBRANCH  16  18
ENDBRANCH  15  16
ENDBRANCH  14  15
ENDBRANCH  11  14
ENDBRANCH   5   8
ENDBRANCH   3   4
ENDBRANCH   1   3
BRANCH   1  22
HETATM   22  N   UNL     1      -9.951   8.165  70.403  1.00  0.00    -0.187 NA 
HETATM   23  N   UNL     1     -10.387  10.033  69.269  1.00  0.00    -0.204 NA 
HETATM   24  C   UNL     1      -9.458   8.007  69.169  1.00  0.00    -0.155 A  
HETATM   25  C   UNL     1     -10.532   9.416  70.386  1.00  0.00    -0.256 A  
HETATM   26  N   UNL     1      -9.678   9.164  68.502  1.00  0.00    -0.152 NA 
BRANCH  26  27
HETATM   27  C   UNL     1      -9.118   9.533  67.193  1.00  0.00    -0.134 C  
HETATM   28  S   UNL     1      -6.417  11.700  69.808  1.00  0.00    -0.069 SA 
HETATM   29  C   UNL     1      -7.185   7.858  66.391  1.00  0.00    -0.082 A  
HETATM   30  C   UNL     1      -5.188  10.207  66.855  1.00  0.00    -0.041 C  
HETATM   31  C   UNL     1      -6.917  11.347  68.194  1.00  0.00    -0.069 A  
HETATM   32  O   UNL     1      -7.662  10.014  65.428  1.00  0.00    -0.125 OA 
HETATM   33  C   UNL     1      -6.977   7.423  65.059  1.00  0.00    -0.051 A  
HETATM   34  C   UNL     1      -6.752   6.962  67.391  1.00  0.00    -0.067 A  
HETATM   35  H   UNL     1      -6.766   9.884  65.141  1.00  0.00     0.000 HD 
HETATM   36  C   UNL     1      -6.108   5.752  67.102  1.00  0.00    -0.022 A  
HETATM   37  F   UNL     1      -6.861   7.279  68.685  1.00  0.00    -0.064 F  
HETATM   38  C   UNL     1      -6.941  13.310  69.604  1.00  0.00     0.242 A  
HETATM   39  C   UNL     1      -7.632   9.317  66.718  1.00  0.00    -0.090 C  
HETATM   40  N   UNL     1      -7.548  12.325  67.576  1.00  0.00    -0.144 NA 
HETATM   41  C   UNL     1      -6.303   6.227  64.775  1.00  0.00    -0.034 A  
HETATM   42  F   UNL     1      -6.041   5.911  63.500  1.00  0.00    -0.023 F  
HETATM   43  C   UNL     1      -5.859   5.391  65.785  1.00  0.00    -0.018 A  
HETATM   44  C   UNL     1      -7.573  13.458  68.385  1.00  0.00    -0.133 A  
HETATM   45  C   UNL     1      -6.530  10.013  67.603  1.00  0.00    -0.063 C  
BRANCH  44  46
HETATM   46  C   UNL     1      -8.246  14.689  67.983  1.00  0.00    -0.145 A  
HETATM   47  C   UNL     1      -9.647  14.733  67.881  1.00  0.00    -0.210 A  
HETATM   48  C   UNL     1     -10.298  15.888  67.441  1.00  0.00    -0.288 A  
HETATM   49  C   UNL     1      -9.562  17.022  67.095  1.00  0.00    -0.253 A  
HETATM   50  C   UNL     1      -8.165  16.997  67.217  1.00  0.00    -0.205 A  
HETATM   51  C   UNL     1     -10.234  18.196  66.614  1.00  0.00    -0.381 C  
HETATM   52  C   UNL     1      -7.512  15.835  67.653  1.00  0.00    -0.180 A  
HETATM   53  N   UNL     1     -10.786  19.128  66.200  1.00  0.00    -0.404 NA 
ENDBRANCH  44  46
ENDBRANCH  26  27
ENDBRANCH   1  22
TORSDOF 11
ENDMDL
MODEL       16
REMARK 921   NORMALIZED FREE ENERGY PREDICTED BY IDOCK:   14.22 KCAL/MOL
REMARK 922        TOTAL FREE ENERGY PREDICTED BY IDOCK:   20.38 KCAL/MOL
REMARK 923 INTER-LIGAND FREE ENERGY PREDICTED BY IDOCK:    9.69 KCAL/MOL
REMARK 924 INTRA-LIGAND FREE ENERGY PREDICTED BY IDOCK:   10.68 KCAL/MOL
REMARK 927      BINDING AFFINITY PREDICTED BY RF-SCORE:    0.00 PKD
ROOT
HETATM    1  C   UNL     1     -12.988  13.816  67.282  1.00  0.00     1.570 C  
HETATM    2  C   UNL     1     -12.595  13.250  65.911  1.00  0.00    -0.349 C  
ENDROOT
BRANCH   1   3
HETATM    3  O   UNL     1     -12.880  15.252  67.308  1.00  0.00     1.336 OA 
BRANCH   3   4
HETATM    4  C   UNL     1     -12.622  15.690  68.597  1.00  0.00     0.793 C  
HETATM    5  N   UNL     1     -11.397  16.326  68.804  1.00  0.00    -0.350 N  
HETATM    6  C   UNL     1     -11.234  16.964  70.118  1.00  0.00     0.383 C  
HETATM    7  O   UNL     1     -13.421  15.479  69.506  1.00  0.00     0.799 OA 
BRANCH   5   8
HETATM    8  C   UNL     1     -10.758  17.037  67.756  1.00  0.00    -0.318 A  
HETATM    9  C   UNL     1     -10.004  16.925  65.558  1.00  0.00     0.019 A  
HETATM   10  N   UNL     1     -10.432  16.292  66.670  1.00  0.00    -0.302 NA 
HETATM   11  C   UNL     1     -10.653  18.432  67.763  1.00  0.00    -0.419 A  
HETATM   12  C   UNL     1     -10.162  19.045  66.594  1.00  0.00    -0.475 A  
HETATM   13  C   UNL     1      -9.843  18.290  65.474  1.00  0.00     0.639 A  
BRANCH  11  14
HETATM   14  C   UNL     1     -11.016  19.344  68.904  1.00  0.00     1.198 C  
BRANCH  14  15
HETATM   15  O   UNL     1     -10.137  19.273  70.030  1.00  0.00     0.244 OA 
BRANCH  15  16
HETATM   16  C   UNL     1      -8.884  19.768  69.799  1.00  0.00     0.717 C  
HETATM   17  O   UNL     1      -8.640  20.809  69.206  1.00  0.00     1.287 OA 
BRANCH  16  18
HETATM   18  C   UNL     1      -7.874  18.820  70.447  1.00  0.00     2.255 C  
BRANCH  18  19
HETATM   19  N   UNL     1      -6.527  19.403  70.474  1.00  0.00     0.028 NA 
HETATM   20  H   UNL     1      -5.819  18.696  70.671  1.00  0.00     0.000 HD 
HETATM   21  C   UNL     1      -6.233  20.123  69.245  1.00  0.00    -0.326 C  
ENDBRANCH  18  19
ENDBRANCH  16  18
ENDBRANCH  15  16
ENDBRANCH  14  15
ENDBRANCH  11  14
ENDBRANCH   5   8
ENDBRANCH   3   4
ENDBRANCH   1   3
BRANCH   1  22
HETATM   22  N   UNL     1     -12.140  13.209  68.319  1.00  0.00    -0.266 NA 
HETATM   23  N   UNL     1     -11.354  11.613  69.660  1.00  0.00    -0.258 NA 
HETATM   24  C   UNL     1     -10.952  13.621  68.776  1.00  0.00    -0.264 A  
HETATM   25  C   UNL     1     -12.338  11.985  68.923  1.00  0.00     0.241 A  
HETATM   26  N   UNL     1     -10.455  12.626  69.546  1.00  0.00     0.390 NA 
BRANCH  26  27
HETATM   27  C   UNL     1      -9.087  12.539  70.077  1.00  0.00     3.591 C  
HETATM   28  S   UNL     1      -8.572  10.433  66.318  1.00  0.00    -0.146 SA 
HETATM   29  C   UNL     1      -7.541  14.579  69.281  1.00  0.00    -0.073 A  
HETATM   30  C   UNL     1      -5.991  12.507  67.542  1.00  0.00    -0.152 C  
HETATM   31  C   UNL     1      -7.877  10.941  67.815  1.00  0.00    -0.109 A  
HETATM   32  O   UNL     1      -6.759  12.540  70.300  1.00  0.00    -0.385 OA 
HETATM   33  C   UNL     1      -6.567  15.230  70.077  1.00  0.00    -0.125 A  
HETATM   34  C   UNL     1      -8.117  15.373  68.268  1.00  0.00    -0.136 A  
HETATM   35  H   UNL     1      -5.967  12.841  69.870  1.00  0.00     0.000 HD 
HETATM   36  C   UNL     1      -7.723  16.693  68.017  1.00  0.00    -0.168 A  
HETATM   37  F   UNL     1      -9.021  14.858  67.427  1.00  0.00    -0.166 F  
HETATM   38  C   UNL     1      -8.461   8.811  66.832  1.00  0.00    -0.111 A  
HETATM   39  C   UNL     1      -7.773  13.038  69.365  1.00  0.00     0.621 C  
HETATM   40  N   UNL     1      -7.684   9.982  68.697  1.00  0.00    -0.084 NA 
HETATM   41  C   UNL     1      -6.152  16.540  69.804  1.00  0.00    -0.215 A  
HETATM   42  F   UNL     1      -5.156  17.074  70.521  1.00  0.00    -0.166 F  
HETATM   43  C   UNL     1      -6.716  17.276  68.774  1.00  0.00    -0.203 A  
HETATM   44  C   UNL     1      -8.025   8.752  68.142  1.00  0.00    -0.106 A  
HETATM   45  C   UNL     1      -7.478  12.390  67.959  1.00  0.00    -0.114 C  
BRANCH  44  46
HETATM   46  C   UNL     1      -7.959   7.507  68.902  1.00  0.00    -0.126 A  
HETATM   47  C   UNL     1      -7.115   7.402  70.020  1.00  0.00    -0.065 A  
HETATM   48  C   UNL     1      -7.000   6.198  70.720  1.00  0.00    -0.067 A  
HETATM   49  C   UNL     1      -7.725   5.077  70.316  1.00  0.00    -0.067 A  
HETATM   50  C   UNL     1      -8.588   5.178  69.215  1.00  0.00    -0.100 A  
HETATM   51  C   UNL     1      -7.578   3.833  71.019  1.00  0.00    -0.047 C  
HETATM   52  C   UNL     1      -8.700   6.385  68.510  1.00  0.00    -0.121 A  
HETATM   53  N   UNL     1      -7.430   2.828  71.577  1.00  0.00    -0.040 NA 
ENDBRANCH  44  46
ENDBRANCH  26  27
ENDBRANCH   1  22
TORSDOF 11
ENDMDL
MODEL       17
REMARK 921   NORMALIZED FREE ENERGY PREDICTED BY IDOCK:   20.50 KCAL/MOL
REMARK 922        TOTAL FREE ENERGY PREDICTED BY IDOCK:   30.70 KCAL/MOL
REMARK 923 INTER-LIGAND FREE ENERGY PREDICTED BY IDOCK:   24.73 KCAL/MOL
REMARK 924 INTRA-LIGAND FREE ENERGY PREDICTED BY IDOCK:    5.97 KCAL/MOL
REMARK 927      BINDING AFFINITY PREDICTED BY RF-SCORE:    0.00 PKD
ROOT
HETATM    1  C   UNL     1     -13.931  13.573  70.376  1.00  0.00     2.158 C  
HETATM    2  C   UNL     1     -14.373  15.035  70.529  1.00  0.00     0.787 C  
ENDROOT
BRANCH   1   3
HETATM    3  O   UNL     1     -13.481  13.026  71.630  1.00  0.00    -0.338 OA 
BRANCH   3   4
HETATM    4  C   UNL     1     -12.118  12.781  71.585  1.00  0.00     0.852 C  
HETATM    5  N   UNL     1     -11.291  13.891  71.413  1.00  0.00     1.014 N  
HETATM    6  C   UNL     1      -9.853  13.637  71.577  1.00  0.00     8.384 C  
HETATM    7  O   UNL     1     -11.682  11.633  71.648  1.00  0.00     0.976 OA 
BRANCH   5   8
HETATM    8  C   UNL     1     -11.686  15.173  71.874  1.00  0.00    -0.415 A  
HETATM    9  C   UNL     1     -12.698  16.348  73.608  1.00  0.00    -0.399 A  
HETATM   10  N   UNL     1     -12.448  15.172  72.997  1.00  0.00    -0.386 NA 
HETATM   11  C   UNL     1     -11.166  16.351  71.326  1.00  0.00    -0.039 A  
HETATM   12  C   UNL     1     -11.489  17.559  71.975  1.00  0.00     1.898 A  
HETATM   13  C   UNL     1     -12.253  17.562  73.134  1.00  0.00     1.716 A  
BRANCH  11  14
HETATM   14  C   UNL     1     -10.292  16.452  70.105  1.00  0.00     0.095 C  
BRANCH  14  15
HETATM   15  O   UNL     1      -9.507  17.644  70.026  1.00  0.00     1.018 OA 
BRANCH  15  16
HETATM   16  C   UNL     1      -9.596  18.298  68.828  1.00  0.00    -0.300 C  
HETATM   17  O   UNL     1     -10.584  18.312  68.109  1.00  0.00    -0.361 OA 
BRANCH  16  18
HETATM   18  C   UNL     1      -8.273  19.028  68.589  1.00  0.00    -0.364 C  
BRANCH  18  19
HETATM   19  N   UNL     1      -7.770  19.651  69.818  1.00  0.00     0.134 NA 
HETATM   20  H   UNL     1      -7.906  19.045  70.627  1.00  0.00     0.000 HD 
HETATM   21  C   UNL     1      -6.378  20.052  69.682  1.00  0.00    -0.352 C  
ENDBRANCH  18  19
ENDBRANCH  16  18
ENDBRANCH  15  16
ENDBRANCH  14  15
ENDBRANCH  11  14
ENDBRANCH   5   8
ENDBRANCH   3   4
ENDBRANCH   1   3
BRANCH   1  22
HETATM   22  N   UNL     1     -12.872  13.490  69.360  1.00  0.00     0.529 NA 
HETATM   23  N   UNL     1     -11.660  14.108  67.595  1.00  0.00    -0.343 NA 
HETATM   24  C   UNL     1     -11.730  12.793  69.395  1.00  0.00    -0.319 A  
HETATM   25  C   UNL     1     -12.774  14.254  68.215  1.00  0.00     0.913 A  
HETATM   26  N   UNL     1     -10.976  13.211  68.353  1.00  0.00    -0.251 NA 
BRANCH  26  27
HETATM   27  C   UNL     1      -9.560  12.887  68.119  1.00  0.00    -0.223 C  
HETATM   28  S   UNL     1     -11.340  11.095  64.590  1.00  0.00     0.318 SA 
HETATM   29  C   UNL     1      -8.299  14.760  66.676  1.00  0.00    -0.004 A  
HETATM   30  C   UNL     1      -8.187  12.667  64.367  1.00  0.00     4.319 C  
HETATM   31  C   UNL     1      -9.920  11.358  65.536  1.00  0.00    -0.239 A  
HETATM   32  O   UNL     1      -7.467  12.545  67.135  1.00  0.00    -0.264 OA 
HETATM   33  C   UNL     1      -6.965  15.191  66.879  1.00  0.00     0.485 A  
HETATM   34  C   UNL     1      -9.160  15.718  66.102  1.00  0.00    -0.342 A  
HETATM   35  H   UNL     1      -6.955  12.773  66.368  1.00  0.00     0.000 HD 
HETATM   36  C   UNL     1      -8.727  16.988  65.702  1.00  0.00     0.458 A  
HETATM   37  F   UNL     1     -10.433  15.414  65.827  1.00  0.00    -0.281 F  
HETATM   38  C   UNL     1     -11.261   9.432  64.958  1.00  0.00     5.148 A  
HETATM   39  C   UNL     1      -8.712  13.264  66.847  1.00  0.00    -0.142 C  
HETATM   40  N   UNL     1      -9.478  10.303  66.189  1.00  0.00    -0.172 NA 
HETATM   41  C   UNL     1      -6.528  16.451  66.448  1.00  0.00     0.556 A  
HETATM   42  F   UNL     1      -5.234  16.773  66.571  1.00  0.00    -0.168 F  
HETATM   43  C   UNL     1      -7.396  17.352  65.854  1.00  0.00    -0.136 A  
HETATM   44  C   UNL     1     -10.250   9.190  65.867  1.00  0.00     0.104 A  
HETATM   45  C   UNL     1      -9.266  12.718  65.477  1.00  0.00     0.353 C  
BRANCH  44  46
HETATM   46  C   UNL     1     -10.023   7.881  66.474  1.00  0.00    -0.267 A  
HETATM   47  C   UNL     1     -11.019   7.283  67.264  1.00  0.00    -0.284 A  
HETATM   48  C   UNL     1     -10.792   6.059  67.897  1.00  0.00    -0.378 A  
HETATM   49  C   UNL     1      -9.567   5.408  67.752  1.00  0.00    -0.147 A  
HETATM   50  C   UNL     1      -8.574   5.985  66.945  1.00  0.00    -0.108 A  
HETATM   51  C   UNL     1      -9.327   4.165  68.431  1.00  0.00    -0.155 C  
HETATM   52  C   UNL     1      -8.801   7.216  66.315  1.00  0.00    -0.166 A  
HETATM   53  N   UNL     1      -9.136   3.177  69.006  1.00  0.00    -0.132 NA 
ENDBRANCH  44  46
ENDBRANCH  26  27
ENDBRANCH   1  22
TORSDOF 11
ENDMDL
MODEL       18
REMARK 921   NORMALIZED FREE ENERGY PREDICTED BY IDOCK:   22.83 KCAL/MOL
REMARK 922        TOTAL FREE ENERGY PREDICTED BY IDOCK:   34.53 KCAL/MOL
REMARK 923 INTER-LIGAND FREE ENERGY PREDICTED BY IDOCK:   21.28 KCAL/MOL
REMARK 924 INTRA-LIGAND FREE ENERGY PREDICTED BY IDOCK:   13.25 KCAL/MOL
REMARK 927      BINDING AFFINITY PREDICTED BY RF-SCORE:    0.00 PKD
ROOT
HETATM    1  C   UNL     1     -12.553  12.907  65.031  1.00  0.00    -0.472 C  
HETATM    2  C   UNL     1     -13.905  13.427  64.522  1.00  0.00     2.923 C  
ENDROOT
BRANCH   1   3
HETATM    3  O   UNL     1     -12.719  11.758  65.882  1.00  0.00     0.848 OA 
BRANCH   3   4
HETATM    4  C   UNL     1     -11.795  10.779  65.553  1.00  0.00     1.951 C  
HETATM    5  N   UNL     1     -10.546  10.871  66.168  1.00  0.00    -0.237 N  
HETATM    6  C   UNL     1      -9.660   9.716  65.969  1.00  0.00    -0.242 C  
HETATM    7  O   UNL     1     -12.064   9.912  64.725  1.00  0.00     5.679 OA 
BRANCH   5   8
HETATM    8  C   UNL     1     -10.405  11.466  67.448  1.00  0.00    -0.202 A  
HETATM    9  C   UNL     1      -9.989  13.447  68.595  1.00  0.00    -0.135 A  
HETATM   10  N   UNL     1      -9.962  12.748  67.441  1.00  0.00    -0.210 NA 
HETATM   11  C   UNL     1     -10.877  10.846  68.611  1.00  0.00    -0.258 A  
HETATM   12  C   UNL     1     -10.846  11.601  69.799  1.00  0.00     0.111 A  
HETATM   13  C   UNL     1     -10.409  12.919  69.794  1.00  0.00     1.151 A  
BRANCH  11  14
HETATM   14  C   UNL     1     -11.413   9.444  68.713  1.00  0.00     0.454 C  
BRANCH  14  15
HETATM   15  O   UNL     1     -10.820   8.649  69.743  1.00  0.00    -0.232 OA 
BRANCH  15  16
HETATM   16  C   UNL     1     -10.467   7.388  69.348  1.00  0.00    -0.217 C  
HETATM   17  O   UNL     1      -9.518   7.120  68.625  1.00  0.00    -0.141 OA 
BRANCH  16  18
HETATM   18  C   UNL     1     -11.432   6.399  70.004  1.00  0.00    -0.428 C  
BRANCH  18  19
HETATM   19  N   UNL     1     -11.246   5.039  69.485  1.00  0.00     1.287 NA 
HETATM   20  H   UNL     1     -10.823   5.048  68.557  1.00  0.00     0.000 HD 
HETATM   21  C   UNL     1     -10.483   4.215  70.411  1.00  0.00     0.709 C  
ENDBRANCH  18  19
ENDBRANCH  16  18
ENDBRANCH  15  16
ENDBRANCH  14  15
ENDBRANCH  11  14
ENDBRANCH   5   8
ENDBRANCH   3   4
ENDBRANCH   1   3
BRANCH   1  22
HETATM   22  N   UNL     1     -11.855  13.988  65.742  1.00  0.00    -0.367 NA 
HETATM   23  N   UNL     1     -11.468  16.057  66.473  1.00  0.00     0.292 NA 
HETATM   24  C   UNL     1     -10.984  13.898  66.755  1.00  0.00    -0.299 A  
HETATM   25  C   UNL     1     -12.085  15.341  65.604  1.00  0.00     0.364 A  
HETATM   26  N   UNL     1     -10.795  15.151  67.229  1.00  0.00    -0.309 NA 
BRANCH  26  27
HETATM   27  C   UNL     1     -10.096  15.513  68.471  1.00  0.00    -0.211 C  
HETATM   28  S   UNL     1      -6.721  14.293  66.031  1.00  0.00     6.826 SA 
HETATM   29  C   UNL     1      -9.301  18.072  68.498  1.00  0.00    -0.312 A  
HETATM   30  C   UNL     1      -6.383  16.995  68.277  1.00  0.00    -0.143 C  
HETATM   31  C   UNL     1      -7.295  14.813  67.574  1.00  0.00    -0.201 A  
HETATM   32  O   UNL     1      -8.563  16.358  70.022  1.00  0.00     0.706 OA 
HETATM   33  C   UNL     1      -9.320  18.925  69.629  1.00  0.00     0.464 A  
HETATM   34  C   UNL     1      -9.421  18.723  67.252  1.00  0.00    -0.301 A  
HETATM   35  H   UNL     1      -7.859  16.990  70.109  1.00  0.00     0.000 HD 
HETATM   36  C   UNL     1      -9.495  20.115  67.124  1.00  0.00    -0.537 A  
HETATM   37  F   UNL     1      -9.378  18.026  66.112  1.00  0.00    -0.290 F  
HETATM   38  C   UNL     1      -6.325  12.777  66.705  1.00  0.00     0.866 A  
HETATM   39  C   UNL     1      -8.929  16.561  68.616  1.00  0.00    -0.236 C  
HETATM   40  N   UNL     1      -7.310  13.886  68.509  1.00  0.00    -0.109 NA 
HETATM   41  C   UNL     1      -9.362  20.320  69.495  1.00  0.00     0.691 A  
HETATM   42  F   UNL     1      -9.274  21.085  70.591  1.00  0.00     1.261 F  
HETATM   43  C   UNL     1      -9.441  20.924  68.251  1.00  0.00     0.357 A  
HETATM   44  C   UNL     1      -6.759  12.707  68.015  1.00  0.00    -0.095 A  
HETATM   45  C   UNL     1      -7.647  16.272  67.748  1.00  0.00    -0.151 C  
BRANCH  44  46
HETATM   46  C   UNL     1      -6.683  11.486  68.813  1.00  0.00    -0.079 A  
HETATM   47  C   UNL     1      -7.579  11.274  69.873  1.00  0.00     0.621 A  
HETATM   48  C   UNL     1      -7.479  10.138  70.680  1.00  0.00     0.335 A  
HETATM   49  C   UNL     1      -6.481   9.192  70.442  1.00  0.00    -0.051 A  
HETATM   50  C   UNL     1      -5.596   9.382  69.370  1.00  0.00    -0.035 A  
HETATM   51  C   UNL     1      -6.362   8.041  71.293  1.00  0.00    -0.035 C  
HETATM   52  C   UNL     1      -5.695  10.526  68.564  1.00  0.00    -0.040 A  
HETATM   53  N   UNL     1      -6.259   7.132  72.005  1.00  0.00    -0.041 NA 
ENDBRANCH  44  46
ENDBRANCH  26  27
ENDBRANCH   1  22
TORSDOF 11
ENDMDL
MODEL       19
REMARK 921   NORMALIZED FREE ENERGY PREDICTED BY IDOCK:   25.94 KCAL/MOL
REMARK 922        TOTAL FREE ENERGY PREDICTED BY IDOCK:   39.64 KCAL/MOL
REMARK 923 INTER-LIGAND FREE ENERGY PREDICTED BY IDOCK:   17.89 KCAL/MOL
REMARK 924 INTRA-LIGAND FREE ENERGY PREDICTED BY IDOCK:   21.75 KCAL/MOL
REMARK 927      BINDING AFFINITY PREDICTED BY RF-SCORE:    0.00 PKD
ROOT
HETATM    1  C   UNL     1     -12.706  12.850  64.971  1.00  0.00    -0.404 C  
HETATM    2  C   UNL     1     -13.918  13.777  64.801  1.00  0.00     3.284 C  
ENDROOT
BRANCH   1   3
HETATM    3  O   UNL     1     -13.035  11.696  65.767  1.00  0.00     1.990 OA 
BRANCH   3   4
HETATM    4  C   UNL     1     -11.891  11.172  66.347  1.00  0.00     1.004 C  
HETATM    5  N   UNL     1     -11.271  11.957  67.319  1.00  0.00    -0.296 N  
HETATM    6  C   UNL     1     -10.190  11.298  68.066  1.00  0.00    -0.183 C  
HETATM    7  O   UNL     1     -11.436  10.091  65.978  1.00  0.00     0.946 OA 
BRANCH   5   8
HETATM    8  C   UNL     1     -12.021  12.865  68.111  1.00  0.00    -0.261 A  
HETATM    9  C   UNL     1     -12.713  15.074  68.339  1.00  0.00     0.966 A  
HETATM   10  N   UNL     1     -11.888  14.171  67.769  1.00  0.00    -0.371 NA 
HETATM   11  C   UNL     1     -12.973  12.429  69.039  1.00  0.00     1.910 A  
HETATM   12  C   UNL     1     -13.782  13.413  69.639  1.00  0.00     3.595 A  
HETATM   13  C   UNL     1     -13.663  14.749  69.281  1.00  0.00     3.565 A  
BRANCH  11  14
HETATM   14  C   UNL     1     -13.214  11.004  69.460  1.00  0.00     1.349 C  
BRANCH  14  15
HETATM   15  O   UNL     1     -13.203  10.787  70.874  1.00  0.00    -0.278 OA 
BRANCH  15  16
HETATM   16  C   UNL     1     -12.481   9.696  71.270  1.00  0.00    -0.355 C  
HETATM   17  O   UNL     1     -11.261   9.650  71.341  1.00  0.00    -0.365 OA 
BRANCH  16  18
HETATM   18  C   UNL     1     -13.466   8.586  71.642  1.00  0.00    -0.346 C  
BRANCH  18  19
HETATM   19  N   UNL     1     -12.785   7.300  71.828  1.00  0.00    -0.392 NA 
HETATM   20  H   UNL     1     -11.784   7.426  71.978  1.00  0.00     0.000 HD 
HETATM   21  C   UNL     1     -13.391   6.526  72.900  1.00  0.00     1.527 C  
ENDBRANCH  18  19
ENDBRANCH  16  18
ENDBRANCH  15  16
ENDBRANCH  14  15
ENDBRANCH  11  14
ENDBRANCH   5   8
ENDBRANCH   3   4
ENDBRANCH   1   3
BRANCH   1  22
HETATM   22  N   UNL     1     -11.599  13.605  65.577  1.00  0.00    -0.317 NA 
HETATM   23  N   UNL     1     -10.479  15.390  66.300  1.00  0.00    -0.293 NA 
HETATM   24  C   UNL     1     -10.639  13.167  66.399  1.00  0.00    -0.286 A  
HETATM   25  C   UNL     1     -11.425  14.973  65.539  1.00  0.00    -0.265 A  
HETATM   26  N   UNL     1      -9.997  14.258  66.877  1.00  0.00    -0.257 NA 
BRANCH  26  27
HETATM   27  C   UNL     1      -9.018  14.278  67.975  1.00  0.00    -0.183 C  
HETATM   28  S   UNL     1      -7.023  11.568  65.235  1.00  0.00     1.733 SA 
HETATM   29  C   UNL     1      -7.147  16.169  67.653  1.00  0.00    -0.170 A  
HETATM   30  C   UNL     1      -5.127  13.848  67.150  1.00  0.00     0.808 C  
HETATM   31  C   UNL     1      -7.037  12.331  66.784  1.00  0.00     0.174 A  
HETATM   32  O   UNL     1      -7.041  14.342  69.221  1.00  0.00    -0.127 OA 
HETATM   33  C   UNL     1      -6.589  16.957  68.690  1.00  0.00    -0.173 A  
HETATM   34  C   UNL     1      -7.155  16.772  66.378  1.00  0.00    -0.151 A  
HETATM   35  H   UNL     1      -6.122  14.574  69.154  1.00  0.00     0.000 HD 
HETATM   36  C   UNL     1      -6.603  18.035  66.129  1.00  0.00    -0.293 A  
HETATM   37  F   UNL     1      -7.621  16.112  65.313  1.00  0.00     1.477 F  
HETATM   38  C   UNL     1      -7.263  10.059  65.992  1.00  0.00    -0.112 A  
HETATM   39  C   UNL     1      -7.495  14.663  67.864  1.00  0.00    -0.148 C  
HETATM   40  N   UNL     1      -7.323  11.539  67.797  1.00  0.00    -0.091 NA 
HETATM   41  C   UNL     1      -6.008  18.206  68.431  1.00  0.00    -0.180 A  
HETATM   42  F   UNL     1      -5.404  18.865  69.427  1.00  0.00    -0.184 F  
HETATM   43  C   UNL     1      -6.002  18.749  67.157  1.00  0.00    -0.167 A  
HETATM   44  C   UNL     1      -7.463  10.228  67.348  1.00  0.00    -0.094 A  
HETATM   45  C   UNL     1      -6.647  13.788  66.864  1.00  0.00     1.266 C  
BRANCH  44  46
HETATM   46  C   UNL     1      -7.826   9.132  68.241  1.00  0.00    -0.102 A  
HETATM   47  C   UNL     1      -8.560   8.036  67.758  1.00  0.00    -0.128 A  
HETATM   48  C   UNL     1      -8.963   7.010  68.616  1.00  0.00    -0.130 A  
HETATM   49  C   UNL     1      -8.640   7.058  69.972  1.00  0.00    -0.141 A  
HETATM   50  C   UNL     1      -7.886   8.136  70.460  1.00  0.00    -0.087 A  
HETATM   51  C   UNL     1      -9.084   6.017  70.856  1.00  0.00    -0.153 C  
HETATM   52  C   UNL     1      -7.486   9.168  69.599  1.00  0.00    -0.078 A  
HETATM   53  N   UNL     1      -9.472   5.184  71.563  1.00  0.00    -0.148 NA 
ENDBRANCH  44  46
ENDBRANCH  26  27
ENDBRANCH   1  22
TORSDOF 11
ENDMDL
MODEL       20
REMARK 921   NORMALIZED FREE ENERGY PREDICTED BY IDOCK:   65.45 KCAL/MOL
REMARK 922        TOTAL FREE ENERGY PREDICTED BY IDOCK:  104.56 KCAL/MOL
REMARK 923 INTER-LIGAND FREE ENERGY PREDICTED BY IDOCK:   86.36 KCAL/MOL
REMARK 924 INTRA-LIGAND FREE ENERGY PREDICTED BY IDOCK:   18.20 KCAL/MOL
REMARK 927      BINDING AFFINITY PREDICTED BY RF-SCORE:    0.00 PKD
ROOT
HETATM    1  C   UNL     1     -13.667  13.810  71.548  1.00  0.00    -0.211 C  
HETATM    2  C   UNL     1     -14.058  14.942  70.588  1.00  0.00     0.311 C  
ENDROOT
BRANCH   1   3
HETATM    3  O   UNL     1     -13.281  14.323  72.836  1.00  0.00    -0.509 OA 
BRANCH   3   4
HETATM    4  C   UNL     1     -11.976  13.960  73.127  1.00  0.00     1.218 C  
HETATM    5  N   UNL     1     -10.991  14.910  72.857  1.00  0.00     0.839 N  
HETATM    6  C   UNL     1      -9.649  14.588  73.363  1.00  0.00     8.289 C  
HETATM    7  O   UNL     1     -11.715  12.838  73.555  1.00  0.00     5.569 OA 
BRANCH   5   8
HETATM    8  C   UNL     1     -11.284  16.297  72.901  1.00  0.00     1.010 A  
HETATM    9  C   UNL     1     -11.505  18.157  74.281  1.00  0.00     1.350 A  
HETATM   10  N   UNL     1     -11.423  16.817  74.147  1.00  0.00     0.686 NA 
HETATM   11  C   UNL     1     -11.235  17.103  71.757  1.00  0.00     1.140 A  
HETATM   12  C   UNL     1     -11.368  18.493  71.944  1.00  0.00     4.492 A  
HETATM   13  C   UNL     1     -11.493  19.031  73.217  1.00  0.00     4.812 A  
BRANCH  11  14
HETATM   14  C   UNL     1     -11.057  16.624  70.342  1.00  0.00     0.009 C  
BRANCH  14  15
HETATM   15  O   UNL     1     -11.020  17.661  69.358  1.00  0.00     0.294 OA 
BRANCH  15  16
HETATM   16  C   UNL     1     -11.186  17.224  68.073  1.00  0.00     0.094 C  
HETATM   17  O   UNL     1     -10.797  16.147  67.643  1.00  0.00    -0.318 OA 
BRANCH  16  18
HETATM   18  C   UNL     1     -11.972  18.291  67.308  1.00  0.00     2.804 C  
BRANCH  18  19
HETATM   19  N   UNL     1     -11.153  18.921  66.267  1.00  0.00     0.126 NA 
HETATM   20  H   UNL     1     -10.677  19.752  66.618  1.00  0.00     0.000 HD 
HETATM   21  C   UNL     1     -10.212  17.976  65.684  1.00  0.00     0.041 C  
ENDBRANCH  18  19
ENDBRANCH  16  18
ENDBRANCH  15  16
ENDBRANCH  14  15
ENDBRANCH  11  14
ENDBRANCH   5   8
ENDBRANCH   3   4
ENDBRANCH   1   3
BRANCH   1  22
HETATM   22  N   UNL     1     -12.577  13.023  70.951  1.00  0.00    -0.323 NA 
HETATM   23  N   UNL     1     -11.365  12.078  69.338  1.00  0.00    -0.264 NA 
HETATM   24  C   UNL     1     -11.391  12.701  71.479  1.00  0.00     3.495 A  
HETATM   25  C   UNL     1     -12.504  12.586  69.645  1.00  0.00     0.188 A  
HETATM   26  N   UNL     1     -10.640  12.178  70.482  1.00  0.00     2.341 NA 
BRANCH  26  27
HETATM   27  C   UNL     1      -9.199  11.888  70.540  1.00  0.00     5.749 C  
HETATM   28  S   UNL     1      -9.393  14.001  66.755  1.00  0.00    -0.270 SA 
HETATM   29  C   UNL     1      -7.797  13.855  71.701  1.00  0.00     6.360 A  
HETATM   30  C   UNL     1      -6.609  14.446  68.879  1.00  0.00    -0.094 C  
HETATM   31  C   UNL     1      -8.435  13.117  67.887  1.00  0.00    -0.181 A  
HETATM   32  O   UNL     1      -6.870  12.042  70.412  1.00  0.00    -0.321 OA 
HETATM   33  C   UNL     1      -6.688  13.673  72.563  1.00  0.00     3.408 A  
HETATM   34  C   UNL     1      -8.536  15.037  71.912  1.00  0.00     5.562 A  
HETATM   35  H   UNL     1      -6.164  12.676  70.363  1.00  0.00     0.000 HD 
HETATM   36  C   UNL     1      -8.176  16.000  72.864  1.00  0.00    14.496 A  
HETATM   37  F   UNL     1      -9.582  15.337  71.135  1.00  0.00     0.506 F  
HETATM   38  C   UNL     1      -9.212  12.732  65.630  1.00  0.00     0.289 A  
HETATM   39  C   UNL     1      -8.029  12.939  70.459  1.00  0.00     4.844 C  
HETATM   40  N   UNL     1      -8.099  11.901  67.507  1.00  0.00    -0.146 NA 
HETATM   41  C   UNL     1      -6.313  14.653  73.492  1.00  0.00     1.325 A  
HETATM   42  F   UNL     1      -5.197  14.479  74.212  1.00  0.00    -0.166 F  
HETATM   43  C   UNL     1      -7.043  15.820  73.645  1.00  0.00     8.133 A  
HETATM   44  C   UNL     1      -8.549  11.669  66.211  1.00  0.00    -0.103 A  
HETATM   45  C   UNL     1      -7.998  13.817  69.151  1.00  0.00     0.247 C  
BRANCH  44  46
HETATM   46  C   UNL     1      -8.362  10.386  65.538  1.00  0.00    -0.168 A  
HETATM   47  C   UNL     1      -9.291   9.347  65.719  1.00  0.00    -0.301 A  
HETATM   48  C   UNL     1      -9.092   8.098  65.127  1.00  0.00     0.233 A  
HETATM   49  C   UNL     1      -7.963   7.862  64.343  1.00  0.00    -0.132 A  
HETATM   50  C   UNL     1      -7.042   8.900  64.136  1.00  0.00    -0.090 A  
HETATM   51  C   UNL     1      -7.746   6.566  63.762  1.00  0.00    -0.108 C  
HETATM   52  C   UNL     1      -7.240  10.153  64.735  1.00  0.00    -0.130 A  
HETATM   53  N   UNL     1      -7.569   5.508  63.323  1.00  0.00    -0.067 NA 
ENDBRANCH  44  46
ENDBRANCH  26  27
ENDBRANCH   1  22
TORSDOF 11
ENDMDL
MODEL       21
REMARK 921   NORMALIZED FREE ENERGY PREDICTED BY IDOCK:  113.10 KCAL/MOL
REMARK 922        TOTAL FREE ENERGY PREDICTED BY IDOCK:  182.85 KCAL/MOL
REMARK 923 INTER-LIGAND FREE ENERGY PREDICTED BY IDOCK:  130.24 KCAL/MOL
REMARK 924 INTRA-LIGAND FREE ENERGY PREDICTED BY IDOCK:   52.60 KCAL/MOL
REMARK 927      BINDING AFFINITY PREDICTED BY RF-SCORE:    0.00 PKD
ROOT
HETATM    1  C   UNL     1      -8.157  11.152  64.821  1.00  0.00     0.481 C  
HETATM    2  C   UNL     1      -6.645  11.351  64.644  1.00  0.00     1.760 C  
ENDROOT
BRANCH   1   3
HETATM    3  O   UNL     1      -8.793  12.352  65.299  1.00  0.00     0.528 OA 
BRANCH   3   4
HETATM    4  C   UNL     1      -9.839  12.035  66.151  1.00  0.00    -0.235 C  
HETATM    5  N   UNL     1     -10.354  13.080  66.918  1.00  0.00    -0.244 N  
HETATM    6  C   UNL     1     -11.589  12.771  67.653  1.00  0.00    -0.358 C  
HETATM    7  O   UNL     1     -10.245  10.879  66.247  1.00  0.00    -0.232 OA 
BRANCH   5   8
HETATM    8  C   UNL     1     -10.303  14.420  66.455  1.00  0.00    -0.287 A  
HETATM    9  C   UNL     1     -10.779  16.637  66.974  1.00  0.00    -0.174 A  
HETATM   10  N   UNL     1     -10.946  15.324  67.235  1.00  0.00    -0.323 NA 
HETATM   11  C   UNL     1      -9.485  14.804  65.386  1.00  0.00     0.115 A  
HETATM   12  C   UNL     1      -9.375  16.184  65.124  1.00  0.00     1.005 A  
HETATM   13  C   UNL     1     -10.017  17.114  65.930  1.00  0.00    -0.214 A  
BRANCH  11  14
HETATM   14  C   UNL     1      -8.712  13.881  64.484  1.00  0.00     5.262 C  
BRANCH  14  15
HETATM   15  O   UNL     1      -7.840  12.972  65.161  1.00  0.00     3.881 OA 
BRANCH  15  16
HETATM   16  C   UNL     1      -7.305  13.464  66.320  1.00  0.00     2.600 C  
HETATM   17  O   UNL     1      -7.884  14.209  67.098  1.00  0.00    -0.158 OA 
BRANCH  16  18
HETATM   18  C   UNL     1      -5.899  12.882  66.477  1.00  0.00     1.907 C  
BRANCH  18  19
HETATM   19  N   UNL     1      -5.825  11.506  65.971  1.00  0.00    -0.492 NA 
HETATM   20  H   UNL     1      -5.362  11.467  65.063  1.00  0.00     0.000 HD 
HETATM   21  C   UNL     1      -5.189  10.619  66.932  1.00  0.00    -0.045 C  
ENDBRANCH  18  19
ENDBRANCH  16  18
ENDBRANCH  15  16
ENDBRANCH  14  15
ENDBRANCH  11  14
ENDBRANCH   5   8
ENDBRANCH   3   4
ENDBRANCH   1   3
BRANCH   1  22
HETATM   22  N   UNL     1      -8.393  10.033  65.745  1.00  0.00    -0.128 NA 
HETATM   23  N   UNL     1      -7.920   8.528  67.319  1.00  0.00    -0.101 NA 
HETATM   24  C   UNL     1      -9.557   9.564  66.212  1.00  0.00    -0.226 A  
HETATM   25  C   UNL     1      -7.432   9.334  66.447  1.00  0.00    -0.093 A  
HETATM   26  N   UNL     1      -9.264   8.691  67.204  1.00  0.00    -0.141 NA 
BRANCH  26  27
HETATM   27  C   UNL     1     -10.222   8.098  68.149  1.00  0.00    -0.209 C  
HETATM   28  S   UNL     1     -12.802  10.962  66.156  1.00  0.00     8.149 SA 
HETATM   29  C   UNL     1     -11.539   6.009  67.106  1.00  0.00     0.856 A  
HETATM   30  C   UNL     1     -14.080   7.817  67.122  1.00  0.00    25.822 C  
HETATM   31  C   UNL     1     -12.618   9.784  67.404  1.00  0.00     7.720 A  
HETATM   32  O   UNL     1     -12.137   7.179  69.127  1.00  0.00     0.170 OA 
HETATM   33  C   UNL     1     -11.892   4.830  67.807  1.00  0.00     6.829 A  
HETATM   34  C   UNL     1     -11.355   5.852  65.717  1.00  0.00     1.815 A  
HETATM   35  H   UNL     1     -12.964   6.766  68.907  1.00  0.00     0.000 HD 
HETATM   36  C   UNL     1     -11.560   4.635  65.055  1.00  0.00     1.073 A  
HETATM   37  F   UNL     1     -11.057   6.901  64.944  1.00  0.00     4.686 F  
HETATM   38  C   UNL     1     -12.971  12.174  67.343  1.00  0.00     3.797 A  
HETATM   39  C   UNL     1     -11.594   7.414  67.785  1.00  0.00     1.110 C  
HETATM   40  N   UNL     1     -12.562  10.268  68.628  1.00  0.00     0.979 NA 
HETATM   41  C   UNL     1     -12.129   3.622  67.137  1.00  0.00    14.141 A  
HETATM   42  F   UNL     1     -12.560   2.561  67.831  1.00  0.00    15.870 F  
HETATM   43  C   UNL     1     -11.974   3.515  65.764  1.00  0.00     7.306 A  
HETATM   44  C   UNL     1     -12.757  11.646  68.602  1.00  0.00     1.453 A  
HETATM   45  C   UNL     1     -12.621   8.325  67.013  1.00  0.00    10.696 C  
BRANCH  44  46
HETATM   46  C   UNL     1     -12.702  12.465  69.809  1.00  0.00     0.470 A  
HETATM   47  C   UNL     1     -13.547  13.579  69.950  1.00  0.00     2.212 A  
HETATM   48  C   UNL     1     -13.463  14.404  71.075  1.00  0.00    -0.309 A  
HETATM   49  C   UNL     1     -12.534  14.131  72.080  1.00  0.00    -0.299 A  
HETATM   50  C   UNL     1     -11.703  13.007  71.960  1.00  0.00     2.559 A  
HETATM   51  C   UNL     1     -12.430  15.000  73.219  1.00  0.00    -0.457 C  
HETATM   52  C   UNL     1     -11.785  12.183  70.828  1.00  0.00     0.320 A  
HETATM   53  N   UNL     1     -12.337  15.724  74.119  1.00  0.00    -0.604 NA 
ENDBRANCH  44  46
ENDBRANCH  26  27
ENDBRANCH   1  22
TORSDOF 11
ENDMDL
