MODEL        1
REMARK 921   NORMALIZED FREE ENERGY PREDICTED BY IDOCK:   -8.49 KCAL/MOL
REMARK 922        TOTAL FREE ENERGY PREDICTED BY IDOCK:  -10.22 KCAL/MOL
REMARK 923 INTER-LIGAND FREE ENERGY PREDICTED BY IDOCK:   -9.48 KCAL/MOL
REMARK 924 INTRA-LIGAND FREE ENERGY PREDICTED BY IDOCK:   -0.74 KCAL/MOL
REMARK 927      BINDING AFFINITY PREDICTED BY RF-SCORE:    0.00 PKD
ROOT
HETATM    1  C   UNL     1      -8.585  11.532  68.351  1.00  0.00    -0.159 C  
HETATM    2  C   UNL     1     -10.080  11.722  68.651  1.00  0.00    -0.198 C  
HETATM    3  C   UNL     1     -10.438  13.207  68.675  1.00  0.00    -0.227 A  
HETATM    4  C   UNL     1     -11.033  10.827  67.758  1.00  0.00    -0.297 C  
HETATM    5  C   UNL     1     -10.771   9.308  68.017  1.00  0.00    -0.174 C  
HETATM    6  C   UNL     1     -11.000  11.220  66.267  1.00  0.00    -0.265 A  
HETATM    7  N   UNL     1      -9.746  14.185  68.120  1.00  0.00    -0.218 NA 
HETATM    8  O   UNL     1     -12.405  11.017  68.199  1.00  0.00    -0.640 OA 
HETATM    9  H   UNL     1     -12.976  10.480  67.663  1.00  0.00     0.000 HD 
HETATM   10  F   UNL     1     -12.289  13.889  64.116  1.00  0.00    -0.448 F  
HETATM   11  C   UNL     1     -10.300  15.418  68.452  1.00  0.00    -0.229 A  
HETATM   12  C   UNL     1     -10.262  10.528  65.293  1.00  0.00    -0.282 A  
HETATM   13  C   UNL     1     -10.171  10.968  63.967  1.00  0.00    -0.420 A  
HETATM   14  C   UNL     1     -11.705  12.360  65.820  1.00  0.00    -0.470 A  
HETATM   15  C   UNL     1     -11.476  15.344  69.168  1.00  0.00    -0.333 A  
HETATM   16  C   UNL     1     -11.614  12.796  64.497  1.00  0.00    -0.347 A  
HETATM   17  F   UNL     1      -9.613   9.398  65.588  1.00  0.00    -0.272 F  
HETATM   18  S   UNL     1     -11.808  13.727  69.595  1.00  0.00    -0.347 SA 
HETATM   19  C   UNL     1     -10.837  12.121  63.570  1.00  0.00    -0.518 A  
ENDROOT
BRANCH   5  20
HETATM   20  N   UNL     1     -10.715   8.912  69.414  1.00  0.00    -0.214 NA 
HETATM   21  N   UNL     1     -11.717   9.256  70.246  1.00  0.00    -0.127 NA 
HETATM   22  C   UNL     1     -11.286   8.754  71.405  1.00  0.00    -0.292 A  
HETATM   23  C   UNL     1      -9.746   8.231  70.080  1.00  0.00    -0.176 A  
HETATM   24  N   UNL     1     -10.083   8.112  71.344  1.00  0.00    -0.191 NA 
ENDBRANCH   5  20
BRANCH  11  25
HETATM   25  C   UNL     1      -9.665  16.687  68.091  1.00  0.00    -0.244 A  
HETATM   26  C   UNL     1      -8.582  16.719  67.203  1.00  0.00    -0.217 A  
HETATM   27  C   UNL     1      -7.943  17.934  66.895  1.00  0.00    -0.249 A  
HETATM   28  C   UNL     1      -8.375  19.124  67.487  1.00  0.00    -0.315 A  
HETATM   29  C   UNL     1      -9.456  19.105  68.367  1.00  0.00    -0.425 A  
HETATM   30  C   UNL     1      -7.700  20.359  67.209  1.00  0.00    -0.333 C  
HETATM   31  N   UNL     1      -7.159  21.364  66.999  1.00  0.00    -0.457 NA 
HETATM   32  C   UNL     1     -10.094  17.897  68.666  1.00  0.00    -0.394 A  
ENDBRANCH  11  25
TORSDOF 2
ENDMDL
MODEL        2
REMARK 921   NORMALIZED FREE ENERGY PREDICTED BY IDOCK:   -8.13 KCAL/MOL
REMARK 922        TOTAL FREE ENERGY PREDICTED BY IDOCK:   -9.82 KCAL/MOL
REMARK 923 INTER-LIGAND FREE ENERGY PREDICTED BY IDOCK:   -9.05 KCAL/MOL
REMARK 924 INTRA-LIGAND FREE ENERGY PREDICTED BY IDOCK:   -0.77 KCAL/MOL
REMARK 927      BINDING AFFINITY PREDICTED BY RF-SCORE:    0.00 PKD
ROOT
HETATM    1  C   UNL     1     -11.907  14.929  67.792  1.00  0.00    -0.277 C  
HETATM    2  C   UNL     1     -10.445  14.756  67.350  1.00  0.00    -0.256 C  
HETATM    3  C   UNL     1      -9.861  13.465  67.919  1.00  0.00    -0.237 A  
HETATM    4  C   UNL     1     -10.217  14.955  65.796  1.00  0.00    -0.336 C  
HETATM    5  C   UNL     1     -10.589  16.411  65.363  1.00  0.00    -0.320 C  
HETATM    6  C   UNL     1     -10.892  13.860  64.946  1.00  0.00    -0.413 A  
HETATM    7  N   UNL     1     -10.547  12.423  68.354  1.00  0.00    -0.231 NA 
HETATM    8  O   UNL     1      -8.794  14.869  65.515  1.00  0.00    -0.039 OA 
HETATM    9  H   UNL     1      -8.657  14.989  64.583  1.00  0.00     0.000 HD 
HETATM   10  F   UNL     1     -10.344  10.343  64.085  1.00  0.00    -0.405 F  
HETATM   11  C   UNL     1      -9.691  11.482  68.920  1.00  0.00    -0.054 A  
HETATM   12  C   UNL     1     -12.118  14.032  64.281  1.00  0.00    -0.445 A  
HETATM   13  C   UNL     1     -12.755  12.987  63.602  1.00  0.00    -0.131 A  
HETATM   14  C   UNL     1     -10.299  12.584  64.837  1.00  0.00    -0.323 A  
HETATM   15  C   UNL     1      -8.351  11.783  68.803  1.00  0.00    -0.009 A  
HETATM   16  C   UNL     1     -10.934  11.543  64.156  1.00  0.00    -0.366 A  
HETATM   17  F   UNL     1     -12.735  15.217  64.260  1.00  0.00    -0.457 F  
HETATM   18  S   UNL     1      -8.150  13.343  68.143  1.00  0.00    -0.163 SA 
HETATM   19  C   UNL     1     -12.169  11.728  63.553  1.00  0.00    -0.489 A  
ENDROOT
BRANCH   5  20
HETATM   20  N   UNL     1     -10.036  17.470  66.189  1.00  0.00    -0.453 NA 
HETATM   21  N   UNL     1      -8.722  17.761  66.112  1.00  0.00    -0.485 NA 
HETATM   22  C   UNL     1      -8.610  18.731  67.021  1.00  0.00    -0.282 A  
HETATM   23  C   UNL     1     -10.651  18.256  67.112  1.00  0.00    -0.367 A  
HETATM   24  N   UNL     1      -9.772  19.069  67.653  1.00  0.00    -0.307 NA 
ENDBRANCH   5  20
BRANCH  11  25
HETATM   25  C   UNL     1     -10.183  10.286  69.606  1.00  0.00    -0.268 A  
HETATM   26  C   UNL     1     -11.363  10.328  70.361  1.00  0.00    -0.410 A  
HETATM   27  C   UNL     1     -11.807   9.190  71.059  1.00  0.00    -0.354 A  
HETATM   28  C   UNL     1     -11.064   8.008  71.019  1.00  0.00    -0.275 A  
HETATM   29  C   UNL     1      -9.893   7.953  70.266  1.00  0.00    -0.184 A  
HETATM   30  C   UNL     1     -11.491   6.857  71.764  1.00  0.00    -0.275 C  
HETATM   31  N   UNL     1     -11.821   5.922  72.367  1.00  0.00    -0.278 NA 
HETATM   32  C   UNL     1      -9.456   9.084  69.568  1.00  0.00    -0.164 A  
ENDBRANCH  11  25
TORSDOF 2
ENDMDL
MODEL        3
REMARK 921   NORMALIZED FREE ENERGY PREDICTED BY IDOCK:   -7.97 KCAL/MOL
REMARK 922        TOTAL FREE ENERGY PREDICTED BY IDOCK:   -9.64 KCAL/MOL
REMARK 923 INTER-LIGAND FREE ENERGY PREDICTED BY IDOCK:   -8.82 KCAL/MOL
REMARK 924 INTRA-LIGAND FREE ENERGY PREDICTED BY IDOCK:   -0.82 KCAL/MOL
REMARK 927      BINDING AFFINITY PREDICTED BY RF-SCORE:    0.00 PKD
ROOT
HETATM    1  C   UNL     1     -11.784  15.017  67.756  1.00  0.00    -0.294 C  
HETATM    2  C   UNL     1     -10.321  14.892  67.304  1.00  0.00    -0.251 C  
HETATM    3  C   UNL     1      -9.697  13.610  67.852  1.00  0.00    -0.234 A  
HETATM    4  C   UNL     1     -10.106  15.120  65.752  1.00  0.00    -0.346 C  
HETATM    5  C   UNL     1     -10.522  16.570  65.341  1.00  0.00    -0.269 C  
HETATM    6  C   UNL     1     -10.755  14.018  64.890  1.00  0.00    -0.432 A  
HETATM    7  N   UNL     1     -10.351  12.544  68.275  1.00  0.00    -0.231 NA 
HETATM    8  O   UNL     1      -8.683  15.078  65.463  1.00  0.00     0.152 OA 
HETATM    9  H   UNL     1      -8.554  15.214  64.532  1.00  0.00     0.000 HD 
HETATM   10  F   UNL     1     -10.111  10.530  63.977  1.00  0.00    -0.361 F  
HETATM   11  C   UNL     1      -9.466  11.620  68.824  1.00  0.00    -0.058 A  
HETATM   12  C   UNL     1     -11.988  14.163  64.234  1.00  0.00    -0.435 A  
HETATM   13  C   UNL     1     -12.599  13.111  63.543  1.00  0.00    -0.214 A  
HETATM   14  C   UNL     1     -10.126  12.760  64.760  1.00  0.00    -0.240 A  
HETATM   15  C   UNL     1      -8.135  11.960  68.704  1.00  0.00    -0.086 A  
HETATM   16  C   UNL     1     -10.735  11.712  64.067  1.00  0.00    -0.384 A  
HETATM   17  F   UNL     1     -12.639  15.330  64.232  1.00  0.00    -0.461 F  
HETATM   18  S   UNL     1      -7.982  13.535  68.066  1.00  0.00    -0.166 SA 
HETATM   19  C   UNL     1     -11.977  11.870  63.473  1.00  0.00    -0.567 A  
ENDROOT
BRANCH   5  20
HETATM   20  N   UNL     1      -9.995  17.633  66.180  1.00  0.00    -0.470 NA 
HETATM   21  N   UNL     1      -8.669  17.874  66.198  1.00  0.00    -0.489 NA 
HETATM   22  C   UNL     1      -8.591  18.866  67.087  1.00  0.00    -0.280 A  
HETATM   23  C   UNL     1     -10.649  18.468  67.030  1.00  0.00    -0.380 A  
HETATM   24  N   UNL     1      -9.785  19.264  67.616  1.00  0.00    -0.316 NA 
ENDBRANCH   5  20
BRANCH  11  25
HETATM   25  C   UNL     1      -9.919  10.401  69.496  1.00  0.00    -0.229 A  
HETATM   26  C   UNL     1      -9.212   9.200  69.356  1.00  0.00    -0.156 A  
HETATM   27  C   UNL     1      -9.677   8.019  69.963  1.00  0.00    -0.173 A  
HETATM   28  C   UNL     1     -10.863   8.030  70.702  1.00  0.00    -0.240 A  
HETATM   29  C   UNL     1     -11.571   9.221  70.855  1.00  0.00    -0.364 A  
HETATM   30  C   UNL     1     -11.363   6.820  71.289  1.00  0.00    -0.289 C  
HETATM   31  N   UNL     1     -11.783   5.847  71.762  1.00  0.00    -0.181 NA 
HETATM   32  C   UNL     1     -11.103  10.395  70.255  1.00  0.00    -0.379 A  
ENDBRANCH  11  25
TORSDOF 2
ENDMDL
MODEL        4
REMARK 921   NORMALIZED FREE ENERGY PREDICTED BY IDOCK:   -7.79 KCAL/MOL
REMARK 922        TOTAL FREE ENERGY PREDICTED BY IDOCK:   -9.44 KCAL/MOL
REMARK 923 INTER-LIGAND FREE ENERGY PREDICTED BY IDOCK:   -8.64 KCAL/MOL
REMARK 924 INTRA-LIGAND FREE ENERGY PREDICTED BY IDOCK:   -0.80 KCAL/MOL
REMARK 927      BINDING AFFINITY PREDICTED BY RF-SCORE:    0.00 PKD
ROOT
HETATM    1  C   UNL     1     -11.782  14.533  68.109  1.00  0.00    -0.369 C  
HETATM    2  C   UNL     1     -10.315  14.434  67.663  1.00  0.00    -0.237 C  
HETATM    3  C   UNL     1      -9.691  13.130  68.154  1.00  0.00    -0.228 A  
HETATM    4  C   UNL     1     -10.089  14.737  66.125  1.00  0.00    -0.296 C  
HETATM    5  C   UNL     1     -10.507  16.203  65.781  1.00  0.00    -0.367 C  
HETATM    6  C   UNL     1     -10.727  13.675  65.206  1.00  0.00    -0.340 A  
HETATM    7  N   UNL     1     -10.345  12.042  68.520  1.00  0.00    -0.217 NA 
HETATM    8  O   UNL     1      -8.663  14.713  65.846  1.00  0.00    -0.316 OA 
HETATM    9  H   UNL     1      -8.528  14.894  64.923  1.00  0.00     0.000 HD 
HETATM   10  F   UNL     1     -10.065  10.238  64.132  1.00  0.00    -0.386 F  
HETATM   11  C   UNL     1      -9.461  11.095  69.031  1.00  0.00    -0.058 A  
HETATM   12  C   UNL     1     -11.956  13.849  64.548  1.00  0.00    -0.437 A  
HETATM   13  C   UNL     1     -12.558  12.828  63.803  1.00  0.00    -0.387 A  
HETATM   14  C   UNL     1     -10.093  12.427  65.021  1.00  0.00    -0.269 A  
HETATM   15  C   UNL     1      -8.131  11.445  68.939  1.00  0.00    -0.067 A  
HETATM   16  C   UNL     1     -10.694  11.411  64.274  1.00  0.00    -0.356 A  
HETATM   17  F   UNL     1     -12.611  15.013  64.597  1.00  0.00    -0.382 F  
HETATM   18  S   UNL     1      -7.977  13.049  68.378  1.00  0.00    -0.107 SA 
HETATM   19  C   UNL     1     -11.932  11.594  63.679  1.00  0.00    -0.374 A  
ENDROOT
BRANCH   5  20
HETATM   20  N   UNL     1      -9.989  17.227  66.674  1.00  0.00    -0.282 NA 
HETATM   21  N   UNL     1      -8.665  17.471  66.713  1.00  0.00    -0.247 NA 
HETATM   22  C   UNL     1      -8.597  18.420  67.649  1.00  0.00    -0.259 A  
HETATM   23  C   UNL     1     -10.653  18.017  67.559  1.00  0.00    -0.388 A  
HETATM   24  N   UNL     1      -9.796  18.787  68.189  1.00  0.00    -0.333 NA 
ENDBRANCH   5  20
BRANCH  11  25
HETATM   25  C   UNL     1      -9.916   9.844  69.640  1.00  0.00    -0.255 A  
HETATM   26  C   UNL     1     -10.944   9.843  70.591  1.00  0.00    -0.405 A  
HETATM   27  C   UNL     1     -11.347   8.646  71.211  1.00  0.00    -0.341 A  
HETATM   28  C   UNL     1     -10.710   7.444  70.893  1.00  0.00    -0.248 A  
HETATM   29  C   UNL     1      -9.691   7.431  69.944  1.00  0.00    -0.171 A  
HETATM   30  C   UNL     1     -11.089   6.226  71.553  1.00  0.00    -0.281 C  
HETATM   31  N   UNL     1     -11.379   5.236  72.084  1.00  0.00    -0.083 NA 
HETATM   32  C   UNL     1      -9.297   8.622  69.324  1.00  0.00    -0.153 A  
ENDBRANCH  11  25
TORSDOF 2
ENDMDL
MODEL        5
REMARK 921   NORMALIZED FREE ENERGY PREDICTED BY IDOCK:   -7.61 KCAL/MOL
REMARK 922        TOTAL FREE ENERGY PREDICTED BY IDOCK:   -9.24 KCAL/MOL
REMARK 923 INTER-LIGAND FREE ENERGY PREDICTED BY IDOCK:   -8.46 KCAL/MOL
REMARK 924 INTRA-LIGAND FREE ENERGY PREDICTED BY IDOCK:   -0.78 KCAL/MOL
REMARK 927      BINDING AFFINITY PREDICTED BY RF-SCORE:    0.00 PKD
ROOT
HETATM    1  C   UNL     1     -11.046   6.308  69.159  1.00  0.00    -0.457 C  
HETATM    2  C   UNL     1     -10.140   7.126  70.093  1.00  0.00    -0.195 C  
HETATM    3  C   UNL     1      -9.862   8.505  69.499  1.00  0.00    -0.187 A  
HETATM    4  C   UNL     1     -10.619   7.140  71.602  1.00  0.00    -0.207 C  
HETATM    5  C   UNL     1     -10.603   5.697  72.203  1.00  0.00    -0.223 C  
HETATM    6  C   UNL     1     -11.956   7.882  71.798  1.00  0.00    -0.337 A  
HETATM    7  N   UNL     1     -10.582   9.117  68.576  1.00  0.00    -0.199 NA 
HETATM    8  O   UNL     1      -9.636   7.853  72.400  1.00  0.00    -0.173 OA 
HETATM    9  H   UNL     1      -9.924   7.862  73.305  1.00  0.00     0.000 HD 
HETATM   10  F   UNL     1     -13.179  11.333  71.882  1.00  0.00    -0.532 F  
HETATM   11  C   UNL     1      -9.962  10.300  68.184  1.00  0.00    -0.146 A  
HETATM   12  C   UNL     1     -13.196   7.236  71.932  1.00  0.00    -0.233 A  
HETATM   13  C   UNL     1     -14.404   7.939  72.008  1.00  0.00    -0.490 A  
HETATM   14  C   UNL     1     -11.987   9.294  71.809  1.00  0.00    -0.455 A  
HETATM   15  C   UNL     1      -8.830  10.619  68.903  1.00  0.00    -0.157 A  
HETATM   16  C   UNL     1     -13.192   9.994  71.887  1.00  0.00    -0.452 A  
HETATM   17  F   UNL     1     -13.280   5.904  72.004  1.00  0.00    -0.035 F  
HETATM   18  S   UNL     1      -8.421   9.345  69.961  1.00  0.00    -0.208 SA 
HETATM   19  C   UNL     1     -14.405   9.327  71.966  1.00  0.00    -0.166 A  
ENDROOT
BRANCH   5  20
HETATM   20  N   UNL     1      -9.388   4.935  71.968  1.00  0.00    -0.139 NA 
HETATM   21  N   UNL     1      -8.215   5.380  72.462  1.00  0.00    -0.113 NA 
HETATM   22  C   UNL     1      -7.368   4.451  72.014  1.00  0.00    -0.066 A  
HETATM   23  C   UNL     1      -9.211   3.785  71.265  1.00  0.00    -0.128 A  
HETATM   24  N   UNL     1      -7.940   3.452  71.280  1.00  0.00    -0.058 NA 
ENDBRANCH   5  20
BRANCH  11  25
HETATM   25  C   UNL     1     -10.461  11.119  67.078  1.00  0.00    -0.277 A  
HETATM   26  C   UNL     1     -11.225  12.267  67.324  1.00  0.00    -0.358 A  
HETATM   27  C   UNL     1     -11.744  13.025  66.259  1.00  0.00    -0.440 A  
HETATM   28  C   UNL     1     -11.515  12.629  64.939  1.00  0.00    -0.361 A  
HETATM   29  C   UNL     1     -10.750  11.493  64.682  1.00  0.00    -0.379 A  
HETATM   30  C   UNL     1     -12.077  13.375  63.850  1.00  0.00    -0.455 C  
HETATM   31  N   UNL     1     -12.532  13.965  62.960  1.00  0.00    -0.515 NA 
HETATM   32  C   UNL     1     -10.230  10.744  65.742  1.00  0.00    -0.319 A  
ENDBRANCH  11  25
TORSDOF 2
ENDMDL
MODEL        6
REMARK 921   NORMALIZED FREE ENERGY PREDICTED BY IDOCK:   -7.27 KCAL/MOL
REMARK 922        TOTAL FREE ENERGY PREDICTED BY IDOCK:   -8.86 KCAL/MOL
REMARK 923 INTER-LIGAND FREE ENERGY PREDICTED BY IDOCK:   -8.07 KCAL/MOL
REMARK 924 INTRA-LIGAND FREE ENERGY PREDICTED BY IDOCK:   -0.79 KCAL/MOL
REMARK 927      BINDING AFFINITY PREDICTED BY RF-SCORE:    0.00 PKD
ROOT
HETATM    1  C   UNL     1     -11.174   6.818  68.530  1.00  0.00    -0.155 C  
HETATM    2  C   UNL     1     -10.188   7.466  69.515  1.00  0.00    -0.204 C  
HETATM    3  C   UNL     1      -9.903   8.913  69.116  1.00  0.00    -0.180 A  
HETATM    4  C   UNL     1     -10.576   7.265  71.037  1.00  0.00    -0.221 C  
HETATM    5  C   UNL     1     -10.569   5.748  71.415  1.00  0.00    -0.253 C  
HETATM    6  C   UNL     1     -11.876   7.998  71.426  1.00  0.00    -0.326 A  
HETATM    7  N   UNL     1     -10.658   9.671  68.341  1.00  0.00    -0.223 NA 
HETATM    8  O   UNL     1      -9.526   7.828  71.868  1.00  0.00    -0.145 OA 
HETATM    9  H   UNL     1      -9.759   7.708  72.781  1.00  0.00     0.000 HD 
HETATM   10  F   UNL     1     -12.983  11.424  72.098  1.00  0.00    -0.556 F  
HETATM   11  C   UNL     1     -10.025  10.886  68.090  1.00  0.00    -0.174 A  
HETATM   12  C   UNL     1     -13.125   7.367  71.541  1.00  0.00    -0.374 A  
HETATM   13  C   UNL     1     -14.304   8.077  71.796  1.00  0.00    -0.583 A  
HETATM   14  C   UNL     1     -11.861   9.393  71.648  1.00  0.00    -0.464 A  
HETATM   15  C   UNL     1      -8.843  11.069  68.776  1.00  0.00    -0.147 A  
HETATM   16  C   UNL     1     -13.038  10.099  71.905  1.00  0.00    -0.466 A  
HETATM   17  F   UNL     1     -13.246   6.041  71.420  1.00  0.00     0.344 F  
HETATM   18  S   UNL     1      -8.412   9.642  69.605  1.00  0.00    -0.191 SA 
HETATM   19  C   UNL     1     -14.264   9.456  71.962  1.00  0.00    -0.169 A  
ENDROOT
BRANCH   5  20
HETATM   20  N   UNL     1      -9.395   5.003  70.994  1.00  0.00    -0.146 NA 
HETATM   21  N   UNL     1      -8.184   5.331  71.486  1.00  0.00    -0.115 NA 
HETATM   22  C   UNL     1      -7.394   4.467  70.848  1.00  0.00    -0.048 A  
HETATM   23  C   UNL     1      -9.294   3.980  70.105  1.00  0.00    -0.170 A  
HETATM   24  N   UNL     1      -8.036   3.616  69.995  1.00  0.00    -0.049 NA 
ENDBRANCH   5  20
BRANCH  11  25
HETATM   25  C   UNL     1     -10.564  11.872  67.152  1.00  0.00    -0.264 A  
HETATM   26  C   UNL     1      -9.963  12.075  65.903  1.00  0.00    -0.260 A  
HETATM   27  C   UNL     1     -10.453  13.057  65.023  1.00  0.00    -0.345 A  
HETATM   28  C   UNL     1     -11.539  13.854  65.395  1.00  0.00    -0.331 A  
HETATM   29  C   UNL     1     -12.148  13.657  66.632  1.00  0.00    -0.459 A  
HETATM   30  C   UNL     1     -12.016  14.885  64.518  1.00  0.00    -0.410 C  
HETATM   31  N   UNL     1     -12.407  15.728  63.822  1.00  0.00    -0.560 NA 
HETATM   32  C   UNL     1     -11.663  12.676  67.503  1.00  0.00    -0.429 A  
ENDBRANCH  11  25
TORSDOF 2
ENDMDL
MODEL        7
REMARK 921   NORMALIZED FREE ENERGY PREDICTED BY IDOCK:   -7.13 KCAL/MOL
REMARK 922        TOTAL FREE ENERGY PREDICTED BY IDOCK:   -8.70 KCAL/MOL
REMARK 923 INTER-LIGAND FREE ENERGY PREDICTED BY IDOCK:   -7.92 KCAL/MOL
REMARK 924 INTRA-LIGAND FREE ENERGY PREDICTED BY IDOCK:   -0.79 KCAL/MOL
REMARK 927      BINDING AFFINITY PREDICTED BY RF-SCORE:    0.00 PKD
ROOT
HETATM    1  C   UNL     1      -7.857  10.731  67.990  1.00  0.00    -0.106 C  
HETATM    2  C   UNL     1      -9.361  10.418  68.040  1.00  0.00    -0.145 C  
HETATM    3  C   UNL     1     -10.177  11.709  68.095  1.00  0.00    -0.197 A  
HETATM    4  C   UNL     1      -9.838   9.382  66.942  1.00  0.00    -0.201 C  
HETATM    5  C   UNL     1      -9.142   7.997  67.146  1.00  0.00    -0.137 C  
HETATM    6  C   UNL     1      -9.720   9.933  65.507  1.00  0.00    -0.370 A  
HETATM    7  N   UNL     1      -9.763  12.909  67.730  1.00  0.00    -0.208 NA 
HETATM    8  O   UNL     1     -11.246   9.090  67.151  1.00  0.00    -0.208 OA 
HETATM    9  H   UNL     1     -11.533   8.469  66.493  1.00  0.00     0.000 HD 
HETATM   10  F   UNL     1     -11.476  12.304  63.338  1.00  0.00    -0.442 F  
HETATM   11  C   UNL     1     -10.725  13.866  68.038  1.00  0.00    -0.247 A  
HETATM   12  C   UNL     1      -8.668   9.616  64.632  1.00  0.00    -0.201 A  
HETATM   13  C   UNL     1      -8.534  10.211  63.372  1.00  0.00    -0.185 A  
HETATM   14  C   UNL     1     -10.682  10.845  65.018  1.00  0.00    -0.216 A  
HETATM   15  C   UNL     1     -11.905  13.354  68.535  1.00  0.00    -0.366 A  
HETATM   16  C   UNL     1     -10.548  11.436  63.760  1.00  0.00    -0.403 A  
HETATM   17  F   UNL     1      -7.739   8.713  64.962  1.00  0.00    -0.088 F  
HETATM   18  S   UNL     1     -11.757  11.675  68.797  1.00  0.00    -0.332 SA 
HETATM   19  C   UNL     1      -9.471  11.142  62.939  1.00  0.00    -0.382 A  
ENDROOT
BRANCH   5  20
HETATM   20  N   UNL     1      -9.162   7.481  68.504  1.00  0.00    -0.143 NA 
HETATM   21  N   UNL     1     -10.342   7.221  69.102  1.00  0.00    -0.201 NA 
HETATM   22  C   UNL     1      -9.944   6.812  70.309  1.00  0.00    -0.178 A  
HETATM   23  C   UNL     1      -8.127   7.223  69.346  1.00  0.00    -0.130 A  
HETATM   24  N   UNL     1      -8.592   6.794  70.497  1.00  0.00    -0.141 NA 
ENDBRANCH   5  20
BRANCH  11  25
HETATM   25  C   UNL     1     -10.487  15.301  67.872  1.00  0.00    -0.253 A  
HETATM   26  C   UNL     1     -10.281  16.127  68.984  1.00  0.00    -0.250 A  
HETATM   27  C   UNL     1     -10.100  17.513  68.825  1.00  0.00    -0.363 A  
HETATM   28  C   UNL     1     -10.140  18.083  67.550  1.00  0.00    -0.356 A  
HETATM   29  C   UNL     1     -10.337  17.271  66.435  1.00  0.00    -0.316 A  
HETATM   30  C   UNL     1      -9.998  19.502  67.386  1.00  0.00    -0.383 C  
HETATM   31  N   UNL     1      -9.892  20.648  67.239  1.00  0.00    -0.460 NA 
HETATM   32  C   UNL     1     -10.511  15.892  66.596  1.00  0.00    -0.306 A  
ENDBRANCH  11  25
TORSDOF 2
ENDMDL
MODEL        8
REMARK 921   NORMALIZED FREE ENERGY PREDICTED BY IDOCK:   -6.93 KCAL/MOL
REMARK 922        TOTAL FREE ENERGY PREDICTED BY IDOCK:   -8.48 KCAL/MOL
REMARK 923 INTER-LIGAND FREE ENERGY PREDICTED BY IDOCK:   -7.66 KCAL/MOL
REMARK 924 INTRA-LIGAND FREE ENERGY PREDICTED BY IDOCK:   -0.82 KCAL/MOL
REMARK 927      BINDING AFFINITY PREDICTED BY RF-SCORE:    0.00 PKD
ROOT
HETATM    1  C   UNL     1     -10.614   9.524  66.371  1.00  0.00    -0.083 C  
HETATM    2  C   UNL     1     -10.787  10.771  67.252  1.00  0.00    -0.344 C  
HETATM    3  C   UNL     1     -11.035  10.372  68.705  1.00  0.00    -0.245 A  
HETATM    4  C   UNL     1      -9.657  11.861  67.050  1.00  0.00    -0.189 C  
HETATM    5  C   UNL     1      -9.670  12.410  65.586  1.00  0.00    -0.172 C  
HETATM    6  C   UNL     1      -8.270  11.382  67.523  1.00  0.00    -0.130 A  
HETATM    7  N   UNL     1     -10.735   9.210  69.257  1.00  0.00    -0.213 NA 
HETATM    8  O   UNL     1      -9.980  13.028  67.854  1.00  0.00    -0.217 OA 
HETATM    9  H   UNL     1      -9.302  13.682  67.733  1.00  0.00     0.000 HD 
HETATM   10  F   UNL     1      -6.501  10.832  70.682  1.00  0.00    -0.136 F  
HETATM   11  C   UNL     1     -11.219   9.154  70.561  1.00  0.00    -0.264 A  
HETATM   12  C   UNL     1      -7.270  10.907  66.658  1.00  0.00    -0.139 A  
HETATM   13  C   UNL     1      -6.059  10.384  67.127  1.00  0.00    -0.055 A  
HETATM   14  C   UNL     1      -7.960  11.363  68.901  1.00  0.00    -0.085 A  
HETATM   15  C   UNL     1     -11.786  10.327  71.012  1.00  0.00    -0.377 A  
HETATM   16  C   UNL     1      -6.751  10.843  69.366  1.00  0.00    -0.107 A  
HETATM   17  F   UNL     1      -7.427  10.943  65.331  1.00  0.00    -0.113 F  
HETATM   18  S   UNL     1     -11.886  11.463  69.743  1.00  0.00    -0.385 SA 
HETATM   19  C   UNL     1      -5.804  10.334  68.491  1.00  0.00    -0.040 A  
ENDROOT
BRANCH   5  20
HETATM   20  N   UNL     1     -10.974  12.798  65.075  1.00  0.00    -0.281 NA 
HETATM   21  N   UNL     1     -11.663  13.783  65.683  1.00  0.00    -0.335 NA 
HETATM   22  C   UNL     1     -12.783  13.810  64.959  1.00  0.00    -0.336 A  
HETATM   23  C   UNL     1     -11.681  12.285  64.033  1.00  0.00    -0.425 A  
HETATM   24  N   UNL     1     -12.831  12.911  63.933  1.00  0.00    -0.668 NA 
ENDBRANCH   5  20
BRANCH  11  25
HETATM   25  C   UNL     1     -11.154   7.937  71.371  1.00  0.00    -0.275 A  
HETATM   26  C   UNL     1     -10.871   8.003  72.741  1.00  0.00    -0.438 A  
HETATM   27  C   UNL     1     -10.761   6.828  73.508  1.00  0.00    -0.319 A  
HETATM   28  C   UNL     1     -10.919   5.579  72.904  1.00  0.00    -0.332 A  
HETATM   29  C   UNL     1     -11.209   5.501  71.543  1.00  0.00    -0.108 A  
HETATM   30  C   UNL     1     -10.767   4.377  73.673  1.00  0.00    -0.263 C  
HETATM   31  N   UNL     1     -10.639   3.397  74.281  1.00  0.00    -0.197 NA 
HETATM   32  C   UNL     1     -11.323   6.670  70.784  1.00  0.00    -0.389 A  
ENDBRANCH  11  25
TORSDOF 2
ENDMDL
MODEL        9
REMARK 921   NORMALIZED FREE ENERGY PREDICTED BY IDOCK:   -6.80 KCAL/MOL
REMARK 922        TOTAL FREE ENERGY PREDICTED BY IDOCK:   -8.33 KCAL/MOL
REMARK 923 INTER-LIGAND FREE ENERGY PREDICTED BY IDOCK:   -7.54 KCAL/MOL
REMARK 924 INTRA-LIGAND FREE ENERGY PREDICTED BY IDOCK:   -0.80 KCAL/MOL
REMARK 927      BINDING AFFINITY PREDICTED BY RF-SCORE:    0.00 PKD
ROOT
HETATM    1  C   UNL     1     -11.591  13.291  68.367  1.00  0.00    -0.372 C  
HETATM    2  C   UNL     1     -10.221  13.548  67.720  1.00  0.00    -0.242 C  
HETATM    3  C   UNL     1      -9.358  12.289  67.770  1.00  0.00    -0.194 A  
HETATM    4  C   UNL     1     -10.302  14.238  66.297  1.00  0.00    -0.294 C  
HETATM    5  C   UNL     1     -10.960  15.652  66.402  1.00  0.00    -0.197 C  
HETATM    6  C   UNL     1     -10.944  13.330  65.228  1.00  0.00    -0.307 A  
HETATM    7  N   UNL     1      -9.792  11.052  67.926  1.00  0.00    -0.168 NA 
HETATM    8  O   UNL     1      -8.954  14.521  65.834  1.00  0.00    -0.461 OA 
HETATM    9  H   UNL     1      -9.003  14.935  64.980  1.00  0.00     0.000 HD 
HETATM   10  F   UNL     1     -10.033  10.404  63.224  1.00  0.00    -0.345 F  
HETATM   11  C   UNL     1      -8.719  10.175  68.053  1.00  0.00    -0.122 A  
HETATM   12  C   UNL     1     -12.279  13.444  64.806  1.00  0.00    -0.409 A  
HETATM   13  C   UNL     1     -12.861  12.541  63.909  1.00  0.00    -0.318 A  
HETATM   14  C   UNL     1     -10.194  12.286  64.644  1.00  0.00    -0.311 A  
HETATM   15  C   UNL     1      -7.481  10.755  67.878  1.00  0.00    -0.090 A  
HETATM   16  C   UNL     1     -10.776  11.388  63.747  1.00  0.00    -0.403 A  
HETATM   17  F   UNL     1     -13.062  14.436  65.241  1.00  0.00    -0.451 F  
HETATM   18  S   UNL     1      -7.636  12.448  67.736  1.00  0.00    -0.149 SA 
HETATM   19  C   UNL     1     -12.110  11.494  63.389  1.00  0.00    -0.134 A  
ENDROOT
BRANCH   5  20
HETATM   20  N   UNL     1     -10.435  16.509  67.452  1.00  0.00    -0.309 NA 
HETATM   21  N   UNL     1      -9.174  16.976  67.366  1.00  0.00    -0.232 NA 
HETATM   22  C   UNL     1      -9.068  17.668  68.502  1.00  0.00    -0.279 A  
HETATM   23  C   UNL     1     -11.028  16.929  68.601  1.00  0.00    -0.262 A  
HETATM   24  N   UNL     1     -10.186  17.669  69.285  1.00  0.00    -0.250 NA 
ENDBRANCH   5  20
BRANCH  11  25
HETATM   25  C   UNL     1      -8.896   8.757  68.373  1.00  0.00    -0.138 A  
HETATM   26  C   UNL     1      -9.952   8.024  67.816  1.00  0.00    -0.224 A  
HETATM   27  C   UNL     1     -10.149   6.675  68.163  1.00  0.00    -0.174 A  
HETATM   28  C   UNL     1      -9.299   6.055  69.082  1.00  0.00    -0.136 A  
HETATM   29  C   UNL     1      -8.241   6.773  69.637  1.00  0.00    -0.131 A  
HETATM   30  C   UNL     1      -9.520   4.692  69.471  1.00  0.00    -0.166 C  
HETATM   31  N   UNL     1      -9.693   3.592  69.800  1.00  0.00    -0.153 NA 
HETATM   32  C   UNL     1      -8.043   8.112  69.286  1.00  0.00    -0.117 A  
ENDBRANCH  11  25
TORSDOF 2
ENDMDL
MODEL       10
REMARK 921   NORMALIZED FREE ENERGY PREDICTED BY IDOCK:   -6.77 KCAL/MOL
REMARK 922        TOTAL FREE ENERGY PREDICTED BY IDOCK:   -8.30 KCAL/MOL
REMARK 923 INTER-LIGAND FREE ENERGY PREDICTED BY IDOCK:   -7.49 KCAL/MOL
REMARK 924 INTRA-LIGAND FREE ENERGY PREDICTED BY IDOCK:   -0.81 KCAL/MOL
REMARK 927      BINDING AFFINITY PREDICTED BY RF-SCORE:    0.00 PKD
ROOT
HETATM    1  C   UNL     1      -7.931  10.517  69.359  1.00  0.00    -0.146 C  
HETATM    2  C   UNL     1      -9.439  10.261  69.220  1.00  0.00    -0.230 C  
HETATM    3  C   UNL     1     -10.165  11.541  68.809  1.00  0.00    -0.192 A  
HETATM    4  C   UNL     1      -9.797   8.990  68.347  1.00  0.00    -0.166 C  
HETATM    5  C   UNL     1      -9.238   7.688  69.007  1.00  0.00    -0.140 C  
HETATM    6  C   UNL     1      -9.409   9.153  66.863  1.00  0.00    -0.199 A  
HETATM    7  N   UNL     1      -9.619  12.598  68.236  1.00  0.00    -0.217 NA 
HETATM    8  O   UNL     1     -11.237   8.793  68.371  1.00  0.00    -0.375 OA 
HETATM    9  H   UNL     1     -11.452   8.030  67.847  1.00  0.00     0.000 HD 
HETATM   10  F   UNL     1     -10.623  10.930  63.900  1.00  0.00    -0.407 F  
HETATM   11  C   UNL     1     -10.553  13.624  68.123  1.00  0.00    -0.247 A  
HETATM   12  C   UNL     1      -8.250   8.599  66.293  1.00  0.00    -0.116 A  
HETATM   13  C   UNL     1      -7.873   8.849  64.969  1.00  0.00    -0.112 A  
HETATM   14  C   UNL     1     -10.214   9.931  66.003  1.00  0.00    -0.269 A  
HETATM   15  C   UNL     1     -11.829  13.283  68.517  1.00  0.00    -0.349 A  
HETATM   16  C   UNL     1      -9.837  10.177  64.681  1.00  0.00    -0.291 A  
HETATM   17  F   UNL     1      -7.451   7.790  66.996  1.00  0.00    -0.086 F  
HETATM   18  S   UNL     1     -11.839  11.724  69.208  1.00  0.00    -0.315 SA 
HETATM   19  C   UNL     1      -8.662   9.659  64.162  1.00  0.00    -0.238 A  
ENDROOT
BRANCH   5  20
HETATM   20  N   UNL     1      -9.515   7.537  70.425  1.00  0.00    -0.162 NA 
HETATM   21  N   UNL     1     -10.790   7.437  70.850  1.00  0.00    -0.236 NA 
HETATM   22  C   UNL     1     -10.626   7.352  72.171  1.00  0.00    -0.220 A  
HETATM   23  C   UNL     1      -8.653   7.505  71.476  1.00  0.00    -0.116 A  
HETATM   24  N   UNL     1      -9.329   7.383  72.595  1.00  0.00    -0.144 NA 
ENDBRANCH   5  20
BRANCH  11  25
HETATM   25  C   UNL     1     -10.195  14.963  67.651  1.00  0.00    -0.236 A  
HETATM   26  C   UNL     1      -9.133  15.147  66.757  1.00  0.00    -0.282 A  
HETATM   27  C   UNL     1      -8.761  16.439  66.342  1.00  0.00    -0.355 A  
HETATM   28  C   UNL     1      -9.440  17.556  66.833  1.00  0.00    -0.278 A  
HETATM   29  C   UNL     1     -10.504  17.385  67.717  1.00  0.00    -0.376 A  
HETATM   30  C   UNL     1      -9.038  18.878  66.446  1.00  0.00    -0.311 C  
HETATM   31  N   UNL     1      -8.718  19.953  66.147  1.00  0.00    -0.353 NA 
HETATM   32  C   UNL     1     -10.876  16.099  68.123  1.00  0.00    -0.329 A  
ENDBRANCH  11  25
TORSDOF 2
ENDMDL
MODEL       11
REMARK 921   NORMALIZED FREE ENERGY PREDICTED BY IDOCK:   -6.74 KCAL/MOL
REMARK 922        TOTAL FREE ENERGY PREDICTED BY IDOCK:   -8.27 KCAL/MOL
REMARK 923 INTER-LIGAND FREE ENERGY PREDICTED BY IDOCK:   -7.75 KCAL/MOL
REMARK 924 INTRA-LIGAND FREE ENERGY PREDICTED BY IDOCK:   -0.52 KCAL/MOL
REMARK 927      BINDING AFFINITY PREDICTED BY RF-SCORE:    0.00 PKD
ROOT
HETATM    1  C   UNL     1      -9.002  14.659  69.531  1.00  0.00     0.217 C  
HETATM    2  C   UNL     1     -10.242  14.395  68.664  1.00  0.00    -0.245 C  
HETATM    3  C   UNL     1     -10.581  12.906  68.648  1.00  0.00    -0.234 A  
HETATM    4  C   UNL     1     -11.465  15.348  68.986  1.00  0.00    -0.337 C  
HETATM    5  C   UNL     1     -11.097  16.840  68.702  1.00  0.00    -0.247 C  
HETATM    6  C   UNL     1     -12.057  15.109  70.390  1.00  0.00    -0.373 A  
HETATM    7  N   UNL     1     -10.195  12.010  69.538  1.00  0.00     0.453 NA 
HETATM    8  O   UNL     1     -12.536  15.075  68.042  1.00  0.00    -0.436 OA 
HETATM    9  H   UNL     1     -13.269  15.646  68.235  1.00  0.00     0.000 HD 
HETATM   10  F   UNL     1     -14.160  12.635  72.083  1.00  0.00    -0.377 F  
HETATM   11  C   UNL     1     -10.581  10.734  69.138  1.00  0.00    -0.222 A  
HETATM   12  C   UNL     1     -11.777  15.917  71.504  1.00  0.00    -0.475 A  
HETATM   13  C   UNL     1     -12.248  15.616  72.787  1.00  0.00    -0.557 A  
HETATM   14  C   UNL     1     -12.900  14.000  70.623  1.00  0.00    -0.320 A  
HETATM   15  C   UNL     1     -11.356  10.700  67.997  1.00  0.00    -0.278 A  
HETATM   16  C   UNL     1     -13.371  13.702  71.903  1.00  0.00    -0.425 A  
HETATM   17  F   UNL     1     -11.047  17.030  71.387  1.00  0.00    -0.063 F  
HETATM   18  S   UNL     1     -11.457  12.256  67.305  1.00  0.00    -0.362 SA 
HETATM   19  C   UNL     1     -13.036  14.490  72.992  1.00  0.00    -0.596 A  
ENDROOT
BRANCH   5  20
HETATM   20  N   UNL     1     -10.463  17.095  67.419  1.00  0.00    -0.343 NA 
HETATM   21  N   UNL     1     -10.868  16.416  66.328  1.00  0.00    -0.145 NA 
HETATM   22  C   UNL     1     -10.043  16.895  65.395  1.00  0.00     0.072 A  
HETATM   23  C   UNL     1      -9.441  17.938  67.112  1.00  0.00    -0.263 A  
HETATM   24  N   UNL     1      -9.157  17.836  65.834  1.00  0.00    -0.512 NA 
ENDBRANCH   5  20
BRANCH  11  25
HETATM   25  C   UNL     1     -10.172   9.527  69.858  1.00  0.00    -0.261 A  
HETATM   26  C   UNL     1      -9.348   8.572  69.247  1.00  0.00    -0.154 A  
HETATM   27  C   UNL     1      -8.996   7.391  69.924  1.00  0.00    -0.141 A  
HETATM   28  C   UNL     1      -9.479   7.150  71.213  1.00  0.00    -0.163 A  
HETATM   29  C   UNL     1     -10.293   8.095  71.833  1.00  0.00    -0.300 A  
HETATM   30  C   UNL     1      -9.156   5.927  71.891  1.00  0.00    -0.138 C  
HETATM   31  N   UNL     1      -8.910   4.939  72.448  1.00  0.00    -0.123 NA 
HETATM   32  C   UNL     1     -10.637   9.272  71.160  1.00  0.00    -0.402 A  
ENDBRANCH  11  25
TORSDOF 2
ENDMDL
MODEL       12
REMARK 921   NORMALIZED FREE ENERGY PREDICTED BY IDOCK:   -6.65 KCAL/MOL
REMARK 922        TOTAL FREE ENERGY PREDICTED BY IDOCK:   -8.17 KCAL/MOL
REMARK 923 INTER-LIGAND FREE ENERGY PREDICTED BY IDOCK:   -7.81 KCAL/MOL
REMARK 924 INTRA-LIGAND FREE ENERGY PREDICTED BY IDOCK:   -0.36 KCAL/MOL
REMARK 927      BINDING AFFINITY PREDICTED BY RF-SCORE:    0.00 PKD
ROOT
HETATM    1  C   UNL     1     -11.548  13.876  68.493  1.00  0.00    -0.367 C  
HETATM    2  C   UNL     1     -10.157  13.990  67.851  1.00  0.00    -0.237 C  
HETATM    3  C   UNL     1      -9.352  12.713  68.083  1.00  0.00    -0.210 A  
HETATM    4  C   UNL     1     -10.183  14.490  66.349  1.00  0.00    -0.287 C  
HETATM    5  C   UNL     1     -10.778  15.932  66.254  1.00  0.00    -0.261 C  
HETATM    6  C   UNL     1     -10.845  13.479  65.392  1.00  0.00    -0.299 A  
HETATM    7  N   UNL     1      -9.844  11.525  68.388  1.00  0.00    -0.199 NA 
HETATM    8  O   UNL     1      -8.815  14.654  65.885  1.00  0.00    -0.409 OA 
HETATM    9  H   UNL     1      -8.831  14.954  64.983  1.00  0.00     0.000 HD 
HETATM   10  F   UNL     1     -10.030  10.280  63.805  1.00  0.00    -0.364 F  
HETATM   11  C   UNL     1      -8.813  10.628  68.652  1.00  0.00    -0.151 A  
HETATM   12  C   UNL     1     -12.167  13.592  64.928  1.00  0.00    -0.410 A  
HETATM   13  C   UNL     1     -12.772  12.605  64.142  1.00  0.00    -0.373 A  
HETATM   14  C   UNL     1     -10.132  12.337  64.965  1.00  0.00    -0.277 A  
HETATM   15  C   UNL     1      -7.547  11.129  68.433  1.00  0.00    -0.110 A  
HETATM   16  C   UNL     1     -10.737  11.354  64.179  1.00  0.00    -0.371 A  
HETATM   17  F   UNL     1     -12.912  14.664  65.211  1.00  0.00    -0.353 F  
HETATM   18  S   UNL     1      -7.624  12.793  68.069  1.00  0.00    -0.147 SA 
HETATM   19  C   UNL     1     -12.059  11.469  63.779  1.00  0.00    -0.154 A  
ENDROOT
BRANCH   5  20
HETATM   20  N   UNL     1     -10.235  16.896  67.197  1.00  0.00    -0.291 NA 
HETATM   21  N   UNL     1     -10.963  17.267  68.268  1.00  0.00    -0.280 NA 
HETATM   22  C   UNL     1     -10.156  18.159  68.843  1.00  0.00    -0.338 A  
HETATM   23  C   UNL     1      -9.047  17.557  67.168  1.00  0.00    -0.243 A  
HETATM   24  N   UNL     1      -8.967  18.362  68.203  1.00  0.00    -0.301 NA 
ENDBRANCH   5  20
BRANCH  11  25
HETATM   25  C   UNL     1      -9.059   9.273  69.149  1.00  0.00    -0.145 A  
HETATM   26  C   UNL     1      -8.123   8.629  69.969  1.00  0.00    -0.112 A  
HETATM   27  C   UNL     1      -8.339   7.310  70.405  1.00  0.00    -0.130 A  
HETATM   28  C   UNL     1      -9.488   6.620  70.010  1.00  0.00    -0.161 A  
HETATM   29  C   UNL     1     -10.430   7.252  69.201  1.00  0.00    -0.222 A  
HETATM   30  C   UNL     1      -9.693   5.259  70.418  1.00  0.00    -0.195 C  
HETATM   31  N   UNL     1      -9.868   4.157  70.734  1.00  0.00    -0.195 NA 
HETATM   32  C   UNL     1     -10.215   8.567  68.773  1.00  0.00    -0.217 A  
ENDBRANCH  11  25
TORSDOF 2
ENDMDL
MODEL       13
REMARK 921   NORMALIZED FREE ENERGY PREDICTED BY IDOCK:   -6.54 KCAL/MOL
REMARK 922        TOTAL FREE ENERGY PREDICTED BY IDOCK:   -8.04 KCAL/MOL
REMARK 923 INTER-LIGAND FREE ENERGY PREDICTED BY IDOCK:   -7.54 KCAL/MOL
REMARK 924 INTRA-LIGAND FREE ENERGY PREDICTED BY IDOCK:   -0.51 KCAL/MOL
REMARK 927      BINDING AFFINITY PREDICTED BY RF-SCORE:    0.00 PKD
ROOT
HETATM    1  C   UNL     1      -7.394   9.499  69.927  1.00  0.00    -0.103 C  
HETATM    2  C   UNL     1      -8.680   8.978  70.588  1.00  0.00    -0.251 C  
HETATM    3  C   UNL     1      -9.897   9.741  70.070  1.00  0.00    -0.251 A  
HETATM    4  C   UNL     1      -8.825   7.401  70.556  1.00  0.00    -0.148 C  
HETATM    5  C   UNL     1      -7.668   6.721  71.357  1.00  0.00    -0.093 C  
HETATM    6  C   UNL     1      -9.006   6.846  69.129  1.00  0.00    -0.133 A  
HETATM    7  N   UNL     1      -9.966  10.429  68.945  1.00  0.00    -0.189 NA 
HETATM    8  O   UNL     1     -10.019   7.024  71.294  1.00  0.00    -0.189 OA 
HETATM    9  H   UNL     1     -10.106   6.079  71.275  1.00  0.00     0.000 HD 
HETATM   10  F   UNL     1     -11.632   6.657  66.583  1.00  0.00    -0.347 F  
HETATM   11  C   UNL     1     -11.184  11.097  68.860  1.00  0.00    -0.256 A  
HETATM   12  C   UNL     1      -7.970   6.266  68.379  1.00  0.00    -0.105 A  
HETATM   13  C   UNL     1      -8.141   5.863  67.049  1.00  0.00    -0.102 A  
HETATM   14  C   UNL     1     -10.260   6.942  68.486  1.00  0.00    -0.187 A  
HETATM   15  C   UNL     1     -12.067  10.810  69.879  1.00  0.00    -0.337 A  
HETATM   16  C   UNL     1     -10.430   6.538  67.161  1.00  0.00    -0.287 A  
HETATM   17  F   UNL     1      -6.760   6.061  68.909  1.00  0.00    -0.050 F  
HETATM   18  S   UNL     1     -11.312   9.839  71.061  1.00  0.00    -0.400 SA 
HETATM   19  C   UNL     1      -9.374   6.016  66.429  1.00  0.00    -0.171 A  
ENDROOT
BRANCH   5  20
HETATM   20  N   UNL     1      -7.414   7.271  72.678  1.00  0.00    -0.075 NA 
HETATM   21  N   UNL     1      -8.445   7.692  73.436  1.00  0.00    -0.152 NA 
HETATM   22  C   UNL     1      -7.812   8.145  74.519  1.00  0.00    -0.249 A  
HETATM   23  C   UNL     1      -6.230   7.475  73.315  1.00  0.00    -0.060 A  
HETATM   24  N   UNL     1      -6.452   8.024  74.488  1.00  0.00    -0.105 NA 
ENDBRANCH   5  20
BRANCH  11  25
HETATM   25  C   UNL     1     -11.486  12.046  67.787  1.00  0.00    -0.394 A  
HETATM   26  C   UNL     1     -11.355  11.674  66.443  1.00  0.00    -0.312 A  
HETATM   27  C   UNL     1     -11.600  12.602  65.415  1.00  0.00    -0.400 A  
HETATM   28  C   UNL     1     -11.961  13.915  65.726  1.00  0.00    -0.419 A  
HETATM   29  C   UNL     1     -12.101  14.295  67.060  1.00  0.00    -0.424 A  
HETATM   30  C   UNL     1     -12.170  14.877  64.682  1.00  0.00    -0.341 C  
HETATM   31  N   UNL     1     -12.335  15.667  63.848  1.00  0.00    -0.608 NA 
HETATM   32  C   UNL     1     -11.864  13.368  68.080  1.00  0.00    -0.396 A  
ENDBRANCH  11  25
TORSDOF 2
ENDMDL
MODEL       14
REMARK 921   NORMALIZED FREE ENERGY PREDICTED BY IDOCK:   -6.53 KCAL/MOL
REMARK 922        TOTAL FREE ENERGY PREDICTED BY IDOCK:   -8.03 KCAL/MOL
REMARK 923 INTER-LIGAND FREE ENERGY PREDICTED BY IDOCK:   -7.26 KCAL/MOL
REMARK 924 INTRA-LIGAND FREE ENERGY PREDICTED BY IDOCK:   -0.77 KCAL/MOL
REMARK 927      BINDING AFFINITY PREDICTED BY RF-SCORE:    0.00 PKD
ROOT
HETATM    1  C   UNL     1     -11.989  11.783  68.405  1.00  0.00    -0.250 C  
HETATM    2  C   UNL     1     -10.672  12.522  68.124  1.00  0.00    -0.246 C  
HETATM    3  C   UNL     1      -9.535  11.528  67.898  1.00  0.00    -0.178 A  
HETATM    4  C   UNL     1     -10.792  13.650  67.019  1.00  0.00    -0.286 C  
HETATM    5  C   UNL     1     -11.782  14.771  67.475  1.00  0.00    -0.348 C  
HETATM    6  C   UNL     1     -11.094  13.085  65.617  1.00  0.00    -0.301 A  
HETATM    7  N   UNL     1      -9.665  10.258  67.557  1.00  0.00    -0.166 NA 
HETATM    8  O   UNL     1      -9.519  14.342  66.913  1.00  0.00    -0.236 OA 
HETATM    9  H   UNL     1      -9.591  15.019  66.251  1.00  0.00     0.000 HD 
HETATM   10  F   UNL     1      -9.319  11.327  62.939  1.00  0.00    -0.273 F  
HETATM   11  C   UNL     1      -8.425   9.625  67.565  1.00  0.00    -0.125 A  
HETATM   12  C   UNL     1     -12.373  13.078  65.036  1.00  0.00    -0.473 A  
HETATM   13  C   UNL     1     -12.634  12.466  63.804  1.00  0.00    -0.541 A  
HETATM   14  C   UNL     1     -10.062  12.494  64.855  1.00  0.00    -0.249 A  
HETATM   15  C   UNL     1      -7.357  10.462  67.807  1.00  0.00    -0.087 A  
HETATM   16  C   UNL     1     -10.324  11.887  63.625  1.00  0.00    -0.441 A  
HETATM   17  F   UNL     1     -13.410  13.670  65.636  1.00  0.00    -0.425 F  
HETATM   18  S   UNL     1      -7.908  12.025  68.212  1.00  0.00    -0.151 SA 
HETATM   19  C   UNL     1     -11.606  11.850  63.101  1.00  0.00    -0.234 A  
ENDROOT
BRANCH   5  20
HETATM   20  N   UNL     1     -11.579  15.273  68.824  1.00  0.00    -0.345 NA 
HETATM   21  N   UNL     1     -10.512  16.051  69.093  1.00  0.00    -0.232 NA 
HETATM   22  C   UNL     1     -10.663  16.266  70.401  1.00  0.00    -0.102 A  
HETATM   23  C   UNL     1     -12.316  15.058  69.946  1.00  0.00    -0.275 A  
HETATM   24  N   UNL     1     -11.761  15.679  70.962  1.00  0.00    -0.363 NA 
ENDBRANCH   5  20
BRANCH  11  25
HETATM   25  C   UNL     1      -8.279   8.183  67.360  1.00  0.00    -0.122 A  
HETATM   26  C   UNL     1      -9.143   7.490  66.504  1.00  0.00    -0.201 A  
HETATM   27  C   UNL     1      -9.030   6.096  66.346  1.00  0.00    -0.156 A  
HETATM   28  C   UNL     1      -8.061   5.386  67.058  1.00  0.00    -0.101 A  
HETATM   29  C   UNL     1      -7.191   6.066  67.908  1.00  0.00    -0.082 A  
HETATM   30  C   UNL     1      -7.969   3.959  66.932  1.00  0.00    -0.096 C  
HETATM   31  N   UNL     1      -7.888   2.805  66.846  1.00  0.00    -0.075 NA 
HETATM   32  C   UNL     1      -7.301   7.452  68.058  1.00  0.00    -0.096 A  
ENDBRANCH  11  25
TORSDOF 2
ENDMDL
MODEL       15
REMARK 921   NORMALIZED FREE ENERGY PREDICTED BY IDOCK:   -6.50 KCAL/MOL
REMARK 922        TOTAL FREE ENERGY PREDICTED BY IDOCK:   -7.99 KCAL/MOL
REMARK 923 INTER-LIGAND FREE ENERGY PREDICTED BY IDOCK:   -7.41 KCAL/MOL
REMARK 924 INTRA-LIGAND FREE ENERGY PREDICTED BY IDOCK:   -0.58 KCAL/MOL
REMARK 927      BINDING AFFINITY PREDICTED BY RF-SCORE:    0.00 PKD
ROOT
HETATM    1  C   UNL     1      -8.982  14.625  69.411  1.00  0.00     0.128 C  
HETATM    2  C   UNL     1     -10.225  14.282  68.574  1.00  0.00    -0.245 C  
HETATM    3  C   UNL     1     -10.471  12.775  68.570  1.00  0.00    -0.238 A  
HETATM    4  C   UNL     1     -11.497  15.158  68.925  1.00  0.00    -0.320 C  
HETATM    5  C   UNL     1     -11.228  16.670  68.629  1.00  0.00    -0.235 C  
HETATM    6  C   UNL     1     -12.038  14.888  70.343  1.00  0.00    -0.386 A  
HETATM    7  N   UNL     1     -10.009  11.907  69.452  1.00  0.00     0.393 NA 
HETATM    8  O   UNL     1     -12.570  14.817  68.007  1.00  0.00    -0.400 OA 
HETATM    9  H   UNL     1     -13.333  15.342  68.217  1.00  0.00     0.000 HD 
HETATM   10  F   UNL     1     -13.942  12.294  72.092  1.00  0.00    -0.370 F  
HETATM   11  C   UNL     1     -10.325  10.608  69.063  1.00  0.00    -0.218 A  
HETATM   12  C   UNL     1     -11.782  15.716  71.449  1.00  0.00    -0.428 A  
HETATM   13  C   UNL     1     -12.202  15.390  72.743  1.00  0.00    -0.525 A  
HETATM   14  C   UNL     1     -12.805  13.730  70.598  1.00  0.00    -0.262 A  
HETATM   15  C   UNL     1     -11.123  10.523  67.942  1.00  0.00    -0.304 A  
HETATM   16  C   UNL     1     -13.226  13.407  71.890  1.00  0.00    -0.431 A  
HETATM   17  F   UNL     1     -11.125  16.871  71.312  1.00  0.00    -0.163 F  
HETATM   18  S   UNL     1     -11.337  12.068  67.250  1.00  0.00    -0.336 SA 
HETATM   19  C   UNL     1     -12.914  14.218  72.970  1.00  0.00    -0.512 A  
ENDROOT
BRANCH   5  20
HETATM   20  N   UNL     1     -10.642  16.959  67.331  1.00  0.00    -0.320 NA 
HETATM   21  N   UNL     1     -11.085  16.306  66.238  1.00  0.00     0.027 NA 
HETATM   22  C   UNL     1     -10.297  16.812  65.288  1.00  0.00    -0.052 A  
HETATM   23  C   UNL     1      -9.635  17.812  67.008  1.00  0.00    -0.284 A  
HETATM   24  N   UNL     1      -9.397  17.744  65.718  1.00  0.00    -0.450 NA 
ENDBRANCH   5  20
BRANCH  11  25
HETATM   25  C   UNL     1      -9.824   9.431  69.775  1.00  0.00    -0.218 A  
HETATM   26  C   UNL     1     -10.039   9.282  71.152  1.00  0.00    -0.374 A  
HETATM   27  C   UNL     1      -9.515   8.174  71.843  1.00  0.00    -0.260 A  
HETATM   28  C   UNL     1      -8.759   7.216  71.162  1.00  0.00    -0.133 A  
HETATM   29  C   UNL     1      -8.545   7.351  69.792  1.00  0.00    -0.140 A  
HETATM   30  C   UNL     1      -8.187   6.107  71.871  1.00  0.00    -0.114 C  
HETATM   31  N   UNL     1      -7.713   5.209  72.432  1.00  0.00    -0.096 NA 
HETATM   32  C   UNL     1      -9.072   8.450  69.106  1.00  0.00    -0.147 A  
ENDBRANCH  11  25
TORSDOF 2
ENDMDL
MODEL       16
REMARK 921   NORMALIZED FREE ENERGY PREDICTED BY IDOCK:   -6.45 KCAL/MOL
REMARK 922        TOTAL FREE ENERGY PREDICTED BY IDOCK:   -7.94 KCAL/MOL
REMARK 923 INTER-LIGAND FREE ENERGY PREDICTED BY IDOCK:   -7.15 KCAL/MOL
REMARK 924 INTRA-LIGAND FREE ENERGY PREDICTED BY IDOCK:   -0.80 KCAL/MOL
REMARK 927      BINDING AFFINITY PREDICTED BY RF-SCORE:    0.00 PKD
ROOT
HETATM    1  C   UNL     1     -10.884   5.762  67.581  1.00  0.00    -0.264 C  
HETATM    2  C   UNL     1      -9.373   5.957  67.380  1.00  0.00    -0.111 C  
HETATM    3  C   UNL     1      -9.093   7.274  66.660  1.00  0.00    -0.154 A  
HETATM    4  C   UNL     1      -8.516   5.725  68.691  1.00  0.00    -0.107 C  
HETATM    5  C   UNL     1      -8.658   4.252  69.194  1.00  0.00    -0.082 C  
HETATM    6  C   UNL     1      -8.786   6.784  69.778  1.00  0.00    -0.141 A  
HETATM    7  N   UNL     1      -9.909   8.310  66.584  1.00  0.00    -0.249 NA 
HETATM    8  O   UNL     1      -7.106   5.836  68.355  1.00  0.00    -0.072 OA 
HETATM    9  H   UNL     1      -6.592   5.697  69.142  1.00  0.00     0.000 HD 
HETATM   10  F   UNL     1      -7.965  10.290  70.442  1.00  0.00    -0.164 F  
HETATM   11  C   UNL     1      -9.377   9.283  65.742  1.00  0.00    -0.244 A  
HETATM   12  C   UNL     1      -9.621   6.569  70.888  1.00  0.00    -0.175 A  
HETATM   13  C   UNL     1      -9.928   7.582  71.803  1.00  0.00    -0.200 A  
HETATM   14  C   UNL     1      -8.215   8.070  69.670  1.00  0.00    -0.121 A  
HETATM   15  C   UNL     1      -8.107   9.010  65.281  1.00  0.00    -0.126 A  
HETATM   16  C   UNL     1      -8.519   9.079  70.586  1.00  0.00    -0.196 A  
HETATM   17  F   UNL     1     -10.161   5.370  71.127  1.00  0.00    -0.224 F  
HETATM   18  S   UNL     1      -7.633   7.440  65.747  1.00  0.00    -0.095 SA 
HETATM   19  C   UNL     1      -9.388   8.852  71.642  1.00  0.00    -0.328 A  
ENDROOT
BRANCH   5  20
HETATM   20  N   UNL     1      -8.489   3.225  68.179  1.00  0.00    -0.082 NA 
HETATM   21  N   UNL     1      -7.321   3.130  67.513  1.00  0.00    -0.058 NA 
HETATM   22  C   UNL     1      -7.574   2.124  66.674  1.00  0.00    -0.066 A  
HETATM   23  C   UNL     1      -9.376   2.296  67.734  1.00  0.00    -0.162 A  
HETATM   24  N   UNL     1      -8.821   1.580  66.782  1.00  0.00    -0.115 NA 
ENDBRANCH   5  20
BRANCH  11  25
HETATM   25  C   UNL     1     -10.123  10.484  65.361  1.00  0.00    -0.358 A  
HETATM   26  C   UNL     1     -10.167  10.906  64.026  1.00  0.00    -0.422 A  
HETATM   27  C   UNL     1     -10.844  12.087  63.669  1.00  0.00    -0.510 A  
HETATM   28  C   UNL     1     -11.468  12.861  64.650  1.00  0.00    -0.369 A  
HETATM   29  C   UNL     1     -11.437  12.448  65.980  1.00  0.00    -0.431 A  
HETATM   30  C   UNL     1     -12.124  14.088  64.297  1.00  0.00    -0.445 C  
HETATM   31  N   UNL     1     -12.651  15.086  64.026  1.00  0.00    -0.754 NA 
HETATM   32  C   UNL     1     -10.768  11.270  66.332  1.00  0.00    -0.320 A  
ENDBRANCH  11  25
TORSDOF 2
ENDMDL
MODEL       17
REMARK 921   NORMALIZED FREE ENERGY PREDICTED BY IDOCK:   -6.33 KCAL/MOL
REMARK 922        TOTAL FREE ENERGY PREDICTED BY IDOCK:   -7.81 KCAL/MOL
REMARK 923 INTER-LIGAND FREE ENERGY PREDICTED BY IDOCK:   -7.06 KCAL/MOL
REMARK 924 INTRA-LIGAND FREE ENERGY PREDICTED BY IDOCK:   -0.75 KCAL/MOL
REMARK 927      BINDING AFFINITY PREDICTED BY RF-SCORE:    0.00 PKD
ROOT
HETATM    1  C   UNL     1     -10.912  15.612  68.433  1.00  0.00    -0.308 C  
HETATM    2  C   UNL     1      -9.550  15.178  67.871  1.00  0.00    -0.203 C  
HETATM    3  C   UNL     1      -9.263  13.720  68.224  1.00  0.00    -0.204 A  
HETATM    4  C   UNL     1      -9.339  15.542  66.345  1.00  0.00    -0.298 C  
HETATM    5  C   UNL     1      -9.375  17.091  66.133  1.00  0.00    -0.214 C  
HETATM    6  C   UNL     1     -10.283  14.763  65.407  1.00  0.00    -0.415 A  
HETATM    7  N   UNL     1     -10.158  12.810  68.564  1.00  0.00    -0.216 NA 
HETATM    8  O   UNL     1      -7.987  15.177  65.957  1.00  0.00     0.171 OA 
HETATM    9  H   UNL     1      -7.860  15.395  65.041  1.00  0.00     0.000 HD 
HETATM   10  F   UNL     1     -10.605  11.375  64.055  1.00  0.00    -0.327 F  
HETATM   11  C   UNL     1      -9.526  11.628  68.941  1.00  0.00     0.028 A  
HETATM   12  C   UNL     1     -11.458  15.302  64.857  1.00  0.00    -0.343 A  
HETATM   13  C   UNL     1     -12.347  14.538  64.092  1.00  0.00    -0.317 A  
HETATM   14  C   UNL     1     -10.009  13.414  65.090  1.00  0.00    -0.190 A  
HETATM   15  C   UNL     1      -8.158  11.630  68.771  1.00  0.00    -0.072 A  
HETATM   16  C   UNL     1     -10.896  12.654  64.324  1.00  0.00    -0.379 A  
HETATM   17  F   UNL     1     -11.781  16.586  65.035  1.00  0.00     0.029 F  
HETATM   18  S   UNL     1      -7.621  13.182  68.311  1.00  0.00    -0.148 SA 
HETATM   19  C   UNL     1     -12.074  13.199  63.838  1.00  0.00    -0.536 A  
ENDROOT
BRANCH   5  20
HETATM   20  N   UNL     1      -8.559  17.867  67.052  1.00  0.00    -0.231 NA 
HETATM   21  N   UNL     1      -7.220  17.890  66.899  1.00  0.00    -0.184 NA 
HETATM   22  C   UNL     1      -6.848  18.657  67.926  1.00  0.00    -0.212 A  
HETATM   23  C   UNL     1      -8.935  18.603  68.131  1.00  0.00    -0.310 A  
HETATM   24  N   UNL     1      -7.871  19.120  68.702  1.00  0.00    -0.344 NA 
ENDBRANCH   5  20
BRANCH  11  25
HETATM   25  C   UNL     1     -10.258  10.488  69.497  1.00  0.00    -0.230 A  
HETATM   26  C   UNL     1     -11.479  10.675  70.158  1.00  0.00    -0.411 A  
HETATM   27  C   UNL     1     -12.157   9.585  70.733  1.00  0.00    -0.305 A  
HETATM   28  C   UNL     1     -11.608   8.302  70.664  1.00  0.00    -0.199 A  
HETATM   29  C   UNL     1     -10.398   8.103  70.003  1.00  0.00    -0.215 A  
HETATM   30  C   UNL     1     -12.275   7.194  71.286  1.00  0.00    -0.365 C  
HETATM   31  N   UNL     1     -12.799   6.290  71.790  1.00  0.00     0.058 NA 
HETATM   32  C   UNL     1      -9.729   9.188  69.426  1.00  0.00    -0.170 A  
ENDBRANCH  11  25
TORSDOF 2
ENDMDL
MODEL       18
REMARK 921   NORMALIZED FREE ENERGY PREDICTED BY IDOCK:   -6.28 KCAL/MOL
REMARK 922        TOTAL FREE ENERGY PREDICTED BY IDOCK:   -7.75 KCAL/MOL
REMARK 923 INTER-LIGAND FREE ENERGY PREDICTED BY IDOCK:   -6.99 KCAL/MOL
REMARK 924 INTRA-LIGAND FREE ENERGY PREDICTED BY IDOCK:   -0.76 KCAL/MOL
REMARK 927      BINDING AFFINITY PREDICTED BY RF-SCORE:    0.00 PKD
ROOT
HETATM    1  C   UNL     1      -8.006   7.329  72.009  1.00  0.00    -0.093 C  
HETATM    2  C   UNL     1      -9.218   6.425  71.732  1.00  0.00    -0.143 C  
HETATM    3  C   UNL     1     -10.485   7.263  71.566  1.00  0.00    -0.202 A  
HETATM    4  C   UNL     1      -8.976   5.359  70.587  1.00  0.00    -0.143 C  
HETATM    5  C   UNL     1      -7.832   4.370  70.983  1.00  0.00    -0.068 C  
HETATM    6  C   UNL     1      -8.791   6.003  69.198  1.00  0.00    -0.119 A  
HETATM    7  N   UNL     1     -10.537   8.548  71.266  1.00  0.00    -0.220 NA 
HETATM    8  O   UNL     1     -10.147   4.504  70.487  1.00  0.00    -0.222 OA 
HETATM    9  H   UNL     1     -10.002   3.864  69.800  1.00  0.00     0.000 HD 
HETATM   10  F   UNL     1     -10.859   7.585  66.623  1.00  0.00    -0.404 F  
HETATM   11  C   UNL     1     -11.850   9.005  71.324  1.00  0.00    -0.312 A  
HETATM   12  C   UNL     1      -7.541   6.202  68.590  1.00  0.00    -0.092 A  
HETATM   13  C   UNL     1      -7.398   6.881  67.374  1.00  0.00    -0.092 A  
HETATM   14  C   UNL     1      -9.914   6.471  68.481  1.00  0.00    -0.148 A  
HETATM   15  C   UNL     1     -12.789   8.024  71.561  1.00  0.00    -0.311 A  
HETATM   16  C   UNL     1      -9.770   7.146  67.267  1.00  0.00    -0.155 A  
HETATM   17  F   UNL     1      -6.418   5.739  69.146  1.00  0.00    -0.037 F  
HETATM   18  S   UNL     1     -12.021   6.539  71.899  1.00  0.00    -0.321 SA 
HETATM   19  C   UNL     1      -8.519   7.373  66.716  1.00  0.00    -0.124 A  
ENDROOT
BRANCH   5  20
HETATM   20  N   UNL     1      -7.928   3.803  72.317  1.00  0.00    -0.068 NA 
HETATM   21  N   UNL     1      -9.055   3.166  72.692  1.00  0.00    -0.087 NA 
HETATM   22  C   UNL     1      -8.767   2.836  73.953  1.00  0.00    -0.072 A  
HETATM   23  C   UNL     1      -7.027   3.830  73.335  1.00  0.00    -0.050 A  
HETATM   24  N   UNL     1      -7.530   3.221  74.383  1.00  0.00    -0.052 NA 
ENDBRANCH   5  20
BRANCH  11  25
HETATM   25  C   UNL     1     -12.196  10.420  71.172  1.00  0.00    -0.498 A  
HETATM   26  C   UNL     1     -11.617  11.194  70.158  1.00  0.00    -0.410 A  
HETATM   27  C   UNL     1     -11.915  12.564  70.044  1.00  0.00    -0.372 A  
HETATM   28  C   UNL     1     -12.783  13.172  70.955  1.00  0.00    -0.361 A  
HETATM   29  C   UNL     1     -13.370  12.410  71.963  1.00  0.00    -0.511 A  
HETATM   30  C   UNL     1     -13.057  14.578  70.869  1.00  0.00    -0.345 C  
HETATM   31  N   UNL     1     -13.281  15.715  70.815  1.00  0.00    -0.512 NA 
HETATM   32  C   UNL     1     -13.077  11.047  72.071  1.00  0.00    -0.449 A  
ENDBRANCH  11  25
TORSDOF 2
ENDMDL
MODEL       19
REMARK 921   NORMALIZED FREE ENERGY PREDICTED BY IDOCK:   -6.19 KCAL/MOL
REMARK 922        TOTAL FREE ENERGY PREDICTED BY IDOCK:   -7.65 KCAL/MOL
REMARK 923 INTER-LIGAND FREE ENERGY PREDICTED BY IDOCK:   -6.85 KCAL/MOL
REMARK 924 INTRA-LIGAND FREE ENERGY PREDICTED BY IDOCK:   -0.80 KCAL/MOL
REMARK 927      BINDING AFFINITY PREDICTED BY RF-SCORE:    0.00 PKD
ROOT
HETATM    1  C   UNL     1     -11.034   6.145  66.875  1.00  0.00    -0.384 C  
HETATM    2  C   UNL     1      -9.594   6.678  66.944  1.00  0.00    -0.194 C  
HETATM    3  C   UNL     1      -9.556   8.036  67.643  1.00  0.00    -0.151 A  
HETATM    4  C   UNL     1      -8.545   5.625  67.490  1.00  0.00    -0.108 C  
HETATM    5  C   UNL     1      -8.460   4.384  66.543  1.00  0.00    -0.112 C  
HETATM    6  C   UNL     1      -8.775   5.263  68.971  1.00  0.00    -0.104 A  
HETATM    7  N   UNL     1     -10.480   8.522  68.452  1.00  0.00    -0.200 NA 
HETATM    8  O   UNL     1      -7.214   6.204  67.414  1.00  0.00    -0.072 OA 
HETATM    9  H   UNL     1      -6.585   5.572  67.742  1.00  0.00     0.000 HD 
HETATM   10  F   UNL     1      -8.248   6.773  72.266  1.00  0.00    -0.105 F  
HETATM   11  C   UNL     1     -10.175   9.835  68.800  1.00  0.00    -0.194 A  
HETATM   12  C   UNL     1      -9.423   4.092  69.398  1.00  0.00    -0.189 A  
HETATM   13  C   UNL     1      -9.707   3.841  70.745  1.00  0.00    -0.235 A  
HETATM   14  C   UNL     1      -8.363   6.152  69.988  1.00  0.00    -0.125 A  
HETATM   15  C   UNL     1      -8.959  10.284  68.333  1.00  0.00    -0.132 A  
HETATM   16  C   UNL     1      -8.645   5.899  71.332  1.00  0.00    -0.129 A  
HETATM   17  F   UNL     1      -9.794   3.148  68.528  1.00  0.00    -0.214 F  
HETATM   18  S   UNL     1      -8.261   9.127  67.291  1.00  0.00    -0.114 SA 
HETATM   19  C   UNL     1      -9.332   4.758  71.719  1.00  0.00    -0.186 A  
ENDROOT
BRANCH   5  20
HETATM   20  N   UNL     1      -8.323   4.686  65.127  1.00  0.00    -0.121 NA 
HETATM   21  N   UNL     1      -7.250   5.374  64.692  1.00  0.00    -0.057 NA 
HETATM   22  C   UNL     1      -7.508   5.472  63.387  1.00  0.00    -0.057 A  
HETATM   23  C   UNL     1      -9.163   4.398  64.098  1.00  0.00    -0.140 A  
HETATM   24  N   UNL     1      -8.669   4.881  62.981  1.00  0.00    -0.129 NA 
ENDBRANCH   5  20
BRANCH  11  25
HETATM   25  C   UNL     1     -11.089  10.674  69.577  1.00  0.00    -0.328 A  
HETATM   26  C   UNL     1     -11.218  12.041  69.300  1.00  0.00    -0.291 A  
HETATM   27  C   UNL     1     -12.060  12.854  70.080  1.00  0.00    -0.357 A  
HETATM   28  C   UNL     1     -12.768  12.306  71.152  1.00  0.00    -0.340 A  
HETATM   29  C   UNL     1     -12.654  10.946  71.433  1.00  0.00    -0.508 A  
HETATM   30  C   UNL     1     -13.597  13.140  71.976  1.00  0.00    -0.465 C  
HETATM   31  N   UNL     1     -14.264  13.804  72.655  1.00  0.00    -0.673 NA 
HETATM   32  C   UNL     1     -11.820  10.138  70.653  1.00  0.00    -0.431 A  
ENDBRANCH  11  25
TORSDOF 2
ENDMDL
MODEL       20
REMARK 921   NORMALIZED FREE ENERGY PREDICTED BY IDOCK:   -6.09 KCAL/MOL
REMARK 922        TOTAL FREE ENERGY PREDICTED BY IDOCK:   -7.54 KCAL/MOL
REMARK 923 INTER-LIGAND FREE ENERGY PREDICTED BY IDOCK:   -6.73 KCAL/MOL
REMARK 924 INTRA-LIGAND FREE ENERGY PREDICTED BY IDOCK:   -0.82 KCAL/MOL
REMARK 927      BINDING AFFINITY PREDICTED BY RF-SCORE:    0.00 PKD
ROOT
HETATM    1  C   UNL     1      -9.034  13.463  68.954  1.00  0.00     0.249 C  
HETATM    2  C   UNL     1      -9.951  12.763  67.939  1.00  0.00    -0.229 C  
HETATM    3  C   UNL     1      -9.619  11.275  67.852  1.00  0.00    -0.178 A  
HETATM    4  C   UNL     1     -11.489  13.087  68.133  1.00  0.00    -0.319 C  
HETATM    5  C   UNL     1     -11.766  14.612  67.926  1.00  0.00    -0.351 C  
HETATM    6  C   UNL     1     -12.058  12.523  69.451  1.00  0.00    -0.237 A  
HETATM    7  N   UNL     1      -8.978  10.565  68.763  1.00  0.00    -0.158 NA 
HETATM    8  O   UNL     1     -12.241  12.455  67.062  1.00  0.00    -0.508 OA 
HETATM    9  H   UNL     1     -13.163  12.649  67.178  1.00  0.00     0.000 HD 
HETATM   10  F   UNL     1     -13.062   9.282  70.828  1.00  0.00    -0.226 F  
HETATM   11  C   UNL     1      -8.741   9.276  68.292  1.00  0.00    -0.129 A  
HETATM   12  C   UNL     1     -12.262  13.294  70.607  1.00  0.00    -0.338 A  
HETATM   13  C   UNL     1     -12.684  12.733  71.818  1.00  0.00    -0.244 A  
HETATM   14  C   UNL     1     -12.367  11.149  69.557  1.00  0.00    -0.262 A  
HETATM   15  C   UNL     1      -9.310   9.000  67.067  1.00  0.00    -0.150 A  
HETATM   16  C   UNL     1     -12.790  10.592  70.765  1.00  0.00    -0.367 A  
HETATM   17  F   UNL     1     -12.069  14.617  70.602  1.00  0.00    -0.293 F  
HETATM   18  S   UNL     1      -9.995  10.413  66.400  1.00  0.00    -0.230 SA 
HETATM   19  C   UNL     1     -12.933  11.369  71.904  1.00  0.00    -0.466 A  
ENDROOT
BRANCH   5  20
HETATM   20  N   UNL     1     -11.177  15.198  66.734  1.00  0.00    -0.317 NA 
HETATM   21  N   UNL     1     -11.588  14.793  65.517  1.00  0.00    -0.330 NA 
HETATM   22  C   UNL     1     -10.807  15.519  64.716  1.00  0.00    -0.363 A  
HETATM   23  C   UNL     1     -10.194  16.131  66.626  1.00  0.00    -0.287 A  
HETATM   24  N   UNL     1      -9.941  16.358  65.357  1.00  0.00    -0.533 NA 
ENDBRANCH   5  20
BRANCH  11  25
HETATM   25  C   UNL     1      -7.930   8.307  69.031  1.00  0.00    -0.112 A  
HETATM   26  C   UNL     1      -7.632   7.054  68.480  1.00  0.00    -0.115 A  
HETATM   27  C   UNL     1      -6.893   6.106  69.211  1.00  0.00    -0.062 A  
HETATM   28  C   UNL     1      -6.461   6.401  70.506  1.00  0.00    -0.044 A  
HETATM   29  C   UNL     1      -6.746   7.647  71.062  1.00  0.00    -0.042 A  
HETATM   30  C   UNL     1      -5.743   5.423  71.272  1.00  0.00    -0.013 C  
HETATM   31  N   UNL     1      -5.169   4.638  71.905  1.00  0.00    -0.004 NA 
HETATM   32  C   UNL     1      -7.475   8.590  70.331  1.00  0.00    -0.069 A  
ENDBRANCH  11  25
TORSDOF 2
ENDMDL
MODEL       21
REMARK 921   NORMALIZED FREE ENERGY PREDICTED BY IDOCK:   -6.08 KCAL/MOL
REMARK 922        TOTAL FREE ENERGY PREDICTED BY IDOCK:   -7.53 KCAL/MOL
REMARK 923 INTER-LIGAND FREE ENERGY PREDICTED BY IDOCK:   -6.73 KCAL/MOL
REMARK 924 INTRA-LIGAND FREE ENERGY PREDICTED BY IDOCK:   -0.80 KCAL/MOL
REMARK 927      BINDING AFFINITY PREDICTED BY RF-SCORE:    0.00 PKD
ROOT
HETATM    1  C   UNL     1     -10.019   8.955  71.650  1.00  0.00    -0.397 C  
HETATM    2  C   UNL     1      -9.649   7.823  70.680  1.00  0.00    -0.166 C  
HETATM    3  C   UNL     1      -9.948   8.230  69.239  1.00  0.00    -0.192 A  
HETATM    4  C   UNL     1      -8.201   7.227  70.911  1.00  0.00    -0.115 C  
HETATM    5  C   UNL     1      -8.086   6.582  72.331  1.00  0.00    -0.101 C  
HETATM    6  C   UNL     1      -7.080   8.237  70.594  1.00  0.00    -0.042 A  
HETATM    7  N   UNL     1     -10.086   9.465  68.791  1.00  0.00    -0.186 NA 
HETATM    8  O   UNL     1      -8.005   6.104  70.010  1.00  0.00    -0.106 OA 
HETATM    9  H   UNL     1      -7.136   5.747  70.148  1.00  0.00     0.000 HD 
HETATM   10  F   UNL     1      -5.480   9.704  67.644  1.00  0.00    -0.036 F  
HETATM   11  C   UNL     1     -10.480   9.454  67.456  1.00  0.00    -0.280 A  
HETATM   12  C   UNL     1      -6.390   8.972  71.572  1.00  0.00    -0.079 A  
HETATM   13  C   UNL     1      -5.449   9.955  71.246  1.00  0.00    -0.075 A  
HETATM   14  C   UNL     1      -6.723   8.498  69.252  1.00  0.00    -0.050 A  
HETATM   15  C   UNL     1     -10.526   8.201  66.882  1.00  0.00    -0.309 A  
HETATM   16  C   UNL     1      -5.782   9.478  68.929  1.00  0.00    -0.036 A  
HETATM   17  F   UNL     1      -6.597   8.758  72.874  1.00  0.00    -0.114 F  
HETATM   18  S   UNL     1     -10.254   6.999  68.063  1.00  0.00    -0.193 SA 
HETATM   19  C   UNL     1      -5.155  10.224  69.915  1.00  0.00    -0.038 A  
ENDROOT
BRANCH   5  20
HETATM   20  N   UNL     1      -9.168   5.684  72.699  1.00  0.00    -0.138 NA 
HETATM   21  N   UNL     1      -9.306   4.507  72.058  1.00  0.00    -0.135 NA 
HETATM   22  C   UNL     1     -10.398   4.012  72.644  1.00  0.00    -0.158 A  
HETATM   23  C   UNL     1     -10.150   5.849  73.625  1.00  0.00    -0.208 A  
HETATM   24  N   UNL     1     -10.943   4.802  73.615  1.00  0.00    -0.306 NA 
ENDBRANCH   5  20
BRANCH  11  25
HETATM   25  C   UNL     1     -10.841  10.674  66.733  1.00  0.00    -0.233 A  
HETATM   26  C   UNL     1     -11.471  11.738  67.392  1.00  0.00    -0.375 A  
HETATM   27  C   UNL     1     -11.861  12.890  66.685  1.00  0.00    -0.461 A  
HETATM   28  C   UNL     1     -11.636  12.978  65.309  1.00  0.00    -0.361 A  
HETATM   29  C   UNL     1     -11.004  11.930  64.644  1.00  0.00    -0.370 A  
HETATM   30  C   UNL     1     -12.069  14.133  64.576  1.00  0.00    -0.468 C  
HETATM   31  N   UNL     1     -12.422  15.058  63.970  1.00  0.00    -0.774 NA 
HETATM   32  C   UNL     1     -10.612  10.788  65.350  1.00  0.00    -0.224 A  
ENDBRANCH  11  25
TORSDOF 2
ENDMDL
MODEL       22
REMARK 921   NORMALIZED FREE ENERGY PREDICTED BY IDOCK:   -6.06 KCAL/MOL
REMARK 922        TOTAL FREE ENERGY PREDICTED BY IDOCK:   -7.51 KCAL/MOL
REMARK 923 INTER-LIGAND FREE ENERGY PREDICTED BY IDOCK:   -6.71 KCAL/MOL
REMARK 924 INTRA-LIGAND FREE ENERGY PREDICTED BY IDOCK:   -0.80 KCAL/MOL
REMARK 927      BINDING AFFINITY PREDICTED BY RF-SCORE:    0.00 PKD
ROOT
HETATM    1  C   UNL     1     -11.366   6.150  69.037  1.00  0.00    -0.257 C  
HETATM    2  C   UNL     1      -9.894   6.591  69.038  1.00  0.00    -0.153 C  
HETATM    3  C   UNL     1      -9.787   8.106  69.196  1.00  0.00    -0.182 A  
HETATM    4  C   UNL     1      -8.976   5.758  70.022  1.00  0.00    -0.139 C  
HETATM    5  C   UNL     1      -8.935   4.252  69.603  1.00  0.00    -0.102 C  
HETATM    6  C   UNL     1      -9.330   5.981  71.506  1.00  0.00    -0.161 A  
HETATM    7  N   UNL     1     -10.716   8.907  69.686  1.00  0.00    -0.233 NA 
HETATM    8  O   UNL     1      -7.598   6.194  69.862  1.00  0.00    -0.084 OA 
HETATM    9  H   UNL     1      -7.047   5.694  70.453  1.00  0.00     0.000 HD 
HETATM   10  F   UNL     1      -8.890   8.568  74.060  1.00  0.00    -0.257 F  
HETATM   11  C   UNL     1     -10.324  10.237  69.560  1.00  0.00    -0.242 A  
HETATM   12  C   UNL     1     -10.101   5.088  72.269  1.00  0.00    -0.192 A  
HETATM   13  C   UNL     1     -10.491   5.367  73.584  1.00  0.00    -0.291 A  
HETATM   14  C   UNL     1      -8.911   7.159  72.164  1.00  0.00    -0.140 A  
HETATM   15  C   UNL     1      -9.047  10.414  69.073  1.00  0.00    -0.187 A  
HETATM   16  C   UNL     1      -9.299   7.435  73.476  1.00  0.00    -0.238 A  
HETATM   17  F   UNL     1     -10.493   3.912  71.771  1.00  0.00    -0.207 F  
HETATM   18  S   UNL     1      -8.384   8.918  68.592  1.00  0.00    -0.125 SA 
HETATM   19  C   UNL     1     -10.103   6.557  74.187  1.00  0.00    -0.374 A  
ENDROOT
BRANCH   5  20
HETATM   20  N   UNL     1      -8.682   4.002  68.193  1.00  0.00    -0.096 NA 
HETATM   21  N   UNL     1      -7.520   4.402  67.642  1.00  0.00    -0.072 NA 
HETATM   22  C   UNL     1      -7.687   4.033  66.371  1.00  0.00    -0.090 A  
HETATM   23  C   UNL     1      -9.483   3.419  67.262  1.00  0.00    -0.170 A  
HETATM   24  N   UNL     1      -8.876   3.421  66.098  1.00  0.00    -0.130 NA 
ENDBRANCH   5  20
BRANCH  11  25
HETATM   25  C   UNL     1     -11.212  11.352  69.892  1.00  0.00    -0.221 A  
HETATM   26  C   UNL     1     -11.208  12.525  69.126  1.00  0.00    -0.297 A  
HETATM   27  C   UNL     1     -12.027  13.613  69.477  1.00  0.00    -0.397 A  
HETATM   28  C   UNL     1     -12.845  13.541  70.607  1.00  0.00    -0.189 A  
HETATM   29  C   UNL     1     -12.863  12.377  71.372  1.00  0.00    -0.360 A  
HETATM   30  C   UNL     1     -13.651  14.664  70.992  1.00  0.00    -0.276 C  
HETATM   31  N   UNL     1     -14.302  15.567  71.319  1.00  0.00    -0.509 NA 
HETATM   32  C   UNL     1     -12.052  11.293  71.018  1.00  0.00    -0.335 A  
ENDBRANCH  11  25
TORSDOF 2
ENDMDL
MODEL       23
REMARK 921   NORMALIZED FREE ENERGY PREDICTED BY IDOCK:   -6.04 KCAL/MOL
REMARK 922        TOTAL FREE ENERGY PREDICTED BY IDOCK:   -7.49 KCAL/MOL
REMARK 923 INTER-LIGAND FREE ENERGY PREDICTED BY IDOCK:   -6.68 KCAL/MOL
REMARK 924 INTRA-LIGAND FREE ENERGY PREDICTED BY IDOCK:   -0.81 KCAL/MOL
REMARK 927      BINDING AFFINITY PREDICTED BY RF-SCORE:    0.00 PKD
ROOT
HETATM    1  C   UNL     1     -10.793   5.902  67.738  1.00  0.00    -0.326 C  
HETATM    2  C   UNL     1      -9.878   6.744  66.835  1.00  0.00    -0.229 C  
HETATM    3  C   UNL     1     -10.091   8.234  67.095  1.00  0.00    -0.264 A  
HETATM    4  C   UNL     1      -8.364   6.281  66.845  1.00  0.00    -0.109 C  
HETATM    5  C   UNL     1      -8.226   4.824  66.295  1.00  0.00    -0.107 C  
HETATM    6  C   UNL     1      -7.680   6.500  68.209  1.00  0.00    -0.105 A  
HETATM    7  N   UNL     1     -10.621   8.768  68.180  1.00  0.00    -0.188 NA 
HETATM    8  O   UNL     1      -7.622   7.080  65.884  1.00  0.00    -0.090 OA 
HETATM    9  H   UNL     1      -6.714   6.802  65.890  1.00  0.00     0.000 HD 
HETATM   10  F   UNL     1      -6.339   9.281  70.178  1.00  0.00    -0.037 F  
HETATM   11  C   UNL     1     -10.775  10.142  68.016  1.00  0.00    -0.260 A  
HETATM   12  C   UNL     1      -7.477   5.480  69.155  1.00  0.00    -0.078 A  
HETATM   13  C   UNL     1      -6.945   5.730  70.425  1.00  0.00    -0.065 A  
HETATM   14  C   UNL     1      -7.253   7.792  68.587  1.00  0.00    -0.085 A  
HETATM   15  C   UNL     1     -10.253  10.642  66.842  1.00  0.00    -0.223 A  
HETATM   16  C   UNL     1      -6.720   8.039  69.854  1.00  0.00    -0.037 A  
HETATM   17  F   UNL     1      -7.779   4.208  68.878  1.00  0.00    -0.055 F  
HETATM   18  S   UNL     1      -9.724   9.367  65.840  1.00  0.00    -0.273 SA 
HETATM   19  C   UNL     1      -6.580   7.022  70.784  1.00  0.00    -0.052 A  
ENDROOT
BRANCH   5  20
HETATM   20  N   UNL     1      -8.925   4.556  65.050  1.00  0.00    -0.144 NA 
HETATM   21  N   UNL     1      -8.492   5.121  63.906  1.00  0.00    -0.134 NA 
HETATM   22  C   UNL     1      -9.391   4.671  63.029  1.00  0.00    -0.018 A  
HETATM   23  C   UNL     1     -10.035   3.803  64.826  1.00  0.00    -0.187 A  
HETATM   24  N   UNL     1     -10.351   3.854  63.553  1.00  0.00    -0.201 NA 
ENDBRANCH   5  20
BRANCH  11  25
HETATM   25  C   UNL     1     -11.463  10.978  69.003  1.00  0.00    -0.368 A  
HETATM   26  C   UNL     1     -11.450  12.374  68.891  1.00  0.00    -0.355 A  
HETATM   27  C   UNL     1     -12.070  13.177  69.866  1.00  0.00    -0.357 A  
HETATM   28  C   UNL     1     -12.693  12.586  70.968  1.00  0.00    -0.316 A  
HETATM   29  C   UNL     1     -12.718  11.198  71.086  1.00  0.00    -0.510 A  
HETATM   30  C   UNL     1     -13.291  13.401  71.987  1.00  0.00    -0.479 C  
HETATM   31  N   UNL     1     -13.771  14.049  72.822  1.00  0.00    -0.691 NA 
HETATM   32  C   UNL     1     -12.106  10.402  70.112  1.00  0.00    -0.334 A  
ENDBRANCH  11  25
TORSDOF 2
ENDMDL
MODEL       24
REMARK 921   NORMALIZED FREE ENERGY PREDICTED BY IDOCK:   -5.95 KCAL/MOL
REMARK 922        TOTAL FREE ENERGY PREDICTED BY IDOCK:   -7.39 KCAL/MOL
REMARK 923 INTER-LIGAND FREE ENERGY PREDICTED BY IDOCK:   -6.58 KCAL/MOL
REMARK 924 INTRA-LIGAND FREE ENERGY PREDICTED BY IDOCK:   -0.81 KCAL/MOL
REMARK 927      BINDING AFFINITY PREDICTED BY RF-SCORE:    0.00 PKD
ROOT
HETATM    1  C   UNL     1      -9.802   6.951  70.671  1.00  0.00    -0.191 C  
HETATM    2  C   UNL     1      -9.473   7.377  69.232  1.00  0.00    -0.154 C  
HETATM    3  C   UNL     1     -10.119   8.723  68.910  1.00  0.00    -0.198 A  
HETATM    4  C   UNL     1      -7.935   7.278  68.868  1.00  0.00    -0.123 C  
HETATM    5  C   UNL     1      -7.437   5.799  68.963  1.00  0.00    -0.084 C  
HETATM    6  C   UNL     1      -7.068   8.280  69.656  1.00  0.00    -0.056 A  
HETATM    7  N   UNL     1     -10.529   9.621  69.788  1.00  0.00    -0.221 NA 
HETATM    8  O   UNL     1      -7.763   7.606  67.463  1.00  0.00    -0.112 OA 
HETATM    9  H   UNL     1      -6.840   7.547  67.245  1.00  0.00     0.000 HD 
HETATM   10  F   UNL     1      -6.344  11.870  69.641  1.00  0.00    -0.090 F  
HETATM   11  C   UNL     1     -11.182  10.667  69.141  1.00  0.00    -0.265 A  
HETATM   12  C   UNL     1      -6.310   7.936  70.788  1.00  0.00    -0.037 A  
HETATM   13  C   UNL     1      -5.614   8.888  71.542  1.00  0.00    -0.050 A  
HETATM   14  C   UNL     1      -7.037   9.640  69.276  1.00  0.00    -0.063 A  
HETATM   15  C   UNL     1     -11.156  10.594  67.764  1.00  0.00    -0.321 A  
HETATM   16  C   UNL     1      -6.339  10.588  70.028  1.00  0.00    -0.117 A  
HETATM   17  F   UNL     1      -6.211   6.668  71.197  1.00  0.00    -0.036 F  
HETATM   18  S   UNL     1     -10.471   9.115  67.262  1.00  0.00    -0.236 SA 
HETATM   19  C   UNL     1      -5.642  10.227  71.170  1.00  0.00    -0.062 A  
ENDROOT
BRANCH   5  20
HETATM   20  N   UNL     1      -8.273   4.813  68.300  1.00  0.00    -0.088 NA 
HETATM   21  N   UNL     1      -8.494   4.908  66.974  1.00  0.00    -0.106 NA 
HETATM   22  C   UNL     1      -9.310   3.874  66.765  1.00  0.00    -0.186 A  
HETATM   23  C   UNL     1      -8.941   3.753  68.826  1.00  0.00    -0.124 A  
HETATM   24  N   UNL     1      -9.605   3.136  67.875  1.00  0.00    -0.152 NA 
ENDBRANCH   5  20
BRANCH  11  25
HETATM   25  C   UNL     1     -11.862  11.739  69.870  1.00  0.00    -0.423 A  
HETATM   26  C   UNL     1     -11.751  13.071  69.453  1.00  0.00    -0.386 A  
HETATM   27  C   UNL     1     -12.366  14.105  70.183  1.00  0.00    -0.413 A  
HETATM   28  C   UNL     1     -13.083  13.811  71.345  1.00  0.00    -0.413 A  
HETATM   29  C   UNL     1     -13.207  12.489  71.766  1.00  0.00    -0.444 A  
HETATM   30  C   UNL     1     -13.677  14.866  72.116  1.00  0.00    -0.444 C  
HETATM   31  N   UNL     1     -14.156  15.710  72.754  1.00  0.00    -0.500 NA 
HETATM   32  C   UNL     1     -12.599  11.462  71.035  1.00  0.00    -0.487 A  
ENDBRANCH  11  25
TORSDOF 2
ENDMDL
MODEL       25
REMARK 921   NORMALIZED FREE ENERGY PREDICTED BY IDOCK:   -5.95 KCAL/MOL
REMARK 922        TOTAL FREE ENERGY PREDICTED BY IDOCK:   -7.38 KCAL/MOL
REMARK 923 INTER-LIGAND FREE ENERGY PREDICTED BY IDOCK:   -6.59 KCAL/MOL
REMARK 924 INTRA-LIGAND FREE ENERGY PREDICTED BY IDOCK:   -0.79 KCAL/MOL
REMARK 927      BINDING AFFINITY PREDICTED BY RF-SCORE:    0.00 PKD
ROOT
HETATM    1  C   UNL     1     -10.496   5.243  70.366  1.00  0.00    -0.322 C  
HETATM    2  C   UNL     1      -9.788   6.214  71.324  1.00  0.00    -0.204 C  
HETATM    3  C   UNL     1      -9.232   7.413  70.559  1.00  0.00    -0.157 A  
HETATM    4  C   UNL     1     -10.639   6.585  72.607  1.00  0.00    -0.221 C  
HETATM    5  C   UNL     1     -10.920   5.314  73.473  1.00  0.00    -0.296 C  
HETATM    6  C   UNL     1     -11.902   7.403  72.271  1.00  0.00    -0.307 A  
HETATM    7  N   UNL     1      -9.624   7.828  69.368  1.00  0.00    -0.156 NA 
HETATM    8  O   UNL     1      -9.832   7.421  73.480  1.00  0.00    -0.259 OA 
HETATM    9  H   UNL     1     -10.343   7.644  74.249  1.00  0.00     0.000 HD 
HETATM   10  F   UNL     1     -12.762  10.828  71.303  1.00  0.00    -0.406 F  
HETATM   11  C   UNL     1      -8.811   8.868  68.927  1.00  0.00    -0.137 A  
HETATM   12  C   UNL     1     -13.191   6.851  72.190  1.00  0.00     0.041 A  
HETATM   13  C   UNL     1     -14.303   7.598  71.783  1.00  0.00    -0.586 A  
HETATM   14  C   UNL     1     -11.796   8.781  71.982  1.00  0.00    -0.442 A  
HETATM   15  C   UNL     1      -7.879   9.298  69.847  1.00  0.00    -0.109 A  
HETATM   16  C   UNL     1     -12.906   9.526  71.580  1.00  0.00    -0.377 A  
HETATM   17  F   UNL     1     -13.420   5.574  72.508  1.00  0.00    -0.005 F  
HETATM   18  S   UNL     1      -7.886   8.279  71.215  1.00  0.00    -0.112 SA 
HETATM   19  C   UNL     1     -14.157   8.941  71.459  1.00  0.00    -0.344 A  
ENDROOT
BRANCH   5  20
HETATM   20  N   UNL     1      -9.766   4.473  73.743  1.00  0.00    -0.129 NA 
HETATM   21  N   UNL     1      -8.687   4.998  74.357  1.00  0.00    -0.112 NA 
HETATM   22  C   UNL     1      -7.862   3.949  74.387  1.00  0.00    -0.082 A  
HETATM   23  C   UNL     1      -9.560   3.165  73.439  1.00  0.00    -0.103 A  
HETATM   24  N   UNL     1      -8.362   2.804  73.839  1.00  0.00    -0.071 NA 
ENDBRANCH   5  20
BRANCH  11  25
HETATM   25  C   UNL     1      -8.924   9.437  67.582  1.00  0.00    -0.125 A  
HETATM   26  C   UNL     1     -10.155   9.458  66.914  1.00  0.00    -0.314 A  
HETATM   27  C   UNL     1     -10.251   9.961  65.604  1.00  0.00    -0.229 A  
HETATM   28  C   UNL     1      -9.111  10.430  64.947  1.00  0.00    -0.242 A  
HETATM   29  C   UNL     1      -7.882  10.420  65.604  1.00  0.00    -0.154 A  
HETATM   30  C   UNL     1      -9.196  10.905  63.595  1.00  0.00    -0.226 C  
HETATM   31  N   UNL     1      -9.249  11.284  62.500  1.00  0.00    -0.305 NA 
HETATM   32  C   UNL     1      -7.790   9.926  66.909  1.00  0.00    -0.102 A  
ENDBRANCH  11  25
TORSDOF 2
ENDMDL
MODEL       26
REMARK 921   NORMALIZED FREE ENERGY PREDICTED BY IDOCK:   -5.83 KCAL/MOL
REMARK 922        TOTAL FREE ENERGY PREDICTED BY IDOCK:   -7.25 KCAL/MOL
REMARK 923 INTER-LIGAND FREE ENERGY PREDICTED BY IDOCK:   -6.96 KCAL/MOL
REMARK 924 INTRA-LIGAND FREE ENERGY PREDICTED BY IDOCK:   -0.29 KCAL/MOL
REMARK 927      BINDING AFFINITY PREDICTED BY RF-SCORE:    0.00 PKD
ROOT
HETATM    1  C   UNL     1      -8.631  15.210  69.505  1.00  0.00    -0.133 C  
HETATM    2  C   UNL     1      -9.733  14.865  68.491  1.00  0.00    -0.215 C  
HETATM    3  C   UNL     1      -9.785  13.359  68.246  1.00  0.00    -0.226 A  
HETATM    4  C   UNL     1     -11.132  15.532  68.813  1.00  0.00    -0.291 C  
HETATM    5  C   UNL     1     -11.029  17.091  68.766  1.00  0.00    -0.180 C  
HETATM    6  C   UNL     1     -11.771  14.989  70.107  1.00  0.00    -0.340 A  
HETATM    7  N   UNL     1      -9.305  12.422  69.044  1.00  0.00     0.289 NA 
HETATM    8  O   UNL     1     -12.060  15.219  67.738  1.00  0.00    -0.407 OA 
HETATM    9  H   UNL     1     -12.900  15.618  67.932  1.00  0.00     0.000 HD 
HETATM   10  F   UNL     1     -13.494  11.963  71.242  1.00  0.00    -0.276 F  
HETATM   11  C   UNL     1      -9.415  11.171  68.443  1.00  0.00    -0.189 A  
HETATM   12  C   UNL     1     -11.731  15.660  71.340  1.00  0.00    -0.428 A  
HETATM   13  C   UNL     1     -12.230  15.095  72.519  1.00  0.00    -0.474 A  
HETATM   14  C   UNL     1     -12.407  13.728  70.106  1.00  0.00    -0.390 A  
HETATM   15  C   UNL     1     -10.083  11.172  67.237  1.00  0.00    -0.188 A  
HETATM   16  C   UNL     1     -12.908  13.166  71.283  1.00  0.00    -0.296 A  
HETATM   17  F   UNL     1     -11.215  16.888  71.444  1.00  0.00    -0.232 F  
HETATM   18  S   UNL     1     -10.421  12.772  66.749  1.00  0.00    -0.243 SA 
HETATM   19  C   UNL     1     -12.807  13.831  72.495  1.00  0.00    -0.342 A  
ENDROOT
BRANCH   5  20
HETATM   20  N   UNL     1     -10.361  17.638  67.597  1.00  0.00    -0.354 NA 
HETATM   21  N   UNL     1      -9.319  18.479  67.756  1.00  0.00    -0.287 NA 
HETATM   22  C   UNL     1      -9.020  18.774  66.490  1.00  0.00    -0.319 A  
HETATM   23  C   UNL     1     -10.640  17.459  66.279  1.00  0.00    -0.194 A  
HETATM   24  N   UNL     1      -9.803  18.165  65.553  1.00  0.00    -0.171 NA 
ENDBRANCH   5  20
BRANCH  11  25
HETATM   25  C   UNL     1      -8.842   9.962  69.036  1.00  0.00    -0.156 A  
HETATM   26  C   UNL     1      -7.954   9.159  68.308  1.00  0.00    -0.103 A  
HETATM   27  C   UNL     1      -7.442   7.972  68.862  1.00  0.00    -0.093 A  
HETATM   28  C   UNL     1      -7.829   7.572  70.143  1.00  0.00    -0.098 A  
HETATM   29  C   UNL     1      -8.706   8.366  70.879  1.00  0.00    -0.178 A  
HETATM   30  C   UNL     1      -7.343   6.340  70.697  1.00  0.00    -0.082 C  
HETATM   31  N   UNL     1      -6.963   5.343  71.153  1.00  0.00    -0.058 NA 
HETATM   32  C   UNL     1      -9.209   9.549  70.329  1.00  0.00    -0.303 A  
ENDBRANCH  11  25
TORSDOF 2
ENDMDL
MODEL       27
REMARK 921   NORMALIZED FREE ENERGY PREDICTED BY IDOCK:   -5.74 KCAL/MOL
REMARK 922        TOTAL FREE ENERGY PREDICTED BY IDOCK:   -7.15 KCAL/MOL
REMARK 923 INTER-LIGAND FREE ENERGY PREDICTED BY IDOCK:   -6.34 KCAL/MOL
REMARK 924 INTRA-LIGAND FREE ENERGY PREDICTED BY IDOCK:   -0.81 KCAL/MOL
REMARK 927      BINDING AFFINITY PREDICTED BY RF-SCORE:    0.00 PKD
ROOT
HETATM    1  C   UNL     1     -12.036  11.346  68.130  1.00  0.00    -0.201 C  
HETATM    2  C   UNL     1     -10.578  11.820  68.233  1.00  0.00    -0.236 C  
HETATM    3  C   UNL     1      -9.633  10.626  68.365  1.00  0.00    -0.168 A  
HETATM    4  C   UNL     1     -10.163  12.870  67.123  1.00  0.00    -0.239 C  
HETATM    5  C   UNL     1     -11.011  14.177  67.252  1.00  0.00    -0.297 C  
HETATM    6  C   UNL     1     -10.157  12.269  65.703  1.00  0.00    -0.275 A  
HETATM    7  N   UNL     1      -9.900   9.379  68.022  1.00  0.00    -0.158 NA 
HETATM    8  O   UNL     1      -8.805  13.317  67.382  1.00  0.00    -0.184 OA 
HETATM    9  H   UNL     1      -8.557  13.947  66.716  1.00  0.00     0.000 HD 
HETATM   10  F   UNL     1      -8.062  10.040  63.689  1.00  0.00    -0.133 F  
HETATM   11  C   UNL     1      -8.857   8.539  68.402  1.00  0.00    -0.139 A  
HETATM   12  C   UNL     1     -11.196  12.447  64.774  1.00  0.00    -0.310 A  
HETATM   13  C   UNL     1     -11.207  11.806  63.530  1.00  0.00    -0.494 A  
HETATM   14  C   UNL     1      -9.082  11.453  65.285  1.00  0.00    -0.087 A  
HETATM   15  C   UNL     1      -7.762   9.189  68.932  1.00  0.00    -0.083 A  
HETATM   16  C   UNL     1      -9.095  10.816  64.043  1.00  0.00    -0.197 A  
HETATM   17  F   UNL     1     -12.228  13.254  65.035  1.00  0.00    -0.371 F  
HETATM   18  S   UNL     1      -8.099  10.849  69.132  1.00  0.00    -0.049 SA 
HETATM   19  C   UNL     1     -10.159  10.969  63.168  1.00  0.00    -0.350 A  
ENDROOT
BRANCH   5  20
HETATM   20  N   UNL     1     -11.108  14.730  68.592  1.00  0.00    -0.251 NA 
HETATM   21  N   UNL     1     -10.009  15.233  69.188  1.00  0.00    -0.226 NA 
HETATM   22  C   UNL     1     -10.492  15.595  70.378  1.00  0.00    -0.192 A  
HETATM   23  C   UNL     1     -12.184  14.809  69.419  1.00  0.00    -0.216 A  
HETATM   24  N   UNL     1     -11.824  15.357  70.557  1.00  0.00    -0.308 NA 
ENDBRANCH   5  20
BRANCH  11  25
HETATM   25  C   UNL     1      -8.934   7.083  68.273  1.00  0.00    -0.128 A  
HETATM   26  C   UNL     1      -7.860   6.271  68.659  1.00  0.00    -0.102 A  
HETATM   27  C   UNL     1      -7.918   4.876  68.489  1.00  0.00    -0.085 A  
HETATM   28  C   UNL     1      -9.047   4.286  67.915  1.00  0.00    -0.161 A  
HETATM   29  C   UNL     1     -10.125   5.082  67.534  1.00  0.00    -0.201 A  
HETATM   30  C   UNL     1      -9.094   2.867  67.701  1.00  0.00    -0.183 C  
HETATM   31  N   UNL     1      -9.142   1.723  67.515  1.00  0.00    -0.139 NA 
HETATM   32  C   UNL     1     -10.067   6.469  67.710  1.00  0.00    -0.176 A  
ENDBRANCH  11  25
TORSDOF 2
ENDMDL
MODEL       28
REMARK 921   NORMALIZED FREE ENERGY PREDICTED BY IDOCK:   -5.63 KCAL/MOL
REMARK 922        TOTAL FREE ENERGY PREDICTED BY IDOCK:   -7.03 KCAL/MOL
REMARK 923 INTER-LIGAND FREE ENERGY PREDICTED BY IDOCK:   -6.21 KCAL/MOL
REMARK 924 INTRA-LIGAND FREE ENERGY PREDICTED BY IDOCK:   -0.82 KCAL/MOL
REMARK 927      BINDING AFFINITY PREDICTED BY RF-SCORE:    0.00 PKD
ROOT
HETATM    1  C   UNL     1     -10.311   5.009  70.846  1.00  0.00    -0.260 C  
HETATM    2  C   UNL     1      -9.487   5.536  69.660  1.00  0.00    -0.183 C  
HETATM    3  C   UNL     1      -9.856   6.986  69.352  1.00  0.00    -0.160 A  
HETATM    4  C   UNL     1      -7.933   5.262  69.786  1.00  0.00    -0.080 C  
HETATM    5  C   UNL     1      -7.641   3.726  69.816  1.00  0.00    -0.052 C  
HETATM    6  C   UNL     1      -7.279   6.043  70.943  1.00  0.00    -0.074 A  
HETATM    7  N   UNL     1     -10.442   7.834  70.178  1.00  0.00    -0.226 NA 
HETATM    8  O   UNL     1      -7.276   5.711  68.570  1.00  0.00    -0.071 OA 
HETATM    9  H   UNL     1      -6.344   5.546  68.645  1.00  0.00     0.000 HD 
HETATM   10  F   UNL     1      -6.243   9.478  71.679  1.00  0.00    -0.079 F  
HETATM   11  C   UNL     1     -10.740   9.023  69.519  1.00  0.00    -0.206 A  
HETATM   12  C   UNL     1      -6.973   5.479  72.193  1.00  0.00    -0.081 A  
HETATM   13  C   UNL     1      -6.474   6.238  73.257  1.00  0.00    -0.069 A  
HETATM   14  C   UNL     1      -6.992   7.418  70.795  1.00  0.00    -0.055 A  
HETATM   15  C   UNL     1     -10.270   9.094  68.225  1.00  0.00    -0.206 A  
HETATM   16  C   UNL     1      -6.491   8.174  71.857  1.00  0.00    -0.055 A  
HETATM   17  F   UNL     1      -7.139   4.173  72.423  1.00  0.00    -0.047 F  
HETATM   18  S   UNL     1      -9.607   7.595  67.752  1.00  0.00    -0.148 SA 
HETATM   19  C   UNL     1      -6.247   7.599  73.095  1.00  0.00    -0.061 A  
ENDROOT
BRANCH   5  20
HETATM   20  N   UNL     1      -8.305   2.943  68.787  1.00  0.00    -0.063 NA 
HETATM   21  N   UNL     1      -8.033   3.179  67.489  1.00  0.00    -0.076 NA 
HETATM   22  C   UNL     1      -8.843   2.308  66.885  1.00  0.00    -0.131 A  
HETATM   23  C   UNL     1      -9.238   1.964  68.915  1.00  0.00    -0.151 A  
HETATM   24  N   UNL     1      -9.596   1.539  67.725  1.00  0.00    -0.077 NA 
ENDBRANCH   5  20
BRANCH  11  25
HETATM   25  C   UNL     1     -11.514  10.096  70.146  1.00  0.00    -0.368 A  
HETATM   26  C   UNL     1     -11.379  11.422  69.716  1.00  0.00    -0.332 A  
HETATM   27  C   UNL     1     -12.087  12.458  70.353  1.00  0.00    -0.381 A  
HETATM   28  C   UNL     1     -12.924  12.173  71.435  1.00  0.00    -0.357 A  
HETATM   29  C   UNL     1     -13.072  10.857  71.867  1.00  0.00    -0.537 A  
HETATM   30  C   UNL     1     -13.616  13.231  72.114  1.00  0.00    -0.562 C  
HETATM   31  N   UNL     1     -14.176  14.078  72.677  1.00  0.00    -0.598 NA 
HETATM   32  C   UNL     1     -12.371   9.828  71.228  1.00  0.00    -0.465 A  
ENDBRANCH  11  25
TORSDOF 2
ENDMDL
MODEL       29
REMARK 921   NORMALIZED FREE ENERGY PREDICTED BY IDOCK:   -5.51 KCAL/MOL
REMARK 922        TOTAL FREE ENERGY PREDICTED BY IDOCK:   -6.90 KCAL/MOL
REMARK 923 INTER-LIGAND FREE ENERGY PREDICTED BY IDOCK:   -6.10 KCAL/MOL
REMARK 924 INTRA-LIGAND FREE ENERGY PREDICTED BY IDOCK:   -0.80 KCAL/MOL
REMARK 927      BINDING AFFINITY PREDICTED BY RF-SCORE:    0.00 PKD
ROOT
HETATM    1  C   UNL     1      -7.010   7.219  70.618  1.00  0.00    -0.057 C  
HETATM    2  C   UNL     1      -7.988   6.263  69.918  1.00  0.00    -0.115 C  
HETATM    3  C   UNL     1      -9.419   6.788  70.021  1.00  0.00    -0.157 A  
HETATM    4  C   UNL     1      -7.542   5.842  68.459  1.00  0.00    -0.090 C  
HETATM    5  C   UNL     1      -6.188   5.061  68.496  1.00  0.00    -0.031 C  
HETATM    6  C   UNL     1      -7.554   7.021  67.465  1.00  0.00    -0.109 A  
HETATM    7  N   UNL     1      -9.776   8.036  70.264  1.00  0.00    -0.175 NA 
HETATM    8  O   UNL     1      -8.485   4.865  67.942  1.00  0.00    -0.103 OA 
HETATM    9  H   UNL     1      -8.217   4.613  67.066  1.00  0.00     0.000 HD 
HETATM   10  F   UNL     1     -10.011   9.012  65.619  1.00  0.00    -0.347 F  
HETATM   11  C   UNL     1     -11.157   8.124  70.414  1.00  0.00    -0.239 A  
HETATM   12  C   UNL     1      -6.403   7.726  67.075  1.00  0.00    -0.054 A  
HETATM   13  C   UNL     1      -6.460   8.856  66.251  1.00  0.00    -0.065 A  
HETATM   14  C   UNL     1      -8.777   7.478  66.925  1.00  0.00    -0.131 A  
HETATM   15  C   UNL     1     -11.835   6.949  70.170  1.00  0.00    -0.212 A  
HETATM   16  C   UNL     1      -8.830   8.604  66.101  1.00  0.00    -0.171 A  
HETATM   17  F   UNL     1      -5.187   7.340  67.470  1.00  0.00    -0.016 F  
HETATM   18  S   UNL     1     -10.734   5.668  69.929  1.00  0.00    -0.287 SA 
HETATM   19  C   UNL     1      -7.683   9.310  65.775  1.00  0.00    -0.098 A  
ENDROOT
BRANCH   5  20
HETATM   20  N   UNL     1      -6.109   3.992  69.477  1.00  0.00    -0.026 NA 
HETATM   21  N   UNL     1      -6.934   2.932  69.376  1.00  0.00    -0.040 NA 
HETATM   22  C   UNL     1      -6.583   2.219  70.448  1.00  0.00    -0.028 A  
HETATM   23  C   UNL     1      -5.310   3.881  70.571  1.00  0.00    -0.004 A  
HETATM   24  N   UNL     1      -5.585   2.764  71.204  1.00  0.00    -0.012 NA 
ENDBRANCH   5  20
BRANCH  11  25
HETATM   25  C   UNL     1     -11.825   9.360  70.825  1.00  0.00    -0.323 A  
HETATM   26  C   UNL     1     -11.533  10.576  70.194  1.00  0.00    -0.405 A  
HETATM   27  C   UNL     1     -12.141  11.770  70.623  1.00  0.00    -0.407 A  
HETATM   28  C   UNL     1     -13.034  11.756  71.697  1.00  0.00    -0.467 A  
HETATM   29  C   UNL     1     -13.338  10.551  72.328  1.00  0.00    -0.211 A  
HETATM   30  C   UNL     1     -13.625  12.977  72.165  1.00  0.00    -0.526 C  
HETATM   31  N   UNL     1     -14.104  13.959  72.559  1.00  0.00    -0.702 NA 
HETATM   32  C   UNL     1     -12.737   9.364  71.895  1.00  0.00    -0.484 A  
ENDBRANCH  11  25
TORSDOF 2
ENDMDL
MODEL       30
REMARK 921   NORMALIZED FREE ENERGY PREDICTED BY IDOCK:   -5.48 KCAL/MOL
REMARK 922        TOTAL FREE ENERGY PREDICTED BY IDOCK:   -6.86 KCAL/MOL
REMARK 923 INTER-LIGAND FREE ENERGY PREDICTED BY IDOCK:   -6.42 KCAL/MOL
REMARK 924 INTRA-LIGAND FREE ENERGY PREDICTED BY IDOCK:   -0.44 KCAL/MOL
REMARK 927      BINDING AFFINITY PREDICTED BY RF-SCORE:    0.00 PKD
ROOT
HETATM    1  C   UNL     1      -9.896  15.247  66.423  1.00  0.00    -0.295 C  
HETATM    2  C   UNL     1     -10.024  16.127  67.676  1.00  0.00    -0.241 C  
HETATM    3  C   UNL     1     -10.640  15.336  68.828  1.00  0.00    -0.240 A  
HETATM    4  C   UNL     1      -8.699  16.912  68.048  1.00  0.00    -0.215 C  
HETATM    5  C   UNL     1      -8.305  17.906  66.907  1.00  0.00    -0.242 C  
HETATM    6  C   UNL     1      -7.553  15.978  68.484  1.00  0.00    -0.155 A  
HETATM    7  N   UNL     1     -10.676  14.020  68.938  1.00  0.00    -0.253 NA 
HETATM    8  O   UNL     1      -8.970  17.781  69.180  1.00  0.00    -0.075 OA 
HETATM    9  H   UNL     1      -8.175  18.252  69.403  1.00  0.00     0.000 HD 
HETATM   10  F   UNL     1      -6.617  13.984  71.410  1.00  0.00    -0.022 F  
HETATM   11  C   UNL     1     -11.427  13.649  70.050  1.00  0.00    -0.090 A  
HETATM   12  C   UNL     1      -6.494  15.593  67.644  1.00  0.00    -0.165 A  
HETATM   13  C   UNL     1      -5.524  14.664  68.037  1.00  0.00    -0.127 A  
HETATM   14  C   UNL     1      -7.549  15.422  69.782  1.00  0.00    -0.091 A  
HETATM   15  C   UNL     1     -11.856  14.702  70.830  1.00  0.00    -0.311 A  
HETATM   16  C   UNL     1      -6.579  14.497  70.174  1.00  0.00    -0.128 A  
HETATM   17  F   UNL     1      -6.359  16.110  66.419  1.00  0.00     0.031 F  
HETATM   18  S   UNL     1     -11.481  16.187  70.078  1.00  0.00    -0.222 SA 
HETATM   19  C   UNL     1      -5.576  14.098  69.304  1.00  0.00    -0.082 A  
ENDROOT
BRANCH   5  20
HETATM   20  N   UNL     1      -9.380  18.749  66.413  1.00  0.00    -0.351 NA 
HETATM   21  N   UNL     1      -9.571  19.971  66.948  1.00  0.00    -0.384 NA 
HETATM   22  C   UNL     1     -10.639  20.395  66.269  1.00  0.00     0.069 A  
HETATM   23  C   UNL     1     -10.310  18.490  65.456  1.00  0.00     0.161 A  
HETATM   24  N   UNL     1     -11.119  19.518  65.340  1.00  0.00    -0.283 NA 
ENDBRANCH   5  20
BRANCH  11  25
HETATM   25  C   UNL     1     -11.754  12.253  70.347  1.00  0.00    -0.127 A  
HETATM   26  C   UNL     1     -12.734  11.933  71.295  1.00  0.00    -0.401 A  
HETATM   27  C   UNL     1     -13.013  10.591  71.613  1.00  0.00    -0.581 A  
HETATM   28  C   UNL     1     -12.300   9.561  70.995  1.00  0.00    -0.363 A  
HETATM   29  C   UNL     1     -11.328   9.868  70.045  1.00  0.00    -0.303 A  
HETATM   30  C   UNL     1     -12.551   8.193  71.346  1.00  0.00    -0.283 C  
HETATM   31  N   UNL     1     -12.738   7.082  71.627  1.00  0.00    -0.377 NA 
HETATM   32  C   UNL     1     -11.057  11.202  69.726  1.00  0.00    -0.271 A  
ENDBRANCH  11  25
TORSDOF 2
ENDMDL
MODEL       31
REMARK 921   NORMALIZED FREE ENERGY PREDICTED BY IDOCK:   -5.45 KCAL/MOL
REMARK 922        TOTAL FREE ENERGY PREDICTED BY IDOCK:   -6.83 KCAL/MOL
REMARK 923 INTER-LIGAND FREE ENERGY PREDICTED BY IDOCK:   -6.02 KCAL/MOL
REMARK 924 INTRA-LIGAND FREE ENERGY PREDICTED BY IDOCK:   -0.81 KCAL/MOL
REMARK 927      BINDING AFFINITY PREDICTED BY RF-SCORE:    0.00 PKD
ROOT
HETATM    1  C   UNL     1     -10.260  10.663  69.667  1.00  0.00    -0.156 C  
HETATM    2  C   UNL     1      -9.782  10.093  68.323  1.00  0.00    -0.154 C  
HETATM    3  C   UNL     1      -9.839  11.163  67.234  1.00  0.00    -0.175 A  
HETATM    4  C   UNL     1      -8.407   9.313  68.410  1.00  0.00    -0.119 C  
HETATM    5  C   UNL     1      -8.535   8.065  69.342  1.00  0.00    -0.132 C  
HETATM    6  C   UNL     1      -7.218  10.231  68.757  1.00  0.00    -0.083 A  
HETATM    7  N   UNL     1      -9.866  12.470  67.426  1.00  0.00    -0.199 NA 
HETATM    8  O   UNL     1      -8.110   8.737  67.109  1.00  0.00    -0.099 OA 
HETATM    9  H   UNL     1      -7.285   8.269  67.161  1.00  0.00     0.000 HD 
HETATM   10  F   UNL     1      -5.132  12.745  67.102  1.00  0.00    -0.075 F  
HETATM   11  C   UNL     1     -10.047  13.132  66.215  1.00  0.00    -0.285 A  
HETATM   12  C   UNL     1      -6.664  10.340  70.044  1.00  0.00    -0.137 A  
HETATM   13  C   UNL     1      -5.653  11.257  70.350  1.00  0.00    -0.134 A  
HETATM   14  C   UNL     1      -6.649  11.058  67.764  1.00  0.00    -0.063 A  
HETATM   15  C   UNL     1     -10.045  12.312  65.107  1.00  0.00    -0.261 A  
HETATM   16  C   UNL     1      -5.637  11.970  68.070  1.00  0.00    -0.052 A  
HETATM   17  F   UNL     1      -7.078   9.557  71.045  1.00  0.00    -0.103 F  
HETATM   18  S   UNL     1      -9.999  10.675  65.582  1.00  0.00    -0.282 SA 
HETATM   19  C   UNL     1      -5.147  12.091  69.361  1.00  0.00    -0.060 A  
ENDROOT
BRANCH   5  20
HETATM   20  N   UNL     1      -9.689   7.217  69.097  1.00  0.00    -0.157 NA 
HETATM   21  N   UNL     1      -9.841   6.625  67.896  1.00  0.00    -0.122 NA 
HETATM   22  C   UNL     1     -11.001   5.986  68.058  1.00  0.00    -0.245 A  
HETATM   23  C   UNL     1     -10.731   6.918  69.918  1.00  0.00    -0.246 A  
HETATM   24  N   UNL     1     -11.576   6.135  69.287  1.00  0.00    -0.158 NA 
ENDBRANCH   5  20
BRANCH  11  25
HETATM   25  C   UNL     1     -10.252  14.580  66.135  1.00  0.00    -0.317 A  
HETATM   26  C   UNL     1     -10.673  15.179  64.941  1.00  0.00    -0.421 A  
HETATM   27  C   UNL     1     -10.822  16.575  64.853  1.00  0.00    -0.222 A  
HETATM   28  C   UNL     1     -10.535  17.382  65.956  1.00  0.00    -0.278 A  
HETATM   29  C   UNL     1     -10.123  16.797  67.152  1.00  0.00    -0.282 A  
HETATM   30  C   UNL     1     -10.646  18.810  65.859  1.00  0.00    -0.352 C  
HETATM   31  N   UNL     1     -10.723  19.966  65.792  1.00  0.00    -0.425 NA 
HETATM   32  C   UNL     1      -9.981  15.408  67.239  1.00  0.00    -0.226 A  
ENDBRANCH  11  25
TORSDOF 2
ENDMDL
MODEL       32
REMARK 921   NORMALIZED FREE ENERGY PREDICTED BY IDOCK:   -5.40 KCAL/MOL
REMARK 922        TOTAL FREE ENERGY PREDICTED BY IDOCK:   -6.77 KCAL/MOL
REMARK 923 INTER-LIGAND FREE ENERGY PREDICTED BY IDOCK:   -6.05 KCAL/MOL
REMARK 924 INTRA-LIGAND FREE ENERGY PREDICTED BY IDOCK:   -0.72 KCAL/MOL
REMARK 927      BINDING AFFINITY PREDICTED BY RF-SCORE:    0.00 PKD
ROOT
HETATM    1  C   UNL     1      -9.071  13.752  69.070  1.00  0.00     0.267 C  
HETATM    2  C   UNL     1     -10.119  12.917  68.319  1.00  0.00    -0.242 C  
HETATM    3  C   UNL     1      -9.981  11.437  68.672  1.00  0.00    -0.202 A  
HETATM    4  C   UNL     1     -11.592  13.487  68.429  1.00  0.00    -0.343 C  
HETATM    5  C   UNL     1     -11.687  14.908  67.784  1.00  0.00    -0.317 C  
HETATM    6  C   UNL     1     -12.158  13.413  69.861  1.00  0.00    -0.389 A  
HETATM    7  N   UNL     1      -9.387  10.943  69.743  1.00  0.00     0.376 NA 
HETATM    8  O   UNL     1     -12.472  12.678  67.602  1.00  0.00    -0.114 OA 
HETATM    9  H   UNL     1     -13.356  13.020  67.667  1.00  0.00     0.000 HD 
HETATM   10  F   UNL     1     -13.486  10.880  72.148  1.00  0.00    -0.533 F  
HETATM   11  C   UNL     1      -9.338   9.554  69.672  1.00  0.00    -0.200 A  
HETATM   12  C   UNL     1     -12.204  14.508  70.740  1.00  0.00    -0.333 A  
HETATM   13  C   UNL     1     -12.629  14.386  72.068  1.00  0.00    -0.392 A  
HETATM   14  C   UNL     1     -12.630  12.185  70.373  1.00  0.00    -0.111 A  
HETATM   15  C   UNL     1      -9.999   9.012  68.590  1.00  0.00    -0.172 A  
HETATM   16  C   UNL     1     -13.056  12.066  71.697  1.00  0.00    -0.318 A  
HETATM   17  F   UNL     1     -11.847  15.733  70.342  1.00  0.00    -0.288 F  
HETATM   18  S   UNL     1     -10.537  10.248  67.545  1.00  0.00    -0.284 SA 
HETATM   19  C   UNL     1     -13.042  13.153  72.557  1.00  0.00    -0.320 A  
ENDROOT
BRANCH   5  20
HETATM   20  N   UNL     1     -11.092  15.037  66.464  1.00  0.00    -0.336 NA 
HETATM   21  N   UNL     1     -11.430  14.168  65.491  1.00  0.00    -0.317 NA 
HETATM   22  C   UNL     1     -10.668  14.589  64.481  1.00  0.00    -0.174 A  
HETATM   23  C   UNL     1     -10.168  15.928  66.017  1.00  0.00    -0.334 A  
HETATM   24  N   UNL     1      -9.883  15.670  64.761  1.00  0.00     0.021 NA 
ENDBRANCH   5  20
BRANCH  11  25
HETATM   25  C   UNL     1      -8.616   8.742  70.653  1.00  0.00    -0.203 A  
HETATM   26  C   UNL     1      -7.587   7.880  70.253  1.00  0.00    -0.086 A  
HETATM   27  C   UNL     1      -6.929   7.065  71.192  1.00  0.00    -0.062 A  
HETATM   28  C   UNL     1      -7.307   7.097  72.536  1.00  0.00    -0.079 A  
HETATM   29  C   UNL     1      -8.324   7.955  72.947  1.00  0.00    -0.205 A  
HETATM   30  C   UNL     1      -6.667   6.237  73.490  1.00  0.00    -0.075 C  
HETATM   31  N   UNL     1      -6.163   5.542  74.271  1.00  0.00    -0.062 NA 
HETATM   32  C   UNL     1      -8.974   8.769  72.013  1.00  0.00    -0.227 A  
ENDBRANCH  11  25
TORSDOF 2
ENDMDL
MODEL       33
REMARK 921   NORMALIZED FREE ENERGY PREDICTED BY IDOCK:   -4.99 KCAL/MOL
REMARK 922        TOTAL FREE ENERGY PREDICTED BY IDOCK:   -6.32 KCAL/MOL
REMARK 923 INTER-LIGAND FREE ENERGY PREDICTED BY IDOCK:   -5.50 KCAL/MOL
REMARK 924 INTRA-LIGAND FREE ENERGY PREDICTED BY IDOCK:   -0.82 KCAL/MOL
REMARK 927      BINDING AFFINITY PREDICTED BY RF-SCORE:    0.00 PKD
ROOT
HETATM    1  C   UNL     1     -10.842   6.575  72.041  1.00  0.00    -0.267 C  
HETATM    2  C   UNL     1      -9.942   5.664  71.192  1.00  0.00    -0.244 C  
HETATM    3  C   UNL     1      -9.787   6.226  69.780  1.00  0.00    -0.165 A  
HETATM    4  C   UNL     1      -8.581   5.267  71.897  1.00  0.00    -0.130 C  
HETATM    5  C   UNL     1      -8.850   4.448  73.201  1.00  0.00    -0.107 C  
HETATM    6  C   UNL     1      -7.639   6.471  72.101  1.00  0.00    -0.097 A  
HETATM    7  N   UNL     1      -9.996   7.478  69.413  1.00  0.00    -0.174 NA 
HETATM    8  O   UNL     1      -7.867   4.330  71.047  1.00  0.00    -0.064 OA 
HETATM    9  H   UNL     1      -7.050   4.092  71.470  1.00  0.00     0.000 HD 
HETATM   10  F   UNL     1      -5.421   8.575  70.086  1.00  0.00    -0.023 F  
HETATM   11  C   UNL     1      -9.884   7.601  68.030  1.00  0.00    -0.161 A  
HETATM   12  C   UNL     1      -7.494   7.152  73.321  1.00  0.00    -0.072 A  
HETATM   13  C   UNL     1      -6.709   8.303  73.448  1.00  0.00    -0.139 A  
HETATM   14  C   UNL     1      -6.891   6.975  71.014  1.00  0.00    -0.057 A  
HETATM   15  C   UNL     1      -9.481   6.452  67.384  1.00  0.00    -0.116 A  
HETATM   16  C   UNL     1      -6.106   8.122  71.144  1.00  0.00    -0.034 A  
HETATM   17  F   UNL     1      -8.101   6.722  74.432  1.00  0.00    -0.113 F  
HETATM   18  S   UNL     1      -9.415   5.147  68.481  1.00  0.00    -0.140 SA 
HETATM   19  C   UNL     1      -6.023   8.803  72.348  1.00  0.00    -0.074 A  
ENDROOT
BRANCH   5  20
HETATM   20  N   UNL     1      -9.796   3.353  73.068  1.00  0.00    -0.130 NA 
HETATM   21  N   UNL     1      -9.498   2.305  72.274  1.00  0.00    -0.092 NA 
HETATM   22  C   UNL     1     -10.599   1.560  72.391  1.00  0.00    -0.146 A  
HETATM   23  C   UNL     1     -11.029   3.203  73.622  1.00  0.00    -0.233 A  
HETATM   24  N   UNL     1     -11.560   2.073  73.213  1.00  0.00    -0.125 NA 
ENDBRANCH   5  20
BRANCH  11  25
HETATM   25  C   UNL     1     -10.198   8.844  67.325  1.00  0.00    -0.326 A  
HETATM   26  C   UNL     1      -9.836   9.017  65.982  1.00  0.00    -0.312 A  
HETATM   27  C   UNL     1     -10.096  10.231  65.321  1.00  0.00    -0.359 A  
HETATM   28  C   UNL     1     -10.704  11.287  66.004  1.00  0.00    -0.301 A  
HETATM   29  C   UNL     1     -11.075  11.124  67.338  1.00  0.00    -0.370 A  
HETATM   30  C   UNL     1     -10.933  12.541  65.346  1.00  0.00    -0.294 C  
HETATM   31  N   UNL     1     -11.117  13.563  64.828  1.00  0.00    -0.341 NA 
HETATM   32  C   UNL     1     -10.821   9.914  67.992  1.00  0.00    -0.294 A  
ENDBRANCH  11  25
TORSDOF 2
ENDMDL
MODEL       34
REMARK 921   NORMALIZED FREE ENERGY PREDICTED BY IDOCK:   -4.96 KCAL/MOL
REMARK 922        TOTAL FREE ENERGY PREDICTED BY IDOCK:   -6.28 KCAL/MOL
REMARK 923 INTER-LIGAND FREE ENERGY PREDICTED BY IDOCK:   -5.48 KCAL/MOL
REMARK 924 INTRA-LIGAND FREE ENERGY PREDICTED BY IDOCK:   -0.79 KCAL/MOL
REMARK 927      BINDING AFFINITY PREDICTED BY RF-SCORE:    0.00 PKD
ROOT
HETATM    1  C   UNL     1     -10.165   6.642  73.534  1.00  0.00    -0.300 C  
HETATM    2  C   UNL     1      -9.867   5.935  72.203  1.00  0.00    -0.185 C  
HETATM    3  C   UNL     1     -10.155   6.864  71.025  1.00  0.00    -0.193 A  
HETATM    4  C   UNL     1      -8.452   5.227  72.155  1.00  0.00    -0.126 C  
HETATM    5  C   UNL     1      -8.361   4.095  73.230  1.00  0.00    -0.090 C  
HETATM    6  C   UNL     1      -7.279   6.227  72.203  1.00  0.00    -0.091 A  
HETATM    7  N   UNL     1     -10.228   8.182  71.071  1.00  0.00    -0.187 NA 
HETATM    8  O   UNL     1      -8.326   4.512  70.896  1.00  0.00    -0.085 OA 
HETATM    9  H   UNL     1      -7.477   4.088  70.867  1.00  0.00     0.000 HD 
HETATM   10  F   UNL     1      -5.625   8.607  69.964  1.00  0.00    -0.028 F  
HETATM   11  C   UNL     1     -10.633   8.687  69.839  1.00  0.00    -0.224 A  
HETATM   12  C   UNL     1      -6.541   6.512  73.364  1.00  0.00    -0.069 A  
HETATM   13  C   UNL     1      -5.550   7.499  73.399  1.00  0.00    -0.045 A  
HETATM   14  C   UNL     1      -6.920   6.952  71.045  1.00  0.00    -0.066 A  
HETATM   15  C   UNL     1     -10.753   7.741  68.843  1.00  0.00    -0.085 A  
HETATM   16  C   UNL     1      -5.929   7.934  71.081  1.00  0.00    -0.034 A  
HETATM   17  F   UNL     1      -6.749   5.838  74.499  1.00  0.00    -0.072 F  
HETATM   18  S   UNL     1     -10.539   6.176  69.485  1.00  0.00    -0.324 SA 
HETATM   19  C   UNL     1      -5.253   8.229  72.255  1.00  0.00    -0.036 A  
ENDROOT
BRANCH   5  20
HETATM   20  N   UNL     1      -9.488   3.178  73.269  1.00  0.00    -0.092 NA 
HETATM   21  N   UNL     1      -9.721   2.362  72.223  1.00  0.00    -0.116 NA 
HETATM   22  C   UNL     1     -10.825   1.728  72.622  1.00  0.00    -0.088 A  
HETATM   23  C   UNL     1     -10.430   3.009  74.235  1.00  0.00    -0.177 A  
HETATM   24  N   UNL     1     -11.289   2.092  73.853  1.00  0.00    -0.183 NA 
ENDBRANCH   5  20
BRANCH  11  25
HETATM   25  C   UNL     1     -10.932  10.105  69.631  1.00  0.00    -0.305 A  
HETATM   26  C   UNL     1     -10.218  10.858  68.690  1.00  0.00    -0.201 A  
HETATM   27  C   UNL     1     -10.474  12.231  68.527  1.00  0.00    -0.248 A  
HETATM   28  C   UNL     1     -11.437  12.864  69.316  1.00  0.00    -0.341 A  
HETATM   29  C   UNL     1     -12.159  12.124  70.251  1.00  0.00    -0.385 A  
HETATM   30  C   UNL     1     -11.673  14.273  69.183  1.00  0.00    -0.320 C  
HETATM   31  N   UNL     1     -11.869  15.414  69.091  1.00  0.00    -0.341 NA 
HETATM   32  C   UNL     1     -11.907  10.757  70.407  1.00  0.00    -0.450 A  
ENDBRANCH  11  25
TORSDOF 2
ENDMDL
MODEL       35
REMARK 921   NORMALIZED FREE ENERGY PREDICTED BY IDOCK:   -4.95 KCAL/MOL
REMARK 922        TOTAL FREE ENERGY PREDICTED BY IDOCK:   -6.26 KCAL/MOL
REMARK 923 INTER-LIGAND FREE ENERGY PREDICTED BY IDOCK:   -5.46 KCAL/MOL
REMARK 924 INTRA-LIGAND FREE ENERGY PREDICTED BY IDOCK:   -0.81 KCAL/MOL
REMARK 927      BINDING AFFINITY PREDICTED BY RF-SCORE:    0.00 PKD
ROOT
HETATM    1  C   UNL     1      -6.658   7.742  68.631  1.00  0.00    -0.057 C  
HETATM    2  C   UNL     1      -7.871   7.287  69.458  1.00  0.00    -0.118 C  
HETATM    3  C   UNL     1      -9.093   8.144  69.134  1.00  0.00    -0.148 A  
HETATM    4  C   UNL     1      -8.129   5.725  69.414  1.00  0.00    -0.101 C  
HETATM    5  C   UNL     1      -6.921   4.946  70.028  1.00  0.00    -0.049 C  
HETATM    6  C   UNL     1      -8.547   5.227  68.016  1.00  0.00    -0.103 A  
HETATM    7  N   UNL     1      -9.270   8.870  68.045  1.00  0.00    -0.139 NA 
HETATM    8  O   UNL     1      -9.230   5.406  70.306  1.00  0.00    -0.141 OA 
HETATM    9  H   UNL     1      -9.385   4.469  70.280  1.00  0.00     0.000 HD 
HETATM   10  F   UNL     1     -11.511   5.289  65.866  1.00  0.00    -0.103 F  
HETATM   11  C   UNL     1     -10.439   9.619  68.148  1.00  0.00    -0.222 A  
HETATM   12  C   UNL     1      -7.669   4.603  67.114  1.00  0.00    -0.090 A  
HETATM   13  C   UNL     1      -8.053   4.253  65.814  1.00  0.00    -0.101 A  
HETATM   14  C   UNL     1      -9.869   5.425  67.560  1.00  0.00    -0.173 A  
HETATM   15  C   UNL     1     -11.188   9.360  69.276  1.00  0.00     0.046 A  
HETATM   16  C   UNL     1     -10.251   5.073  66.264  1.00  0.00    -0.273 A  
HETATM   17  F   UNL     1      -6.414   4.303  67.463  1.00  0.00    -0.037 F  
HETATM   18  S   UNL     1     -10.344   8.306  70.318  1.00  0.00    -0.213 SA 
HETATM   19  C   UNL     1      -9.348   4.506  65.379  1.00  0.00    -0.163 A  
ENDROOT
BRANCH   5  20
HETATM   20  N   UNL     1      -6.446   5.437  71.310  1.00  0.00    -0.034 NA 
HETATM   21  N   UNL     1      -7.226   5.318  72.402  1.00  0.00    -0.089 NA 
HETATM   22  C   UNL     1      -6.471   5.902  73.334  1.00  0.00    -0.072 A  
HETATM   23  C   UNL     1      -5.280   6.066  71.616  1.00  0.00    -0.021 A  
HETATM   24  N   UNL     1      -5.266   6.368  72.894  1.00  0.00    -0.035 NA 
ENDBRANCH   5  20
BRANCH  11  25
HETATM   25  C   UNL     1     -10.822  10.618  67.149  1.00  0.00    -0.328 A  
HETATM   26  C   UNL     1     -11.726  11.640  67.468  1.00  0.00    -0.288 A  
HETATM   27  C   UNL     1     -12.129  12.570  66.492  1.00  0.00    -0.245 A  
HETATM   28  C   UNL     1     -11.642  12.474  65.187  1.00  0.00    -0.395 A  
HETATM   29  C   UNL     1     -10.737  11.466  64.860  1.00  0.00    -0.350 A  
HETATM   30  C   UNL     1     -12.082  13.395  64.178  1.00  0.00    -0.433 C  
HETATM   31  N   UNL     1     -12.436  14.128  63.351  1.00  0.00    -0.707 NA 
HETATM   32  C   UNL     1     -10.333  10.545  65.833  1.00  0.00    -0.275 A  
ENDBRANCH  11  25
TORSDOF 2
ENDMDL
MODEL       36
REMARK 921   NORMALIZED FREE ENERGY PREDICTED BY IDOCK:   -4.91 KCAL/MOL
REMARK 922        TOTAL FREE ENERGY PREDICTED BY IDOCK:   -6.22 KCAL/MOL
REMARK 923 INTER-LIGAND FREE ENERGY PREDICTED BY IDOCK:   -5.41 KCAL/MOL
REMARK 924 INTRA-LIGAND FREE ENERGY PREDICTED BY IDOCK:   -0.81 KCAL/MOL
REMARK 927      BINDING AFFINITY PREDICTED BY RF-SCORE:    0.00 PKD
ROOT
HETATM    1  C   UNL     1     -10.703   5.861  68.709  1.00  0.00    -0.354 C  
HETATM    2  C   UNL     1      -9.185   5.976  68.918  1.00  0.00    -0.125 C  
HETATM    3  C   UNL     1      -8.742   7.436  68.849  1.00  0.00    -0.132 A  
HETATM    4  C   UNL     1      -8.649   5.181  70.178  1.00  0.00    -0.108 C  
HETATM    5  C   UNL     1      -8.909   3.648  70.020  1.00  0.00    -0.086 C  
HETATM    6  C   UNL     1      -9.155   5.764  71.513  1.00  0.00    -0.149 A  
HETATM    7  N   UNL     1      -9.514   8.494  69.020  1.00  0.00    -0.150 NA 
HETATM    8  O   UNL     1      -7.200   5.280  70.214  1.00  0.00    -0.059 OA 
HETATM    9  H   UNL     1      -6.878   4.803  70.970  1.00  0.00     0.000 HD 
HETATM   10  F   UNL     1      -8.489   8.657  73.658  1.00  0.00    -0.268 F  
HETATM   11  C   UNL     1      -8.801   9.660  68.760  1.00  0.00    -0.130 A  
HETATM   12  C   UNL     1     -10.221   5.221  72.249  1.00  0.00    -0.199 A  
HETATM   13  C   UNL     1     -10.723   5.831  73.405  1.00  0.00    -0.303 A  
HETATM   14  C   UNL     1      -8.567   6.935  72.042  1.00  0.00    -0.121 A  
HETATM   15  C   UNL     1      -7.460   9.467  68.502  1.00  0.00    -0.080 A  
HETATM   16  C   UNL     1      -9.067   7.541  73.196  1.00  0.00    -0.177 A  
HETATM   17  F   UNL     1     -10.807   4.078  71.880  1.00  0.00    -0.060 F  
HETATM   18  S   UNL     1      -7.112   7.800  68.400  1.00  0.00    -0.079 SA 
HETATM   19  C   UNL     1     -10.154   7.009  73.872  1.00  0.00    -0.386 A  
ENDROOT
BRANCH   5  20
HETATM   20  N   UNL     1      -8.519   3.076  68.742  1.00  0.00    -0.065 NA 
HETATM   21  N   UNL     1      -7.225   3.105  68.365  1.00  0.00    -0.049 NA 
HETATM   22  C   UNL     1      -7.286   2.534  67.160  1.00  0.00    -0.057 A  
HETATM   23  C   UNL     1      -9.290   2.502  67.781  1.00  0.00    -0.175 A  
HETATM   24  N   UNL     1      -8.534   2.145  66.767  1.00  0.00    -0.093 NA 
ENDBRANCH   5  20
BRANCH  11  25
HETATM   25  C   UNL     1      -9.435  10.980  68.736  1.00  0.00    -0.190 A  
HETATM   26  C   UNL     1     -10.743  11.155  69.205  1.00  0.00    -0.262 A  
HETATM   27  C   UNL     1     -11.367  12.414  69.136  1.00  0.00    -0.327 A  
HETATM   28  C   UNL     1     -10.689  13.503  68.583  1.00  0.00    -0.271 A  
HETATM   29  C   UNL     1      -9.385  13.343  68.120  1.00  0.00    -0.217 A  
HETATM   30  C   UNL     1     -11.336  14.780  68.473  1.00  0.00    -0.290 C  
HETATM   31  N   UNL     1     -11.850  15.815  68.370  1.00  0.00    -0.272 NA 
HETATM   32  C   UNL     1      -8.765  12.091  68.195  1.00  0.00    -0.177 A  
ENDBRANCH  11  25
TORSDOF 2
ENDMDL
MODEL       37
REMARK 921   NORMALIZED FREE ENERGY PREDICTED BY IDOCK:   -4.89 KCAL/MOL
REMARK 922        TOTAL FREE ENERGY PREDICTED BY IDOCK:   -6.20 KCAL/MOL
REMARK 923 INTER-LIGAND FREE ENERGY PREDICTED BY IDOCK:   -5.40 KCAL/MOL
REMARK 924 INTRA-LIGAND FREE ENERGY PREDICTED BY IDOCK:   -0.80 KCAL/MOL
REMARK 927      BINDING AFFINITY PREDICTED BY RF-SCORE:    0.00 PKD
ROOT
HETATM    1  C   UNL     1      -6.761   5.763  69.544  1.00  0.00    -0.059 C  
HETATM    2  C   UNL     1      -8.060   5.054  69.960  1.00  0.00    -0.074 C  
HETATM    3  C   UNL     1      -9.245   6.015  69.882  1.00  0.00    -0.148 A  
HETATM    4  C   UNL     1      -8.290   3.662  69.242  1.00  0.00    -0.063 C  
HETATM    5  C   UNL     1      -7.155   2.652  69.613  1.00  0.00    -0.040 C  
HETATM    6  C   UNL     1      -8.528   3.802  67.725  1.00  0.00    -0.105 A  
HETATM    7  N   UNL     1      -9.297   7.132  69.180  1.00  0.00    -0.142 NA 
HETATM    8  O   UNL     1      -9.487   3.044  69.787  1.00  0.00    -0.158 OA 
HETATM    9  H   UNL     1      -9.625   2.209  69.356  1.00  0.00     0.000 HD 
HETATM   10  F   UNL     1     -11.209   4.863  65.467  1.00  0.00    -0.287 F  
HETATM   11  C   UNL     1     -10.480   7.816  69.448  1.00  0.00    -0.220 A  
HETATM   12  C   UNL     1      -7.538   3.574  66.754  1.00  0.00    -0.080 A  
HETATM   13  C   UNL     1      -7.756   3.808  65.392  1.00  0.00    -0.082 A  
HETATM   14  C   UNL     1      -9.787   4.223  67.243  1.00  0.00    -0.193 A  
HETATM   15  C   UNL     1     -11.358   7.143  70.271  1.00  0.00    -0.269 A  
HETATM   16  C   UNL     1     -10.003   4.453  65.883  1.00  0.00    -0.240 A  
HETATM   17  F   UNL     1      -6.331   3.109  67.091  1.00  0.00    -0.032 F  
HETATM   18  S   UNL     1     -10.632   5.721  70.872  1.00  0.00    -0.261 SA 
HETATM   19  C   UNL     1      -8.992   4.269  64.954  1.00  0.00    -0.143 A  
ENDROOT
BRANCH   5  20
HETATM   20  N   UNL     1      -6.846   2.551  71.029  1.00  0.00    -0.031 NA 
HETATM   21  N   UNL     1      -7.764   2.049  71.879  1.00  0.00    -0.040 NA 
HETATM   22  C   UNL     1      -7.131   2.155  73.048  1.00  0.00    -0.028 A  
HETATM   23  C   UNL     1      -5.723   2.926  71.697  1.00  0.00    -0.009 A  
HETATM   24  N   UNL     1      -5.874   2.683  72.980  1.00  0.00    -0.007 NA 
ENDBRANCH   5  20
BRANCH  11  25
HETATM   25  C   UNL     1     -10.752   9.153  68.917  1.00  0.00    -0.167 A  
HETATM   26  C   UNL     1     -11.331  10.140  69.724  1.00  0.00    -0.312 A  
HETATM   27  C   UNL     1     -11.636  11.409  69.198  1.00  0.00    -0.381 A  
HETATM   28  C   UNL     1     -11.376  11.692  67.855  1.00  0.00    -0.369 A  
HETATM   29  C   UNL     1     -10.793  10.720  67.044  1.00  0.00    -0.311 A  
HETATM   30  C   UNL     1     -11.723  12.971  67.303  1.00  0.00    -0.375 C  
HETATM   31  N   UNL     1     -12.005  13.998  66.842  1.00  0.00    -0.430 NA 
HETATM   32  C   UNL     1     -10.486   9.462  67.571  1.00  0.00    -0.343 A  
ENDBRANCH  11  25
TORSDOF 2
ENDMDL
MODEL       38
REMARK 921   NORMALIZED FREE ENERGY PREDICTED BY IDOCK:   -4.85 KCAL/MOL
REMARK 922        TOTAL FREE ENERGY PREDICTED BY IDOCK:   -6.16 KCAL/MOL
REMARK 923 INTER-LIGAND FREE ENERGY PREDICTED BY IDOCK:   -5.45 KCAL/MOL
REMARK 924 INTRA-LIGAND FREE ENERGY PREDICTED BY IDOCK:   -0.71 KCAL/MOL
REMARK 927      BINDING AFFINITY PREDICTED BY RF-SCORE:    0.00 PKD
ROOT
HETATM    1  C   UNL     1     -10.987   7.271  67.086  1.00  0.00    -0.285 C  
HETATM    2  C   UNL     1      -9.453   7.186  67.044  1.00  0.00    -0.192 C  
HETATM    3  C   UNL     1      -8.835   8.581  67.111  1.00  0.00    -0.129 A  
HETATM    4  C   UNL     1      -8.839   6.142  68.064  1.00  0.00    -0.111 C  
HETATM    5  C   UNL     1      -9.323   4.692  67.734  1.00  0.00    -0.141 C  
HETATM    6  C   UNL     1      -9.051   6.548  69.536  1.00  0.00    -0.140 A  
HETATM    7  N   UNL     1      -9.423   9.673  67.563  1.00  0.00    -0.133 NA 
HETATM    8  O   UNL     1      -7.402   6.076  67.862  1.00  0.00    -0.080 OA 
HETATM    9  H   UNL     1      -7.034   5.450  68.474  1.00  0.00     0.000 HD 
HETATM   10  F   UNL     1      -7.681   8.961  71.928  1.00  0.00    -0.143 F  
HETATM   11  C   UNL     1      -8.609  10.783  67.354  1.00  0.00    -0.126 A  
HETATM   12  C   UNL     1     -10.053   6.010  70.360  1.00  0.00    -0.194 A  
HETATM   13  C   UNL     1     -10.284   6.473  71.660  1.00  0.00    -0.216 A  
HETATM   14  C   UNL     1      -8.238   7.546  70.118  1.00  0.00    -0.132 A  
HETATM   15  C   UNL     1      -7.362  10.491  66.843  1.00  0.00    -0.110 A  
HETATM   16  C   UNL     1      -8.468   8.005  71.417  1.00  0.00    -0.121 A  
HETATM   17  F   UNL     1     -10.836   5.013  69.937  1.00  0.00    -0.316 F  
HETATM   18  S   UNL     1      -7.260   8.836  66.443  1.00  0.00    -0.084 SA 
HETATM   19  C   UNL     1      -9.498   7.490  72.188  1.00  0.00    -0.185 A  
ENDROOT
BRANCH   5  20
HETATM   20  N   UNL     1      -9.215   4.300  66.338  1.00  0.00    -0.137 NA 
HETATM   21  N   UNL     1      -8.017   3.937  65.838  1.00  0.00    -0.093 NA 
HETATM   22  C   UNL     1      -8.325   3.693  64.563  1.00  0.00    -0.093 A  
HETATM   23  C   UNL     1     -10.173   4.259  65.376  1.00  0.00    -0.220 A  
HETATM   24  N   UNL     1      -9.639   3.873  64.239  1.00  0.00    -0.158 NA 
ENDBRANCH   5  20
BRANCH  11  25
HETATM   25  C   UNL     1      -9.057  12.149  67.631  1.00  0.00    -0.181 A  
HETATM   26  C   UNL     1     -10.349  12.396  68.113  1.00  0.00    -0.231 A  
HETATM   27  C   UNL     1     -10.793  13.712  68.332  1.00  0.00    -0.274 A  
HETATM   28  C   UNL     1      -9.951  14.792  68.056  1.00  0.00    -0.218 A  
HETATM   29  C   UNL     1      -8.661  14.559  67.583  1.00  0.00    -0.184 A  
HETATM   30  C   UNL     1     -10.413  16.138  68.238  1.00  0.00    -0.276 C  
HETATM   31  N   UNL     1     -10.777  17.232  68.374  1.00  0.00    -0.360 NA 
HETATM   32  C   UNL     1      -8.219  13.248  67.371  1.00  0.00    -0.185 A  
ENDBRANCH  11  25
TORSDOF 2
ENDMDL
MODEL       39
REMARK 921   NORMALIZED FREE ENERGY PREDICTED BY IDOCK:   -4.82 KCAL/MOL
REMARK 922        TOTAL FREE ENERGY PREDICTED BY IDOCK:   -6.12 KCAL/MOL
REMARK 923 INTER-LIGAND FREE ENERGY PREDICTED BY IDOCK:   -5.42 KCAL/MOL
REMARK 924 INTRA-LIGAND FREE ENERGY PREDICTED BY IDOCK:   -0.70 KCAL/MOL
REMARK 927      BINDING AFFINITY PREDICTED BY RF-SCORE:    0.00 PKD
ROOT
HETATM    1  C   UNL     1      -7.702  10.945  67.426  1.00  0.00    -0.108 C  
HETATM    2  C   UNL     1      -8.704   9.786  67.299  1.00  0.00    -0.135 C  
HETATM    3  C   UNL     1      -9.941  10.048  68.155  1.00  0.00    -0.153 A  
HETATM    4  C   UNL     1      -9.013   9.365  65.804  1.00  0.00    -0.186 C  
HETATM    5  C   UNL     1      -7.719   8.847  65.095  1.00  0.00    -0.102 C  
HETATM    6  C   UNL     1      -9.759  10.460  65.015  1.00  0.00    -0.362 A  
HETATM    7  N   UNL     1     -10.344  11.224  68.603  1.00  0.00    -0.195 NA 
HETATM    8  O   UNL     1      -9.885   8.203  65.813  1.00  0.00    -0.423 OA 
HETATM    9  H   UNL     1     -10.071   7.951  64.917  1.00  0.00     0.000 HD 
HETATM   10  F   UNL     1     -13.138  11.856  64.811  1.00  0.00    -0.191 F  
HETATM   11  C   UNL     1     -11.434  11.068  69.455  1.00  0.00    -0.299 A  
HETATM   12  C   UNL     1      -9.134  11.337  64.113  1.00  0.00     0.035 A  
HETATM   13  C   UNL     1      -9.820  12.386  63.489  1.00  0.00    -0.003 A  
HETATM   14  C   UNL     1     -11.144  10.654  65.213  1.00  0.00     0.335 A  
HETATM   15  C   UNL     1     -11.907   9.777  69.550  1.00  0.00     0.264 A  
HETATM   16  C   UNL     1     -11.827  11.699  64.588  1.00  0.00    -0.024 A  
HETATM   17  F   UNL     1      -7.843  11.203  63.797  1.00  0.00     0.185 F  
HETATM   18  S   UNL     1     -10.877   8.705  68.715  1.00  0.00     0.125 SA 
HETATM   19  C   UNL     1     -11.172  12.580  63.742  1.00  0.00    -0.524 A  
ENDROOT
BRANCH   5  20
HETATM   20  N   UNL     1      -6.944   7.871  65.842  1.00  0.00    -0.057 NA 
HETATM   21  N   UNL     1      -7.560   6.802  66.384  1.00  0.00    -0.088 NA 
HETATM   22  C   UNL     1      -6.544   6.191  66.996  1.00  0.00    -0.059 A  
HETATM   23  C   UNL     1      -5.617   7.863  66.135  1.00  0.00    -0.032 A  
HETATM   24  N   UNL     1      -5.333   6.807  66.862  1.00  0.00    -0.016 NA 
ENDBRANCH   5  20
BRANCH  11  25
HETATM   25  C   UNL     1     -12.007  12.185  70.208  1.00  0.00    -0.389 A  
HETATM   26  C   UNL     1     -11.789  13.509  69.804  1.00  0.00    -0.395 A  
HETATM   27  C   UNL     1     -12.301  14.582  70.556  1.00  0.00    -0.403 A  
HETATM   28  C   UNL     1     -13.022  14.336  71.728  1.00  0.00    -0.430 A  
HETATM   29  C   UNL     1     -13.251  13.024  72.136  1.00  0.00    -0.558 A  
HETATM   30  C   UNL     1     -13.510  15.428  72.521  1.00  0.00    -0.504 C  
HETATM   31  N   UNL     1     -13.904  16.302  73.176  1.00  0.00    -0.335 NA 
HETATM   32  C   UNL     1     -12.746  11.959  71.383  1.00  0.00    -0.395 A  
ENDBRANCH  11  25
TORSDOF 2
ENDMDL
MODEL       40
REMARK 921   NORMALIZED FREE ENERGY PREDICTED BY IDOCK:   -4.80 KCAL/MOL
REMARK 922        TOTAL FREE ENERGY PREDICTED BY IDOCK:   -6.10 KCAL/MOL
REMARK 923 INTER-LIGAND FREE ENERGY PREDICTED BY IDOCK:   -5.28 KCAL/MOL
REMARK 924 INTRA-LIGAND FREE ENERGY PREDICTED BY IDOCK:   -0.82 KCAL/MOL
REMARK 927      BINDING AFFINITY PREDICTED BY RF-SCORE:    0.00 PKD
ROOT
HETATM    1  C   UNL     1      -9.144  12.216  69.066  1.00  0.00     0.379 C  
HETATM    2  C   UNL     1     -10.026  11.277  68.228  1.00  0.00    -0.201 C  
HETATM    3  C   UNL     1      -9.715   9.817  68.551  1.00  0.00    -0.154 A  
HETATM    4  C   UNL     1     -11.566  11.647  68.257  1.00  0.00    -0.310 C  
HETATM    5  C   UNL     1     -11.808  13.065  67.644  1.00  0.00    -0.351 C  
HETATM    6  C   UNL     1     -12.202  11.452  69.648  1.00  0.00    -0.316 A  
HETATM    7  N   UNL     1      -9.127   9.369  69.645  1.00  0.00    -0.167 NA 
HETATM    8  O   UNL     1     -12.280  10.759  67.355  1.00  0.00     0.163 OA 
HETATM    9  H   UNL     1     -13.203  10.980  67.372  1.00  0.00     0.000 HD 
HETATM   10  F   UNL     1     -13.319   8.692  71.779  1.00  0.00    -0.316 F  
HETATM   11  C   UNL     1      -8.891   8.001  69.541  1.00  0.00    -0.144 A  
HETATM   12  C   UNL     1     -12.445  12.502  70.550  1.00  0.00    -0.185 A  
HETATM   13  C   UNL     1     -12.929  12.281  71.844  1.00  0.00    -0.411 A  
HETATM   14  C   UNL     1     -12.538  10.156  70.097  1.00  0.00    -0.061 A  
HETATM   15  C   UNL     1      -9.409   7.414  68.406  1.00  0.00    -0.144 A  
HETATM   16  C   UNL     1     -13.024   9.938  71.388  1.00  0.00    -0.407 A  
HETATM   17  F   UNL     1     -12.229  13.775  70.206  1.00  0.00    -0.346 F  
HETATM   18  S   UNL     1     -10.041   8.605  67.360  1.00  0.00    -0.251 SA 
HETATM   19  C   UNL     1     -13.204  10.988  72.274  1.00  0.00    -0.108 A  
ENDROOT
BRANCH   5  20
HETATM   20  N   UNL     1     -11.157  13.314  66.369  1.00  0.00    -0.292 NA 
HETATM   21  N   UNL     1     -11.523  12.606  65.282  1.00  0.00    -0.318 NA 
HETATM   22  C   UNL     1     -10.694  13.092  64.356  1.00  0.00    -0.407 A  
HETATM   23  C   UNL     1     -10.153  14.179  66.066  1.00  0.00    -0.316 A  
HETATM   24  N   UNL     1      -9.841  14.064  64.796  1.00  0.00    -0.056 NA 
ENDBRANCH   5  20
BRANCH  11  25
HETATM   25  C   UNL     1      -8.129   7.257  70.546  1.00  0.00    -0.109 A  
HETATM   26  C   UNL     1      -8.490   5.949  70.895  1.00  0.00    -0.127 A  
HETATM   27  C   UNL     1      -7.786   5.254  71.895  1.00  0.00    -0.111 A  
HETATM   28  C   UNL     1      -6.727   5.870  72.565  1.00  0.00    -0.069 A  
HETATM   29  C   UNL     1      -6.355   7.169  72.222  1.00  0.00    -0.048 A  
HETATM   30  C   UNL     1      -6.033   5.181  73.615  1.00  0.00    -0.035 C  
HETATM   31  N   UNL     1      -5.468   4.638  74.471  1.00  0.00    -0.012 NA 
HETATM   32  C   UNL     1      -7.052   7.856  71.222  1.00  0.00    -0.055 A  
ENDBRANCH  11  25
TORSDOF 2
ENDMDL
MODEL       41
REMARK 921   NORMALIZED FREE ENERGY PREDICTED BY IDOCK:   -4.56 KCAL/MOL
REMARK 922        TOTAL FREE ENERGY PREDICTED BY IDOCK:   -5.83 KCAL/MOL
REMARK 923 INTER-LIGAND FREE ENERGY PREDICTED BY IDOCK:   -5.51 KCAL/MOL
REMARK 924 INTRA-LIGAND FREE ENERGY PREDICTED BY IDOCK:   -0.32 KCAL/MOL
REMARK 927      BINDING AFFINITY PREDICTED BY RF-SCORE:    0.00 PKD
ROOT
HETATM    1  C   UNL     1      -9.556   4.991  65.610  1.00  0.00    -0.138 C  
HETATM    2  C   UNL     1      -8.155   5.482  66.008  1.00  0.00    -0.108 C  
HETATM    3  C   UNL     1      -8.069   7.003  65.904  1.00  0.00    -0.119 A  
HETATM    4  C   UNL     1      -7.630   4.882  67.376  1.00  0.00    -0.090 C  
HETATM    5  C   UNL     1      -7.490   3.328  67.284  1.00  0.00    -0.066 C  
HETATM    6  C   UNL     1      -8.445   5.363  68.594  1.00  0.00    -0.093 A  
HETATM    7  N   UNL     1      -9.088   7.844  65.905  1.00  0.00    -0.132 NA 
HETATM    8  O   UNL     1      -6.266   5.335  67.594  1.00  0.00    -0.035 OA 
HETATM    9  H   UNL     1      -5.951   4.976  68.415  1.00  0.00     0.000 HD 
HETATM   10  F   UNL     1      -8.802   8.395  70.617  1.00  0.00    -0.127 F  
HETATM   11  C   UNL     1      -8.645   9.141  65.665  1.00  0.00    -0.158 A  
HETATM   12  C   UNL     1      -9.444   4.597  69.217  1.00  0.00    -0.162 A  
HETATM   13  C   UNL     1     -10.236   5.101  70.256  1.00  0.00    -0.342 A  
HETATM   14  C   UNL     1      -8.236   6.658  69.118  1.00  0.00    -0.120 A  
HETATM   15  C   UNL     1      -7.274   9.276  65.598  1.00  0.00    -0.090 A  
HETATM   16  C   UNL     1      -9.025   7.157  70.156  1.00  0.00    -0.145 A  
HETATM   17  F   UNL     1      -9.680   3.335  68.849  1.00  0.00    -0.238 F  
HETATM   18  S   UNL     1      -6.527   7.743  65.649  1.00  0.00    -0.042 SA 
HETATM   19  C   UNL     1     -10.038   6.396  70.717  1.00  0.00    -0.220 A  
ENDROOT
BRANCH   5  20
HETATM   20  N   UNL     1      -6.796   2.831  66.107  1.00  0.00    -0.047 NA 
HETATM   21  N   UNL     1      -7.420   1.971  65.278  1.00  0.00    -0.065 NA 
HETATM   22  C   UNL     1      -6.467   1.735  64.374  1.00  0.00    -0.019 A  
HETATM   23  C   UNL     1      -5.529   3.079  65.682  1.00  0.00    -0.017 A  
HETATM   24  N   UNL     1      -5.294   2.401  64.583  1.00  0.00    -0.008 NA 
ENDBRANCH   5  20
BRANCH  11  25
HETATM   25  C   UNL     1      -9.566  10.263  65.474  1.00  0.00    -0.299 A  
HETATM   26  C   UNL     1      -9.742  10.839  64.209  1.00  0.00    -0.357 A  
HETATM   27  C   UNL     1     -10.590  11.947  64.038  1.00  0.00    -0.422 A  
HETATM   28  C   UNL     1     -11.256  12.498  65.135  1.00  0.00    -0.342 A  
HETATM   29  C   UNL     1     -11.095  11.930  66.398  1.00  0.00    -0.359 A  
HETATM   30  C   UNL     1     -12.090  13.654  64.973  1.00  0.00    -0.392 C  
HETATM   31  N   UNL     1     -12.762  14.594  64.857  1.00  0.00    -0.478 NA 
HETATM   32  C   UNL     1     -10.255  10.823  66.565  1.00  0.00    -0.287 A  
ENDBRANCH  11  25
TORSDOF 2
ENDMDL
MODEL       42
REMARK 921   NORMALIZED FREE ENERGY PREDICTED BY IDOCK:   -4.56 KCAL/MOL
REMARK 922        TOTAL FREE ENERGY PREDICTED BY IDOCK:   -5.83 KCAL/MOL
REMARK 923 INTER-LIGAND FREE ENERGY PREDICTED BY IDOCK:   -5.13 KCAL/MOL
REMARK 924 INTRA-LIGAND FREE ENERGY PREDICTED BY IDOCK:   -0.70 KCAL/MOL
REMARK 927      BINDING AFFINITY PREDICTED BY RF-SCORE:    0.00 PKD
ROOT
HETATM    1  C   UNL     1      -7.833   9.798  70.438  1.00  0.00    -0.144 C  
HETATM    2  C   UNL     1      -8.984   9.169  69.638  1.00  0.00    -0.158 C  
HETATM    3  C   UNL     1      -9.871  10.253  69.028  1.00  0.00    -0.207 A  
HETATM    4  C   UNL     1      -8.521   8.045  68.623  1.00  0.00    -0.128 C  
HETATM    5  C   UNL     1      -7.869   6.845  69.383  1.00  0.00    -0.113 C  
HETATM    6  C   UNL     1      -7.657   8.597  67.471  1.00  0.00    -0.094 A  
HETATM    7  N   UNL     1      -9.529  11.511  68.815  1.00  0.00    -0.141 NA 
HETATM    8  O   UNL     1      -9.697   7.458  68.004  1.00  0.00    -0.140 OA 
HETATM    9  H   UNL     1      -9.420   6.784  67.395  1.00  0.00     0.000 HD 
HETATM   10  F   UNL     1      -8.119  10.516  64.386  1.00  0.00    -0.163 F  
HETATM   11  C   UNL     1     -10.626  12.240  68.366  1.00  0.00    -0.235 A  
HETATM   12  C   UNL     1      -6.255   8.508  67.434  1.00  0.00    -0.056 A  
HETATM   13  C   UNL     1      -5.493   9.108  66.426  1.00  0.00    -0.045 A  
HETATM   14  C   UNL     1      -8.266   9.276  66.393  1.00  0.00    -0.111 A  
HETATM   15  C   UNL     1     -11.760  11.490  68.140  1.00  0.00    -0.287 A  
HETATM   16  C   UNL     1      -7.503   9.872  65.386  1.00  0.00    -0.132 A  
HETATM   17  F   UNL     1      -5.579   7.830  68.366  1.00  0.00    -0.024 F  
HETATM   18  S   UNL     1     -11.521   9.884  68.665  1.00  0.00     0.241 SA 
HETATM   19  C   UNL     1      -6.119   9.811  65.404  1.00  0.00    -0.074 A  
ENDROOT
BRANCH   5  20
HETATM   20  N   UNL     1      -8.616   6.348  70.526  1.00  0.00    -0.141 NA 
HETATM   21  N   UNL     1      -9.918   6.030  70.385  1.00  0.00    -0.178 NA 
HETATM   22  C   UNL     1     -10.238   5.661  71.627  1.00  0.00    -0.208 A  
HETATM   23  C   UNL     1      -8.209   6.160  71.809  1.00  0.00    -0.114 A  
HETATM   24  N   UNL     1      -9.216   5.721  72.529  1.00  0.00    -0.142 NA 
ENDBRANCH   5  20
BRANCH  11  25
HETATM   25  C   UNL     1     -10.581  13.692  68.177  1.00  0.00    -0.255 A  
HETATM   26  C   UNL     1     -10.251  14.242  66.932  1.00  0.00    -0.266 A  
HETATM   27  C   UNL     1     -10.161  15.636  66.766  1.00  0.00    -0.278 A  
HETATM   28  C   UNL     1     -10.384  16.488  67.851  1.00  0.00    -0.294 A  
HETATM   29  C   UNL     1     -10.719  15.952  69.092  1.00  0.00    -0.259 A  
HETATM   30  C   UNL     1     -10.252  17.909  67.697  1.00  0.00    -0.365 C  
HETATM   31  N   UNL     1     -10.141  19.059  67.588  1.00  0.00    -0.352 NA 
HETATM   32  C   UNL     1     -10.814  14.566  69.254  1.00  0.00    -0.270 A  
ENDBRANCH  11  25
TORSDOF 2
ENDMDL
MODEL       43
REMARK 921   NORMALIZED FREE ENERGY PREDICTED BY IDOCK:   -4.55 KCAL/MOL
REMARK 922        TOTAL FREE ENERGY PREDICTED BY IDOCK:   -5.82 KCAL/MOL
REMARK 923 INTER-LIGAND FREE ENERGY PREDICTED BY IDOCK:   -5.46 KCAL/MOL
REMARK 924 INTRA-LIGAND FREE ENERGY PREDICTED BY IDOCK:   -0.36 KCAL/MOL
REMARK 927      BINDING AFFINITY PREDICTED BY RF-SCORE:    0.00 PKD
ROOT
HETATM    1  C   UNL     1     -10.337   8.062  67.170  1.00  0.00    -0.395 C  
HETATM    2  C   UNL     1      -9.069   7.347  67.662  1.00  0.00    -0.126 C  
HETATM    3  C   UNL     1      -7.989   8.363  68.030  1.00  0.00    -0.119 A  
HETATM    4  C   UNL     1      -9.340   6.243  68.764  1.00  0.00    -0.124 C  
HETATM    5  C   UNL     1     -10.239   5.099  68.192  1.00  0.00    -0.111 C  
HETATM    6  C   UNL     1      -9.854   6.835  70.091  1.00  0.00    -0.187 A  
HETATM    7  N   UNL     1      -8.182   9.637  68.317  1.00  0.00    -0.105 NA 
HETATM    8  O   UNL     1      -8.090   5.571  69.074  1.00  0.00    -0.093 OA 
HETATM    9  H   UNL     1      -8.252   4.909  69.735  1.00  0.00     0.000 HD 
HETATM   10  F   UNL     1      -8.517   8.677  72.960  1.00  0.00    -0.249 F  
HETATM   11  C   UNL     1      -6.962  10.287  68.478  1.00  0.00    -0.066 A  
HETATM   12  C   UNL     1     -11.206   6.837  70.475  1.00  0.00    -0.320 A  
HETATM   13  C   UNL     1     -11.654   7.472  71.639  1.00  0.00    -0.299 A  
HETATM   14  C   UNL     1      -8.953   7.457  70.983  1.00  0.00    -0.151 A  
HETATM   15  C   UNL     1      -5.860   9.461  68.418  1.00  0.00    -0.041 A  
HETATM   16  C   UNL     1      -9.402   8.088  72.146  1.00  0.00    -0.190 A  
HETATM   17  F   UNL     1     -12.135   6.218  69.742  1.00  0.00    -0.424 F  
HETATM   18  S   UNL     1      -6.328   7.882  67.974  1.00  0.00    -0.052 SA 
HETATM   19  C   UNL     1     -10.749   8.118  72.472  1.00  0.00    -0.419 A  
ENDROOT
BRANCH   5  20
HETATM   20  N   UNL     1      -9.832   4.569  66.902  1.00  0.00    -0.208 NA 
HETATM   21  N   UNL     1     -10.663   4.672  65.845  1.00  0.00    -0.257 NA 
HETATM   22  C   UNL     1      -9.961   4.055  64.893  1.00  0.00    -0.205 A  
HETATM   23  C   UNL     1      -8.691   3.916  66.556  1.00  0.00    -0.115 A  
HETATM   24  N   UNL     1      -8.742   3.582  65.287  1.00  0.00    -0.115 NA 
ENDBRANCH   5  20
BRANCH  11  25
HETATM   25  C   UNL     1      -6.862  11.736  68.667  1.00  0.00    -0.081 A  
HETATM   26  C   UNL     1      -7.408  12.620  67.728  1.00  0.00    -0.128 A  
HETATM   27  C   UNL     1      -7.269  14.011  67.888  1.00  0.00    -0.164 A  
HETATM   28  C   UNL     1      -6.568  14.525  68.982  1.00  0.00    -0.100 A  
HETATM   29  C   UNL     1      -6.026  13.655  69.926  1.00  0.00    -0.131 A  
HETATM   30  C   UNL     1      -6.387  15.941  69.127  1.00  0.00    -0.146 C  
HETATM   31  N   UNL     1      -6.227  17.084  69.252  1.00  0.00    -0.208 NA 
HETATM   32  C   UNL     1      -6.171  12.273  69.768  1.00  0.00    -0.125 A  
ENDBRANCH  11  25
TORSDOF 2
ENDMDL
MODEL       44
REMARK 921   NORMALIZED FREE ENERGY PREDICTED BY IDOCK:   -4.43 KCAL/MOL
REMARK 922        TOTAL FREE ENERGY PREDICTED BY IDOCK:   -5.69 KCAL/MOL
REMARK 923 INTER-LIGAND FREE ENERGY PREDICTED BY IDOCK:   -4.89 KCAL/MOL
REMARK 924 INTRA-LIGAND FREE ENERGY PREDICTED BY IDOCK:   -0.80 KCAL/MOL
REMARK 927      BINDING AFFINITY PREDICTED BY RF-SCORE:    0.00 PKD
ROOT
HETATM    1  C   UNL     1      -9.415   9.593  64.956  1.00  0.00    -0.312 C  
HETATM    2  C   UNL     1      -8.071   9.341  65.658  1.00  0.00    -0.112 C  
HETATM    3  C   UNL     1      -7.588  10.608  66.362  1.00  0.00    -0.138 A  
HETATM    4  C   UNL     1      -8.050   8.037  66.555  1.00  0.00    -0.103 C  
HETATM    5  C   UNL     1      -8.283   6.760  65.684  1.00  0.00    -0.134 C  
HETATM    6  C   UNL     1      -8.983   8.136  67.778  1.00  0.00    -0.134 A  
HETATM    7  N   UNL     1      -8.336  11.636  66.717  1.00  0.00    -0.172 NA 
HETATM    8  O   UNL     1      -6.708   7.851  67.082  1.00  0.00    -0.065 OA 
HETATM    9  H   UNL     1      -6.695   7.069  67.620  1.00  0.00     0.000 HD 
HETATM   10  F   UNL     1      -9.045   9.797  71.042  1.00  0.00    -0.212 F  
HETATM   11  C   UNL     1      -7.541  12.663  67.218  1.00  0.00    -0.120 A  
HETATM   12  C   UNL     1     -10.260   7.551  67.837  1.00  0.00    -0.194 A  
HETATM   13  C   UNL     1     -11.124   7.744  68.920  1.00  0.00     0.211 A  
HETATM   14  C   UNL     1      -8.589   8.883  68.910  1.00  0.00    -0.135 A  
HETATM   15  C   UNL     1      -6.204  12.347  67.336  1.00  0.00    -0.158 A  
HETATM   16  C   UNL     1      -9.452   9.072  69.992  1.00  0.00    -0.187 A  
HETATM   17  F   UNL     1     -10.708   6.767  66.852  1.00  0.00    -0.311 F  
HETATM   18  S   UNL     1      -5.894  10.818  66.647  1.00  0.00    -0.097 SA 
HETATM   19  C   UNL     1     -10.726   8.525  69.998  1.00  0.00    -0.234 A  
ENDROOT
BRANCH   5  20
HETATM   20  N   UNL     1      -7.476   6.670  64.479  1.00  0.00    -0.087 NA 
HETATM   21  N   UNL     1      -6.132   6.649  64.574  1.00  0.00    -0.034 NA 
HETATM   22  C   UNL     1      -5.775   6.598  63.289  1.00  0.00    -0.034 A  
HETATM   23  C   UNL     1      -7.869   6.627  63.178  1.00  0.00    -0.103 A  
HETATM   24  N   UNL     1      -6.811   6.577  62.401  1.00  0.00    -0.038 NA 
ENDBRANCH   5  20
BRANCH  11  25
HETATM   25  C   UNL     1      -8.082  13.979  67.563  1.00  0.00    -0.197 A  
HETATM   26  C   UNL     1      -8.922  14.663  66.675  1.00  0.00    -0.267 A  
HETATM   27  C   UNL     1      -9.402  15.948  66.989  1.00  0.00    -0.230 A  
HETATM   28  C   UNL     1      -9.030  16.563  68.187  1.00  0.00    -0.207 A  
HETATM   29  C   UNL     1      -8.200  15.889  69.081  1.00  0.00    -0.240 A  
HETATM   30  C   UNL     1      -9.483  17.890  68.492  1.00  0.00    -0.313 C  
HETATM   31  N   UNL     1      -9.835  18.966  68.748  1.00  0.00    -0.397 NA 
HETATM   32  C   UNL     1      -7.730  14.609  68.770  1.00  0.00    -0.137 A  
ENDBRANCH  11  25
TORSDOF 2
ENDMDL
MODEL       45
REMARK 921   NORMALIZED FREE ENERGY PREDICTED BY IDOCK:   -4.39 KCAL/MOL
REMARK 922        TOTAL FREE ENERGY PREDICTED BY IDOCK:   -5.64 KCAL/MOL
REMARK 923 INTER-LIGAND FREE ENERGY PREDICTED BY IDOCK:   -4.83 KCAL/MOL
REMARK 924 INTRA-LIGAND FREE ENERGY PREDICTED BY IDOCK:   -0.81 KCAL/MOL
REMARK 927      BINDING AFFINITY PREDICTED BY RF-SCORE:    0.00 PKD
ROOT
HETATM    1  C   UNL     1      -6.410   4.848  67.610  1.00  0.00    -0.040 C  
HETATM    2  C   UNL     1      -7.783   4.346  68.085  1.00  0.00    -0.079 C  
HETATM    3  C   UNL     1      -8.831   5.450  67.956  1.00  0.00    -0.105 A  
HETATM    4  C   UNL     1      -8.209   2.955  67.462  1.00  0.00    -0.081 C  
HETATM    5  C   UNL     1      -7.211   1.828  67.886  1.00  0.00    -0.046 C  
HETATM    6  C   UNL     1      -8.455   3.029  65.941  1.00  0.00    -0.110 A  
HETATM    7  N   UNL     1      -8.749   6.517  67.183  1.00  0.00    -0.111 NA 
HETATM    8  O   UNL     1      -9.467   2.538  68.058  1.00  0.00    -0.212 OA 
HETATM    9  H   UNL     1      -9.723   1.703  67.684  1.00  0.00     0.000 HD 
HETATM   10  F   UNL     1     -11.014   4.292  63.647  1.00  0.00    -0.179 F  
HETATM   11  C   UNL     1      -9.826   7.368  67.418  1.00  0.00    -0.169 A  
HETATM   12  C   UNL     1      -7.523   2.609  64.977  1.00  0.00    -0.071 A  
HETATM   13  C   UNL     1      -7.734   2.784  63.605  1.00  0.00    -0.068 A  
HETATM   14  C   UNL     1      -9.656   3.582  65.446  1.00  0.00    -0.132 A  
HETATM   15  C   UNL     1     -10.768   6.872  68.292  1.00  0.00    -0.214 A  
HETATM   16  C   UNL     1      -9.866   3.752  64.076  1.00  0.00    -0.179 A  
HETATM   17  F   UNL     1      -6.383   2.009  65.331  1.00  0.00    -0.021 F  
HETATM   18  S   UNL     1     -10.227   5.407  68.978  1.00  0.00    -0.209 SA 
HETATM   19  C   UNL     1      -8.906   3.376  63.150  1.00  0.00    -0.093 A  
ENDROOT
BRANCH   5  20
HETATM   20  N   UNL     1      -6.891   1.777  69.303  1.00  0.00    -0.033 NA 
HETATM   21  N   UNL     1      -7.862   1.505  70.197  1.00  0.00    -0.042 NA 
HETATM   22  C   UNL     1      -7.193   1.583  71.348  1.00  0.00    -0.032 A  
HETATM   23  C   UNL     1      -5.705   1.997  69.929  1.00  0.00    -0.018 A  
HETATM   24  N   UNL     1      -5.865   1.877  71.227  1.00  0.00    -0.013 NA 
ENDBRANCH   5  20
BRANCH  11  25
HETATM   25  C   UNL     1      -9.928   8.693  66.803  1.00  0.00    -0.343 A  
HETATM   26  C   UNL     1     -10.571   9.744  67.469  1.00  0.00    -0.335 A  
HETATM   27  C   UNL     1     -10.710  11.003  66.857  1.00  0.00    -0.325 A  
HETATM   28  C   UNL     1     -10.220  11.213  65.566  1.00  0.00    -0.319 A  
HETATM   29  C   UNL     1      -9.572  10.177  64.896  1.00  0.00    -0.369 A  
HETATM   30  C   UNL     1     -10.396  12.482  64.920  1.00  0.00    -0.300 C  
HETATM   31  N   UNL     1     -10.539  13.501  64.383  1.00  0.00    -0.419 NA 
HETATM   32  C   UNL     1      -9.429   8.928  65.509  1.00  0.00    -0.162 A  
ENDBRANCH  11  25
TORSDOF 2
ENDMDL
MODEL       46
REMARK 921   NORMALIZED FREE ENERGY PREDICTED BY IDOCK:   -4.38 KCAL/MOL
REMARK 922        TOTAL FREE ENERGY PREDICTED BY IDOCK:   -5.63 KCAL/MOL
REMARK 923 INTER-LIGAND FREE ENERGY PREDICTED BY IDOCK:   -4.82 KCAL/MOL
REMARK 924 INTRA-LIGAND FREE ENERGY PREDICTED BY IDOCK:   -0.81 KCAL/MOL
REMARK 927      BINDING AFFINITY PREDICTED BY RF-SCORE:    0.00 PKD
ROOT
HETATM    1  C   UNL     1      -9.035  15.750  65.805  1.00  0.00    -0.072 C  
HETATM    2  C   UNL     1      -9.710  16.018  67.159  1.00  0.00    -0.231 C  
HETATM    3  C   UNL     1     -10.238  14.719  67.763  1.00  0.00    -0.232 A  
HETATM    4  C   UNL     1      -8.842  16.901  68.146  1.00  0.00    -0.223 C  
HETATM    5  C   UNL     1      -8.590  18.321  67.544  1.00  0.00    -0.250 C  
HETATM    6  C   UNL     1      -7.559  16.187  68.617  1.00  0.00    -0.183 A  
HETATM    7  N   UNL     1      -9.842  13.497  67.453  1.00  0.00    -0.224 NA 
HETATM    8  O   UNL     1      -9.621  17.171  69.343  1.00  0.00    -0.082 OA 
HETATM    9  H   UNL     1      -9.100  17.700  69.935  1.00  0.00     0.000 HD 
HETATM   10  F   UNL     1      -6.614  13.520  70.941  1.00  0.00     0.072 F  
HETATM   11  C   UNL     1     -10.630  12.553  68.106  1.00  0.00    -0.226 A  
HETATM   12  C   UNL     1      -6.286  16.431  68.076  1.00  0.00    -0.124 A  
HETATM   13  C   UNL     1      -5.157  15.694  68.453  1.00  0.00    -0.093 A  
HETATM   14  C   UNL     1      -7.630  15.193  69.618  1.00  0.00    -0.163 A  
HETATM   15  C   UNL     1     -11.544  13.084  68.992  1.00  0.00    -0.318 A  
HETATM   16  C   UNL     1      -6.502  14.461  69.995  1.00  0.00    -0.146 A  
HETATM   17  F   UNL     1      -6.089  17.395  67.172  1.00  0.00    -0.130 F  
HETATM   18  S   UNL     1     -11.557  14.786  68.881  1.00  0.00    -0.328 SA 
HETATM   19  C   UNL     1      -5.268  14.689  69.407  1.00  0.00    -0.086 A  
ENDROOT
BRANCH   5  20
HETATM   20  N   UNL     1      -9.764  18.995  67.015  1.00  0.00    -0.304 NA 
HETATM   21  N   UNL     1     -10.731  19.411  67.857  1.00  0.00    -0.378 NA 
HETATM   22  C   UNL     1     -11.619  19.928  67.007  1.00  0.00     1.142 A  
HETATM   23  C   UNL     1     -10.094  19.273  65.726  1.00  0.00    -0.152 A  
HETATM   24  N   UNL     1     -11.264  19.869  65.691  1.00  0.00    -0.041 NA 
ENDBRANCH   5  20
BRANCH  11  25
HETATM   25  C   UNL     1     -10.510  11.117  67.849  1.00  0.00    -0.220 A  
HETATM   26  C   UNL     1     -10.297  10.638  66.550  1.00  0.00    -0.299 A  
HETATM   27  C   UNL     1     -10.231   9.255  66.298  1.00  0.00    -0.273 A  
HETATM   28  C   UNL     1     -10.394   8.343  67.344  1.00  0.00    -0.355 A  
HETATM   29  C   UNL     1     -10.599   8.809  68.641  1.00  0.00    -0.174 A  
HETATM   30  C   UNL     1     -10.369   6.932  67.085  1.00  0.00    -0.269 C  
HETATM   31  N   UNL     1     -10.358   5.788  66.889  1.00  0.00    -0.223 NA 
HETATM   32  C   UNL     1     -10.659  10.184  68.890  1.00  0.00    -0.237 A  
ENDBRANCH  11  25
TORSDOF 2
ENDMDL
MODEL       47
REMARK 921   NORMALIZED FREE ENERGY PREDICTED BY IDOCK:   -4.37 KCAL/MOL
REMARK 922        TOTAL FREE ENERGY PREDICTED BY IDOCK:   -5.62 KCAL/MOL
REMARK 923 INTER-LIGAND FREE ENERGY PREDICTED BY IDOCK:   -4.80 KCAL/MOL
REMARK 924 INTRA-LIGAND FREE ENERGY PREDICTED BY IDOCK:   -0.82 KCAL/MOL
REMARK 927      BINDING AFFINITY PREDICTED BY RF-SCORE:    0.00 PKD
ROOT
HETATM    1  C   UNL     1      -8.540  11.167  65.422  1.00  0.00    -0.009 C  
HETATM    2  C   UNL     1      -9.447  11.229  66.661  1.00  0.00    -0.204 C  
HETATM    3  C   UNL     1      -9.564   9.851  67.311  1.00  0.00    -0.160 A  
HETATM    4  C   UNL     1      -9.089  12.403  67.661  1.00  0.00    -0.186 C  
HETATM    5  C   UNL     1      -9.271  13.794  66.971  1.00  0.00    -0.251 C  
HETATM    6  C   UNL     1      -7.716  12.217  68.336  1.00  0.00    -0.134 A  
HETATM    7  N   UNL     1      -8.726   8.843  67.156  1.00  0.00    -0.119 NA 
HETATM    8  O   UNL     1     -10.070  12.423  68.732  1.00  0.00    -0.371 OA 
HETATM    9  H   UNL     1      -9.855  13.127  69.332  1.00  0.00     0.000 HD 
HETATM   10  F   UNL     1      -6.225  10.162  70.976  1.00  0.00    -0.093 F  
HETATM   11  C   UNL     1      -9.214   7.706  67.793  1.00  0.00    -0.136 A  
HETATM   12  C   UNL     1      -6.547  12.880  67.926  1.00  0.00    -0.125 A  
HETATM   13  C   UNL     1      -5.295  12.613  68.493  1.00  0.00    -0.058 A  
HETATM   14  C   UNL     1      -7.571  11.305  69.405  1.00  0.00     0.044 A  
HETATM   15  C   UNL     1     -10.369   7.907  68.518  1.00  0.00    -0.200 A  
HETATM   16  C   UNL     1      -6.322  11.043  69.971  1.00  0.00    -0.146 A  
HETATM   17  F   UNL     1      -6.578  13.813  66.970  1.00  0.00    -0.043 F  
HETATM   18  S   UNL     1     -10.963   9.485  68.260  1.00  0.00    -0.001 SA 
HETATM   19  C   UNL     1      -5.178  11.675  69.511  1.00  0.00    -0.057 A  
ENDROOT
BRANCH   5  20
HETATM   20  N   UNL     1     -10.522  13.979  66.255  1.00  0.00    -0.282 NA 
HETATM   21  N   UNL     1     -11.688  13.951  66.930  1.00  0.00    -0.376 NA 
HETATM   22  C   UNL     1     -12.570  14.117  65.943  1.00  0.00    -0.417 A  
HETATM   23  C   UNL     1     -10.737  14.160  64.925  1.00  0.00    -0.428 A  
HETATM   24  N   UNL     1     -12.028  14.256  64.698  1.00  0.00    -0.432 NA 
ENDBRANCH   5  20
BRANCH  11  25
HETATM   25  C   UNL     1      -8.564   6.399  67.677  1.00  0.00    -0.115 A  
HETATM   26  C   UNL     1      -7.321   6.271  67.042  1.00  0.00    -0.083 A  
HETATM   27  C   UNL     1      -6.721   5.008  66.889  1.00  0.00    -0.055 A  
HETATM   28  C   UNL     1      -7.370   3.862  67.355  1.00  0.00    -0.068 A  
HETATM   29  C   UNL     1      -8.603   3.978  67.994  1.00  0.00    -0.110 A  
HETATM   30  C   UNL     1      -6.781   2.567  67.164  1.00  0.00    -0.040 C  
HETATM   31  N   UNL     1      -6.321   1.514  67.009  1.00  0.00    -0.020 NA 
HETATM   32  C   UNL     1      -9.195   5.236  68.151  1.00  0.00    -0.129 A  
ENDBRANCH  11  25
TORSDOF 2
ENDMDL
MODEL       48
REMARK 921   NORMALIZED FREE ENERGY PREDICTED BY IDOCK:   -4.36 KCAL/MOL
REMARK 922        TOTAL FREE ENERGY PREDICTED BY IDOCK:   -5.60 KCAL/MOL
REMARK 923 INTER-LIGAND FREE ENERGY PREDICTED BY IDOCK:   -4.81 KCAL/MOL
REMARK 924 INTRA-LIGAND FREE ENERGY PREDICTED BY IDOCK:   -0.80 KCAL/MOL
REMARK 927      BINDING AFFINITY PREDICTED BY RF-SCORE:    0.00 PKD
ROOT
HETATM    1  C   UNL     1      -6.514   9.600  69.304  1.00  0.00    -0.044 C  
HETATM    2  C   UNL     1      -7.832   8.809  69.278  1.00  0.00    -0.100 C  
HETATM    3  C   UNL     1      -8.985   9.700  68.821  1.00  0.00    -0.134 A  
HETATM    4  C   UNL     1      -7.732   7.420  68.524  1.00  0.00    -0.120 C  
HETATM    5  C   UNL     1      -6.717   6.471  69.241  1.00  0.00    -0.052 C  
HETATM    6  C   UNL     1      -7.476   7.576  67.011  1.00  0.00    -0.098 A  
HETATM    7  N   UNL     1      -8.877  10.826  68.139  1.00  0.00    -0.129 NA 
HETATM    8  O   UNL     1      -9.000   6.723  68.652  1.00  0.00    -0.126 OA 
HETATM    9  H   UNL     1      -8.940   5.890  68.200  1.00  0.00     0.000 HD 
HETATM   10  F   UNL     1      -9.345   8.523  64.008  1.00  0.00     0.323 F  
HETATM   11  C   UNL     1     -10.123  11.434  68.010  1.00  0.00    -0.180 A  
HETATM   12  C   UNL     1      -6.214   7.425  66.412  1.00  0.00    -0.041 A  
HETATM   13  C   UNL     1      -5.995   7.673  65.052  1.00  0.00    -0.038 A  
HETATM   14  C   UNL     1      -8.536   7.932  66.148  1.00  0.00    -0.139 A  
HETATM   15  C   UNL     1     -11.176  10.695  68.506  1.00  0.00    -0.282 A  
HETATM   16  C   UNL     1      -8.316   8.176  64.791  1.00  0.00    -0.104 A  
HETATM   17  F   UNL     1      -5.154   7.024  67.120  1.00  0.00    -0.010 F  
HETATM   18  S   UNL     1     -10.597   9.306  69.309  1.00  0.00    -0.201 SA 
HETATM   19  C   UNL     1      -7.049   8.069  64.238  1.00  0.00    -0.078 A  
ENDROOT
BRANCH   5  20
HETATM   20  N   UNL     1      -6.876   6.359  70.682  1.00  0.00    -0.061 NA 
HETATM   21  N   UNL     1      -7.946   5.716  71.188  1.00  0.00    -0.109 NA 
HETATM   22  C   UNL     1      -7.748   5.860  72.499  1.00  0.00    -0.101 A  
HETATM   23  C   UNL     1      -6.092   6.851  71.677  1.00  0.00    -0.038 A  
HETATM   24  N   UNL     1      -6.618   6.545  72.842  1.00  0.00    -0.067 NA 
ENDBRANCH   5  20
BRANCH  11  25
HETATM   25  C   UNL     1     -10.290  12.763  67.420  1.00  0.00    -0.222 A  
HETATM   26  C   UNL     1     -11.548  13.200  66.984  1.00  0.00    -0.408 A  
HETATM   27  C   UNL     1     -11.697  14.458  66.373  1.00  0.00    -0.397 A  
HETATM   28  C   UNL     1     -10.585  15.282  66.180  1.00  0.00    -0.318 A  
HETATM   29  C   UNL     1      -9.331  14.861  66.617  1.00  0.00    -0.291 A  
HETATM   30  C   UNL     1     -10.726  16.548  65.520  1.00  0.00    -0.256 C  
HETATM   31  N   UNL     1     -10.824  17.571  64.981  1.00  0.00    -0.754 NA 
HETATM   32  C   UNL     1      -9.185  13.612  67.230  1.00  0.00    -0.232 A  
ENDBRANCH  11  25
TORSDOF 2
ENDMDL
MODEL       49
REMARK 921   NORMALIZED FREE ENERGY PREDICTED BY IDOCK:   -4.31 KCAL/MOL
REMARK 922        TOTAL FREE ENERGY PREDICTED BY IDOCK:   -5.55 KCAL/MOL
REMARK 923 INTER-LIGAND FREE ENERGY PREDICTED BY IDOCK:   -5.01 KCAL/MOL
REMARK 924 INTRA-LIGAND FREE ENERGY PREDICTED BY IDOCK:   -0.55 KCAL/MOL
REMARK 927      BINDING AFFINITY PREDICTED BY RF-SCORE:    0.00 PKD
ROOT
HETATM    1  C   UNL     1      -9.070   6.073  71.569  1.00  0.00    -0.148 C  
HETATM    2  C   UNL     1      -8.154   7.186  71.036  1.00  0.00    -0.104 C  
HETATM    3  C   UNL     1      -8.001   7.077  69.521  1.00  0.00    -0.125 A  
HETATM    4  C   UNL     1      -8.530   8.632  71.560  1.00  0.00    -0.181 C  
HETATM    5  C   UNL     1      -8.385   8.714  73.115  1.00  0.00     0.136 C  
HETATM    6  C   UNL     1      -9.893   9.124  71.035  1.00  0.00    -0.366 A  
HETATM    7  N   UNL     1      -8.818   6.444  68.698  1.00  0.00    -0.121 NA 
HETATM    8  O   UNL     1      -7.540   9.579  71.076  1.00  0.00    -0.311 OA 
HETATM    9  H   UNL     1      -7.765  10.447  71.390  1.00  0.00     0.000 HD 
HETATM   10  F   UNL     1     -11.315  10.412  67.915  1.00  0.00    -0.336 F  
HETATM   11  C   UNL     1      -8.299   6.444  67.406  1.00  0.00    -0.112 A  
HETATM   12  C   UNL     1     -11.080   9.088  71.786  1.00  0.00    -0.374 A  
HETATM   13  C   UNL     1     -12.320   9.447  71.246  1.00  0.00    -0.422 A  
HETATM   14  C   UNL     1     -10.008   9.608  69.713  1.00  0.00    -0.252 A  
HETATM   15  C   UNL     1      -7.142   7.179  67.253  1.00  0.00    -0.084 A  
HETATM   16  C   UNL     1     -11.246   9.969  69.177  1.00  0.00    -0.149 A  
HETATM   17  F   UNL     1     -11.077   8.713  73.068  1.00  0.00    -0.236 F  
HETATM   18  S   UNL     1      -6.586   7.730  68.769  1.00  0.00    -0.050 SA 
HETATM   19  C   UNL     1     -12.408   9.874  69.927  1.00  0.00     0.210 A  
ENDROOT
BRANCH   5  20
HETATM   20  N   UNL     1      -7.145   8.185  73.657  1.00  0.00    -0.129 NA 
HETATM   21  N   UNL     1      -6.065   8.986  73.759  1.00  0.00    -0.295 NA 
HETATM   22  C   UNL     1      -5.155   8.144  74.251  1.00  0.00    -0.061 A  
HETATM   23  C   UNL     1      -6.855   6.927  74.082  1.00  0.00    -0.082 A  
HETATM   24  N   UNL     1      -5.601   6.872  74.469  1.00  0.00    -0.062 NA 
ENDBRANCH   5  20
BRANCH  11  25
HETATM   25  C   UNL     1      -8.921   5.699  66.310  1.00  0.00    -0.141 A  
HETATM   26  C   UNL     1     -10.268   5.319  66.376  1.00  0.00    -0.289 A  
HETATM   27  C   UNL     1     -10.850   4.561  65.343  1.00  0.00    -0.096 A  
HETATM   28  C   UNL     1     -10.083   4.166  64.245  1.00  0.00    -0.135 A  
HETATM   29  C   UNL     1      -8.744   4.545  64.165  1.00  0.00    -0.143 A  
HETATM   30  C   UNL     1     -10.661   3.359  63.209  1.00  0.00    -0.243 C  
HETATM   31  N   UNL     1     -11.113   2.699  62.368  1.00  0.00    -0.168 NA 
HETATM   32  C   UNL     1      -8.169   5.303  65.190  1.00  0.00    -0.135 A  
ENDBRANCH  11  25
TORSDOF 2
ENDMDL
MODEL       50
REMARK 921   NORMALIZED FREE ENERGY PREDICTED BY IDOCK:   -3.91 KCAL/MOL
REMARK 922        TOTAL FREE ENERGY PREDICTED BY IDOCK:   -5.10 KCAL/MOL
REMARK 923 INTER-LIGAND FREE ENERGY PREDICTED BY IDOCK:   -4.59 KCAL/MOL
REMARK 924 INTRA-LIGAND FREE ENERGY PREDICTED BY IDOCK:   -0.51 KCAL/MOL
REMARK 927      BINDING AFFINITY PREDICTED BY RF-SCORE:    0.00 PKD
ROOT
HETATM    1  C   UNL     1      -7.181  14.605  69.722  1.00  0.00    -0.058 C  
HETATM    2  C   UNL     1      -7.718  14.269  68.322  1.00  0.00    -0.136 C  
HETATM    3  C   UNL     1      -7.717  12.758  68.095  1.00  0.00    -0.137 A  
HETATM    4  C   UNL     1      -9.082  14.989  67.967  1.00  0.00    -0.178 C  
HETATM    5  C   UNL     1      -8.903  16.542  67.957  1.00  0.00    -0.197 C  
HETATM    6  C   UNL     1     -10.260  14.504  68.836  1.00  0.00    -0.229 A  
HETATM    7  N   UNL     1      -7.690  11.829  69.033  1.00  0.00    -0.036 NA 
HETATM    8  O   UNL     1      -9.435  14.678  66.592  1.00  0.00    -0.251 OA 
HETATM    9  H   UNL     1     -10.253  15.110  66.379  1.00  0.00     0.000 HD 
HETATM   10  F   UNL     1     -12.435  11.569  69.095  1.00  0.00    -0.306 F  
HETATM   11  C   UNL     1      -7.569  10.566  68.459  1.00  0.00    -0.097 A  
HETATM   12  C   UNL     1     -10.754  15.208  69.947  1.00  0.00    -0.257 A  
HETATM   13  C   UNL     1     -11.757  14.692  70.776  1.00  0.00    -0.336 A  
HETATM   14  C   UNL     1     -10.879  13.265  68.559  1.00  0.00    -0.286 A  
HETATM   15  C   UNL     1      -7.617  10.556  67.081  1.00  0.00    -0.097 A  
HETATM   16  C   UNL     1     -11.881  12.753  69.385  1.00  0.00    -0.300 A  
HETATM   17  F   UNL     1     -10.290  16.421  70.261  1.00  0.00    -0.181 F  
HETATM   18  S   UNL     1      -7.630  12.151  66.477  1.00  0.00     0.428 SA 
HETATM   19  C   UNL     1     -12.313  13.448  70.505  1.00  0.00    -0.401 A  
ENDROOT
BRANCH   5  20
HETATM   20  N   UNL     1      -7.755  17.035  67.213  1.00  0.00    -0.164 NA 
HETATM   21  N   UNL     1      -7.877  17.307  65.899  1.00  0.00    -0.503 NA 
HETATM   22  C   UNL     1      -6.637  17.686  65.589  1.00  0.00    -0.011 A  
HETATM   23  C   UNL     1      -6.483  17.259  67.637  1.00  0.00    -0.149 A  
HETATM   24  N   UNL     1      -5.752  17.677  66.629  1.00  0.00    -0.162 NA 
ENDBRANCH   5  20
BRANCH  11  25
HETATM   25  C   UNL     1      -7.377   9.355  69.259  1.00  0.00    -0.071 A  
HETATM   26  C   UNL     1      -8.260   9.036  70.299  1.00  0.00    -0.150 A  
HETATM   27  C   UNL     1      -8.046   7.898  71.097  1.00  0.00    -0.093 A  
HETATM   28  C   UNL     1      -6.937   7.079  70.869  1.00  0.00    -0.062 A  
HETATM   29  C   UNL     1      -6.056   7.383  69.833  1.00  0.00    -0.027 A  
HETATM   30  C   UNL     1      -6.692   5.940  71.707  1.00  0.00    -0.059 C  
HETATM   31  N   UNL     1      -6.478   5.021  72.382  1.00  0.00    -0.041 NA 
HETATM   32  C   UNL     1      -6.274   8.512  69.037  1.00  0.00    -0.044 A  
ENDBRANCH  11  25
TORSDOF 2
ENDMDL
MODEL       51
REMARK 921   NORMALIZED FREE ENERGY PREDICTED BY IDOCK:   -3.88 KCAL/MOL
REMARK 922        TOTAL FREE ENERGY PREDICTED BY IDOCK:   -5.08 KCAL/MOL
REMARK 923 INTER-LIGAND FREE ENERGY PREDICTED BY IDOCK:   -4.70 KCAL/MOL
REMARK 924 INTRA-LIGAND FREE ENERGY PREDICTED BY IDOCK:   -0.37 KCAL/MOL
REMARK 927      BINDING AFFINITY PREDICTED BY RF-SCORE:    0.00 PKD
ROOT
HETATM    1  C   UNL     1     -10.969   5.340  66.159  1.00  0.00    -0.029 C  
HETATM    2  C   UNL     1      -9.494   5.626  65.836  1.00  0.00    -0.087 C  
HETATM    3  C   UNL     1      -9.162   7.094  66.096  1.00  0.00    -0.082 A  
HETATM    4  C   UNL     1      -8.483   4.595  66.487  1.00  0.00    -0.109 C  
HETATM    5  C   UNL     1      -8.732   3.152  65.939  1.00  0.00    -0.129 C  
HETATM    6  C   UNL     1      -8.449   4.680  68.026  1.00  0.00    -0.103 A  
HETATM    7  N   UNL     1      -9.843   7.922  66.868  1.00  0.00    -0.216 NA 
HETATM    8  O   UNL     1      -7.138   4.905  66.032  1.00  0.00    -0.068 OA 
HETATM    9  H   UNL     1      -6.532   4.287  66.422  1.00  0.00     0.000 HD 
HETATM   10  F   UNL     1      -7.099   6.896  70.610  1.00  0.00    -0.061 F  
HETATM   11  C   UNL     1      -9.326   9.211  66.767  1.00  0.00    -0.165 A  
HETATM   12  C   UNL     1      -9.125   3.787  68.873  1.00  0.00    -0.142 A  
HETATM   13  C   UNL     1      -9.158   3.950  70.263  1.00  0.00    -0.189 A  
HETATM   14  C   UNL     1      -7.742   5.725  68.661  1.00  0.00    -0.090 A  
HETATM   15  C   UNL     1      -8.186   9.313  65.998  1.00  0.00    -0.111 A  
HETATM   16  C   UNL     1      -7.773   5.885  70.048  1.00  0.00    -0.088 A  
HETATM   17  F   UNL     1      -9.769   2.722  68.386  1.00  0.00    -0.251 F  
HETATM   18  S   UNL     1      -7.849   7.824  65.238  1.00  0.00    -0.124 SA 
HETATM   19  C   UNL     1      -8.493   5.017  70.854  1.00  0.00    -0.124 A  
ENDROOT
BRANCH   5  20
HETATM   20  N   UNL     1      -8.851   3.043  64.494  1.00  0.00    -0.104 NA 
HETATM   21  N   UNL     1     -10.007   2.616  63.950  1.00  0.00    -0.149 NA 
HETATM   22  C   UNL     1      -9.707   2.622  62.650  1.00  0.00    -0.091 A  
HETATM   23  C   UNL     1      -7.924   3.288  63.531  1.00  0.00    -0.080 A  
HETATM   24  N   UNL     1      -8.440   3.033  62.350  1.00  0.00    -0.074 NA 
ENDBRANCH   5  20
BRANCH  11  25
HETATM   25  C   UNL     1      -9.964  10.365  67.404  1.00  0.00    -0.226 A  
HETATM   26  C   UNL     1     -10.189  10.385  68.787  1.00  0.00    -0.201 A  
HETATM   27  C   UNL     1     -10.845  11.473  69.390  1.00  0.00    -0.180 A  
HETATM   28  C   UNL     1     -11.294  12.542  68.611  1.00  0.00    -0.329 A  
HETATM   29  C   UNL     1     -11.068  12.536  67.235  1.00  0.00    -0.319 A  
HETATM   30  C   UNL     1     -12.000  13.635  69.216  1.00  0.00    -0.336 C  
HETATM   31  N   UNL     1     -12.580  14.521  69.691  1.00  0.00    -0.173 NA 
HETATM   32  C   UNL     1     -10.411  11.456  66.639  1.00  0.00    -0.272 A  
ENDBRANCH  11  25
TORSDOF 2
ENDMDL
MODEL       52
REMARK 921   NORMALIZED FREE ENERGY PREDICTED BY IDOCK:   -3.84 KCAL/MOL
REMARK 922        TOTAL FREE ENERGY PREDICTED BY IDOCK:   -5.03 KCAL/MOL
REMARK 923 INTER-LIGAND FREE ENERGY PREDICTED BY IDOCK:   -5.28 KCAL/MOL
REMARK 924 INTRA-LIGAND FREE ENERGY PREDICTED BY IDOCK:    0.25 KCAL/MOL
REMARK 927      BINDING AFFINITY PREDICTED BY RF-SCORE:    0.00 PKD
ROOT
HETATM    1  C   UNL     1      -9.529  15.245  69.611  1.00  0.00    -0.171 C  
HETATM    2  C   UNL     1      -8.620  15.540  68.408  1.00  0.00    -0.168 C  
HETATM    3  C   UNL     1      -7.526  14.481  68.289  1.00  0.00    -0.120 A  
HETATM    4  C   UNL     1      -9.406  15.830  67.064  1.00  0.00    -0.220 C  
HETATM    5  C   UNL     1     -10.295  17.109  67.207  1.00  0.00    -0.320 C  
HETATM    6  C   UNL     1     -10.167  14.598  66.537  1.00  0.00    -0.282 A  
HETATM    7  N   UNL     1      -7.552  13.270  68.817  1.00  0.00    -0.088 NA 
HETATM    8  O   UNL     1      -8.451  16.193  66.030  1.00  0.00    -0.319 OA 
HETATM    9  H   UNL     1      -8.923  16.367  65.224  1.00  0.00     0.000 HD 
HETATM   10  F   UNL     1      -9.412  11.439  64.845  1.00  0.00    -0.230 F  
HETATM   11  C   UNL     1      -6.334  12.628  68.614  1.00  0.00    -0.074 A  
HETATM   12  C   UNL     1     -11.546  14.396  66.714  1.00  0.00    -0.385 A  
HETATM   13  C   UNL     1     -12.189  13.219  66.313  1.00  0.00    -0.440 A  
HETATM   14  C   UNL     1      -9.469  13.568  65.868  1.00  0.00    -0.048 A  
HETATM   15  C   UNL     1      -5.439  13.329  67.834  1.00  0.00    -0.118 A  
HETATM   16  C   UNL     1     -10.113  12.396  65.466  1.00  0.00    -0.267 A  
HETATM   17  F   UNL     1     -12.318  15.333  67.272  1.00  0.00    -0.018 F  
HETATM   18  S   UNL     1      -6.043  14.888  67.497  1.00  0.00     0.149 SA 
HETATM   19  C   UNL     1     -11.465  12.204  65.701  1.00  0.00    -0.408 A  
ENDROOT
BRANCH   5  20
HETATM   20  N   UNL     1      -9.633  18.271  67.776  1.00  0.00    -0.277 NA 
HETATM   21  N   UNL     1     -10.348  19.381  68.045  1.00  0.00    -0.419 NA 
HETATM   22  C   UNL     1      -9.402  20.201  68.506  1.00  0.00    -0.009 A  
HETATM   23  C   UNL     1      -8.321  18.455  68.080  1.00  0.00    -0.284 A  
HETATM   24  N   UNL     1      -8.146  19.669  68.549  1.00  0.00    -0.330 NA 
ENDBRANCH   5  20
BRANCH  11  25
HETATM   25  C   UNL     1      -6.024  11.325  69.207  1.00  0.00    -0.053 A  
HETATM   26  C   UNL     1      -6.168  10.147  68.463  1.00  0.00    -0.044 A  
HETATM   27  C   UNL     1      -5.916   8.894  69.049  1.00  0.00    -0.043 A  
HETATM   28  C   UNL     1      -5.535   8.811  70.391  1.00  0.00    -0.024 A  
HETATM   29  C   UNL     1      -5.382   9.976  71.139  1.00  0.00    -0.079 A  
HETATM   30  C   UNL     1      -5.318   7.532  71.005  1.00  0.00    -0.027 C  
HETATM   31  N   UNL     1      -5.147   6.504  71.517  1.00  0.00    -0.025 NA 
HETATM   32  C   UNL     1      -5.627  11.222  70.552  1.00  0.00    -0.141 A  
ENDBRANCH  11  25
TORSDOF 2
ENDMDL
MODEL       53
REMARK 921   NORMALIZED FREE ENERGY PREDICTED BY IDOCK:   -3.79 KCAL/MOL
REMARK 922        TOTAL FREE ENERGY PREDICTED BY IDOCK:   -4.97 KCAL/MOL
REMARK 923 INTER-LIGAND FREE ENERGY PREDICTED BY IDOCK:   -4.33 KCAL/MOL
REMARK 924 INTRA-LIGAND FREE ENERGY PREDICTED BY IDOCK:   -0.64 KCAL/MOL
REMARK 927      BINDING AFFINITY PREDICTED BY RF-SCORE:    0.00 PKD
ROOT
HETATM    1  C   UNL     1     -10.783   4.502  70.332  1.00  0.00     0.711 C  
HETATM    2  C   UNL     1      -9.761   5.142  71.285  1.00  0.00    -0.228 C  
HETATM    3  C   UNL     1      -8.708   5.921  70.500  1.00  0.00    -0.140 A  
HETATM    4  C   UNL     1     -10.416   5.941  72.485  1.00  0.00    -0.204 C  
HETATM    5  C   UNL     1     -11.257   4.988  73.394  1.00  0.00    -0.319 C  
HETATM    6  C   UNL     1     -11.182   7.196  72.021  1.00  0.00    -0.286 A  
HETATM    7  N   UNL     1      -8.832   6.372  69.265  1.00  0.00    -0.128 NA 
HETATM    8  O   UNL     1      -9.361   6.411  73.368  1.00  0.00    -0.131 OA 
HETATM    9  H   UNL     1      -9.754   6.891  74.087  1.00  0.00     0.000 HD 
HETATM   10  F   UNL     1     -10.423  10.572  70.820  1.00  0.00    -0.162 F  
HETATM   11  C   UNL     1      -7.630   6.921  68.827  1.00  0.00    -0.105 A  
HETATM   12  C   UNL     1     -12.578   7.252  71.879  1.00  0.00    -0.291 A  
HETATM   13  C   UNL     1     -13.235   8.373  71.359  1.00  0.00    -0.242 A  
HETATM   14  C   UNL     1     -10.474   8.367  71.669  1.00  0.00    -0.321 A  
HETATM   15  C   UNL     1      -6.642   6.975  69.787  1.00  0.00    -0.044 A  
HETATM   16  C   UNL     1     -11.132   9.485  71.153  1.00  0.00    -0.379 A  
HETATM   17  F   UNL     1     -13.354   6.227  72.246  1.00  0.00    -0.253 F  
HETATM   18  S   UNL     1      -7.147   6.167  71.202  1.00  0.00    -0.075 SA 
HETATM   19  C   UNL     1     -12.506   9.492  70.976  1.00  0.00    -0.347 A  
ENDROOT
BRANCH   5  20
HETATM   20  N   UNL     1     -10.597   3.754  73.787  1.00  0.00    -0.188 NA 
HETATM   21  N   UNL     1      -9.319   3.787  74.213  1.00  0.00    -0.095 NA 
HETATM   22  C   UNL     1      -9.079   2.493  74.435  1.00  0.00    -0.077 A  
HETATM   23  C   UNL     1     -11.069   2.479  73.772  1.00  0.00    -0.209 A  
HETATM   24  N   UNL     1     -10.129   1.658  74.182  1.00  0.00    -0.087 NA 
ENDBRANCH   5  20
BRANCH  11  25
HETATM   25  C   UNL     1      -7.430   7.377  67.451  1.00  0.00    -0.104 A  
HETATM   26  C   UNL     1      -6.536   8.417  67.163  1.00  0.00    -0.058 A  
HETATM   27  C   UNL     1      -6.381   8.885  65.846  1.00  0.00    -0.056 A  
HETATM   28  C   UNL     1      -7.133   8.327  64.810  1.00  0.00    -0.080 A  
HETATM   29  C   UNL     1      -8.021   7.288  65.083  1.00  0.00    -0.128 A  
HETATM   30  C   UNL     1      -7.010   8.830  63.471  1.00  0.00    -0.089 C  
HETATM   31  N   UNL     1      -6.926   9.232  62.386  1.00  0.00    -0.098 NA 
HETATM   32  C   UNL     1      -8.168   6.820  66.392  1.00  0.00    -0.117 A  
ENDBRANCH  11  25
TORSDOF 2
ENDMDL
MODEL       54
REMARK 921   NORMALIZED FREE ENERGY PREDICTED BY IDOCK:   -3.73 KCAL/MOL
REMARK 922        TOTAL FREE ENERGY PREDICTED BY IDOCK:   -4.91 KCAL/MOL
REMARK 923 INTER-LIGAND FREE ENERGY PREDICTED BY IDOCK:   -4.12 KCAL/MOL
REMARK 924 INTRA-LIGAND FREE ENERGY PREDICTED BY IDOCK:   -0.79 KCAL/MOL
REMARK 927      BINDING AFFINITY PREDICTED BY RF-SCORE:    0.00 PKD
ROOT
HETATM    1  C   UNL     1      -9.074  13.189  67.029  1.00  0.00    -0.231 C  
HETATM    2  C   UNL     1     -10.437  12.486  67.120  1.00  0.00    -0.237 C  
HETATM    3  C   UNL     1     -10.375  11.319  68.104  1.00  0.00    -0.186 A  
HETATM    4  C   UNL     1     -11.656  13.472  67.342  1.00  0.00    -0.356 C  
HETATM    5  C   UNL     1     -11.801  14.454  66.134  1.00  0.00    -0.382 C  
HETATM    6  C   UNL     1     -11.617  14.174  68.714  1.00  0.00    -0.362 A  
HETATM    7  N   UNL     1      -9.481  11.155  69.063  1.00  0.00    -0.117 NA 
HETATM    8  O   UNL     1     -12.891  12.708  67.310  1.00  0.00     0.698 OA 
HETATM    9  H   UNL     1     -13.622  13.299  67.443  1.00  0.00     0.000 HD 
HETATM   10  F   UNL     1     -12.271  13.351  72.222  1.00  0.00    -0.028 F  
HETATM   11  C   UNL     1      -9.654   9.919  69.679  1.00  0.00    -0.227 A  
HETATM   12  C   UNL     1     -11.163  15.489  68.907  1.00  0.00    -0.304 A  
HETATM   13  C   UNL     1     -11.044  16.063  70.178  1.00  0.00    -0.372 A  
HETATM   14  C   UNL     1     -12.013  13.476  69.876  1.00  0.00    -0.416 A  
HETATM   15  C   UNL     1     -10.755   9.211  69.245  1.00  0.00    -0.183 A  
HETATM   16  C   UNL     1     -11.896  14.051  71.143  1.00  0.00    -0.056 A  
HETATM   17  F   UNL     1     -10.828  16.266  67.872  1.00  0.00    -0.302 F  
HETATM   18  S   UNL     1     -11.486  10.006  67.924  1.00  0.00     0.567 SA 
HETATM   19  C   UNL     1     -11.396  15.333  71.307  1.00  0.00    -0.416 A  
ENDROOT
BRANCH   5  20
HETATM   20  N   UNL     1     -11.761  13.838  64.818  1.00  0.00    -0.363 NA 
HETATM   21  N   UNL     1     -12.789  13.069  64.410  1.00  0.00    -0.701 NA 
HETATM   22  C   UNL     1     -12.367  12.676  63.207  1.00  0.00    -0.354 A  
HETATM   23  C   UNL     1     -10.787  13.884  63.872  1.00  0.00     0.460 A  
HETATM   24  N   UNL     1     -11.145  13.159  62.837  1.00  0.00     0.886 NA 
ENDBRANCH   5  20
BRANCH  11  25
HETATM   25  C   UNL     1      -8.723   9.405  70.686  1.00  0.00    -0.263 A  
HETATM   26  C   UNL     1      -9.194   8.887  71.899  1.00  0.00    -0.240 A  
HETATM   27  C   UNL     1      -8.296   8.439  72.884  1.00  0.00    -0.205 A  
HETATM   28  C   UNL     1      -6.918   8.522  72.667  1.00  0.00    -0.064 A  
HETATM   29  C   UNL     1      -6.438   9.029  71.461  1.00  0.00    -0.071 A  
HETATM   30  C   UNL     1      -5.997   8.105  73.686  1.00  0.00    -0.082 C  
HETATM   31  N   UNL     1      -5.241   7.779  74.504  1.00  0.00    -0.065 NA 
HETATM   32  C   UNL     1      -7.334   9.468  70.481  1.00  0.00    -0.147 A  
ENDBRANCH  11  25
TORSDOF 2
ENDMDL
MODEL       55
REMARK 921   NORMALIZED FREE ENERGY PREDICTED BY IDOCK:   -3.69 KCAL/MOL
REMARK 922        TOTAL FREE ENERGY PREDICTED BY IDOCK:   -4.85 KCAL/MOL
REMARK 923 INTER-LIGAND FREE ENERGY PREDICTED BY IDOCK:   -4.07 KCAL/MOL
REMARK 924 INTRA-LIGAND FREE ENERGY PREDICTED BY IDOCK:   -0.78 KCAL/MOL
REMARK 927      BINDING AFFINITY PREDICTED BY RF-SCORE:    0.00 PKD
ROOT
HETATM    1  C   UNL     1      -9.072  10.771  70.044  1.00  0.00     0.834 C  
HETATM    2  C   UNL     1      -9.949  10.264  68.889  1.00  0.00    -0.209 C  
HETATM    3  C   UNL     1      -9.850   8.745  68.765  1.00  0.00    -0.171 A  
HETATM    4  C   UNL     1     -11.428  10.830  68.910  1.00  0.00    -0.293 C  
HETATM    5  C   UNL     1     -11.430  12.385  68.751  1.00  0.00    -0.304 C  
HETATM    6  C   UNL     1     -12.245  10.326  70.117  1.00  0.00    -0.251 A  
HETATM    7  N   UNL     1      -9.453   7.911  69.709  1.00  0.00    -0.163 NA 
HETATM    8  O   UNL     1     -12.126  10.365  67.723  1.00  0.00    -0.294 OA 
HETATM    9  H   UNL     1     -13.013  10.705  67.736  1.00  0.00     0.000 HD 
HETATM   10  F   UNL     1     -13.921   7.252  71.189  1.00  0.00    -0.470 F  
HETATM   11  C   UNL     1      -9.365   6.616  69.204  1.00  0.00    -0.134 A  
HETATM   12  C   UNL     1     -12.471  11.084  71.278  1.00  0.00    -0.370 A  
HETATM   13  C   UNL     1     -13.130  10.561  72.397  1.00  0.00    -0.008 A  
HETATM   14  C   UNL     1     -12.779   9.019  70.113  1.00  0.00     1.021 A  
HETATM   15  C   UNL     1      -9.808   6.476  67.906  1.00  0.00    -0.123 A  
HETATM   16  C   UNL     1     -13.439   8.501  71.229  1.00  0.00    -0.132 A  
HETATM   17  F   UNL     1     -12.071  12.355  71.365  1.00  0.00    -0.266 F  
HETATM   18  S   UNL     1     -10.168   8.003  67.235  1.00  0.00    -0.302 SA 
HETATM   19  C   UNL     1     -13.602   9.255  72.380  1.00  0.00    -0.527 A  
ENDROOT
BRANCH   5  20
HETATM   20  N   UNL     1     -10.606  12.905  67.672  1.00  0.00    -0.221 NA 
HETATM   21  N   UNL     1     -10.803  12.470  66.412  1.00  0.00    -0.255 NA 
HETATM   22  C   UNL     1      -9.857  13.136  65.749  1.00  0.00    -0.203 A  
HETATM   23  C   UNL     1      -9.580  13.795  67.720  1.00  0.00    -0.219 A  
HETATM   24  N   UNL     1      -9.088  13.965  66.514  1.00  0.00    -0.196 NA 
ENDBRANCH   5  20
BRANCH  11  25
HETATM   25  C   UNL     1      -8.821   5.504  69.985  1.00  0.00    -0.139 A  
HETATM   26  C   UNL     1      -9.488   4.273  70.040  1.00  0.00    -0.254 A  
HETATM   27  C   UNL     1      -8.988   3.222  70.829  1.00  0.00    -0.165 A  
HETATM   28  C   UNL     1      -7.825   3.401  71.582  1.00  0.00    -0.057 A  
HETATM   29  C   UNL     1      -7.149   4.619  71.530  1.00  0.00    -0.051 A  
HETATM   30  C   UNL     1      -7.334   2.346  72.421  1.00  0.00    -0.039 C  
HETATM   31  N   UNL     1      -6.930   1.503  73.110  1.00  0.00    -0.022 NA 
HETATM   32  C   UNL     1      -7.645   5.661  70.739  1.00  0.00    -0.091 A  
ENDBRANCH  11  25
TORSDOF 2
ENDMDL
MODEL       56
REMARK 921   NORMALIZED FREE ENERGY PREDICTED BY IDOCK:   -3.42 KCAL/MOL
REMARK 922        TOTAL FREE ENERGY PREDICTED BY IDOCK:   -4.56 KCAL/MOL
REMARK 923 INTER-LIGAND FREE ENERGY PREDICTED BY IDOCK:   -4.98 KCAL/MOL
REMARK 924 INTRA-LIGAND FREE ENERGY PREDICTED BY IDOCK:    0.42 KCAL/MOL
REMARK 927      BINDING AFFINITY PREDICTED BY RF-SCORE:    0.00 PKD
ROOT
HETATM    1  C   UNL     1     -10.828  11.818  68.283  1.00  0.00    -0.259 C  
HETATM    2  C   UNL     1      -9.375  12.308  68.188  1.00  0.00    -0.205 C  
HETATM    3  C   UNL     1      -8.427  11.312  68.853  1.00  0.00    -0.058 A  
HETATM    4  C   UNL     1      -8.944  12.761  66.733  1.00  0.00    -0.188 C  
HETATM    5  C   UNL     1      -9.801  13.977  66.253  1.00  0.00    -0.305 C  
HETATM    6  C   UNL     1      -8.904  11.591  65.729  1.00  0.00    -0.060 A  
HETATM    7  N   UNL     1      -8.679  10.039  69.097  1.00  0.00    -0.155 NA 
HETATM    8  O   UNL     1      -7.594  13.296  66.788  1.00  0.00    -0.318 OA 
HETATM    9  H   UNL     1      -7.335  13.567  65.915  1.00  0.00     0.000 HD 
HETATM   10  F   UNL     1      -6.756   8.729  64.953  1.00  0.00    -0.067 F  
HETATM   11  C   UNL     1      -7.640   9.471  69.828  1.00  0.00    -0.110 A  
HETATM   12  C   UNL     1      -9.925  11.322  64.802  1.00  0.00    -0.277 A  
HETATM   13  C   UNL     1      -9.908  10.194  63.974  1.00  0.00    -0.176 A  
HETATM   14  C   UNL     1      -7.817  10.689  65.736  1.00  0.00    -0.141 A  
HETATM   15  C   UNL     1      -6.560  10.304  70.030  1.00  0.00    -0.127 A  
HETATM   16  C   UNL     1      -7.801   9.566  64.907  1.00  0.00    -0.119 A  
HETATM   17  F   UNL     1     -10.968  12.146  64.661  1.00  0.00    -0.309 F  
HETATM   18  S   UNL     1      -6.910  11.875  69.465  1.00  0.00     0.069 SA 
HETATM   19  C   UNL     1      -8.847   9.299  64.039  1.00  0.00    -0.168 A  
ENDROOT
BRANCH   5  20
HETATM   20  N   UNL     1      -9.928  15.067  67.205  1.00  0.00    -0.232 NA 
HETATM   21  N   UNL     1     -10.075  16.330  66.759  1.00  0.00    -0.269 NA 
HETATM   22  C   UNL     1     -10.119  17.014  67.904  1.00  0.00    -0.306 A  
HETATM   23  C   UNL     1      -9.895  15.036  68.564  1.00  0.00    -0.217 A  
HETATM   24  N   UNL     1     -10.018  16.256  69.035  1.00  0.00    -0.243 NA 
ENDBRANCH   5  20
BRANCH  11  25
HETATM   25  C   UNL     1      -7.706   8.108  70.359  1.00  0.00    -0.085 A  
HETATM   26  C   UNL     1      -7.401   7.008  69.548  1.00  0.00    -0.094 A  
HETATM   27  C   UNL     1      -7.512   5.697  70.047  1.00  0.00    -0.070 A  
HETATM   28  C   UNL     1      -7.945   5.480  71.357  1.00  0.00    -0.112 A  
HETATM   29  C   UNL     1      -8.245   6.567  72.175  1.00  0.00    -0.107 A  
HETATM   30  C   UNL     1      -8.101   4.144  71.858  1.00  0.00    -0.088 C  
HETATM   31  N   UNL     1      -8.238   3.068  72.272  1.00  0.00    -0.062 NA 
HETATM   32  C   UNL     1      -8.128   7.870  71.679  1.00  0.00    -0.120 A  
ENDBRANCH  11  25
TORSDOF 2
ENDMDL
MODEL       57
REMARK 921   NORMALIZED FREE ENERGY PREDICTED BY IDOCK:   -3.37 KCAL/MOL
REMARK 922        TOTAL FREE ENERGY PREDICTED BY IDOCK:   -4.50 KCAL/MOL
REMARK 923 INTER-LIGAND FREE ENERGY PREDICTED BY IDOCK:   -4.22 KCAL/MOL
REMARK 924 INTRA-LIGAND FREE ENERGY PREDICTED BY IDOCK:   -0.28 KCAL/MOL
REMARK 927      BINDING AFFINITY PREDICTED BY RF-SCORE:    0.00 PKD
ROOT
HETATM    1  C   UNL     1      -8.726  12.490  65.891  1.00  0.00     0.493 C  
HETATM    2  C   UNL     1      -9.679  12.839  67.045  1.00  0.00    -0.224 C  
HETATM    3  C   UNL     1      -9.596  11.785  68.148  1.00  0.00    -0.193 A  
HETATM    4  C   UNL     1      -9.555  14.335  67.550  1.00  0.00    -0.216 C  
HETATM    5  C   UNL     1      -9.933  15.338  66.412  1.00  0.00    -0.275 C  
HETATM    6  C   UNL     1      -8.197  14.631  68.217  1.00  0.00    -0.146 A  
HETATM    7  N   UNL     1      -8.600  10.941  68.346  1.00  0.00    -0.139 NA 
HETATM    8  O   UNL     1     -10.568  14.574  68.564  1.00  0.00    -0.238 OA 
HETATM    9  H   UNL     1     -10.494  15.471  68.867  1.00  0.00     0.000 HD 
HETATM   10  F   UNL     1      -6.498  13.931  71.384  1.00  0.00    -0.076 F  
HETATM   11  C   UNL     1      -8.922  10.043  69.360  1.00  0.00    -0.194 A  
HETATM   12  C   UNL     1      -7.136  15.288  67.571  1.00  0.00    -0.196 A  
HETATM   13  C   UNL     1      -5.881  15.452  68.168  1.00  0.00    -0.138 A  
HETATM   14  C   UNL     1      -7.949  14.199  69.538  1.00  0.00     0.402 A  
HETATM   15  C   UNL     1     -10.122  10.295  69.989  1.00  0.00    -0.115 A  
HETATM   16  C   UNL     1      -6.697  14.366  70.133  1.00  0.00    -0.053 A  
HETATM   17  F   UNL     1      -7.281  15.800  66.345  1.00  0.00    -0.120 F  
HETATM   18  S   UNL     1     -10.953  11.556  69.196  1.00  0.00    -0.205 SA 
HETATM   19  C   UNL     1      -5.653  14.972  69.452  1.00  0.00    -0.092 A  
ENDROOT
BRANCH   5  20
HETATM   20  N   UNL     1     -11.168  15.045  65.704  1.00  0.00    -0.341 NA 
HETATM   21  N   UNL     1     -12.091  14.245  66.274  1.00  0.00    -0.424 NA 
HETATM   22  C   UNL     1     -13.026  14.199  65.325  1.00  0.00    -0.237 A  
HETATM   23  C   UNL     1     -11.572  15.444  64.469  1.00  0.00    -0.296 A  
HETATM   24  N   UNL     1     -12.749  14.926  64.203  1.00  0.00    -0.688 NA 
ENDBRANCH   5  20
BRANCH  11  25
HETATM   25  C   UNL     1      -8.065   8.907  69.704  1.00  0.00    -0.104 A  
HETATM   26  C   UNL     1      -7.627   8.014  68.718  1.00  0.00    -0.103 A  
HETATM   27  C   UNL     1      -6.843   6.897  69.059  1.00  0.00    -0.069 A  
HETATM   28  C   UNL     1      -6.506   6.658  70.393  1.00  0.00    -0.044 A  
HETATM   29  C   UNL     1      -6.930   7.543  71.382  1.00  0.00    -0.054 A  
HETATM   30  C   UNL     1      -5.742   5.497  70.751  1.00  0.00    -0.016 C  
HETATM   31  N   UNL     1      -5.131   4.558  71.056  1.00  0.00     0.000 NA 
HETATM   32  C   UNL     1      -7.704   8.657  71.040  1.00  0.00    -0.120 A  
ENDBRANCH  11  25
TORSDOF 2
ENDMDL
MODEL       58
REMARK 921   NORMALIZED FREE ENERGY PREDICTED BY IDOCK:   -3.35 KCAL/MOL
REMARK 922        TOTAL FREE ENERGY PREDICTED BY IDOCK:   -4.48 KCAL/MOL
REMARK 923 INTER-LIGAND FREE ENERGY PREDICTED BY IDOCK:   -4.06 KCAL/MOL
REMARK 924 INTRA-LIGAND FREE ENERGY PREDICTED BY IDOCK:   -0.42 KCAL/MOL
REMARK 927      BINDING AFFINITY PREDICTED BY RF-SCORE:    0.00 PKD
ROOT
HETATM    1  C   UNL     1     -10.483  10.862  66.219  1.00  0.00    -0.304 C  
HETATM    2  C   UNL     1     -10.223  10.377  67.654  1.00  0.00    -0.240 C  
HETATM    3  C   UNL     1     -10.116   8.854  67.697  1.00  0.00    -0.218 A  
HETATM    4  C   UNL     1      -9.045  11.142  68.387  1.00  0.00    -0.168 C  
HETATM    5  C   UNL     1      -9.381  12.662  68.539  1.00  0.00    -0.080 C  
HETATM    6  C   UNL     1      -7.667  10.869  67.751  1.00  0.00    -0.107 A  
HETATM    7  N   UNL     1      -9.849   8.063  66.674  1.00  0.00    -0.246 NA 
HETATM    8  O   UNL     1      -8.961  10.672  69.759  1.00  0.00    -0.392 OA 
HETATM    9  H   UNL     1      -8.255  11.131  70.198  1.00  0.00     0.000 HD 
HETATM   10  F   UNL     1      -5.196   8.169  67.641  1.00  0.00    -0.029 F  
HETATM   11  C   UNL     1      -9.958   6.728  67.053  1.00  0.00    -0.177 A  
HETATM   12  C   UNL     1      -7.024  11.754  66.869  1.00  0.00    -0.101 A  
HETATM   13  C   UNL     1      -5.821  11.433  66.230  1.00  0.00    -0.059 A  
HETATM   14  C   UNL     1      -6.997   9.654  68.012  1.00  0.00    -0.078 A  
HETATM   15  C   UNL     1     -10.202   6.532  68.396  1.00  0.00    -0.172 A  
HETATM   16  C   UNL     1      -5.795   9.337  67.375  1.00  0.00    -0.046 A  
HETATM   17  F   UNL     1      -7.533  12.961  66.604  1.00  0.00     0.053 F  
HETATM   18  S   UNL     1     -10.480   8.026  69.171  1.00  0.00    -0.176 SA 
HETATM   19  C   UNL     1      -5.211  10.208  66.470  1.00  0.00    -0.040 A  
ENDROOT
BRANCH   5  20
HETATM   20  N   UNL     1     -10.704  12.961  69.061  1.00  0.00    -0.152 NA 
HETATM   21  N   UNL     1     -11.290  12.108  69.924  1.00  0.00    -0.112 NA 
HETATM   22  C   UNL     1     -12.466  12.703  70.130  1.00  0.00    -0.029 A  
HETATM   23  C   UNL     1     -11.523  14.011  68.789  1.00  0.00    -0.292 A  
HETATM   24  N   UNL     1     -12.646  13.877  69.456  1.00  0.00    -0.092 NA 
ENDBRANCH   5  20
BRANCH  11  25
HETATM   25  C   UNL     1      -9.851   5.627  66.094  1.00  0.00    -0.114 A  
HETATM   26  C   UNL     1      -8.607   5.251  65.572  1.00  0.00    -0.146 A  
HETATM   27  C   UNL     1      -8.512   4.225  64.614  1.00  0.00    -0.117 A  
HETATM   28  C   UNL     1      -9.665   3.579  64.161  1.00  0.00    -0.168 A  
HETATM   29  C   UNL     1     -10.908   3.940  64.679  1.00  0.00    -0.087 A  
HETATM   30  C   UNL     1      -9.578   2.561  63.154  1.00  0.00    -0.095 C  
HETATM   31  N   UNL     1      -9.523   1.742  62.334  1.00  0.00    -0.085 NA 
HETATM   32  C   UNL     1     -10.999   4.957  65.636  1.00  0.00     0.011 A  
ENDBRANCH  11  25
TORSDOF 2
ENDMDL
MODEL       59
REMARK 921   NORMALIZED FREE ENERGY PREDICTED BY IDOCK:   -3.34 KCAL/MOL
REMARK 922        TOTAL FREE ENERGY PREDICTED BY IDOCK:   -4.46 KCAL/MOL
REMARK 923 INTER-LIGAND FREE ENERGY PREDICTED BY IDOCK:   -3.80 KCAL/MOL
REMARK 924 INTRA-LIGAND FREE ENERGY PREDICTED BY IDOCK:   -0.66 KCAL/MOL
REMARK 927      BINDING AFFINITY PREDICTED BY RF-SCORE:    0.00 PKD
ROOT
HETATM    1  C   UNL     1     -10.798   8.502  66.244  1.00  0.00     1.122 C  
HETATM    2  C   UNL     1     -10.035   9.620  66.973  1.00  0.00    -0.263 C  
HETATM    3  C   UNL     1      -9.795   9.243  68.433  1.00  0.00    -0.155 A  
HETATM    4  C   UNL     1      -8.748  10.127  66.202  1.00  0.00    -0.142 C  
HETATM    5  C   UNL     1      -9.138  10.752  64.822  1.00  0.00    -0.200 C  
HETATM    6  C   UNL     1      -7.643   9.056  66.110  1.00  0.00    -0.095 A  
HETATM    7  N   UNL     1      -9.819   8.022  68.938  1.00  0.00    -0.170 NA 
HETATM    8  O   UNL     1      -8.173  11.244  66.932  1.00  0.00    -0.141 OA 
HETATM    9  H   UNL     1      -7.401  11.549  66.469  1.00  0.00     0.000 HD 
HETATM   10  F   UNL     1      -5.136   7.523  68.296  1.00  0.00    -0.020 F  
HETATM   11  C   UNL     1      -9.686   8.069  70.322  1.00  0.00    -0.175 A  
HETATM   12  C   UNL     1      -7.407   8.272  64.968  1.00  0.00    -0.086 A  
HETATM   13  C   UNL     1      -6.464   7.239  64.950  1.00  0.00    -0.037 A  
HETATM   14  C   UNL     1      -6.826   8.785  67.230  1.00  0.00    -0.067 A  
HETATM   15  C   UNL     1      -9.450   9.327  70.834  1.00  0.00    -0.261 A  
HETATM   16  C   UNL     1      -5.884   7.755  67.209  1.00  0.00    -0.037 A  
HETATM   17  F   UNL     1      -8.073   8.487  63.830  1.00  0.00    -0.138 F  
HETATM   18  S   UNL     1      -9.577  10.500  69.601  1.00  0.00     0.087 SA 
HETATM   19  C   UNL     1      -5.709   6.965  66.084  1.00  0.00    -0.030 A  
ENDROOT
BRANCH   5  20
HETATM   20  N   UNL     1     -10.232  11.708  64.856  1.00  0.00    -0.257 NA 
HETATM   21  N   UNL     1     -10.250  12.669  65.800  1.00  0.00    -0.269 NA 
HETATM   22  C   UNL     1     -11.394  13.296  65.520  1.00  0.00    -0.294 A  
HETATM   23  C   UNL     1     -11.332  11.791  64.061  1.00  0.00    -0.381 A  
HETATM   24  N   UNL     1     -12.085  12.792  64.456  1.00  0.00    -0.389 NA 
ENDBRANCH   5  20
BRANCH  11  25
HETATM   25  C   UNL     1      -9.813   6.878  71.164  1.00  0.00    -0.184 A  
HETATM   26  C   UNL     1      -9.682   6.967  72.556  1.00  0.00    -0.169 A  
HETATM   27  C   UNL     1      -9.758   5.814  73.358  1.00  0.00    -0.156 A  
HETATM   28  C   UNL     1      -9.948   4.561  72.770  1.00  0.00    -0.209 A  
HETATM   29  C   UNL     1     -10.087   4.461  71.387  1.00  0.00    -0.210 A  
HETATM   30  C   UNL     1      -9.984   3.377  73.581  1.00  0.00    -0.113 C  
HETATM   31  N   UNL     1     -10.007   2.411  74.223  1.00  0.00    -0.103 NA 
HETATM   32  C   UNL     1     -10.018   5.610  70.592  1.00  0.00    -0.260 A  
ENDBRANCH  11  25
TORSDOF 2
ENDMDL
MODEL       60
REMARK 921   NORMALIZED FREE ENERGY PREDICTED BY IDOCK:   -3.13 KCAL/MOL
REMARK 922        TOTAL FREE ENERGY PREDICTED BY IDOCK:   -4.23 KCAL/MOL
REMARK 923 INTER-LIGAND FREE ENERGY PREDICTED BY IDOCK:   -4.46 KCAL/MOL
REMARK 924 INTRA-LIGAND FREE ENERGY PREDICTED BY IDOCK:    0.23 KCAL/MOL
REMARK 927      BINDING AFFINITY PREDICTED BY RF-SCORE:    0.00 PKD
ROOT
HETATM    1  C   UNL     1      -8.433  11.317  69.306  1.00  0.00     0.197 C  
HETATM    2  C   UNL     1      -7.601  11.989  68.202  1.00  0.00    -0.120 C  
HETATM    3  C   UNL     1      -7.248  10.983  67.108  1.00  0.00    -0.112 A  
HETATM    4  C   UNL     1      -8.214  13.350  67.675  1.00  0.00    -0.177 C  
HETATM    5  C   UNL     1      -8.275  14.412  68.822  1.00  0.00    -0.126 C  
HETATM    6  C   UNL     1      -9.551  13.158  66.932  1.00  0.00    -0.248 A  
HETATM    7  N   UNL     1      -7.872   9.845  66.864  1.00  0.00    -0.102 NA 
HETATM    8  O   UNL     1      -7.295  13.939  66.715  1.00  0.00    -0.246 OA 
HETATM    9  H   UNL     1      -7.663  14.755  66.399  1.00  0.00     0.000 HD 
HETATM   10  F   UNL     1     -10.720  11.935  63.684  1.00  0.00    -0.324 F  
HETATM   11  C   UNL     1      -7.200   9.126  65.880  1.00  0.00    -0.093 A  
HETATM   12  C   UNL     1     -10.808  13.394  67.512  1.00  0.00    -0.263 A  
HETATM   13  C   UNL     1     -12.006  13.113  66.845  1.00  0.00    -0.421 A  
HETATM   14  C   UNL     1      -9.559  12.677  65.604  1.00  0.00    -0.076 A  
HETATM   15  C   UNL     1      -6.132   9.789  65.314  1.00  0.00    -0.083 A  
HETATM   16  C   UNL     1     -10.755  12.400  64.940  1.00  0.00    -0.294 A  
HETATM   17  F   UNL     1     -10.920  13.914  68.738  1.00  0.00    -0.238 F  
HETATM   18  S   UNL     1      -5.842  11.254  66.138  1.00  0.00     0.019 SA 
HETATM   19  C   UNL     1     -11.981  12.595  65.556  1.00  0.00    -0.509 A  
ENDROOT
BRANCH   5  20
HETATM   20  N   UNL     1      -7.056  14.565  69.598  1.00  0.00    -0.126 NA 
HETATM   21  N   UNL     1      -6.658  13.573  70.419  1.00  0.00     0.190 NA 
HETATM   22  C   UNL     1      -5.557  14.099  70.958  1.00  0.00    -0.197 A  
HETATM   23  C   UNL     1      -6.202  15.620  69.666  1.00  0.00    -0.164 A  
HETATM   24  N   UNL     1      -5.239  15.352  70.518  1.00  0.00    -0.132 NA 
ENDBRANCH   5  20
BRANCH  11  25
HETATM   25  C   UNL     1      -7.584   7.765  65.501  1.00  0.00    -0.083 A  
HETATM   26  C   UNL     1      -8.210   6.915  66.421  1.00  0.00    -0.117 A  
HETATM   27  C   UNL     1      -8.535   5.592  66.070  1.00  0.00    -0.126 A  
HETATM   28  C   UNL     1      -8.220   5.107  64.798  1.00  0.00    -0.130 A  
HETATM   29  C   UNL     1      -7.604   5.946  63.872  1.00  0.00    -0.085 A  
HETATM   30  C   UNL     1      -8.511   3.746  64.448  1.00  0.00    -0.097 C  
HETATM   31  N   UNL     1      -8.734   2.645  64.155  1.00  0.00    -0.090 NA 
HETATM   32  C   UNL     1      -7.288   7.262  64.222  1.00  0.00    -0.086 A  
ENDBRANCH  11  25
TORSDOF 2
ENDMDL
MODEL       61
REMARK 921   NORMALIZED FREE ENERGY PREDICTED BY IDOCK:   -2.99 KCAL/MOL
REMARK 922        TOTAL FREE ENERGY PREDICTED BY IDOCK:   -4.08 KCAL/MOL
REMARK 923 INTER-LIGAND FREE ENERGY PREDICTED BY IDOCK:   -3.96 KCAL/MOL
REMARK 924 INTRA-LIGAND FREE ENERGY PREDICTED BY IDOCK:   -0.12 KCAL/MOL
REMARK 927      BINDING AFFINITY PREDICTED BY RF-SCORE:    0.00 PKD
ROOT
HETATM    1  C   UNL     1      -9.823  13.446  69.347  1.00  0.00     0.717 C  
HETATM    2  C   UNL     1      -8.518  13.330  68.544  1.00  0.00    -0.067 C  
HETATM    3  C   UNL     1      -7.985  11.900  68.586  1.00  0.00    -0.101 A  
HETATM    4  C   UNL     1      -8.598  13.962  67.094  1.00  0.00    -0.203 C  
HETATM    5  C   UNL     1      -8.876  15.499  67.173  1.00  0.00    -0.212 C  
HETATM    6  C   UNL     1      -9.562  13.202  66.161  1.00  0.00    -0.209 A  
HETATM    7  N   UNL     1      -8.685  10.815  68.869  1.00  0.00    -0.159 NA 
HETATM    8  O   UNL     1      -7.286  13.885  66.474  1.00  0.00     0.301 OA 
HETATM    9  H   UNL     1      -7.334  14.264  65.605  1.00  0.00     0.000 HD 
HETATM   10  F   UNL     1      -9.629  10.065  64.272  1.00  0.00    -0.309 F  
HETATM   11  C   UNL     1      -7.848   9.705  68.941  1.00  0.00    -0.081 A  
HETATM   12  C   UNL     1     -10.871  13.626  65.876  1.00  0.00    -0.275 A  
HETATM   13  C   UNL     1     -11.756  12.861  65.107  1.00  0.00    -0.385 A  
HETATM   14  C   UNL     1      -9.161  11.982  65.573  1.00  0.00     0.044 A  
HETATM   15  C   UNL     1      -6.536   9.954  68.599  1.00  0.00    -0.046 A  
HETATM   16  C   UNL     1     -10.045  11.222  64.804  1.00  0.00    -0.285 A  
HETATM   17  F   UNL     1     -11.333  14.797  66.323  1.00  0.00    -0.331 F  
HETATM   18  S   UNL     1      -6.292  11.625  68.360  1.00  0.00    -0.052 SA 
HETATM   19  C   UNL     1     -11.347  11.642  64.582  1.00  0.00    -0.284 A  
ENDROOT
BRANCH   5  20
HETATM   20  N   UNL     1      -8.040  16.239  68.103  1.00  0.00    -0.155 NA 
HETATM   21  N   UNL     1      -7.020  15.616  68.725  1.00  0.00    -0.115 NA 
HETATM   22  C   UNL     1      -6.538  16.595  69.493  1.00  0.00    -0.212 A  
HETATM   23  C   UNL     1      -8.131  17.535  68.503  1.00  0.00    -0.275 A  
HETATM   24  N   UNL     1      -7.189  17.790  69.382  1.00  0.00    -0.059 NA 
ENDBRANCH   5  20
BRANCH  11  25
HETATM   25  C   UNL     1      -8.324   8.389  69.372  1.00  0.00    -0.120 A  
HETATM   26  C   UNL     1      -9.392   8.273  70.271  1.00  0.00    -0.159 A  
HETATM   27  C   UNL     1      -9.816   7.009  70.720  1.00  0.00    -0.190 A  
HETATM   28  C   UNL     1      -9.162   5.854  70.285  1.00  0.00    -0.170 A  
HETATM   29  C   UNL     1      -8.103   5.957  69.386  1.00  0.00    -0.109 A  
HETATM   30  C   UNL     1      -9.563   4.566  70.773  1.00  0.00    -0.183 C  
HETATM   31  N   UNL     1      -9.873   3.518  71.166  1.00  0.00    -0.163 NA 
HETATM   32  C   UNL     1      -7.687   7.214  68.935  1.00  0.00    -0.113 A  
ENDBRANCH  11  25
TORSDOF 2
ENDMDL
MODEL       62
REMARK 921   NORMALIZED FREE ENERGY PREDICTED BY IDOCK:   -2.97 KCAL/MOL
REMARK 922        TOTAL FREE ENERGY PREDICTED BY IDOCK:   -4.06 KCAL/MOL
REMARK 923 INTER-LIGAND FREE ENERGY PREDICTED BY IDOCK:   -3.74 KCAL/MOL
REMARK 924 INTRA-LIGAND FREE ENERGY PREDICTED BY IDOCK:   -0.32 KCAL/MOL
REMARK 927      BINDING AFFINITY PREDICTED BY RF-SCORE:    0.00 PKD
ROOT
HETATM    1  C   UNL     1      -9.148   9.216  72.077  1.00  0.00     0.276 C  
HETATM    2  C   UNL     1      -9.750   8.438  70.896  1.00  0.00    -0.212 C  
HETATM    3  C   UNL     1     -10.266   9.399  69.827  1.00  0.00    -0.220 A  
HETATM    4  C   UNL     1      -8.820   7.279  70.349  1.00  0.00    -0.150 C  
HETATM    5  C   UNL     1      -8.577   6.196  71.450  1.00  0.00    -0.128 C  
HETATM    6  C   UNL     1      -7.526   7.807  69.698  1.00  0.00    -0.090 A  
HETATM    7  N   UNL     1      -9.905  10.660  69.672  1.00  0.00    -0.100 NA 
HETATM    8  O   UNL     1      -9.533   6.556  69.310  1.00  0.00    -0.141 OA 
HETATM    9  H   UNL     1      -8.974   5.861  68.982  1.00  0.00     0.000 HD 
HETATM   10  F   UNL     1      -6.503   9.441  66.584  1.00  0.00    -0.063 F  
HETATM   11  C   UNL     1     -10.672  11.265  68.680  1.00  0.00    -0.205 A  
HETATM   12  C   UNL     1      -6.278   7.825  70.343  1.00  0.00    -0.037 A  
HETATM   13  C   UNL     1      -5.143   8.404  69.764  1.00  0.00    -0.029 A  
HETATM   14  C   UNL     1      -7.560   8.351  68.395  1.00  0.00    -0.097 A  
HETATM   15  C   UNL     1     -11.532  10.412  68.021  1.00  0.00    -0.082 A  
HETATM   16  C   UNL     1      -6.426   8.925  67.818  1.00  0.00    -0.060 A  
HETATM   17  F   UNL     1      -6.113   7.276  71.550  1.00  0.00    -0.036 F  
HETATM   18  S   UNL     1     -11.525   8.875  68.762  1.00  0.00     1.023 SA 
HETATM   19  C   UNL     1      -5.220   8.975  68.500  1.00  0.00    -0.034 A  
ENDROOT
BRANCH   5  20
HETATM   20  N   UNL     1      -9.767   5.731  72.143  1.00  0.00    -0.153 NA 
HETATM   21  N   UNL     1     -10.973   5.852  71.555  1.00  0.00    -0.267 NA 
HETATM   22  C   UNL     1     -11.780   5.360  72.496  1.00  0.00    -0.107 A  
HETATM   23  C   UNL     1      -9.886   5.182  73.381  1.00  0.00    -0.154 A  
HETATM   24  N   UNL     1     -11.152   4.932  73.630  1.00  0.00    -0.325 NA 
ENDBRANCH   5  20
BRANCH  11  25
HETATM   25  C   UNL     1     -10.587  12.696  68.384  1.00  0.00    -0.258 A  
HETATM   26  C   UNL     1      -9.373  13.277  67.997  1.00  0.00    -0.218 A  
HETATM   27  C   UNL     1      -9.283  14.661  67.761  1.00  0.00    -0.196 A  
HETATM   28  C   UNL     1     -10.406  15.475  67.926  1.00  0.00    -0.250 A  
HETATM   29  C   UNL     1     -11.621  14.907  68.304  1.00  0.00    -0.356 A  
HETATM   30  C   UNL     1     -10.309  16.893  67.727  1.00  0.00    -0.327 C  
HETATM   31  N   UNL     1     -10.244  18.042  67.577  1.00  0.00    -0.352 NA 
HETATM   32  C   UNL     1     -11.709  13.530  68.533  1.00  0.00    -0.392 A  
ENDBRANCH  11  25
TORSDOF 2
ENDMDL
MODEL       63
REMARK 921   NORMALIZED FREE ENERGY PREDICTED BY IDOCK:   -2.91 KCAL/MOL
REMARK 922        TOTAL FREE ENERGY PREDICTED BY IDOCK:   -3.99 KCAL/MOL
REMARK 923 INTER-LIGAND FREE ENERGY PREDICTED BY IDOCK:   -4.25 KCAL/MOL
REMARK 924 INTRA-LIGAND FREE ENERGY PREDICTED BY IDOCK:    0.27 KCAL/MOL
REMARK 927      BINDING AFFINITY PREDICTED BY RF-SCORE:    0.00 PKD
ROOT
HETATM    1  C   UNL     1      -8.072  15.002  68.996  1.00  0.00    -0.178 C  
HETATM    2  C   UNL     1      -9.053  15.066  67.815  1.00  0.00    -0.180 C  
HETATM    3  C   UNL     1      -9.016  13.765  67.015  1.00  0.00    -0.238 A  
HETATM    4  C   UNL     1     -10.506  15.555  68.212  1.00  0.00    -0.242 C  
HETATM    5  C   UNL     1     -10.466  17.016  68.769  1.00  0.00    -0.347 C  
HETATM    6  C   UNL     1     -11.244  14.559  69.128  1.00  0.00    -0.294 A  
HETATM    7  N   UNL     1      -8.577  12.596  67.446  1.00  0.00    -0.180 NA 
HETATM    8  O   UNL     1     -11.309  15.672  67.006  1.00  0.00    -0.209 OA 
HETATM    9  H   UNL     1     -12.180  15.965  67.245  1.00  0.00     0.000 HD 
HETATM   10  F   UNL     1     -12.937  11.324  68.844  1.00  0.00     0.246 F  
HETATM   11  C   UNL     1      -8.573  11.668  66.409  1.00  0.00    -0.143 A  
HETATM   12  C   UNL     1     -11.354  14.712  70.521  1.00  0.00    -0.160 A  
HETATM   13  C   UNL     1     -11.942  13.739  71.337  1.00  0.00     0.069 A  
HETATM   14  C   UNL     1     -11.822  13.391  68.583  1.00  0.00    -0.397 A  
HETATM   15  C   UNL     1      -9.119  12.126  65.228  1.00  0.00     0.359 A  
HETATM   16  C   UNL     1     -12.411  12.424  69.399  1.00  0.00     0.095 A  
HETATM   17  F   UNL     1     -10.904  15.810  71.135  1.00  0.00    -0.339 F  
HETATM   18  S   UNL     1      -9.477  13.789  65.347  1.00  0.00     0.453 SA 
HETATM   19  C   UNL     1     -12.458  12.578  70.776  1.00  0.00    -0.357 A  
ENDROOT
BRANCH   5  20
HETATM   20  N   UNL     1      -9.710  17.968  67.973  1.00  0.00    -0.296 NA 
HETATM   21  N   UNL     1     -10.292  19.117  67.575  1.00  0.00    -0.404 NA 
HETATM   22  C   UNL     1      -9.314  19.679  66.863  1.00  0.00    -0.355 A  
HETATM   23  C   UNL     1      -8.438  17.884  67.502  1.00  0.00    -0.232 A  
HETATM   24  N   UNL     1      -8.158  18.957  66.798  1.00  0.00    -0.259 NA 
ENDBRANCH   5  20
BRANCH  11  25
HETATM   25  C   UNL     1      -8.009  10.326  66.558  1.00  0.00    -0.118 A  
HETATM   26  C   UNL     1      -8.460   9.266  65.761  1.00  0.00    -0.144 A  
HETATM   27  C   UNL     1      -7.951   7.967  65.940  1.00  0.00    -0.106 A  
HETATM   28  C   UNL     1      -6.997   7.717  66.929  1.00  0.00    -0.073 A  
HETATM   29  C   UNL     1      -6.535   8.765  67.723  1.00  0.00    -0.061 A  
HETATM   30  C   UNL     1      -6.505   6.386  67.143  1.00  0.00    -0.046 C  
HETATM   31  N   UNL     1      -6.104   5.314  67.332  1.00  0.00    -0.029 NA 
HETATM   32  C   UNL     1      -7.038  10.057  67.540  1.00  0.00    -0.087 A  
ENDBRANCH  11  25
TORSDOF 2
ENDMDL
MODEL       64
REMARK 921   NORMALIZED FREE ENERGY PREDICTED BY IDOCK:   -2.53 KCAL/MOL
REMARK 922        TOTAL FREE ENERGY PREDICTED BY IDOCK:   -3.56 KCAL/MOL
REMARK 923 INTER-LIGAND FREE ENERGY PREDICTED BY IDOCK:   -3.83 KCAL/MOL
REMARK 924 INTRA-LIGAND FREE ENERGY PREDICTED BY IDOCK:    0.27 KCAL/MOL
REMARK 927      BINDING AFFINITY PREDICTED BY RF-SCORE:    0.00 PKD
ROOT
HETATM    1  C   UNL     1      -8.610  16.109  69.953  1.00  0.00     0.666 C  
HETATM    2  C   UNL     1      -7.618  16.145  68.780  1.00  0.00    -0.193 C  
HETATM    3  C   UNL     1      -7.016  14.761  68.542  1.00  0.00    -0.108 A  
HETATM    4  C   UNL     1      -8.185  16.851  67.481  1.00  0.00    -0.178 C  
HETATM    5  C   UNL     1      -8.513  18.353  67.764  1.00  0.00    -0.259 C  
HETATM    6  C   UNL     1      -9.346  16.070  66.833  1.00  0.00    -0.246 A  
HETATM    7  N   UNL     1      -7.528  13.610  68.940  1.00  0.00    -0.075 NA 
HETATM    8  O   UNL     1      -7.130  16.915  66.483  1.00  0.00    -0.222 OA 
HETATM    9  H   UNL     1      -7.470  17.338  65.703  1.00  0.00     0.000 HD 
HETATM   10  F   UNL     1      -9.818  13.052  64.813  1.00  0.00    -0.250 F  
HETATM   11  C   UNL     1      -6.647  12.568  68.661  1.00  0.00    -0.083 A  
HETATM   12  C   UNL     1     -10.701  16.404  66.999  1.00  0.00    -0.217 A  
HETATM   13  C   UNL     1     -11.736  15.616  66.482  1.00  0.00     0.427 A  
HETATM   14  C   UNL     1      -9.079  14.923  66.054  1.00  0.00    -0.109 A  
HETATM   15  C   UNL     1      -5.525  12.940  67.952  1.00  0.00    -0.112 A  
HETATM   16  C   UNL     1     -10.113  14.140  65.537  1.00  0.00    -0.336 A  
HETATM   17  F   UNL     1     -11.067  17.507  67.659  1.00  0.00    -0.329 F  
HETATM   18  S   UNL     1      -5.466  14.637  67.785  1.00  0.00     0.041 SA 
HETATM   19  C   UNL     1     -11.441  14.466  65.761  1.00  0.00    -0.335 A  
ENDROOT
BRANCH   5  20
HETATM   20  N   UNL     1      -7.473  19.103  68.446  1.00  0.00    -0.294 NA 
HETATM   21  N   UNL     1      -6.991  20.233  67.892  1.00  0.00    -0.282 NA 
HETATM   22  C   UNL     1      -6.060  20.589  68.779  1.00  0.00    -0.338 A  
HETATM   23  C   UNL     1      -6.836  18.829  69.616  1.00  0.00    -0.025 A  
HETATM   24  N   UNL     1      -5.937  19.757  69.854  1.00  0.00    -0.278 NA 
ENDBRANCH   5  20
BRANCH  11  25
HETATM   25  C   UNL     1      -6.887  11.196  69.111  1.00  0.00    -0.102 A  
HETATM   26  C   UNL     1      -6.057  10.602  70.071  1.00  0.00    -0.099 A  
HETATM   27  C   UNL     1      -6.260   9.267  70.466  1.00  0.00    -0.058 A  
HETATM   28  C   UNL     1      -7.286   8.513  69.891  1.00  0.00    -0.051 A  
HETATM   29  C   UNL     1      -8.122   9.096  68.941  1.00  0.00    -0.100 A  
HETATM   30  C   UNL     1      -7.471   7.139  70.261  1.00  0.00    -0.085 C  
HETATM   31  N   UNL     1      -7.627   6.024  70.544  1.00  0.00    -0.090 NA 
HETATM   32  C   UNL     1      -7.923  10.425  68.554  1.00  0.00    -0.114 A  
ENDBRANCH  11  25
TORSDOF 2
ENDMDL
MODEL       65
REMARK 921   NORMALIZED FREE ENERGY PREDICTED BY IDOCK:   -2.32 KCAL/MOL
REMARK 922        TOTAL FREE ENERGY PREDICTED BY IDOCK:   -3.33 KCAL/MOL
REMARK 923 INTER-LIGAND FREE ENERGY PREDICTED BY IDOCK:   -3.68 KCAL/MOL
REMARK 924 INTRA-LIGAND FREE ENERGY PREDICTED BY IDOCK:    0.35 KCAL/MOL
REMARK 927      BINDING AFFINITY PREDICTED BY RF-SCORE:    0.00 PKD
ROOT
HETATM    1  C   UNL     1     -11.171   7.019  67.750  1.00  0.00    -0.044 C  
HETATM    2  C   UNL     1     -10.113   7.226  66.654  1.00  0.00    -0.238 C  
HETATM    3  C   UNL     1      -9.957   8.711  66.333  1.00  0.00    -0.260 A  
HETATM    4  C   UNL     1      -8.753   6.461  66.923  1.00  0.00    -0.115 C  
HETATM    5  C   UNL     1      -8.984   4.915  66.959  1.00  0.00    -0.109 C  
HETATM    6  C   UNL     1      -7.991   7.006  68.147  1.00  0.00    -0.119 A  
HETATM    7  N   UNL     1     -10.307   9.719  67.111  1.00  0.00    -0.237 NA 
HETATM    8  O   UNL     1      -7.876   6.648  65.779  1.00  0.00    -0.094 OA 
HETATM    9  H   UNL     1      -7.060   6.189  65.940  1.00  0.00     0.000 HD 
HETATM   10  F   UNL     1      -5.961   9.926  69.023  1.00  0.00    -0.036 F  
HETATM   11  C   UNL     1     -10.137  10.928  66.443  1.00  0.00    -0.231 A  
HETATM   12  C   UNL     1      -8.004   6.396  69.412  1.00  0.00    -0.110 A  
HETATM   13  C   UNL     1      -7.386   6.969  70.528  1.00  0.00    -0.076 A  
HETATM   14  C   UNL     1      -7.257   8.209  68.045  1.00  0.00    -0.094 A  
HETATM   15  C   UNL     1      -9.551  10.818  65.200  1.00  0.00    -0.245 A  
HETATM   16  C   UNL     1      -6.638   8.778  69.159  1.00  0.00    -0.047 A  
HETATM   17  F   UNL     1      -8.609   5.220  69.608  1.00  0.00    -0.093 F  
HETATM   18  S   UNL     1      -9.374   9.176  64.772  1.00  0.00     0.248 SA 
HETATM   19  C   UNL     1      -6.712   8.178  70.406  1.00  0.00    -0.037 A  
ENDROOT
BRANCH   5  20
HETATM   20  N   UNL     1      -9.768   4.374  65.862  1.00  0.00    -0.192 NA 
HETATM   21  N   UNL     1      -9.411   3.202  65.300  1.00  0.00    -0.140 NA 
HETATM   22  C   UNL     1     -10.330   3.076  64.341  1.00  0.00     0.048 A  
HETATM   23  C   UNL     1     -10.861   4.893  65.243  1.00  0.00     0.165 A  
HETATM   24  N   UNL     1     -11.242   4.090  64.276  1.00  0.00    -0.217 NA 
ENDBRANCH   5  20
BRANCH  11  25
HETATM   25  C   UNL     1     -10.572  12.206  67.009  1.00  0.00    -0.256 A  
HETATM   26  C   UNL     1     -10.331  13.408  66.331  1.00  0.00    -0.288 A  
HETATM   27  C   UNL     1     -10.707  14.639  66.900  1.00  0.00    -0.294 A  
HETATM   28  C   UNL     1     -11.313  14.675  68.158  1.00  0.00    -0.321 A  
HETATM   29  C   UNL     1     -11.563  13.485  68.838  1.00  0.00    -0.364 A  
HETATM   30  C   UNL     1     -11.660  15.930  68.761  1.00  0.00    -0.386 C  
HETATM   31  N   UNL     1     -11.939  16.939  69.263  1.00  0.00     0.815 NA 
HETATM   32  C   UNL     1     -11.194  12.262  68.268  1.00  0.00    -0.315 A  
ENDBRANCH  11  25
TORSDOF 2
ENDMDL
MODEL       66
REMARK 921   NORMALIZED FREE ENERGY PREDICTED BY IDOCK:   -2.00 KCAL/MOL
REMARK 922        TOTAL FREE ENERGY PREDICTED BY IDOCK:   -2.97 KCAL/MOL
REMARK 923 INTER-LIGAND FREE ENERGY PREDICTED BY IDOCK:   -2.42 KCAL/MOL
REMARK 924 INTRA-LIGAND FREE ENERGY PREDICTED BY IDOCK:   -0.55 KCAL/MOL
REMARK 927      BINDING AFFINITY PREDICTED BY RF-SCORE:    0.00 PKD
ROOT
HETATM    1  C   UNL     1      -8.916   6.023  72.533  1.00  0.00    -0.132 C  
HETATM    2  C   UNL     1      -9.666   5.393  71.348  1.00  0.00    -0.213 C  
HETATM    3  C   UNL     1     -10.252   6.477  70.446  1.00  0.00    -0.193 A  
HETATM    4  C   UNL     1      -8.841   4.275  70.588  1.00  0.00    -0.088 C  
HETATM    5  C   UNL     1      -8.528   3.074  71.538  1.00  0.00    -0.064 C  
HETATM    6  C   UNL     1      -7.602   4.835  69.862  1.00  0.00    -0.055 A  
HETATM    7  N   UNL     1      -9.860   7.737  70.385  1.00  0.00    -0.183 NA 
HETATM    8  O   UNL     1      -9.684   3.687  69.561  1.00  0.00    -0.177 OA 
HETATM    9  H   UNL     1      -9.189   3.016  69.105  1.00  0.00     0.000 HD 
HETATM   10  F   UNL     1      -6.843   6.765  66.843  1.00  0.00    -0.056 F  
HETATM   11  C   UNL     1     -10.701   8.465  69.548  1.00  0.00    -0.175 A  
HETATM   12  C   UNL     1      -6.294   4.750  70.369  1.00  0.00    -0.026 A  
HETATM   13  C   UNL     1      -5.203   5.356  69.736  1.00  0.00    -0.004 A  
HETATM   14  C   UNL     1      -7.749   5.516  68.633  1.00  0.00    -0.088 A  
HETATM   15  C   UNL     1     -11.657   7.712  68.900  1.00  0.00     0.985 A  
HETATM   16  C   UNL     1      -6.659   6.118  68.002  1.00  0.00    -0.062 A  
HETATM   17  F   UNL     1      -6.027   4.070  71.488  1.00  0.00    -0.011 F  
HETATM   18  S   UNL     1     -11.632   6.105  69.472  1.00  0.00     0.317 SA 
HETATM   19  C   UNL     1      -5.389   6.061  68.553  1.00  0.00    -0.007 A  
ENDROOT
BRANCH   5  20
HETATM   20  N   UNL     1      -9.657   2.570  72.302  1.00  0.00    -0.103 NA 
HETATM   21  N   UNL     1     -10.470   1.642  71.759  1.00  0.00    -0.009 NA 
HETATM   22  C   UNL     1     -11.370   1.476  72.729  1.00  0.00     0.000 A  
HETATM   23  C   UNL     1     -10.082   2.915  73.546  1.00  0.00    -0.111 A  
HETATM   24  N   UNL     1     -11.165   2.234  73.845  1.00  0.00    -0.187 NA 
ENDBRANCH   5  20
BRANCH  11  25
HETATM   25  C   UNL     1     -10.593   9.917  69.396  1.00  0.00    -0.250 A  
HETATM   26  C   UNL     1     -11.593  10.766  69.888  1.00  0.00    -0.410 A  
HETATM   27  C   UNL     1     -11.509  12.157  69.697  1.00  0.00    -0.308 A  
HETATM   28  C   UNL     1     -10.431  12.707  68.999  1.00  0.00    -0.026 A  
HETATM   29  C   UNL     1      -9.427  11.873  68.511  1.00  0.00    -0.151 A  
HETATM   30  C   UNL     1     -10.363  14.121  68.766  1.00  0.00    -0.229 C  
HETATM   31  N   UNL     1     -10.300  15.262  68.564  1.00  0.00    -0.227 NA 
HETATM   32  C   UNL     1      -9.509  10.490  68.707  1.00  0.00    -0.181 A  
ENDBRANCH  11  25
TORSDOF 2
ENDMDL
MODEL       67
REMARK 921   NORMALIZED FREE ENERGY PREDICTED BY IDOCK:   -1.93 KCAL/MOL
REMARK 922        TOTAL FREE ENERGY PREDICTED BY IDOCK:   -2.89 KCAL/MOL
REMARK 923 INTER-LIGAND FREE ENERGY PREDICTED BY IDOCK:   -2.75 KCAL/MOL
REMARK 924 INTRA-LIGAND FREE ENERGY PREDICTED BY IDOCK:   -0.14 KCAL/MOL
REMARK 927      BINDING AFFINITY PREDICTED BY RF-SCORE:    0.00 PKD
ROOT
HETATM    1  C   UNL     1     -10.758   5.792  70.942  1.00  0.00    -0.333 C  
HETATM    2  C   UNL     1      -9.528   4.888  71.116  1.00  0.00    -0.216 C  
HETATM    3  C   UNL     1      -8.565   5.060  69.943  1.00  0.00    -0.098 A  
HETATM    4  C   UNL     1      -8.853   4.988  72.545  1.00  0.00    -0.123 C  
HETATM    5  C   UNL     1      -9.844   4.522  73.660  1.00  0.00    -0.134 C  
HETATM    6  C   UNL     1      -8.219   6.367  72.812  1.00  0.00    -0.107 A  
HETATM    7  N   UNL     1      -8.515   6.091  69.120  1.00  0.00    -0.114 NA 
HETATM    8  O   UNL     1      -7.772   4.020  72.623  1.00  0.00    -0.071 OA 
HETATM    9  H   UNL     1      -7.367   4.080  73.480  1.00  0.00     0.000 HD 
HETATM   10  F   UNL     1      -5.240   8.245  71.806  1.00  0.00    -0.033 F  
HETATM   11  C   UNL     1      -7.604   5.849  68.096  1.00  0.00    -0.089 A  
HETATM   12  C   UNL     1      -8.829   7.373  73.580  1.00  0.00    -0.200 A  
HETATM   13  C   UNL     1      -8.274   8.650  73.720  1.00  0.00     0.106 A  
HETATM   14  C   UNL     1      -6.972   6.696  72.235  1.00  0.00    -0.068 A  
HETATM   15  C   UNL     1      -6.894   4.675  68.226  1.00  0.00    -0.055 A  
HETATM   16  C   UNL     1      -6.419   7.970  72.378  1.00  0.00    -0.068 A  
HETATM   17  F   UNL     1      -9.976   7.150  74.228  1.00  0.00    -0.324 F  
HETATM   18  S   UNL     1      -7.491   3.765  69.539  1.00  0.00    -0.052 SA 
HETATM   19  C   UNL     1      -7.070   8.958  73.100  1.00  0.00     0.257 A  
ENDROOT
BRANCH   5  20
HETATM   20  N   UNL     1     -10.524   3.262  73.407  1.00  0.00    -0.159 NA 
HETATM   21  N   UNL     1     -10.136   2.490  72.373  1.00  0.00    -0.157 NA 
HETATM   22  C   UNL     1     -11.001   1.478  72.457  1.00  0.00    -0.044 A  
HETATM   23  C   UNL     1     -11.576   2.702  74.061  1.00  0.00     0.296 A  
HETATM   24  N   UNL     1     -11.897   1.567  73.483  1.00  0.00    -0.206 NA 
ENDBRANCH   5  20
BRANCH  11  25
HETATM   25  C   UNL     1      -7.438   6.759  66.961  1.00  0.00    -0.087 A  
HETATM   26  C   UNL     1      -6.592   7.872  67.053  1.00  0.00    -0.060 A  
HETATM   27  C   UNL     1      -6.471   8.772  65.978  1.00  0.00    -0.057 A  
HETATM   28  C   UNL     1      -7.209   8.571  64.809  1.00  0.00    -0.085 A  
HETATM   29  C   UNL     1      -8.048   7.464  64.703  1.00  0.00    -0.092 A  
HETATM   30  C   UNL     1      -7.122   9.509  63.726  1.00  0.00    -0.108 C  
HETATM   31  N   UNL     1      -7.066  10.263  62.846  1.00  0.00    -0.135 NA 
HETATM   32  C   UNL     1      -8.162   6.567  65.771  1.00  0.00    -0.135 A  
ENDBRANCH  11  25
TORSDOF 2
ENDMDL
MODEL       68
REMARK 921   NORMALIZED FREE ENERGY PREDICTED BY IDOCK:   -1.80 KCAL/MOL
REMARK 922        TOTAL FREE ENERGY PREDICTED BY IDOCK:   -2.75 KCAL/MOL
REMARK 923 INTER-LIGAND FREE ENERGY PREDICTED BY IDOCK:   -1.96 KCAL/MOL
REMARK 924 INTRA-LIGAND FREE ENERGY PREDICTED BY IDOCK:   -0.80 KCAL/MOL
REMARK 927      BINDING AFFINITY PREDICTED BY RF-SCORE:    0.00 PKD
ROOT
HETATM    1  C   UNL     1      -9.527   9.380  66.799  1.00  0.00    -0.217 C  
HETATM    2  C   UNL     1      -8.671   9.605  68.056  1.00  0.00    -0.119 C  
HETATM    3  C   UNL     1      -8.452  11.097  68.298  1.00  0.00    -0.145 A  
HETATM    4  C   UNL     1      -9.168   8.797  69.324  1.00  0.00    -0.149 C  
HETATM    5  C   UNL     1      -9.090   7.257  69.065  1.00  0.00    -0.133 C  
HETATM    6  C   UNL     1     -10.541   9.273  69.838  1.00  0.00    -0.246 A  
HETATM    7  N   UNL     1      -9.190  12.081  67.816  1.00  0.00    -0.183 NA 
HETATM    8  O   UNL     1      -8.229   9.007  70.413  1.00  0.00    -0.115 OA 
HETATM    9  H   UNL     1      -8.527   8.523  71.173  1.00  0.00     0.000 HD 
HETATM   10  F   UNL     1     -11.928  12.105  71.701  1.00  0.00     0.054 F  
HETATM   11  C   UNL     1      -8.623  13.312  68.135  1.00  0.00    -0.177 A  
HETATM   12  C   UNL     1     -11.751   8.613  69.564  1.00  0.00     0.769 A  
HETATM   13  C   UNL     1     -12.991   9.126  69.959  1.00  0.00     1.445 A  
HETATM   14  C   UNL     1     -10.639  10.460  70.597  1.00  0.00     0.134 A  
HETATM   15  C   UNL     1      -7.516  13.237  68.954  1.00  0.00     0.002 A  
HETATM   16  C   UNL     1     -11.877  10.969  70.992  1.00  0.00    -0.108 A  
HETATM   17  F   UNL     1     -11.771   7.446  68.913  1.00  0.00     0.287 F  
HETATM   18  S   UNL     1      -7.059  11.610  69.185  1.00  0.00    -0.053 SA 
HETATM   19  C   UNL     1     -13.058  10.322  70.663  1.00  0.00    -0.292 A  
ENDROOT
BRANCH   5  20
HETATM   20  N   UNL     1      -7.837   6.779  68.505  1.00  0.00    -0.116 NA 
HETATM   21  N   UNL     1      -6.695   6.918  69.207  1.00  0.00    -0.048 NA 
HETATM   22  C   UNL     1      -5.799   6.406  68.361  1.00  0.00    -0.016 A  
HETATM   23  C   UNL     1      -7.595   6.201  67.298  1.00  0.00    -0.093 A  
HETATM   24  N   UNL     1      -6.312   5.949  67.181  1.00  0.00    -0.037 NA 
ENDBRANCH   5  20
BRANCH  11  25
HETATM   25  C   UNL     1      -9.148  14.577  67.618  1.00  0.00    -0.195 A  
HETATM   26  C   UNL     1      -9.288  14.784  66.239  1.00  0.00    -0.310 A  
HETATM   27  C   UNL     1      -9.747  16.017  65.743  1.00  0.00    -0.340 A  
HETATM   28  C   UNL     1     -10.054  17.058  66.623  1.00  0.00    -0.308 A  
HETATM   29  C   UNL     1      -9.925  16.861  67.997  1.00  0.00    -0.279 A  
HETATM   30  C   UNL     1     -10.482  18.331  66.120  1.00  0.00    -0.383 C  
HETATM   31  N   UNL     1     -10.822  19.369  65.726  1.00  0.00    -0.385 NA 
HETATM   32  C   UNL     1      -9.474  15.631  68.488  1.00  0.00    -0.200 A  
ENDBRANCH  11  25
TORSDOF 2
ENDMDL
MODEL       69
REMARK 921   NORMALIZED FREE ENERGY PREDICTED BY IDOCK:   -1.51 KCAL/MOL
REMARK 922        TOTAL FREE ENERGY PREDICTED BY IDOCK:   -2.43 KCAL/MOL
REMARK 923 INTER-LIGAND FREE ENERGY PREDICTED BY IDOCK:   -1.64 KCAL/MOL
REMARK 924 INTRA-LIGAND FREE ENERGY PREDICTED BY IDOCK:   -0.79 KCAL/MOL
REMARK 927      BINDING AFFINITY PREDICTED BY RF-SCORE:    0.00 PKD
ROOT
HETATM    1  C   UNL     1      -9.676   9.368  70.065  1.00  0.00    -0.255 C  
HETATM    2  C   UNL     1     -10.599   8.164  70.306  1.00  0.00    -0.228 C  
HETATM    3  C   UNL     1     -10.376   7.093  69.240  1.00  0.00    -0.203 A  
HETATM    4  C   UNL     1     -10.577   7.627  71.796  1.00  0.00    -0.214 C  
HETATM    5  C   UNL     1     -11.091   8.720  72.788  1.00  0.00     0.381 C  
HETATM    6  C   UNL     1      -9.219   7.015  72.192  1.00  0.00    -0.142 A  
HETATM    7  N   UNL     1      -9.304   6.962  68.479  1.00  0.00    -0.135 NA 
HETATM    8  O   UNL     1     -11.557   6.561  71.926  1.00  0.00    -0.281 OA 
HETATM    9  H   UNL     1     -11.544   6.239  72.819  1.00  0.00     0.000 HD 
HETATM   10  F   UNL     1      -7.319   3.946  71.570  1.00  0.00    -0.042 F  
HETATM   11  C   UNL     1      -9.502   5.958  67.535  1.00  0.00    -0.110 A  
HETATM   12  C   UNL     1      -8.248   7.691  72.950  1.00  0.00    -0.120 A  
HETATM   13  C   UNL     1      -6.985   7.147  73.207  1.00  0.00    -0.072 A  
HETATM   14  C   UNL     1      -8.872   5.718  71.753  1.00  0.00    -0.136 A  
HETATM   15  C   UNL     1     -10.688   5.269  67.671  1.00  0.00     0.042 A  
HETATM   16  C   UNL     1      -7.612   5.176  72.013  1.00  0.00    -0.097 A  
HETATM   17  F   UNL     1      -8.494   8.895  73.475  1.00  0.00    -0.096 F  
HETATM   18  S   UNL     1     -11.658   5.991  68.873  1.00  0.00     1.020 SA 
HETATM   19  C   UNL     1      -6.656   5.888  72.721  1.00  0.00    -0.068 A  
ENDROOT
BRANCH   5  20
HETATM   20  N   UNL     1     -12.330   9.378  72.407  1.00  0.00    -0.220 NA 
HETATM   21  N   UNL     1     -13.466   8.660  72.315  1.00  0.00    -0.379 NA 
HETATM   22  C   UNL     1     -14.337   9.590  71.919  1.00  0.00     0.138 A  
HETATM   23  C   UNL     1     -12.552  10.678  72.077  1.00  0.00    -0.064 A  
HETATM   24  N   UNL     1     -13.817  10.843  71.768  1.00  0.00     0.207 NA 
ENDBRANCH   5  20
BRANCH  11  25
HETATM   25  C   UNL     1      -8.537   5.682  66.469  1.00  0.00    -0.119 A  
HETATM   26  C   UNL     1      -8.315   6.611  65.444  1.00  0.00    -0.130 A  
HETATM   27  C   UNL     1      -7.423   6.323  64.395  1.00  0.00    -0.088 A  
HETATM   28  C   UNL     1      -6.759   5.095  64.357  1.00  0.00    -0.047 A  
HETATM   29  C   UNL     1      -6.967   4.165  65.374  1.00  0.00    -0.058 A  
HETATM   30  C   UNL     1      -5.881   4.779  63.267  1.00  0.00    -0.017 C  
HETATM   31  N   UNL     1      -5.173   4.507  62.388  1.00  0.00    -0.009 NA 
HETATM   32  C   UNL     1      -7.849   4.457  66.420  1.00  0.00    -0.098 A  
ENDBRANCH  11  25
TORSDOF 2
ENDMDL
MODEL       70
REMARK 921   NORMALIZED FREE ENERGY PREDICTED BY IDOCK:   -0.14 KCAL/MOL
REMARK 922        TOTAL FREE ENERGY PREDICTED BY IDOCK:   -0.89 KCAL/MOL
REMARK 923 INTER-LIGAND FREE ENERGY PREDICTED BY IDOCK:   -0.18 KCAL/MOL
REMARK 924 INTRA-LIGAND FREE ENERGY PREDICTED BY IDOCK:   -0.71 KCAL/MOL
REMARK 927      BINDING AFFINITY PREDICTED BY RF-SCORE:    0.00 PKD
ROOT
HETATM    1  C   UNL     1      -9.689  11.910  66.508  1.00  0.00    -0.226 C  
HETATM    2  C   UNL     1      -9.780  12.955  67.632  1.00  0.00    -0.212 C  
HETATM    3  C   UNL     1     -10.321  12.322  68.912  1.00  0.00    -0.059 A  
HETATM    4  C   UNL     1      -8.459  13.808  67.823  1.00  0.00    -0.181 C  
HETATM    5  C   UNL     1      -8.145  14.640  66.538  1.00  0.00     0.502 C  
HETATM    6  C   UNL     1      -7.270  12.966  68.327  1.00  0.00    -0.112 A  
HETATM    7  N   UNL     1     -10.319  11.034  69.206  1.00  0.00    -0.193 NA 
HETATM    8  O   UNL     1      -8.698  14.822  68.836  1.00  0.00    -0.175 OA 
HETATM    9  H   UNL     1      -7.906  15.334  68.951  1.00  0.00     0.000 HD 
HETATM   10  F   UNL     1      -6.147  11.418  71.450  1.00  0.00     0.167 F  
HETATM   11  C   UNL     1     -11.006  10.808  70.395  1.00  0.00     0.020 A  
HETATM   12  C   UNL     1      -6.244  12.487  67.496  1.00  0.00    -0.155 A  
HETATM   13  C   UNL     1      -5.233  11.640  67.964  1.00  0.00    -0.045 A  
HETATM   14  C   UNL     1      -7.191  12.597  69.688  1.00  0.00     0.515 A  
HETATM   15  C   UNL     1     -11.424  11.952  71.042  1.00  0.00     1.409 A  
HETATM   16  C   UNL     1      -6.180  11.754  70.154  1.00  0.00    -0.104 A  
HETATM   17  F   UNL     1      -6.180  12.829  66.206  1.00  0.00     0.906 F  
HETATM   18  S   UNL     1     -11.122  13.323  70.073  1.00  0.00     0.568 SA 
HETATM   19  C   UNL     1      -5.210  11.255  69.299  1.00  0.00    -0.044 A  
ENDROOT
BRANCH   5  20
HETATM   20  N   UNL     1      -9.263  15.385  65.986  1.00  0.00    -0.325 NA 
HETATM   21  N   UNL     1      -9.644  16.543  66.561  1.00  0.00    -0.256 NA 
HETATM   22  C   UNL     1     -10.689  16.885  65.806  1.00  0.00    -0.160 A  
HETATM   23  C   UNL     1     -10.068  15.082  64.932  1.00  0.00    -0.144 A  
HETATM   24  N   UNL     1     -10.979  16.018  64.792  1.00  0.00    -0.609 NA 
ENDBRANCH   5  20
BRANCH  11  25
HETATM   25  C   UNL     1     -11.284   9.462  70.899  1.00  0.00    -0.393 A  
HETATM   26  C   UNL     1     -11.693   9.263  72.224  1.00  0.00    -0.075 A  
HETATM   27  C   UNL     1     -11.912   7.965  72.719  1.00  0.00    -0.223 A  
HETATM   28  C   UNL     1     -11.707   6.856  71.895  1.00  0.00    -0.334 A  
HETATM   29  C   UNL     1     -11.307   7.042  70.573  1.00  0.00    -0.355 A  
HETATM   30  C   UNL     1     -11.889   5.527  72.407  1.00  0.00    -0.051 C  
HETATM   31  N   UNL     1     -12.025   4.448  72.811  1.00  0.00     0.355 NA 
HETATM   32  C   UNL     1     -11.096   8.334  70.081  1.00  0.00    -0.189 A  
ENDBRANCH  11  25
TORSDOF 2
ENDMDL
MODEL       71
REMARK 921   NORMALIZED FREE ENERGY PREDICTED BY IDOCK:    0.66 KCAL/MOL
REMARK 922        TOTAL FREE ENERGY PREDICTED BY IDOCK:   -0.00 KCAL/MOL
REMARK 923 INTER-LIGAND FREE ENERGY PREDICTED BY IDOCK:    0.10 KCAL/MOL
REMARK 924 INTRA-LIGAND FREE ENERGY PREDICTED BY IDOCK:   -0.11 KCAL/MOL
REMARK 927      BINDING AFFINITY PREDICTED BY RF-SCORE:    0.00 PKD
ROOT
HETATM    1  C   UNL     1      -8.120  12.934  69.001  1.00  0.00     0.351 C  
HETATM    2  C   UNL     1      -9.168  13.216  67.913  1.00  0.00    -0.207 C  
HETATM    3  C   UNL     1      -9.451  11.954  67.101  1.00  0.00    -0.178 A  
HETATM    4  C   UNL     1     -10.459  13.963  68.444  1.00  0.00    -0.247 C  
HETATM    5  C   UNL     1     -10.091  15.374  69.009  1.00  0.00    -0.234 C  
HETATM    6  C   UNL     1     -11.294  13.103  69.413  1.00  0.00    -0.276 A  
HETATM    7  N   UNL     1      -9.210  10.712  67.480  1.00  0.00    -0.143 NA 
HETATM    8  O   UNL     1     -11.325  14.263  67.316  1.00  0.00    -0.305 OA 
HETATM    9  H   UNL     1     -12.100  14.711  67.634  1.00  0.00     0.000 HD 
HETATM   10  F   UNL     1     -13.597  10.260  69.250  1.00  0.00     0.911 F  
HETATM   11  C   UNL     1      -9.474   9.828  66.437  1.00  0.00    -0.184 A  
HETATM   12  C   UNL     1     -11.252  13.236  70.811  1.00  0.00     1.443 A  
HETATM   13  C   UNL     1     -11.944  12.372  71.668  1.00  0.00     1.199 A  
HETATM   14  C   UNL     1     -12.131  12.082  68.910  1.00  0.00    -0.201 A  
HETATM   15  C   UNL     1     -10.021  10.413  65.315  1.00  0.00    -0.309 A  
HETATM   16  C   UNL     1     -12.823  11.223  69.767  1.00  0.00     0.258 A  
HETATM   17  F   UNL     1     -10.548  14.211  71.393  1.00  0.00     1.078 F  
HETATM   18  S   UNL     1     -10.040  12.110  65.482  1.00  0.00    -0.248 SA 
HETATM   19  C   UNL     1     -12.721  11.347  71.143  1.00  0.00    -0.479 A  
ENDROOT
BRANCH   5  20
HETATM   20  N   UNL     1      -9.237  16.185  68.157  1.00  0.00    -0.191 NA 
HETATM   21  N   UNL     1      -7.898  16.052  68.233  1.00  0.00    -0.140 NA 
HETATM   22  C   UNL     1      -7.489  16.965  67.350  1.00  0.00    -0.162 A  
HETATM   23  C   UNL     1      -9.577  17.142  67.254  1.00  0.00    -0.245 A  
HETATM   24  N   UNL     1      -8.489  17.651  66.723  1.00  0.00    -0.241 NA 
ENDBRANCH   5  20
BRANCH  11  25
HETATM   25  C   UNL     1      -9.169   8.399  66.523  1.00  0.00    -0.238 A  
HETATM   26  C   UNL     1      -8.336   7.786  65.577  1.00  0.00    -0.151 A  
HETATM   27  C   UNL     1      -8.083   6.404  65.634  1.00  0.00    -0.131 A  
HETATM   28  C   UNL     1      -8.675   5.622  66.628  1.00  0.00    -0.118 A  
HETATM   29  C   UNL     1      -9.499   6.221  67.579  1.00  0.00    -0.115 A  
HETATM   30  C   UNL     1      -8.453   4.204  66.665  1.00  0.00    -0.104 C  
HETATM   31  N   UNL     1      -8.289   3.056  66.702  1.00  0.00    -0.090 NA 
HETATM   32  C   UNL     1      -9.745   7.597  67.524  1.00  0.00    -0.197 A  
ENDBRANCH  11  25
TORSDOF 2
ENDMDL
MODEL       72
REMARK 921   NORMALIZED FREE ENERGY PREDICTED BY IDOCK:    2.15 KCAL/MOL
REMARK 922        TOTAL FREE ENERGY PREDICTED BY IDOCK:    1.66 KCAL/MOL
REMARK 923 INTER-LIGAND FREE ENERGY PREDICTED BY IDOCK:    1.99 KCAL/MOL
REMARK 924 INTRA-LIGAND FREE ENERGY PREDICTED BY IDOCK:   -0.33 KCAL/MOL
REMARK 927      BINDING AFFINITY PREDICTED BY RF-SCORE:    0.00 PKD
ROOT
HETATM    1  C   UNL     1     -11.819  12.682  68.820  1.00  0.00    -0.341 C  
HETATM    2  C   UNL     1     -10.643  13.513  69.357  1.00  0.00     0.137 C  
HETATM    3  C   UNL     1      -9.315  12.945  68.860  1.00  0.00     0.290 A  
HETATM    4  C   UNL     1     -10.813  15.074  69.152  1.00  0.00    -0.251 C  
HETATM    5  C   UNL     1     -12.058  15.604  69.935  1.00  0.00    -0.341 C  
HETATM    6  C   UNL     1     -10.787  15.490  67.668  1.00  0.00    -0.306 A  
HETATM    7  N   UNL     1      -9.145  12.161  67.811  1.00  0.00    -0.181 NA 
HETATM    8  O   UNL     1      -9.696  15.754  69.786  1.00  0.00    -0.275 OA 
HETATM    9  H   UNL     1      -9.798  16.691  69.663  1.00  0.00     0.000 HD 
HETATM   10  F   UNL     1      -8.326  15.894  64.986  1.00  0.00     1.474 F  
HETATM   11  C   UNL     1      -7.822  11.736  67.735  1.00  0.00    -0.135 A  
HETATM   12  C   UNL     1     -11.939  15.770  66.915  1.00  0.00     0.796 A  
HETATM   13  C   UNL     1     -11.890  16.046  65.543  1.00  0.00     0.814 A  
HETATM   14  C   UNL     1      -9.558  15.565  66.976  1.00  0.00    -0.233 A  
HETATM   15  C   UNL     1      -6.983  12.300  68.672  1.00  0.00    -0.097 A  
HETATM   16  C   UNL     1      -9.511  15.843  65.608  1.00  0.00    -0.182 A  
HETATM   17  F   UNL     1     -13.149  15.796  67.482  1.00  0.00     1.776 F  
HETATM   18  S   UNL     1      -7.880  13.234  69.783  1.00  0.00     1.680 SA 
HETATM   19  C   UNL     1     -10.669  16.065  64.880  1.00  0.00    -0.339 A  
ENDROOT
BRANCH   5  20
HETATM   20  N   UNL     1     -12.160  15.167  71.318  1.00  0.00    -0.312 NA 
HETATM   21  N   UNL     1     -13.001  14.166  71.641  1.00  0.00    -0.330 NA 
HETATM   22  C   UNL     1     -12.834  14.093  72.963  1.00  0.00    -0.282 A  
HETATM   23  C   UNL     1     -11.530  15.645  72.423  1.00  0.00    -0.337 A  
HETATM   24  N   UNL     1     -11.934  14.980  73.481  1.00  0.00    -0.370 NA 
ENDBRANCH   5  20
BRANCH  11  25
HETATM   25  C   UNL     1      -7.370  10.748  66.753  1.00  0.00    -0.129 A  
HETATM   26  C   UNL     1      -6.307   9.883  67.044  1.00  0.00    -0.065 A  
HETATM   27  C   UNL     1      -5.844   8.967  66.082  1.00  0.00    -0.054 A  
HETATM   28  C   UNL     1      -6.431   8.924  64.815  1.00  0.00    -0.066 A  
HETATM   29  C   UNL     1      -7.493   9.775  64.516  1.00  0.00    -0.135 A  
HETATM   30  C   UNL     1      -5.934   8.021  63.816  1.00  0.00    -0.062 C  
HETATM   31  N   UNL     1      -5.537   7.302  62.996  1.00  0.00    -0.040 NA 
HETATM   32  C   UNL     1      -7.956  10.680  65.477  1.00  0.00    -0.116 A  
ENDBRANCH  11  25
TORSDOF 2
ENDMDL
MODEL       73
REMARK 921   NORMALIZED FREE ENERGY PREDICTED BY IDOCK:    2.84 KCAL/MOL
REMARK 922        TOTAL FREE ENERGY PREDICTED BY IDOCK:    2.43 KCAL/MOL
REMARK 923 INTER-LIGAND FREE ENERGY PREDICTED BY IDOCK:    2.53 KCAL/MOL
REMARK 924 INTRA-LIGAND FREE ENERGY PREDICTED BY IDOCK:   -0.10 KCAL/MOL
REMARK 927      BINDING AFFINITY PREDICTED BY RF-SCORE:    0.00 PKD
ROOT
HETATM    1  C   UNL     1      -9.394  16.109  70.430  1.00  0.00     1.438 C  
HETATM    2  C   UNL     1      -8.185  15.666  69.591  1.00  0.00    -0.068 C  
HETATM    3  C   UNL     1      -8.102  14.142  69.531  1.00  0.00     0.467 A  
HETATM    4  C   UNL     1      -8.079  16.388  68.186  1.00  0.00    -0.165 C  
HETATM    5  C   UNL     1      -7.887  17.929  68.368  1.00  0.00    -0.286 C  
HETATM    6  C   UNL     1      -9.229  16.012  67.231  1.00  0.00    -0.215 A  
HETATM    7  N   UNL     1      -9.092  13.297  69.762  1.00  0.00     1.897 NA 
HETATM    8  O   UNL     1      -6.852  15.967  67.532  1.00  0.00    -0.150 OA 
HETATM    9  H   UNL     1      -6.788  16.400  66.689  1.00  0.00     0.000 HD 
HETATM   10  F   UNL     1     -10.234  13.170  65.151  1.00  0.00    -0.288 F  
HETATM   11  C   UNL     1      -8.623  11.987  69.744  1.00  0.00     2.076 A  
HETATM   12  C   UNL     1     -10.353  16.824  67.003  1.00  0.00    -0.300 A  
HETATM   13  C   UNL     1     -11.429  16.409  66.209  1.00  0.00     0.730 A  
HETATM   14  C   UNL     1      -9.212  14.771  66.557  1.00  0.00    -0.304 A  
HETATM   15  C   UNL     1      -7.297  11.857  69.388  1.00  0.00     0.182 A  
HETATM   16  C   UNL     1     -10.284  14.360  65.763  1.00  0.00    -0.337 A  
HETATM   17  F   UNL     1     -10.444  18.047  67.533  1.00  0.00    -0.335 F  
HETATM   18  S   UNL     1      -6.569  13.393  69.249  1.00  0.00    -0.069 SA 
HETATM   19  C   UNL     1     -11.403  15.161  65.599  1.00  0.00    -0.255 A  
ENDROOT
BRANCH   5  20
HETATM   20  N   UNL     1      -6.865  18.324  69.322  1.00  0.00    -0.235 NA 
HETATM   21  N   UNL     1      -6.079  17.386  69.886  1.00  0.00    -0.231 NA 
HETATM   22  C   UNL     1      -5.324  18.125  70.700  1.00  0.00    -0.259 A  
HETATM   23  C   UNL     1      -6.561  19.560  69.800  1.00  0.00    -0.264 A  
HETATM   24  N   UNL     1      -5.584  19.465  70.673  1.00  0.00    -0.233 NA 
ENDBRANCH   5  20
BRANCH  11  25
HETATM   25  C   UNL     1      -9.467  10.846  70.103  1.00  0.00     1.202 A  
HETATM   26  C   UNL     1     -10.815  10.804  69.723  1.00  0.00    -0.284 A  
HETATM   27  C   UNL     1     -11.636   9.730  70.110  1.00  0.00    -0.239 A  
HETATM   28  C   UNL     1     -11.117   8.697  70.894  1.00  0.00    -0.310 A  
HETATM   29  C   UNL     1      -9.776   8.724  71.272  1.00  0.00    -0.335 A  
HETATM   30  C   UNL     1     -11.961   7.620  71.327  1.00  0.00    -0.306 C  
HETATM   31  N   UNL     1     -12.634   6.747  71.690  1.00  0.00    -0.358 NA 
HETATM   32  C   UNL     1      -8.959   9.790  70.881  1.00  0.00     0.367 A  
ENDBRANCH  11  25
TORSDOF 2
ENDMDL
MODEL       74
REMARK 921   NORMALIZED FREE ENERGY PREDICTED BY IDOCK:    3.64 KCAL/MOL
REMARK 922        TOTAL FREE ENERGY PREDICTED BY IDOCK:    3.33 KCAL/MOL
REMARK 923 INTER-LIGAND FREE ENERGY PREDICTED BY IDOCK:    2.93 KCAL/MOL
REMARK 924 INTRA-LIGAND FREE ENERGY PREDICTED BY IDOCK:    0.41 KCAL/MOL
REMARK 927      BINDING AFFINITY PREDICTED BY RF-SCORE:    0.00 PKD
ROOT
HETATM    1  C   UNL     1      -8.796  10.919  69.980  1.00  0.00     1.090 C  
HETATM    2  C   UNL     1      -9.952  11.108  68.986  1.00  0.00    -0.155 C  
HETATM    3  C   UNL     1      -9.765  10.206  67.767  1.00  0.00    -0.153 A  
HETATM    4  C   UNL     1     -11.388  11.034  69.649  1.00  0.00    -0.292 C  
HETATM    5  C   UNL     1     -11.577  12.182  70.693  1.00  0.00     0.480 C  
HETATM    6  C   UNL     1     -11.723   9.632  70.196  1.00  0.00    -0.143 A  
HETATM    7  N   UNL     1      -9.013   9.121  67.708  1.00  0.00    -0.127 NA 
HETATM    8  O   UNL     1     -12.388  11.326  68.636  1.00  0.00    -0.562 OA 
HETATM    9  H   UNL     1     -13.250  11.282  69.034  1.00  0.00     0.000 HD 
HETATM   10  F   UNL     1     -12.687   6.349  68.892  1.00  0.00     1.649 F  
HETATM   11  C   UNL     1      -8.981   8.626  66.407  1.00  0.00    -0.161 A  
HETATM   12  C   UNL     1     -11.627   9.279  71.552  1.00  0.00    -0.382 A  
HETATM   13  C   UNL     1     -11.841   7.972  72.004  1.00  0.00    -0.376 A  
HETATM   14  C   UNL     1     -12.114   8.603  69.312  1.00  0.00     1.892 A  
HETATM   15  C   UNL     1      -9.805   9.287  65.522  1.00  0.00    -0.085 A  
HETATM   16  C   UNL     1     -12.329   7.299  69.764  1.00  0.00     0.907 A  
HETATM   17  F   UNL     1     -11.333  10.189  72.486  1.00  0.00     0.930 F  
HETATM   18  S   UNL     1     -10.494  10.659  66.266  1.00  0.00    -0.164 SA 
HETATM   19  C   UNL     1     -12.177   6.970  71.102  1.00  0.00    -0.427 A  
ENDROOT
BRANCH   5  20
HETATM   20  N   UNL     1     -11.194  13.509  70.240  1.00  0.00     0.208 NA 
HETATM   21  N   UNL     1     -11.811  14.592  70.751  1.00  0.00    -0.302 NA 
HETATM   22  C   UNL     1     -11.221  15.579  70.074  1.00  0.00    -0.315 A  
HETATM   23  C   UNL     1     -10.277  13.871  69.304  1.00  0.00     0.140 A  
HETATM   24  N   UNL     1     -10.269  15.179  69.181  1.00  0.00    -0.240 NA 
ENDBRANCH   5  20
BRANCH  11  25
HETATM   25  C   UNL     1      -8.118   7.511  66.013  1.00  0.00    -0.123 A  
HETATM   26  C   UNL     1      -7.180   7.660  64.983  1.00  0.00    -0.066 A  
HETATM   27  C   UNL     1      -6.387   6.573  64.573  1.00  0.00    -0.038 A  
HETATM   28  C   UNL     1      -6.538   5.325  65.182  1.00  0.00    -0.040 A  
HETATM   29  C   UNL     1      -7.463   5.167  66.212  1.00  0.00    -0.087 A  
HETATM   30  C   UNL     1      -5.760   4.203  64.740  1.00  0.00    -0.014 C  
HETATM   31  N   UNL     1      -5.143   3.286  64.386  1.00  0.00    -0.008 NA 
HETATM   32  C   UNL     1      -8.247   6.250  66.622  1.00  0.00    -0.111 A  
ENDBRANCH  11  25
TORSDOF 2
ENDMDL
MODEL       75
REMARK 921   NORMALIZED FREE ENERGY PREDICTED BY IDOCK:    3.95 KCAL/MOL
REMARK 922        TOTAL FREE ENERGY PREDICTED BY IDOCK:    3.68 KCAL/MOL
REMARK 923 INTER-LIGAND FREE ENERGY PREDICTED BY IDOCK:    3.49 KCAL/MOL
REMARK 924 INTRA-LIGAND FREE ENERGY PREDICTED BY IDOCK:    0.19 KCAL/MOL
REMARK 927      BINDING AFFINITY PREDICTED BY RF-SCORE:    0.00 PKD
ROOT
HETATM    1  C   UNL     1     -10.088  10.364  71.304  1.00  0.00     2.154 C  
HETATM    2  C   UNL     1     -10.965  10.434  70.044  1.00  0.00    -0.370 C  
HETATM    3  C   UNL     1     -10.655   9.266  69.109  1.00  0.00    -0.212 A  
HETATM    4  C   UNL     1     -12.504  10.650  70.344  1.00  0.00    -0.338 C  
HETATM    5  C   UNL     1     -12.743  12.017  71.064  1.00  0.00    -0.241 C  
HETATM    6  C   UNL     1     -13.150   9.447  71.061  1.00  0.00    -0.214 A  
HETATM    7  N   UNL     1     -10.074   8.129  69.448  1.00  0.00    -0.190 NA 
HETATM    8  O   UNL     1     -13.212  10.800  69.083  1.00  0.00    -0.032 OA 
HETATM    9  H   UNL     1     -14.136  10.930  69.263  1.00  0.00     0.000 HD 
HETATM   10  F   UNL     1     -14.279   6.061  70.239  1.00  0.00     2.797 F  
HETATM   11  C   UNL     1      -9.837   7.352  68.317  1.00  0.00    -0.160 A  
HETATM   12  C   UNL     1     -13.398   9.402  72.443  1.00  0.00    -0.424 A  
HETATM   13  C   UNL     1     -13.891   8.257  73.079  1.00  0.00     0.454 A  
HETATM   14  C   UNL     1     -13.488   8.286  70.330  1.00  0.00     1.331 A  
HETATM   15  C   UNL     1     -10.347   7.872  67.147  1.00  0.00    -0.328 A  
HETATM   16  C   UNL     1     -13.982   7.146  70.966  1.00  0.00     0.137 A  
HETATM   17  F   UNL     1     -13.181  10.466  73.221  1.00  0.00     1.044 F  
HETATM   18  S   UNL     1     -10.973   9.436  67.417  1.00  0.00     0.177 SA 
HETATM   19  C   UNL     1     -14.168   7.114  72.339  1.00  0.00     0.058 A  
ENDROOT
BRANCH   5  20
HETATM   20  N   UNL     1     -12.084  13.164  70.463  1.00  0.00    -0.346 NA 
HETATM   21  N   UNL     1     -12.063  14.341  71.118  1.00  0.00    -0.345 NA 
HETATM   22  C   UNL     1     -11.419  15.120  70.247  1.00  0.00    -0.282 A  
HETATM   23  C   UNL     1     -11.465  13.271  69.257  1.00  0.00    -0.288 A  
HETATM   24  N   UNL     1     -11.030  14.499  69.094  1.00  0.00    -0.261 NA 
ENDBRANCH   5  20
BRANCH  11  25
HETATM   25  C   UNL     1      -9.081   6.099  68.370  1.00  0.00    -0.113 A  
HETATM   26  C   UNL     1      -7.994   5.954  69.242  1.00  0.00    -0.099 A  
HETATM   27  C   UNL     1      -7.240   4.767  69.256  1.00  0.00    -0.052 A  
HETATM   28  C   UNL     1      -7.560   3.722  68.385  1.00  0.00    -0.061 A  
HETATM   29  C   UNL     1      -8.644   3.852  67.519  1.00  0.00    -0.111 A  
HETATM   30  C   UNL     1      -6.769   2.525  68.367  1.00  0.00    -0.036 C  
HETATM   31  N   UNL     1      -6.132   1.555  68.336  1.00  0.00    -0.024 NA 
HETATM   32  C   UNL     1      -9.396   5.032  67.511  1.00  0.00    -0.138 A  
ENDBRANCH  11  25
TORSDOF 2
ENDMDL
MODEL       76
REMARK 921   NORMALIZED FREE ENERGY PREDICTED BY IDOCK:    5.55 KCAL/MOL
REMARK 922        TOTAL FREE ENERGY PREDICTED BY IDOCK:    5.46 KCAL/MOL
REMARK 923 INTER-LIGAND FREE ENERGY PREDICTED BY IDOCK:    5.98 KCAL/MOL
REMARK 924 INTRA-LIGAND FREE ENERGY PREDICTED BY IDOCK:   -0.52 KCAL/MOL
REMARK 927      BINDING AFFINITY PREDICTED BY RF-SCORE:    0.00 PKD
ROOT
HETATM    1  C   UNL     1      -6.703  15.295  68.528  1.00  0.00    -0.112 C  
HETATM    2  C   UNL     1      -7.813  15.757  67.572  1.00  0.00    -0.182 C  
HETATM    3  C   UNL     1      -8.376  14.572  66.789  1.00  0.00    -0.006 A  
HETATM    4  C   UNL     1      -8.906  16.678  68.254  1.00  0.00    -0.214 C  
HETATM    5  C   UNL     1      -8.265  18.002  68.782  1.00  0.00    -0.218 C  
HETATM    6  C   UNL     1      -9.746  15.929  69.309  1.00  0.00    -0.263 A  
HETATM    7  N   UNL     1      -8.285  13.299  67.130  1.00  0.00    -0.153 NA 
HETATM    8  O   UNL     1      -9.839  17.132  67.237  1.00  0.00    -0.253 OA 
HETATM    9  H   UNL     1     -10.495  17.684  67.647  1.00  0.00     0.000 HD 
HETATM   10  F   UNL     1     -12.459  13.471  69.397  1.00  0.00    -0.331 F  
HETATM   11  C   UNL     1      -8.799  12.491  66.119  1.00  0.00     0.165 A  
HETATM   12  C   UNL     1      -9.524  16.021  70.693  1.00  0.00     1.755 A  
HETATM   13  C   UNL     1     -10.237  15.251  71.619  1.00  0.00     1.514 A  
HETATM   14  C   UNL     1     -10.780  15.059  68.901  1.00  0.00    -0.240 A  
HETATM   15  C   UNL     1      -9.375  13.179  65.072  1.00  0.00     0.670 A  
HETATM   16  C   UNL     1     -11.493  14.293  69.826  1.00  0.00    -0.261 A  
HETATM   17  F   UNL     1      -8.618  16.864  71.196  1.00  0.00     4.420 F  
HETATM   18  S   UNL     1      -9.116  14.855  65.251  1.00  0.00     1.634 SA 
HETATM   19  C   UNL     1     -11.216  14.367  71.182  1.00  0.00     0.362 A  
ENDROOT
BRANCH   5  20
HETATM   20  N   UNL     1      -7.400  18.696  67.842  1.00  0.00    -0.233 NA 
HETATM   21  N   UNL     1      -7.713  18.709  66.531  1.00  0.00    -0.249 NA 
HETATM   22  C   UNL     1      -6.688  19.393  66.020  1.00  0.00    -0.233 A  
HETATM   23  C   UNL     1      -6.234  19.358  68.067  1.00  0.00    -0.209 A  
HETATM   24  N   UNL     1      -5.762  19.815  66.930  1.00  0.00    -0.173 NA 
ENDBRANCH   5  20
BRANCH  11  25
HETATM   25  C   UNL     1      -8.707  11.030  66.159  1.00  0.00    -0.188 A  
HETATM   26  C   UNL     1      -9.566  10.237  65.387  1.00  0.00    -0.310 A  
HETATM   27  C   UNL     1      -9.508   8.834  65.464  1.00  0.00    -0.096 A  
HETATM   28  C   UNL     1      -8.599   8.215  66.326  1.00  0.00    -0.157 A  
HETATM   29  C   UNL     1      -7.735   8.994  67.093  1.00  0.00    -0.099 A  
HETATM   30  C   UNL     1      -8.565   6.785  66.439  1.00  0.00    -0.130 C  
HETATM   31  N   UNL     1      -8.532   5.630  66.545  1.00  0.00    -0.113 NA 
HETATM   32  C   UNL     1      -7.791  10.389  67.011  1.00  0.00    -0.112 A  
ENDBRANCH  11  25
TORSDOF 2
ENDMDL
MODEL       77
REMARK 921   NORMALIZED FREE ENERGY PREDICTED BY IDOCK:    6.81 KCAL/MOL
REMARK 922        TOTAL FREE ENERGY PREDICTED BY IDOCK:    6.87 KCAL/MOL
REMARK 923 INTER-LIGAND FREE ENERGY PREDICTED BY IDOCK:    6.66 KCAL/MOL
REMARK 924 INTRA-LIGAND FREE ENERGY PREDICTED BY IDOCK:    0.21 KCAL/MOL
REMARK 927      BINDING AFFINITY PREDICTED BY RF-SCORE:    0.00 PKD
ROOT
HETATM    1  C   UNL     1      -9.213  15.182  68.912  1.00  0.00    -0.209 C  
HETATM    2  C   UNL     1      -8.419  15.196  67.596  1.00  0.00    -0.171 C  
HETATM    3  C   UNL     1      -8.238  13.777  67.063  1.00  0.00    -0.034 A  
HETATM    4  C   UNL     1      -8.958  16.238  66.532  1.00  0.00    -0.278 C  
HETATM    5  C   UNL     1      -8.841  17.699  67.077  1.00  0.00    -0.246 C  
HETATM    6  C   UNL     1     -10.361  15.881  66.002  1.00  0.00    -0.363 A  
HETATM    7  N   UNL     1      -8.971  12.725  67.381  1.00  0.00    -0.186 NA 
HETATM    8  O   UNL     1      -8.074  16.232  65.379  1.00  0.00     0.680 OA 
HETATM    9  H   UNL     1      -8.397  16.857  64.741  1.00  0.00     0.000 HD 
HETATM   10  F   UNL     1     -11.882  13.474  63.699  1.00  0.00    -0.454 F  
HETATM   11  C   UNL     1      -8.441  11.574  66.805  1.00  0.00    -0.168 A  
HETATM   12  C   UNL     1     -11.545  16.487  66.455  1.00  0.00     1.019 A  
HETATM   13  C   UNL     1     -12.812  16.071  66.029  1.00  0.00     3.357 A  
HETATM   14  C   UNL     1     -10.515  14.863  65.035  1.00  0.00    -0.429 A  
HETATM   15  C   UNL     1      -7.371  11.794  65.964  1.00  0.00     0.631 A  
HETATM   16  C   UNL     1     -11.779  14.451  64.609  1.00  0.00    -0.430 A  
HETATM   17  F   UNL     1     -11.516  17.507  67.318  1.00  0.00     0.069 F  
HETATM   18  S   UNL     1      -6.896  13.432  66.028  1.00  0.00     5.529 SA 
HETATM   19  C   UNL     1     -12.931  15.033  65.113  1.00  0.00     0.600 A  
ENDROOT
BRANCH   5  20
HETATM   20  N   UNL     1      -7.556  18.048  67.658  1.00  0.00    -0.215 NA 
HETATM   21  N   UNL     1      -7.415  19.218  68.313  1.00  0.00    -0.287 NA 
HETATM   22  C   UNL     1      -6.125  19.179  68.652  1.00  0.00    -0.222 A  
HETATM   23  C   UNL     1      -6.381  17.365  67.631  1.00  0.00    -0.149 A  
HETATM   24  N   UNL     1      -5.456  18.057  68.257  1.00  0.00    -0.159 NA 
ENDBRANCH   5  20
BRANCH  11  25
HETATM   25  C   UNL     1      -8.964  10.238  67.095  1.00  0.00    -0.145 A  
HETATM   26  C   UNL     1     -10.261   9.877  66.708  1.00  0.00    -0.301 A  
HETATM   27  C   UNL     1     -10.779   8.609  67.030  1.00  0.00    -0.190 A  
HETATM   28  C   UNL     1     -10.007   7.700  67.757  1.00  0.00    -0.219 A  
HETATM   29  C   UNL     1      -8.712   8.045  68.141  1.00  0.00    -0.126 A  
HETATM   30  C   UNL     1     -10.545   6.421  68.124  1.00  0.00    -0.255 C  
HETATM   31  N   UNL     1     -10.971   5.387  68.435  1.00  0.00     0.126 NA 
HETATM   32  C   UNL     1      -8.197   9.304  67.814  1.00  0.00    -0.115 A  
ENDBRANCH  11  25
TORSDOF 2
ENDMDL
MODEL       78
REMARK 921   NORMALIZED FREE ENERGY PREDICTED BY IDOCK:    7.11 KCAL/MOL
REMARK 922        TOTAL FREE ENERGY PREDICTED BY IDOCK:    7.20 KCAL/MOL
REMARK 923 INTER-LIGAND FREE ENERGY PREDICTED BY IDOCK:    7.60 KCAL/MOL
REMARK 924 INTRA-LIGAND FREE ENERGY PREDICTED BY IDOCK:   -0.40 KCAL/MOL
REMARK 927      BINDING AFFINITY PREDICTED BY RF-SCORE:    0.00 PKD
ROOT
HETATM    1  C   UNL     1      -9.471  13.838  68.667  1.00  0.00    -0.099 C  
HETATM    2  C   UNL     1      -8.015  14.298  68.488  1.00  0.00    -0.145 C  
HETATM    3  C   UNL     1      -7.060  13.353  69.213  1.00  0.00     0.060 A  
HETATM    4  C   UNL     1      -7.621  14.611  66.987  1.00  0.00     0.105 C  
HETATM    5  C   UNL     1      -8.479  15.791  66.422  1.00  0.00    -0.278 C  
HETATM    6  C   UNL     1      -7.624  13.356  66.092  1.00  0.00     2.573 A  
HETATM    7  N   UNL     1      -7.320  12.110  69.578  1.00  0.00     0.258 NA 
HETATM    8  O   UNL     1      -6.264  15.131  66.955  1.00  0.00    -0.201 OA 
HETATM    9  H   UNL     1      -6.028  15.319  66.055  1.00  0.00     0.000 HD 
HETATM   10  F   UNL     1      -5.532  10.406  65.518  1.00  0.00    -0.053 F  
HETATM   11  C   UNL     1      -6.266  11.596  70.328  1.00  0.00    -0.068 A  
HETATM   12  C   UNL     1      -8.674  13.019  65.222  1.00  0.00     1.846 A  
HETATM   13  C   UNL     1      -8.693  11.820  64.499  1.00  0.00     0.796 A  
HETATM   14  C   UNL     1      -6.548  12.444  66.150  1.00  0.00     1.945 A  
HETATM   15  C   UNL     1      -5.171  12.429  70.425  1.00  0.00    -0.116 A  
HETATM   16  C   UNL     1      -6.567  11.250  65.426  1.00  0.00     0.650 A  
HETATM   17  F   UNL     1      -9.711  13.841  65.035  1.00  0.00    -0.256 F  
HETATM   18  S   UNL     1      -5.519  13.947  69.730  1.00  0.00    -0.103 SA 
HETATM   19  C   UNL     1      -7.641  10.920  64.615  1.00  0.00     0.412 A  
ENDROOT
BRANCH   5  20
HETATM   20  N   UNL     1      -8.566  16.964  67.275  1.00  0.00    -0.193 NA 
HETATM   21  N   UNL     1      -7.552  17.259  68.112  1.00  0.00    -0.204 NA 
HETATM   22  C   UNL     1      -8.019  18.350  68.723  1.00  0.00    -0.256 A  
HETATM   23  C   UNL     1      -9.576  17.865  67.405  1.00  0.00    -0.271 A  
HETATM   24  N   UNL     1      -9.255  18.758  68.313  1.00  0.00    -0.319 NA 
ENDBRANCH   5  20
BRANCH  11  25
HETATM   25  C   UNL     1      -6.332  10.288  70.982  1.00  0.00     0.116 A  
HETATM   26  C   UNL     1      -7.462   9.913  71.720  1.00  0.00     1.687 A  
HETATM   27  C   UNL     1      -7.503   8.675  72.388  1.00  0.00    -0.020 A  
HETATM   28  C   UNL     1      -6.406   7.812  72.334  1.00  0.00    -0.057 A  
HETATM   29  C   UNL     1      -5.280   8.171  71.597  1.00  0.00    -0.034 A  
HETATM   30  C   UNL     1      -6.427   6.567  73.047  1.00  0.00    -0.067 C  
HETATM   31  N   UNL     1      -6.428   5.560  73.626  1.00  0.00    -0.070 NA 
HETATM   32  C   UNL     1      -5.243   9.400  70.929  1.00  0.00    -0.032 A  
ENDBRANCH  11  25
TORSDOF 2
ENDMDL
MODEL       79
REMARK 921   NORMALIZED FREE ENERGY PREDICTED BY IDOCK:    7.23 KCAL/MOL
REMARK 922        TOTAL FREE ENERGY PREDICTED BY IDOCK:    7.34 KCAL/MOL
REMARK 923 INTER-LIGAND FREE ENERGY PREDICTED BY IDOCK:    8.01 KCAL/MOL
REMARK 924 INTRA-LIGAND FREE ENERGY PREDICTED BY IDOCK:   -0.67 KCAL/MOL
REMARK 927      BINDING AFFINITY PREDICTED BY RF-SCORE:    0.00 PKD
ROOT
HETATM    1  C   UNL     1      -7.841   8.440  67.439  1.00  0.00    -0.099 C  
HETATM    2  C   UNL     1      -7.264   7.557  66.321  1.00  0.00    -0.074 C  
HETATM    3  C   UNL     1      -6.591   6.318  66.909  1.00  0.00    -0.059 A  
HETATM    4  C   UNL     1      -8.282   7.262  65.146  1.00  0.00    -0.110 C  
HETATM    5  C   UNL     1      -8.697   8.586  64.425  1.00  0.00     0.087 C  
HETATM    6  C   UNL     1      -9.476   6.394  65.591  1.00  0.00     0.270 A  
HETATM    7  N   UNL     1      -6.808   5.808  68.108  1.00  0.00    -0.065 NA 
HETATM    8  O   UNL     1      -7.596   6.510  64.108  1.00  0.00    -0.086 OA 
HETATM    9  H   UNL     1      -8.207   6.332  63.403  1.00  0.00     0.000 HD 
HETATM   10  F   UNL     1     -10.150   2.888  66.409  1.00  0.00     0.199 F  
HETATM   11  C   UNL     1      -5.928   4.757  68.353  1.00  0.00    -0.026 A  
HETATM   12  C   UNL     1     -10.747   6.909  65.893  1.00  0.00     1.821 A  
HETATM   13  C   UNL     1     -11.781   6.109  66.392  1.00  0.00     1.586 A  
HETATM   14  C   UNL     1      -9.314   5.001  65.758  1.00  0.00    -0.167 A  
HETATM   15  C   UNL     1      -5.130   4.417  67.281  1.00  0.00    -0.008 A  
HETATM   16  C   UNL     1     -10.348   4.204  66.254  1.00  0.00     0.151 A  
HETATM   17  F   UNL     1     -11.034   8.201  65.706  1.00  0.00     1.308 F  
HETATM   18  S   UNL     1      -5.341   5.532  66.008  1.00  0.00    -0.013 SA 
HETATM   19  C   UNL     1     -11.576   4.750  66.592  1.00  0.00     3.268 A  
ENDROOT
BRANCH   5  20
HETATM   20  N   UNL     1      -7.603   9.469  64.061  1.00  0.00    -0.117 NA 
HETATM   21  N   UNL     1      -6.892   9.226  62.942  1.00  0.00    -0.093 NA 
HETATM   22  C   UNL     1      -5.989  10.207  62.981  1.00  0.00    -0.136 A  
HETATM   23  C   UNL     1      -7.119  10.560  64.713  1.00  0.00     0.049 A  
HETATM   24  N   UNL     1      -6.098  11.051  64.049  1.00  0.00     0.408 NA 
ENDBRANCH   5  20
BRANCH  11  25
HETATM   25  C   UNL     1      -5.844   4.090  69.653  1.00  0.00    -0.018 A  
HETATM   26  C   UNL     1      -5.458   2.747  69.746  1.00  0.00    -0.016 A  
HETATM   27  C   UNL     1      -5.424   2.095  70.992  1.00  0.00    -0.008 A  
HETATM   28  C   UNL     1      -5.793   2.779  72.152  1.00  0.00    -0.009 A  
HETATM   29  C   UNL     1      -6.172   4.118  72.073  1.00  0.00    -0.017 A  
HETATM   30  C   UNL     1      -5.801   2.107  73.420  1.00  0.00     0.000 C  
HETATM   31  N   UNL     1      -5.819   1.573  74.450  1.00  0.00     0.000 NA 
HETATM   32  C   UNL     1      -6.199   4.766  70.834  1.00  0.00    -0.019 A  
ENDBRANCH  11  25
TORSDOF 2
ENDMDL
MODEL       80
REMARK 921   NORMALIZED FREE ENERGY PREDICTED BY IDOCK:    7.48 KCAL/MOL
REMARK 922        TOTAL FREE ENERGY PREDICTED BY IDOCK:    7.61 KCAL/MOL
REMARK 923 INTER-LIGAND FREE ENERGY PREDICTED BY IDOCK:    7.27 KCAL/MOL
REMARK 924 INTRA-LIGAND FREE ENERGY PREDICTED BY IDOCK:    0.35 KCAL/MOL
REMARK 927      BINDING AFFINITY PREDICTED BY RF-SCORE:    0.00 PKD
ROOT
HETATM    1  C   UNL     1      -8.147  10.809  66.640  1.00  0.00    -0.142 C  
HETATM    2  C   UNL     1      -9.408  10.111  66.107  1.00  0.00    -0.217 C  
HETATM    3  C   UNL     1      -9.387   8.624  66.456  1.00  0.00    -0.200 A  
HETATM    4  C   UNL     1     -10.757  10.856  66.471  1.00  0.00    -0.209 C  
HETATM    5  C   UNL     1     -10.795  12.280  65.827  1.00  0.00    -0.278 C  
HETATM    6  C   UNL     1     -11.057  10.847  67.983  1.00  0.00    -0.351 A  
HETATM    7  N   UNL     1      -8.672   8.057  67.411  1.00  0.00    -0.124 NA 
HETATM    8  O   UNL     1     -11.864  10.164  65.832  1.00  0.00     1.932 OA 
HETATM    9  H   UNL     1     -12.673  10.611  66.050  1.00  0.00     0.000 HD 
HETATM   10  F   UNL     1     -12.242   8.486  70.519  1.00  0.00    -0.167 F  
HETATM   11  C   UNL     1      -8.805   6.672  67.358  1.00  0.00    -0.116 A  
HETATM   12  C   UNL     1     -10.809  11.936  68.835  1.00  0.00    -0.221 A  
HETATM   13  C   UNL     1     -10.997  11.862  70.220  1.00  0.00     0.855 A  
HETATM   14  C   UNL     1     -11.573   9.683  68.595  1.00  0.00     0.401 A  
HETATM   15  C   UNL     1      -9.713   6.219  66.424  1.00  0.00    -0.099 A  
HETATM   16  C   UNL     1     -11.762   9.612  69.976  1.00  0.00    -0.023 A  
HETATM   17  F   UNL     1     -10.386  13.109  68.356  1.00  0.00    -0.228 F  
HETATM   18  S   UNL     1     -10.279   7.516  65.471  1.00  0.00     2.648 SA 
HETATM   19  C   UNL     1     -11.460  10.686  70.798  1.00  0.00    -0.307 A  
ENDROOT
BRANCH   5  20
HETATM   20  N   UNL     1     -10.439  12.341  64.420  1.00  0.00    -0.305 NA 
HETATM   21  N   UNL     1     -11.172  13.095  63.577  1.00  0.00    -0.209 NA 
HETATM   22  C   UNL     1     -10.564  12.861  62.413  1.00  0.00     4.840 A  
HETATM   23  C   UNL     1      -9.442  11.702  63.752  1.00  0.00    -0.100 A  
HETATM   24  N   UNL     1      -9.494  12.016  62.478  1.00  0.00     0.319 NA 
ENDBRANCH   5  20
BRANCH  11  25
HETATM   25  C   UNL     1      -8.021   5.775  68.207  1.00  0.00    -0.104 A  
HETATM   26  C   UNL     1      -7.928   4.409  67.913  1.00  0.00    -0.087 A  
HETATM   27  C   UNL     1      -7.213   3.540  68.758  1.00  0.00    -0.050 A  
HETATM   28  C   UNL     1      -6.600   4.031  69.913  1.00  0.00    -0.033 A  
HETATM   29  C   UNL     1      -6.680   5.390  70.212  1.00  0.00    -0.047 A  
HETATM   30  C   UNL     1      -5.906   3.142  70.800  1.00  0.00    -0.017 C  
HETATM   31  N   UNL     1      -5.348   2.433  71.530  1.00  0.00    -0.004 NA 
HETATM   32  C   UNL     1      -7.386   6.253  69.367  1.00  0.00    -0.091 A  
ENDBRANCH  11  25
TORSDOF 2
ENDMDL
MODEL       81
REMARK 921   NORMALIZED FREE ENERGY PREDICTED BY IDOCK:    7.86 KCAL/MOL
REMARK 922        TOTAL FREE ENERGY PREDICTED BY IDOCK:    8.04 KCAL/MOL
REMARK 923 INTER-LIGAND FREE ENERGY PREDICTED BY IDOCK:    8.06 KCAL/MOL
REMARK 924 INTRA-LIGAND FREE ENERGY PREDICTED BY IDOCK:   -0.02 KCAL/MOL
REMARK 927      BINDING AFFINITY PREDICTED BY RF-SCORE:    0.00 PKD
ROOT
HETATM    1  C   UNL     1      -7.169  13.004  68.473  1.00  0.00    -0.104 C  
HETATM    2  C   UNL     1      -7.649  13.507  67.102  1.00  0.00     0.041 C  
HETATM    3  C   UNL     1      -7.724  12.354  66.103  1.00  0.00     1.072 A  
HETATM    4  C   UNL     1      -8.948  14.409  67.168  1.00  0.00    -0.232 C  
HETATM    5  C   UNL     1      -8.679  15.711  67.992  1.00  0.00    -0.167 C  
HETATM    6  C   UNL     1     -10.196  13.629  67.627  1.00  0.00    -0.239 A  
HETATM    7  N   UNL     1      -7.801  11.069  66.400  1.00  0.00    -0.154 NA 
HETATM    8  O   UNL     1      -9.245  14.905  65.835  1.00  0.00    -0.479 OA 
HETATM    9  H   UNL     1     -10.024  15.446  65.874  1.00  0.00     0.000 HD 
HETATM   10  F   UNL     1     -12.550  11.185  66.249  1.00  0.00     1.626 F  
HETATM   11  C   UNL     1      -7.723  10.300  65.243  1.00  0.00    -0.144 A  
HETATM   12  C   UNL     1     -10.707  13.671  68.935  1.00  0.00    -0.212 A  
HETATM   13  C   UNL     1     -11.781  12.873  69.347  1.00  0.00    -0.382 A  
HETATM   14  C   UNL     1     -10.871  12.780  66.723  1.00  0.00    -0.289 A  
HETATM   15  C   UNL     1      -7.699  11.027  64.072  1.00  0.00     0.638 A  
HETATM   16  C   UNL     1     -11.944  11.986  67.135  1.00  0.00    -0.030 A  
HETATM   17  F   UNL     1     -10.190  14.490  69.855  1.00  0.00    -0.086 F  
HETATM   18  S   UNL     1      -7.587  12.695  64.413  1.00  0.00     8.204 SA 
HETATM   19  C   UNL     1     -12.393  12.011  68.446  1.00  0.00     0.432 A  
ENDROOT
BRANCH   5  20
HETATM   20  N   UNL     1      -7.467  16.432  67.642  1.00  0.00    -0.127 NA 
HETATM   21  N   UNL     1      -7.554  17.616  67.004  1.00  0.00    -0.195 NA 
HETATM   22  C   UNL     1      -6.267  17.925  66.838  1.00  0.00    -0.160 A  
HETATM   23  C   UNL     1      -6.167  16.083  67.835  1.00  0.00    -0.131 A  
HETATM   24  N   UNL     1      -5.384  17.013  67.339  1.00  0.00    -0.127 NA 
ENDBRANCH   5  20
BRANCH  11  25
HETATM   25  C   UNL     1      -7.645   8.838  65.275  1.00  0.00    -0.091 A  
HETATM   26  C   UNL     1      -6.499   8.172  64.822  1.00  0.00    -0.056 A  
HETATM   27  C   UNL     1      -6.446   6.766  64.809  1.00  0.00    -0.042 A  
HETATM   28  C   UNL     1      -7.546   6.018  65.234  1.00  0.00    -0.088 A  
HETATM   29  C   UNL     1      -8.689   6.670  65.693  1.00  0.00    -0.093 A  
HETATM   30  C   UNL     1      -7.512   4.584  65.183  1.00  0.00    -0.076 C  
HETATM   31  N   UNL     1      -7.501   3.424  65.140  1.00  0.00    -0.072 NA 
HETATM   32  C   UNL     1      -8.738   8.068  65.711  1.00  0.00    -0.175 A  
ENDBRANCH  11  25
TORSDOF 2
ENDMDL
MODEL       82
REMARK 921   NORMALIZED FREE ENERGY PREDICTED BY IDOCK:    8.95 KCAL/MOL
REMARK 922        TOTAL FREE ENERGY PREDICTED BY IDOCK:    9.25 KCAL/MOL
REMARK 923 INTER-LIGAND FREE ENERGY PREDICTED BY IDOCK:    8.95 KCAL/MOL
REMARK 924 INTRA-LIGAND FREE ENERGY PREDICTED BY IDOCK:    0.30 KCAL/MOL
REMARK 927      BINDING AFFINITY PREDICTED BY RF-SCORE:    0.00 PKD
ROOT
HETATM    1  C   UNL     1      -7.888  11.650  69.274  1.00  0.00     0.213 C  
HETATM    2  C   UNL     1      -8.950  12.197  68.308  1.00  0.00    -0.186 C  
HETATM    3  C   UNL     1      -8.848  11.507  66.949  1.00  0.00    -0.182 A  
HETATM    4  C   UNL     1     -10.410  12.243  68.917  1.00  0.00    -0.059 C  
HETATM    5  C   UNL     1     -10.468  13.203  70.150  1.00  0.00     1.814 C  
HETATM    6  C   UNL     1     -10.988  10.840  69.193  1.00  0.00    -0.293 A  
HETATM    7  N   UNL     1      -8.273  10.342  66.708  1.00  0.00    -0.124 NA 
HETATM    8  O   UNL     1     -11.302  12.869  67.956  1.00  0.00    -0.256 OA 
HETATM    9  H   UNL     1     -12.178  12.896  68.321  1.00  0.00     0.000 HD 
HETATM   10  F   UNL     1     -12.390   8.041  67.293  1.00  0.00     3.336 F  
HETATM   11  C   UNL     1      -8.255  10.086  65.340  1.00  0.00    -0.149 A  
HETATM   12  C   UNL     1     -11.015  10.242  70.464  1.00  0.00    -0.270 A  
HETATM   13  C   UNL     1     -11.453   8.928  70.665  1.00  0.00    -0.280 A  
HETATM   14  C   UNL     1     -11.492  10.061  68.128  1.00  0.00     0.055 A  
HETATM   15  C   UNL     1      -8.921  11.019  64.573  1.00  0.00    -0.055 A  
HETATM   16  C   UNL     1     -11.931   8.751  68.332  1.00  0.00     2.822 A  
HETATM   17  F   UNL     1     -10.628  10.912  71.554  1.00  0.00     1.401 F  
HETATM   18  S   UNL     1      -9.423  12.331  65.541  1.00  0.00     0.074 SA 
HETATM   19  C   UNL     1     -11.897   8.170  69.589  1.00  0.00     0.854 A  
ENDROOT
BRANCH   5  20
HETATM   20  N   UNL     1      -9.860  14.509  69.954  1.00  0.00     0.382 NA 
HETATM   21  N   UNL     1      -8.532  14.603  69.745  1.00  0.00     0.272 NA 
HETATM   22  C   UNL     1      -8.371  15.924  69.652  1.00  0.00     0.064 A  
HETATM   23  C   UNL     1     -10.435  15.741  69.974  1.00  0.00    -0.306 A  
HETATM   24  N   UNL     1      -9.515  16.658  69.781  1.00  0.00     0.291 NA 
ENDBRANCH   5  20
BRANCH  11  25
HETATM   25  C   UNL     1      -7.560   8.933  64.765  1.00  0.00    -0.106 A  
HETATM   26  C   UNL     1      -8.042   8.310  63.607  1.00  0.00    -0.126 A  
HETATM   27  C   UNL     1      -7.400   7.172  63.085  1.00  0.00    -0.084 A  
HETATM   28  C   UNL     1      -6.279   6.641  63.729  1.00  0.00    -0.034 A  
HETATM   29  C   UNL     1      -5.787   7.257  64.878  1.00  0.00    -0.037 A  
HETATM   30  C   UNL     1      -5.646   5.457  63.224  1.00  0.00    -0.014 C  
HETATM   31  N   UNL     1      -5.128   4.495  62.831  1.00  0.00    -0.009 NA 
HETATM   32  C   UNL     1      -6.424   8.391  65.392  1.00  0.00    -0.055 A  
ENDBRANCH  11  25
TORSDOF 2
ENDMDL
MODEL       83
REMARK 921   NORMALIZED FREE ENERGY PREDICTED BY IDOCK:   17.52 KCAL/MOL
REMARK 922        TOTAL FREE ENERGY PREDICTED BY IDOCK:   18.83 KCAL/MOL
REMARK 923 INTER-LIGAND FREE ENERGY PREDICTED BY IDOCK:   19.07 KCAL/MOL
REMARK 924 INTRA-LIGAND FREE ENERGY PREDICTED BY IDOCK:   -0.24 KCAL/MOL
REMARK 927      BINDING AFFINITY PREDICTED BY RF-SCORE:    0.00 PKD
ROOT
HETATM    1  C   UNL     1      -9.361  12.425  70.979  1.00  0.00    10.735 C  
HETATM    2  C   UNL     1      -8.578  12.262  69.666  1.00  0.00     1.821 C  
HETATM    3  C   UNL     1      -7.843  10.924  69.641  1.00  0.00     0.122 A  
HETATM    4  C   UNL     1      -9.431  12.572  68.368  1.00  0.00    -0.167 C  
HETATM    5  C   UNL     1      -9.908  14.061  68.359  1.00  0.00    -0.232 C  
HETATM    6  C   UNL     1     -10.565  11.553  68.139  1.00  0.00    -0.226 A  
HETATM    7  N   UNL     1      -8.127   9.864  70.376  1.00  0.00    -0.208 NA 
HETATM    8  O   UNL     1      -8.564  12.485  67.205  1.00  0.00    -0.188 OA 
HETATM    9  H   UNL     1      -9.075  12.670  66.426  1.00  0.00     0.000 HD 
HETATM   10  F   UNL     1     -10.942   8.100  66.977  1.00  0.00    -0.374 F  
HETATM   11  C   UNL     1      -7.171   8.871  70.183  1.00  0.00    -0.057 A  
HETATM   12  C   UNL     1     -11.909  11.791  68.472  1.00  0.00    -0.303 A  
HETATM   13  C   UNL     1     -12.898  10.809  68.346  1.00  0.00     2.943 A  
HETATM   14  C   UNL     1     -10.273  10.278  67.605  1.00  0.00    -0.247 A  
HETATM   15  C   UNL     1      -6.233   9.158  69.215  1.00  0.00    -0.041 A  
HETATM   16  C   UNL     1     -11.262   9.301  67.477  1.00  0.00     0.470 A  
HETATM   17  F   UNL     1     -12.311  12.984  68.920  1.00  0.00    -0.304 F  
HETATM   18  S   UNL     1      -6.428  10.760  68.660  1.00  0.00    -0.056 SA 
HETATM   19  C   UNL     1     -12.570   9.549  67.862  1.00  0.00     6.727 A  
ENDROOT
BRANCH   5  20
HETATM   20  N   UNL     1      -8.882  15.048  68.651  1.00  0.00    -0.177 NA 
HETATM   21  N   UNL     1      -7.582  14.697  68.595  1.00  0.00    -0.122 NA 
HETATM   22  C   UNL     1      -6.983  15.835  68.952  1.00  0.00    -0.135 A  
HETATM   23  C   UNL     1      -9.016  16.348  69.024  1.00  0.00    -0.239 A  
HETATM   24  N   UNL     1      -7.828  16.874  69.217  1.00  0.00    -0.115 NA 
ENDBRANCH   5  20
BRANCH  11  25
HETATM   25  C   UNL     1      -7.152   7.635  70.969  1.00  0.00    -0.054 A  
HETATM   26  C   UNL     1      -8.347   7.029  71.380  1.00  0.00    -0.113 A  
HETATM   27  C   UNL     1      -8.325   5.869  72.175  1.00  0.00    -0.118 A  
HETATM   28  C   UNL     1      -7.107   5.317  72.578  1.00  0.00    -0.087 A  
HETATM   29  C   UNL     1      -5.912   5.907  72.169  1.00  0.00    -0.039 A  
HETATM   30  C   UNL     1      -7.080   4.158  73.424  1.00  0.00    -0.064 C  
HETATM   31  N   UNL     1      -7.044   3.226  74.114  1.00  0.00    -0.045 NA 
HETATM   32  C   UNL     1      -5.936   7.057  71.373  1.00  0.00    -0.037 A  
ENDBRANCH  11  25
TORSDOF 2
ENDMDL
MODEL       84
REMARK 921   NORMALIZED FREE ENERGY PREDICTED BY IDOCK:   20.54 KCAL/MOL
REMARK 922        TOTAL FREE ENERGY PREDICTED BY IDOCK:   22.20 KCAL/MOL
REMARK 923 INTER-LIGAND FREE ENERGY PREDICTED BY IDOCK:   22.21 KCAL/MOL
REMARK 924 INTRA-LIGAND FREE ENERGY PREDICTED BY IDOCK:   -0.00 KCAL/MOL
REMARK 927      BINDING AFFINITY PREDICTED BY RF-SCORE:    0.00 PKD
ROOT
HETATM    1  C   UNL     1      -9.675  17.324  70.471  1.00  0.00     2.612 C  
HETATM    2  C   UNL     1      -8.802  17.118  69.223  1.00  0.00     0.144 C  
HETATM    3  C   UNL     1      -8.770  15.643  68.827  1.00  0.00    -0.197 A  
HETATM    4  C   UNL     1      -9.134  18.113  68.037  1.00  0.00    -0.283 C  
HETATM    5  C   UNL     1      -8.867  19.594  68.463  1.00  0.00    -0.297 C  
HETATM    6  C   UNL     1     -10.533  17.882  67.434  1.00  0.00    -0.390 A  
HETATM    7  N   UNL     1      -9.650  14.723  69.177  1.00  0.00    -0.173 NA 
HETATM    8  O   UNL     1      -8.184  17.892  66.959  1.00  0.00    -0.214 OA 
HETATM    9  H   UNL     1      -8.383  18.489  66.248  1.00  0.00     0.000 HD 
HETATM   10  F   UNL     1     -12.195  15.471  65.234  1.00  0.00     0.066 F  
HETATM   11  C   UNL     1      -9.235  13.467  68.743  1.00  0.00     0.082 A  
HETATM   12  C   UNL     1     -11.657  18.666  67.742  1.00  0.00     1.344 A  
HETATM   13  C   UNL     1     -12.936  18.369  67.257  1.00  0.00     7.461 A  
HETATM   14  C   UNL     1     -10.752  16.804  66.548  1.00  0.00    -0.104 A  
HETATM   15  C   UNL     1      -8.093  13.476  67.970  1.00  0.00    -0.156 A  
HETATM   16  C   UNL     1     -12.028  16.510  66.063  1.00  0.00     2.007 A  
HETATM   17  F   UNL     1     -11.554  19.752  68.515  1.00  0.00     0.773 F  
HETATM   18  S   UNL     1      -7.418  15.043  67.931  1.00  0.00    -0.154 SA 
HETATM   19  C   UNL     1     -13.127  17.272  66.426  1.00  0.00     9.208 A  
ENDROOT
BRANCH   5  20
HETATM   20  N   UNL     1      -7.588  19.838  69.109  1.00  0.00    -0.263 NA 
HETATM   21  N   UNL     1      -6.723  18.819  69.284  1.00  0.00    -0.283 NA 
HETATM   22  C   UNL     1      -5.721  19.427  69.922  1.00  0.00    -0.248 A  
HETATM   23  C   UNL     1      -7.089  20.990  69.630  1.00  0.00     2.165 A  
HETATM   24  N   UNL     1      -5.904  20.761  70.149  1.00  0.00    -0.492 NA 
ENDBRANCH   5  20
BRANCH  11  25
HETATM   25  C   UNL     1      -9.942  12.237  69.104  1.00  0.00     0.313 A  
HETATM   26  C   UNL     1     -11.340  12.170  69.042  1.00  0.00    -0.329 A  
HETATM   27  C   UNL     1     -12.020  11.004  69.435  1.00  0.00    -0.408 A  
HETATM   28  C   UNL     1     -11.306   9.901  69.910  1.00  0.00    -0.273 A  
HETATM   29  C   UNL     1      -9.914   9.954  69.970  1.00  0.00    -0.302 A  
HETATM   30  C   UNL     1     -11.997   8.724  70.352  1.00  0.00     0.142 C  
HETATM   31  N   UNL     1     -12.544   7.769  70.720  1.00  0.00    -0.001 NA 
HETATM   32  C   UNL     1      -9.240  11.113  69.572  1.00  0.00     0.457 A  
ENDBRANCH  11  25
TORSDOF 2
ENDMDL
MODEL       85
REMARK 921   NORMALIZED FREE ENERGY PREDICTED BY IDOCK:   21.57 KCAL/MOL
REMARK 922        TOTAL FREE ENERGY PREDICTED BY IDOCK:   23.35 KCAL/MOL
REMARK 923 INTER-LIGAND FREE ENERGY PREDICTED BY IDOCK:   22.83 KCAL/MOL
REMARK 924 INTRA-LIGAND FREE ENERGY PREDICTED BY IDOCK:    0.52 KCAL/MOL
REMARK 927      BINDING AFFINITY PREDICTED BY RF-SCORE:    0.00 PKD
ROOT
HETATM    1  C   UNL     1      -8.223  16.840  71.982  1.00  0.00    12.412 C  
HETATM    2  C   UNL     1      -7.214  17.065  70.845  1.00  0.00     3.818 C  
HETATM    3  C   UNL     1      -6.761  15.731  70.256  1.00  0.00     0.251 A  
HETATM    4  C   UNL     1      -7.682  18.135  69.775  1.00  0.00     0.904 C  
HETATM    5  C   UNL     1      -7.851  19.542  70.435  1.00  0.00     1.271 C  
HETATM    6  C   UNL     1      -8.910  17.674  68.965  1.00  0.00    -0.020 A  
HETATM    7  N   UNL     1      -7.399  14.578  70.354  1.00  0.00     0.410 NA 
HETATM    8  O   UNL     1      -6.611  18.336  68.813  1.00  0.00    -0.220 OA 
HETATM    9  H   UNL     1      -6.892  18.977  68.171  1.00  0.00     0.000 HD 
HETATM   10  F   UNL     1      -9.672  15.337  66.250  1.00  0.00    -0.243 F  
HETATM   11  C   UNL     1      -6.631  13.553  69.809  1.00  0.00     0.011 A  
HETATM   12  C   UNL     1     -10.223  18.099  69.227  1.00  0.00     0.003 A  
HETATM   13  C   UNL     1     -11.329  17.584  68.540  1.00  0.00     0.630 A  
HETATM   14  C   UNL     1      -8.756  16.740  67.917  1.00  0.00    -0.203 A  
HETATM   15  C   UNL     1      -5.465  13.970  69.204  1.00  0.00    -0.077 A  
HETATM   16  C   UNL     1      -9.860  16.230  67.230  1.00  0.00    -0.243 A  
HETATM   17  F   UNL     1     -10.479  19.031  70.150  1.00  0.00     0.183 F  
HETATM   18  S   UNL     1      -5.222  15.637  69.473  1.00  0.00    -0.105 SA 
HETATM   19  C   UNL     1     -11.149  16.630  67.547  1.00  0.00    -0.055 A  
ENDROOT
BRANCH   5  20
HETATM   20  N   UNL     1      -6.747  19.978  71.273  1.00  0.00    -0.010 NA 
HETATM   21  N   UNL     1      -6.335  19.199  72.292  1.00  0.00     0.992 NA 
HETATM   22  C   UNL     1      -5.361  19.943  72.819  1.00  0.00     1.967 A  
HETATM   23  C   UNL     1      -6.024  21.128  71.220  1.00  0.00     1.187 A  
HETATM   24  N   UNL     1      -5.134  21.132  72.186  1.00  0.00    -0.516 NA 
ENDBRANCH   5  20
BRANCH  11  25
HETATM   25  C   UNL     1      -7.024  12.145  69.899  1.00  0.00     0.455 A  
HETATM   26  C   UNL     1      -6.314  11.254  70.714  1.00  0.00     0.431 A  
HETATM   27  C   UNL     1      -6.663   9.892  70.761  1.00  0.00    -0.053 A  
HETATM   28  C   UNL     1      -7.716   9.411  69.980  1.00  0.00    -0.124 A  
HETATM   29  C   UNL     1      -8.434  10.289  69.171  1.00  0.00    -0.164 A  
HETATM   30  C   UNL     1      -8.049   8.015  69.993  1.00  0.00    -0.116 C  
HETATM   31  N   UNL     1      -8.324   6.887  69.987  1.00  0.00    -0.137 NA 
HETATM   32  C   UNL     1      -8.089  11.644  69.130  1.00  0.00     0.186 A  
ENDBRANCH  11  25
TORSDOF 2
ENDMDL
MODEL       86
REMARK 921   NORMALIZED FREE ENERGY PREDICTED BY IDOCK:   22.23 KCAL/MOL
REMARK 922        TOTAL FREE ENERGY PREDICTED BY IDOCK:   24.09 KCAL/MOL
REMARK 923 INTER-LIGAND FREE ENERGY PREDICTED BY IDOCK:   24.45 KCAL/MOL
REMARK 924 INTRA-LIGAND FREE ENERGY PREDICTED BY IDOCK:   -0.36 KCAL/MOL
REMARK 927      BINDING AFFINITY PREDICTED BY RF-SCORE:    0.00 PKD
ROOT
HETATM    1  C   UNL     1      -6.497  14.239  67.624  1.00  0.00    -0.151 C  
HETATM    2  C   UNL     1      -7.889  14.769  67.246  1.00  0.00    -0.223 C  
HETATM    3  C   UNL     1      -8.565  13.837  66.243  1.00  0.00     0.564 A  
HETATM    4  C   UNL     1      -8.786  15.163  68.490  1.00  0.00    -0.185 C  
HETATM    5  C   UNL     1      -8.129  16.327  69.301  1.00  0.00    -0.157 C  
HETATM    6  C   UNL     1      -9.180  13.947  69.353  1.00  0.00     0.674 A  
HETATM    7  N   UNL     1      -8.260  12.569  66.028  1.00  0.00     0.698 NA 
HETATM    8  O   UNL     1     -10.029  15.742  68.009  1.00  0.00    -0.220 OA 
HETATM    9  H   UNL     1     -10.567  15.977  68.755  1.00  0.00     0.000 HD 
HETATM   10  F   UNL     1     -11.500  11.118  69.188  1.00  0.00    -0.236 F  
HETATM   11  C   UNL     1      -8.995  12.070  64.956  1.00  0.00     0.545 A  
HETATM   12  C   UNL     1      -8.541  13.602  70.555  1.00  0.00     4.441 A  
HETATM   13  C   UNL     1      -8.855  12.436  71.263  1.00  0.00    13.784 A  
HETATM   14  C   UNL     1     -10.211  13.081  68.925  1.00  0.00    -0.015 A  
HETATM   15  C   UNL     1      -9.930  12.945  64.445  1.00  0.00    -0.134 A  
HETATM   16  C   UNL     1     -10.524  11.919  69.634  1.00  0.00     0.527 A  
HETATM   17  F   UNL     1      -7.600  14.385  71.090  1.00  0.00     0.984 F  
HETATM   18  S   UNL     1      -9.775  14.475  65.184  1.00  0.00     0.254 SA 
HETATM   19  C   UNL     1      -9.840  11.578  70.790  1.00  0.00     4.936 A  
ENDROOT
BRANCH   5  20
HETATM   20  N   UNL     1      -7.671  17.458  68.513  1.00  0.00    -0.257 NA 
HETATM   21  N   UNL     1      -6.365  17.789  68.515  1.00  0.00    -0.181 NA 
HETATM   22  C   UNL     1      -6.360  18.864  67.726  1.00  0.00    -0.209 A  
HETATM   23  C   UNL     1      -8.385  18.319  67.740  1.00  0.00    -0.255 A  
HETATM   24  N   UNL     1      -7.579  19.219  67.225  1.00  0.00    -0.231 NA 
ENDBRANCH   5  20
BRANCH  11  25
HETATM   25  C   UNL     1      -8.768  10.734  64.403  1.00  0.00    -0.087 A  
HETATM   26  C   UNL     1      -8.491  10.560  63.041  1.00  0.00    -0.178 A  
HETATM   27  C   UNL     1      -8.321   9.271  62.503  1.00  0.00    -0.185 A  
HETATM   28  C   UNL     1      -8.443   8.147  63.323  1.00  0.00     0.088 A  
HETATM   29  C   UNL     1      -8.711   8.308  64.681  1.00  0.00     0.079 A  
HETATM   30  C   UNL     1      -8.312   6.829  62.771  1.00  0.00     0.104 C  
HETATM   31  N   UNL     1      -8.216   5.757  62.336  1.00  0.00    -0.100 NA 
HETATM   32  C   UNL     1      -8.873   9.591  65.215  1.00  0.00    -0.220 A  
ENDBRANCH  11  25
TORSDOF 2
ENDMDL
MODEL       87
REMARK 921   NORMALIZED FREE ENERGY PREDICTED BY IDOCK:   23.53 KCAL/MOL
REMARK 922        TOTAL FREE ENERGY PREDICTED BY IDOCK:   25.54 KCAL/MOL
REMARK 923 INTER-LIGAND FREE ENERGY PREDICTED BY IDOCK:   25.27 KCAL/MOL
REMARK 924 INTRA-LIGAND FREE ENERGY PREDICTED BY IDOCK:    0.27 KCAL/MOL
REMARK 927      BINDING AFFINITY PREDICTED BY RF-SCORE:    0.00 PKD
ROOT
HETATM    1  C   UNL     1     -11.073   7.607  66.495  1.00  0.00     1.137 C  
HETATM    2  C   UNL     1     -10.107   8.761  66.182  1.00  0.00    -0.154 C  
HETATM    3  C   UNL     1      -9.073   8.912  67.295  1.00  0.00    -0.134 A  
HETATM    4  C   UNL     1      -9.502   8.713  64.720  1.00  0.00     0.801 C  
HETATM    5  C   UNL     1     -10.632   8.844  63.647  1.00  0.00     7.131 C  
HETATM    6  C   UNL     1      -8.569   7.506  64.497  1.00  0.00     0.259 A  
HETATM    7  N   UNL     1      -8.734   7.987  68.176  1.00  0.00    -0.126 NA 
HETATM    8  O   UNL     1      -8.691   9.900  64.508  1.00  0.00    -0.167 OA 
HETATM    9  H   UNL     1      -8.328   9.871  63.631  1.00  0.00     0.000 HD 
HETATM   10  F   UNL     1      -5.178   6.469  65.412  1.00  0.00    -0.015 F  
HETATM   11  C   UNL     1      -7.856   8.516  69.118  1.00  0.00    -0.100 A  
HETATM   12  C   UNL     1      -8.958   6.329  63.836  1.00  0.00     0.869 A  
HETATM   13  C   UNL     1      -8.120   5.212  63.739  1.00  0.00    -0.115 A  
HETATM   14  C   UNL     1      -7.252   7.527  65.006  1.00  0.00    -0.066 A  
HETATM   15  C   UNL     1      -7.457   9.811  68.867  1.00  0.00    -0.075 A  
HETATM   16  C   UNL     1      -6.417   6.413  64.906  1.00  0.00    -0.034 A  
HETATM   17  F   UNL     1     -10.156   6.224  63.255  1.00  0.00     2.529 F  
HETATM   18  S   UNL     1      -8.322  10.451  67.543  1.00  0.00    -0.114 SA 
HETATM   19  C   UNL     1      -6.847   5.246  64.293  1.00  0.00    -0.048 A  
ENDROOT
BRANCH   5  20
HETATM   20  N   UNL     1     -11.581   9.923  63.867  1.00  0.00     5.586 NA 
HETATM   21  N   UNL     1     -12.576  10.129  62.982  1.00  0.00     5.721 NA 
HETATM   22  C   UNL     1     -13.183  11.194  63.506  1.00  0.00     1.960 A  
HETATM   23  C   UNL     1     -11.626  10.843  64.867  1.00  0.00     0.897 A  
HETATM   24  N   UNL     1     -12.635  11.660  64.666  1.00  0.00     0.040 NA 
ENDBRANCH   5  20
BRANCH  11  25
HETATM   25  C   UNL     1      -7.418   7.761  70.294  1.00  0.00    -0.079 A  
HETATM   26  C   UNL     1      -7.048   8.421  71.472  1.00  0.00    -0.087 A  
HETATM   27  C   UNL     1      -6.581   7.697  72.584  1.00  0.00    -0.062 A  
HETATM   28  C   UNL     1      -6.467   6.306  72.517  1.00  0.00    -0.059 A  
HETATM   29  C   UNL     1      -6.840   5.637  71.353  1.00  0.00    -0.062 A  
HETATM   30  C   UNL     1      -5.953   5.566  73.634  1.00  0.00    -0.051 C  
HETATM   31  N   UNL     1      -5.531   4.956  74.527  1.00  0.00    -0.021 NA 
HETATM   32  C   UNL     1      -7.309   6.360  70.251  1.00  0.00    -0.089 A  
ENDBRANCH  11  25
TORSDOF 2
ENDMDL
MODEL       88
REMARK 921   NORMALIZED FREE ENERGY PREDICTED BY IDOCK:   27.94 KCAL/MOL
REMARK 922        TOTAL FREE ENERGY PREDICTED BY IDOCK:   30.46 KCAL/MOL
REMARK 923 INTER-LIGAND FREE ENERGY PREDICTED BY IDOCK:   30.40 KCAL/MOL
REMARK 924 INTRA-LIGAND FREE ENERGY PREDICTED BY IDOCK:    0.06 KCAL/MOL
REMARK 927      BINDING AFFINITY PREDICTED BY RF-SCORE:    0.00 PKD
ROOT
HETATM    1  C   UNL     1      -8.335  12.906  68.310  1.00  0.00    -0.157 C  
HETATM    2  C   UNL     1      -9.830  13.176  68.543  1.00  0.00    -0.155 C  
HETATM    3  C   UNL     1     -10.450  12.069  69.393  1.00  0.00     0.249 A  
HETATM    4  C   UNL     1     -10.148  14.646  69.039  1.00  0.00    -0.209 C  
HETATM    5  C   UNL     1      -9.721  15.698  67.964  1.00  0.00    -0.204 C  
HETATM    6  C   UNL     1      -9.594  14.935  70.448  1.00  0.00     0.797 A  
HETATM    7  N   UNL     1      -9.797  11.236  70.184  1.00  0.00     1.323 NA 
HETATM    8  O   UNL     1     -11.589  14.811  69.126  1.00  0.00    -0.272 OA 
HETATM    9  H   UNL     1     -11.779  15.693  69.423  1.00  0.00     0.000 HD 
HETATM   10  F   UNL     1     -10.399  14.107  73.924  1.00  0.00     2.633 F  
HETATM   11  C   UNL     1     -10.667  10.280  70.702  1.00  0.00    -0.055 A  
HETATM   12  C   UNL     1      -8.406  15.645  70.691  1.00  0.00     2.075 A  
HETATM   13  C   UNL     1      -7.876  15.804  71.976  1.00  0.00     7.367 A  
HETATM   14  C   UNL     1     -10.266  14.440  71.588  1.00  0.00     3.518 A  
HETATM   15  C   UNL     1     -11.993  10.475  70.378  1.00  0.00    -0.335 A  
HETATM   16  C   UNL     1      -9.737  14.601  72.870  1.00  0.00     6.839 A  
HETATM   17  F   UNL     1      -7.724  16.217  69.694  1.00  0.00    -0.220 F  
HETATM   18  S   UNL     1     -12.146  11.758  69.264  1.00  0.00    -0.166 SA 
HETATM   19  C   UNL     1      -8.536  15.263  73.073  1.00  0.00    10.023 A  
ENDROOT
BRANCH   5  20
HETATM   20  N   UNL     1     -10.158  15.418  66.607  1.00  0.00    -0.258 NA 
HETATM   21  N   UNL     1      -9.486  15.950  65.566  1.00  0.00    -0.373 NA 
HETATM   22  C   UNL     1     -10.198  15.499  64.532  1.00  0.00     0.764 A  
HETATM   23  C   UNL     1     -11.216  14.683  66.174  1.00  0.00    -0.341 A  
HETATM   24  N   UNL     1     -11.264  14.713  64.861  1.00  0.00    -0.379 NA 
ENDBRANCH   5  20
BRANCH  11  25
HETATM   25  C   UNL     1     -10.201   9.146  71.502  1.00  0.00    -0.403 A  
HETATM   26  C   UNL     1      -8.855   8.759  71.481  1.00  0.00    -0.295 A  
HETATM   27  C   UNL     1      -8.419   7.639  72.213  1.00  0.00    -0.153 A  
HETATM   28  C   UNL     1      -9.333   6.890  72.959  1.00  0.00    -0.162 A  
HETATM   29  C   UNL     1     -10.673   7.269  72.993  1.00  0.00    -0.384 A  
HETATM   30  C   UNL     1      -8.901   5.723  73.673  1.00  0.00    -0.121 C  
HETATM   31  N   UNL     1      -8.567   4.772  74.250  1.00  0.00    -0.107 NA 
HETATM   32  C   UNL     1     -11.103   8.386  72.269  1.00  0.00    -0.438 A  
ENDBRANCH  11  25
TORSDOF 2
ENDMDL
MODEL       89
REMARK 921   NORMALIZED FREE ENERGY PREDICTED BY IDOCK:   30.90 KCAL/MOL
REMARK 922        TOTAL FREE ENERGY PREDICTED BY IDOCK:   33.77 KCAL/MOL
REMARK 923 INTER-LIGAND FREE ENERGY PREDICTED BY IDOCK:   34.48 KCAL/MOL
REMARK 924 INTRA-LIGAND FREE ENERGY PREDICTED BY IDOCK:   -0.71 KCAL/MOL
REMARK 927      BINDING AFFINITY PREDICTED BY RF-SCORE:    0.00 PKD
ROOT
HETATM    1  C   UNL     1      -8.337   8.909  66.177  1.00  0.00    -0.125 C  
HETATM    2  C   UNL     1      -9.179   7.901  66.976  1.00  0.00    -0.181 C  
HETATM    3  C   UNL     1      -8.906   8.040  68.473  1.00  0.00    -0.134 A  
HETATM    4  C   UNL     1     -10.712   7.890  66.583  1.00  0.00     0.164 C  
HETATM    5  C   UNL     1     -10.899   7.462  65.090  1.00  0.00     6.449 C  
HETATM    6  C   UNL     1     -11.434   9.202  66.950  1.00  0.00     1.933 A  
HETATM    7  N   UNL     1      -8.391   9.096  69.076  1.00  0.00    -0.124 NA 
HETATM    8  O   UNL     1     -11.381   6.835  67.326  1.00  0.00    -0.690 OA 
HETATM    9  H   UNL     1     -12.301   6.828  67.090  1.00  0.00     0.000 HD 
HETATM   10  F   UNL     1     -12.713  10.869  69.949  1.00  0.00    -0.351 F  
HETATM   11  C   UNL     1      -8.166   8.822  70.422  1.00  0.00    -0.122 A  
HETATM   12  C   UNL     1     -11.718  10.222  66.027  1.00  0.00     2.518 A  
HETATM   13  C   UNL     1     -12.283  11.444  66.410  1.00  0.00     1.607 A  
HETATM   14  C   UNL     1     -11.813   9.450  68.288  1.00  0.00     1.705 A  
HETATM   15  C   UNL     1      -8.621   7.589  70.840  1.00  0.00    -0.130 A  
HETATM   16  C   UNL     1     -12.379  10.668  68.668  1.00  0.00     0.675 A  
HETATM   17  F   UNL     1     -11.467  10.068  64.724  1.00  0.00     1.356 F  
HETATM   18  S   UNL     1      -9.173   6.679  69.507  1.00  0.00    -0.142 SA 
HETATM   19  C   UNL     1     -12.600  11.677  67.743  1.00  0.00     1.884 A  
ENDROOT
BRANCH   5  20
HETATM   20  N   UNL     1     -10.169   6.273  64.684  1.00  0.00     3.030 NA 
HETATM   21  N   UNL     1     -10.639   5.054  65.016  1.00  0.00     0.360 NA 
HETATM   22  C   UNL     1      -9.697   4.258  64.508  1.00  0.00    -0.131 A  
HETATM   23  C   UNL     1      -8.996   6.170  64.005  1.00  0.00     0.749 A  
HETATM   24  N   UNL     1      -8.674   4.903  63.874  1.00  0.00    -0.135 NA 
ENDBRANCH   5  20
BRANCH  11  25
HETATM   25  C   UNL     1      -7.476   9.759  71.310  1.00  0.00     0.608 A  
HETATM   26  C   UNL     1      -7.662   9.701  72.698  1.00  0.00     2.297 A  
HETATM   27  C   UNL     1      -7.036  10.633  73.545  1.00  0.00     5.182 A  
HETATM   28  C   UNL     1      -6.232  11.641  73.006  1.00  0.00     3.922 A  
HETATM   29  C   UNL     1      -6.034  11.705  71.629  1.00  0.00     1.232 A  
HETATM   30  C   UNL     1      -5.625  12.619  73.863  1.00  0.00     0.975 C  
HETATM   31  N   UNL     1      -5.134  13.422  74.543  1.00  0.00    -0.292 NA 
HETATM   32  C   UNL     1      -6.652  10.773  70.789  1.00  0.00     0.391 A  
ENDBRANCH  11  25
TORSDOF 2
ENDMDL
MODEL       90
REMARK 921   NORMALIZED FREE ENERGY PREDICTED BY IDOCK:   31.02 KCAL/MOL
REMARK 922        TOTAL FREE ENERGY PREDICTED BY IDOCK:   33.91 KCAL/MOL
REMARK 923 INTER-LIGAND FREE ENERGY PREDICTED BY IDOCK:   33.74 KCAL/MOL
REMARK 924 INTRA-LIGAND FREE ENERGY PREDICTED BY IDOCK:    0.18 KCAL/MOL
REMARK 927      BINDING AFFINITY PREDICTED BY RF-SCORE:    0.00 PKD
ROOT
HETATM    1  C   UNL     1      -8.287  15.797  64.729  1.00  0.00     6.390 C  
HETATM    2  C   UNL     1      -9.483  15.865  65.692  1.00  0.00    -0.217 C  
HETATM    3  C   UNL     1      -9.694  14.518  66.381  1.00  0.00    -0.296 A  
HETATM    4  C   UNL     1      -9.451  17.110  66.669  1.00  0.00    -0.264 C  
HETATM    5  C   UNL     1      -9.518  18.449  65.865  1.00  0.00     0.156 C  
HETATM    6  C   UNL     1      -8.289  17.048  67.680  1.00  0.00    -0.196 A  
HETATM    7  N   UNL     1      -8.795  13.559  66.510  1.00  0.00    -0.057 NA 
HETATM    8  O   UNL     1     -10.674  17.122  67.455  1.00  0.00    -0.323 OA 
HETATM    9  H   UNL     1     -10.655  17.869  68.041  1.00  0.00     0.000 HD 
HETATM   10  F   UNL     1      -7.424  15.233  70.742  1.00  0.00     0.342 F  
HETATM   11  C   UNL     1      -9.374  12.427  67.078  1.00  0.00    -0.204 A  
HETATM   12  C   UNL     1      -7.088  17.763  67.536  1.00  0.00    -0.185 A  
HETATM   13  C   UNL     1      -6.012  17.608  68.417  1.00  0.00    -0.174 A  
HETATM   14  C   UNL     1      -8.378  16.204  68.809  1.00  0.00    -0.231 A  
HETATM   15  C   UNL     1     -10.685  12.591  67.473  1.00  0.00    -0.225 A  
HETATM   16  C   UNL     1      -7.304  16.053  69.689  1.00  0.00    -0.039 A  
HETATM   17  F   UNL     1      -6.920  18.642  66.543  1.00  0.00    -0.200 F  
HETATM   18  S   UNL     1     -11.270  14.112  66.969  1.00  0.00    -0.331 SA 
HETATM   19  C   UNL     1      -6.113  16.733  69.491  1.00  0.00    -0.218 A  
ENDROOT
BRANCH   5  20
HETATM   20  N   UNL     1     -10.552  18.515  64.846  1.00  0.00     0.193 NA 
HETATM   21  N   UNL     1     -11.520  19.449  64.935  1.00  0.00     0.871 NA 
HETATM   22  C   UNL     1     -12.266  19.163  63.867  1.00  0.00    12.017 A  
HETATM   23  C   UNL     1     -10.742  17.726  63.756  1.00  0.00     7.393 A  
HETATM   24  N   UNL     1     -11.819  18.116  63.113  1.00  0.00    10.342 NA 
ENDBRANCH   5  20
BRANCH  11  25
HETATM   25  C   UNL     1      -8.652  11.161  67.217  1.00  0.00    -0.140 A  
HETATM   26  C   UNL     1      -7.592  10.843  66.357  1.00  0.00    -0.146 A  
HETATM   27  C   UNL     1      -6.932   9.606  66.461  1.00  0.00    -0.085 A  
HETATM   28  C   UNL     1      -7.339   8.671  67.417  1.00  0.00    -0.089 A  
HETATM   29  C   UNL     1      -8.387   8.979  68.281  1.00  0.00    -0.121 A  
HETATM   30  C   UNL     1      -6.695   7.391  67.499  1.00  0.00    -0.069 C  
HETATM   31  N   UNL     1      -6.189   6.349  67.572  1.00  0.00    -0.030 NA 
HETATM   32  C   UNL     1      -9.038  10.213  68.180  1.00  0.00    -0.128 A  
ENDBRANCH  11  25
TORSDOF 2
ENDMDL
MODEL       91
REMARK 921   NORMALIZED FREE ENERGY PREDICTED BY IDOCK:   35.01 KCAL/MOL
REMARK 922        TOTAL FREE ENERGY PREDICTED BY IDOCK:   38.37 KCAL/MOL
REMARK 923 INTER-LIGAND FREE ENERGY PREDICTED BY IDOCK:   38.14 KCAL/MOL
REMARK 924 INTRA-LIGAND FREE ENERGY PREDICTED BY IDOCK:    0.23 KCAL/MOL
REMARK 927      BINDING AFFINITY PREDICTED BY RF-SCORE:    0.00 PKD
ROOT
HETATM    1  C   UNL     1     -13.109   7.834  68.313  1.00  0.00    11.471 C  
HETATM    2  C   UNL     1     -11.666   8.179  67.911  1.00  0.00     2.227 C  
HETATM    3  C   UNL     1     -11.297   9.582  68.388  1.00  0.00     0.260 A  
HETATM    4  C   UNL     1     -10.612   7.057  68.279  1.00  0.00    -0.196 C  
HETATM    5  C   UNL     1     -10.925   5.729  67.516  1.00  0.00    -0.044 C  
HETATM    6  C   UNL     1     -10.436   6.875  69.800  1.00  0.00    -0.240 A  
HETATM    7  N   UNL     1     -11.895  10.261  69.350  1.00  0.00    -0.106 NA 
HETATM    8  O   UNL     1      -9.311   7.447  67.762  1.00  0.00    -0.136 OA 
HETATM    9  H   UNL     1      -8.678   6.774  67.983  1.00  0.00     0.000 HD 
HETATM   10  F   UNL     1      -8.833   8.619  72.593  1.00  0.00    -0.284 F  
HETATM   11  C   UNL     1     -11.376  11.551  69.425  1.00  0.00    -0.289 A  
HETATM   12  C   UNL     1     -11.043   5.846  70.539  1.00  0.00    -0.277 A  
HETATM   13  C   UNL     1     -10.947   5.767  71.933  1.00  0.00    -0.318 A  
HETATM   14  C   UNL     1      -9.663   7.798  70.538  1.00  0.00    -0.175 A  
HETATM   15  C   UNL     1     -10.309  11.790  68.585  1.00  0.00    -0.214 A  
HETATM   16  C   UNL     1      -9.567   7.716  71.928  1.00  0.00    -0.153 A  
HETATM   17  F   UNL     1     -11.740   4.878  69.937  1.00  0.00     1.672 F  
HETATM   18  S   UNL     1     -10.059  10.455  67.552  1.00  0.00    -0.202 SA 
HETATM   19  C   UNL     1     -10.219   6.719  72.636  1.00  0.00    -0.208 A  
ENDROOT
BRANCH   5  20
HETATM   20  N   UNL     1     -11.176   5.870  66.091  1.00  0.00     0.416 NA 
HETATM   21  N   UNL     1     -11.620   4.813  65.383  1.00  0.00     0.414 NA 
HETATM   22  C   UNL     1     -11.688   5.325  64.153  1.00  0.00     3.956 A  
HETATM   23  C   UNL     1     -11.003   6.952  65.287  1.00  0.00     5.409 A  
HETATM   24  N   UNL     1     -11.324   6.637  64.052  1.00  0.00    12.063 NA 
ENDBRANCH   5  20
BRANCH  11  25
HETATM   25  C   UNL     1     -11.940  12.574  70.308  1.00  0.00    -0.364 A  
HETATM   26  C   UNL     1     -12.923  13.457  69.844  1.00  0.00     0.565 A  
HETATM   27  C   UNL     1     -13.428  14.470  70.680  1.00  0.00    -0.038 A  
HETATM   28  C   UNL     1     -12.940  14.615  71.981  1.00  0.00    -0.411 A  
HETATM   29  C   UNL     1     -11.967  13.738  72.455  1.00  0.00     0.922 A  
HETATM   30  C   UNL     1     -13.422  15.672  72.823  1.00  0.00    -0.574 C  
HETATM   31  N   UNL     1     -13.798  16.528  73.511  1.00  0.00    -0.102 NA 
HETATM   32  C   UNL     1     -11.470  12.728  71.624  1.00  0.00     3.095 A  
ENDBRANCH  11  25
TORSDOF 2
ENDMDL
MODEL       92
REMARK 921   NORMALIZED FREE ENERGY PREDICTED BY IDOCK:   37.79 KCAL/MOL
REMARK 922        TOTAL FREE ENERGY PREDICTED BY IDOCK:   41.47 KCAL/MOL
REMARK 923 INTER-LIGAND FREE ENERGY PREDICTED BY IDOCK:   42.03 KCAL/MOL
REMARK 924 INTRA-LIGAND FREE ENERGY PREDICTED BY IDOCK:   -0.56 KCAL/MOL
REMARK 927      BINDING AFFINITY PREDICTED BY RF-SCORE:    0.00 PKD
ROOT
HETATM    1  C   UNL     1      -8.985   9.763  68.018  1.00  0.00    -0.118 C  
HETATM    2  C   UNL     1      -8.730   8.801  66.847  1.00  0.00    -0.136 C  
HETATM    3  C   UNL     1      -7.981   7.559  67.326  1.00  0.00    -0.118 A  
HETATM    4  C   UNL     1     -10.014   8.501  65.970  1.00  0.00     0.035 C  
HETATM    5  C   UNL     1     -10.543   9.809  65.296  1.00  0.00     0.824 C  
HETATM    6  C   UNL     1     -11.094   7.716  66.739  1.00  0.00     0.543 A  
HETATM    7  N   UNL     1      -7.918   7.117  68.569  1.00  0.00    -0.122 NA 
HETATM    8  O   UNL     1      -9.629   7.668  64.843  1.00  0.00     0.670 OA 
HETATM    9  H   UNL     1     -10.399   7.488  64.317  1.00  0.00     0.000 HD 
HETATM   10  F   UNL     1     -11.679   4.290  67.896  1.00  0.00     3.824 F  
HETATM   11  C   UNL     1      -7.045   6.036  68.655  1.00  0.00    -0.082 A  
HETATM   12  C   UNL     1     -12.234   8.307  67.308  1.00  0.00     6.557 A  
HETATM   13  C   UNL     1     -13.145   7.584  68.087  1.00  0.00    11.514 A  
HETATM   14  C   UNL     1     -10.948   6.326  66.942  1.00  0.00    -0.404 A  
HETATM   15  C   UNL     1      -6.544   5.607  67.444  1.00  0.00    -0.057 A  
HETATM   16  C   UNL     1     -11.859   5.605  67.718  1.00  0.00     3.152 A  
HETATM   17  F   UNL     1     -12.510   9.602  67.122  1.00  0.00     3.669 F  
HETATM   18  S   UNL     1      -7.017   6.670  66.197  1.00  0.00    -0.063 SA 
HETATM   19  C   UNL     1     -12.947   6.227  68.309  1.00  0.00    10.072 A  
ENDROOT
BRANCH   5  20
HETATM   20  N   UNL     1      -9.538  10.619  64.628  1.00  0.00    -0.252 NA 
HETATM   21  N   UNL     1      -8.590  10.023  63.878  1.00  0.00    -0.174 NA 
HETATM   22  C   UNL     1      -7.866  11.071  63.482  1.00  0.00     0.479 A  
HETATM   23  C   UNL     1      -9.358  11.966  64.652  1.00  0.00     0.182 A  
HETATM   24  N   UNL     1      -8.307  12.282  63.931  1.00  0.00     2.192 NA 
ENDBRANCH   5  20
BRANCH  11  25
HETATM   25  C   UNL     1      -6.671   5.428  69.933  1.00  0.00    -0.051 A  
HETATM   26  C   UNL     1      -5.600   5.932  70.680  1.00  0.00    -0.013 A  
HETATM   27  C   UNL     1      -5.212   5.316  71.884  1.00  0.00    -0.005 A  
HETATM   28  C   UNL     1      -5.886   4.180  72.339  1.00  0.00    -0.012 A  
HETATM   29  C   UNL     1      -6.958   3.673  71.607  1.00  0.00    -0.031 A  
HETATM   30  C   UNL     1      -5.468   3.523  73.545  1.00  0.00     0.000 C  
HETATM   31  N   UNL     1      -5.136   2.977  74.514  1.00  0.00     0.000 NA 
HETATM   32  C   UNL     1      -7.345   4.291  70.414  1.00  0.00    -0.045 A  
ENDBRANCH  11  25
TORSDOF 2
ENDMDL
MODEL       93
REMARK 921   NORMALIZED FREE ENERGY PREDICTED BY IDOCK:   39.03 KCAL/MOL
REMARK 922        TOTAL FREE ENERGY PREDICTED BY IDOCK:   42.86 KCAL/MOL
REMARK 923 INTER-LIGAND FREE ENERGY PREDICTED BY IDOCK:   43.22 KCAL/MOL
REMARK 924 INTRA-LIGAND FREE ENERGY PREDICTED BY IDOCK:   -0.36 KCAL/MOL
REMARK 927      BINDING AFFINITY PREDICTED BY RF-SCORE:    0.00 PKD
ROOT
HETATM    1  C   UNL     1      -9.515   8.020  64.852  1.00  0.00     1.232 C  
HETATM    2  C   UNL     1      -8.886   8.369  66.211  1.00  0.00    -0.190 C  
HETATM    3  C   UNL     1      -9.112   9.843  66.544  1.00  0.00    -0.152 A  
HETATM    4  C   UNL     1      -9.268   7.363  67.372  1.00  0.00    -0.132 C  
HETATM    5  C   UNL     1      -8.744   5.925  67.055  1.00  0.00    -0.109 C  
HETATM    6  C   UNL     1     -10.764   7.414  67.741  1.00  0.00    -0.249 A  
HETATM    7  N   UNL     1     -10.039  10.627  66.024  1.00  0.00    -0.241 NA 
HETATM    8  O   UNL     1      -8.540   7.734  68.574  1.00  0.00    -0.128 OA 
HETATM    9  H   UNL     1      -8.769   7.131  69.270  1.00  0.00     0.000 HD 
HETATM   10  F   UNL     1     -13.058   9.620  69.554  1.00  0.00     0.812 F  
HETATM   11  C   UNL     1      -9.867  11.936  66.464  1.00  0.00    -0.206 A  
HETATM   12  C   UNL     1     -11.711   6.477  67.296  1.00  0.00     1.056 A  
HETATM   13  C   UNL     1     -13.079   6.607  67.563  1.00  0.00    12.104 A  
HETATM   14  C   UNL     1     -11.261   8.470  68.536  1.00  0.00     0.498 A  
HETATM   15  C   UNL     1      -8.871  12.099  67.404  1.00  0.00    -0.181 A  
HETATM   16  C   UNL     1     -12.626   8.597  68.805  1.00  0.00     5.252 A  
HETATM   17  F   UNL     1     -11.344   5.400  66.595  1.00  0.00    -0.136 F  
HETATM   18  S   UNL     1      -8.011  10.641  67.613  1.00  0.00    -0.107 SA 
HETATM   19  C   UNL     1     -13.543   7.684  68.308  1.00  0.00    16.190 A  
ENDROOT
BRANCH   5  20
HETATM   20  N   UNL     1      -7.358   5.845  66.626  1.00  0.00    -0.077 NA 
HETATM   21  N   UNL     1      -7.073   5.641  65.325  1.00  0.00    -0.064 NA 
HETATM   22  C   UNL     1      -5.739   5.595  65.348  1.00  0.00    -0.017 A  
HETATM   23  C   UNL     1      -6.219   5.917  67.365  1.00  0.00    -0.033 A  
HETATM   24  N   UNL     1      -5.177   5.766  66.580  1.00  0.00    -0.005 NA 
ENDBRANCH   5  20
BRANCH  11  25
HETATM   25  C   UNL     1     -10.664  13.050  65.946  1.00  0.00    -0.292 A  
HETATM   26  C   UNL     1     -11.184  14.022  66.811  1.00  0.00    -0.323 A  
HETATM   27  C   UNL     1     -11.989  15.064  66.316  1.00  0.00     0.055 A  
HETATM   28  C   UNL     1     -12.293  15.130  64.954  1.00  0.00     0.015 A  
HETATM   29  C   UNL     1     -11.775  14.173  64.084  1.00  0.00    -0.306 A  
HETATM   30  C   UNL     1     -13.148  16.167  64.451  1.00  0.00     2.578 C  
HETATM   31  N   UNL     1     -13.845  16.996  64.033  1.00  0.00     6.765 NA 
HETATM   32  C   UNL     1     -10.970  13.141  64.577  1.00  0.00    -0.392 A  
ENDBRANCH  11  25
TORSDOF 2
ENDMDL
MODEL       94
REMARK 921   NORMALIZED FREE ENERGY PREDICTED BY IDOCK:   41.62 KCAL/MOL
REMARK 922        TOTAL FREE ENERGY PREDICTED BY IDOCK:   45.75 KCAL/MOL
REMARK 923 INTER-LIGAND FREE ENERGY PREDICTED BY IDOCK:   46.52 KCAL/MOL
REMARK 924 INTRA-LIGAND FREE ENERGY PREDICTED BY IDOCK:   -0.77 KCAL/MOL
REMARK 927      BINDING AFFINITY PREDICTED BY RF-SCORE:    0.00 PKD
ROOT
HETATM    1  C   UNL     1      -8.555  16.339  69.284  1.00  0.00    -0.148 C  
HETATM    2  C   UNL     1      -9.890  17.098  69.221  1.00  0.00    -0.100 C  
HETATM    3  C   UNL     1     -10.773  16.540  68.107  1.00  0.00    -0.343 A  
HETATM    4  C   UNL     1     -10.610  17.247  70.623  1.00  0.00     1.240 C  
HETATM    5  C   UNL     1      -9.731  18.079  71.613  1.00  0.00     7.103 C  
HETATM    6  C   UNL     1     -11.088  15.899  71.197  1.00  0.00    -0.245 A  
HETATM    7  N   UNL     1     -10.664  15.348  67.549  1.00  0.00    -0.288 NA 
HETATM    8  O   UNL     1     -11.801  18.064  70.455  1.00  0.00     3.689 OA 
HETATM    9  H   UNL     1     -12.233  18.153  71.296  1.00  0.00     0.000 HD 
HETATM   10  F   UNL     1     -13.777  13.481  70.617  1.00  0.00     0.070 F  
HETATM   11  C   UNL     1     -11.552  15.230  66.483  1.00  0.00    -0.015 A  
HETATM   12  C   UNL     1     -10.398  15.183  72.190  1.00  0.00     2.130 A  
HETATM   13  C   UNL     1     -10.803  13.914  72.618  1.00  0.00     4.910 A  
HETATM   14  C   UNL     1     -12.261  15.292  70.696  1.00  0.00    -0.412 A  
HETATM   15  C   UNL     1     -12.402  16.305  66.323  1.00  0.00     2.612 A  
HETATM   16  C   UNL     1     -12.665  14.027  71.126  1.00  0.00    -0.364 A  
HETATM   17  F   UNL     1      -9.315  15.692  72.784  1.00  0.00     4.745 F  
HETATM   18  S   UNL     1     -11.974  17.561  67.394  1.00  0.00     2.841 SA 
HETATM   19  C   UNL     1     -11.935  13.322  72.070  1.00  0.00     1.284 A  
ENDROOT
BRANCH   5  20
HETATM   20  N   UNL     1      -9.195  19.321  71.081  1.00  0.00     3.142 NA 
HETATM   21  N   UNL     1     -10.029  20.233  70.543  1.00  0.00     0.854 NA 
HETATM   22  C   UNL     1      -9.173  21.178  70.151  1.00  0.00     3.364 A  
HETATM   23  C   UNL     1      -7.904  19.740  71.000  1.00  0.00     1.915 A  
HETATM   24  N   UNL     1      -7.860  20.917  70.419  1.00  0.00     2.054 NA 
ENDBRANCH   5  20
BRANCH  11  25
HETATM   25  C   UNL     1     -11.560  14.069  65.592  1.00  0.00    -0.332 A  
HETATM   26  C   UNL     1     -12.758  13.416  65.275  1.00  0.00    -0.481 A  
HETATM   27  C   UNL     1     -12.757  12.271  64.458  1.00  0.00    -0.336 A  
HETATM   28  C   UNL     1     -11.553  11.763  63.964  1.00  0.00    -0.428 A  
HETATM   29  C   UNL     1     -10.355  12.408  64.266  1.00  0.00    -0.388 A  
HETATM   30  C   UNL     1     -11.542  10.572  63.164  1.00  0.00     2.723 C  
HETATM   31  N   UNL     1     -11.518   9.605  62.522  1.00  0.00     6.098 NA 
HETATM   32  C   UNL     1     -10.360  13.550  65.074  1.00  0.00    -0.379 A  
ENDBRANCH  11  25
TORSDOF 2
ENDMDL
MODEL       95
REMARK 921   NORMALIZED FREE ENERGY PREDICTED BY IDOCK:   44.95 KCAL/MOL
REMARK 922        TOTAL FREE ENERGY PREDICTED BY IDOCK:   49.47 KCAL/MOL
REMARK 923 INTER-LIGAND FREE ENERGY PREDICTED BY IDOCK:   50.01 KCAL/MOL
REMARK 924 INTRA-LIGAND FREE ENERGY PREDICTED BY IDOCK:   -0.55 KCAL/MOL
REMARK 927      BINDING AFFINITY PREDICTED BY RF-SCORE:    0.00 PKD
ROOT
HETATM    1  C   UNL     1     -10.776  11.666  72.512  1.00  0.00    12.217 C  
HETATM    2  C   UNL     1      -9.990  11.577  71.195  1.00  0.00     6.773 C  
HETATM    3  C   UNL     1      -9.309  10.215  71.067  1.00  0.00     1.518 A  
HETATM    4  C   UNL     1     -10.818  12.023  69.922  1.00  0.00     0.521 C  
HETATM    5  C   UNL     1     -11.235  13.526  70.030  1.00  0.00     0.152 C  
HETATM    6  C   UNL     1     -11.991  11.073  69.606  1.00  0.00    -0.424 A  
HETATM    7  N   UNL     1      -9.642   9.113  71.713  1.00  0.00    -0.305 NA 
HETATM    8  O   UNL     1      -9.946  11.994  68.760  1.00  0.00    -0.354 OA 
HETATM    9  H   UNL     1     -10.443  12.262  67.996  1.00  0.00     0.000 HD 
HETATM   10  F   UNL     1     -12.498   7.743  68.169  1.00  0.00     3.051 F  
HETATM   11  C   UNL     1      -8.725   8.100  71.446  1.00  0.00    -0.145 A  
HETATM   12  C   UNL     1     -13.327  11.339  69.950  1.00  0.00     1.244 A  
HETATM   13  C   UNL     1     -14.354  10.412  69.742  1.00  0.00     4.248 A  
HETATM   14  C   UNL     1     -11.747   9.835  68.973  1.00  0.00     0.312 A  
HETATM   15  C   UNL     1      -7.769   8.425  70.507  1.00  0.00    -0.080 A  
HETATM   16  C   UNL     1     -12.773   8.912  68.763  1.00  0.00     5.638 A  
HETATM   17  F   UNL     1     -13.684  12.508  70.491  1.00  0.00     0.691 F  
HETATM   18  S   UNL     1      -7.894  10.073  70.082  1.00  0.00    -0.021 SA 
HETATM   19  C   UNL     1     -14.073   9.182  69.160  1.00  0.00     7.616 A  
ENDROOT
BRANCH   5  20
HETATM   20  N   UNL     1     -10.172  14.445  70.405  1.00  0.00     0.792 NA 
HETATM   21  N   UNL     1      -8.929  14.261  69.919  1.00  0.00     0.935 NA 
HETATM   22  C   UNL     1      -8.263  15.256  70.508  1.00  0.00     1.380 A  
HETATM   23  C   UNL     1     -10.211  15.516  71.241  1.00  0.00     1.092 A  
HETATM   24  N   UNL     1      -9.015  16.053  71.322  1.00  0.00     4.090 NA 
ENDBRANCH   5  20
BRANCH  11  25
HETATM   25  C   UNL     1      -8.763   6.806  72.130  1.00  0.00    -0.132 A  
HETATM   26  C   UNL     1      -8.002   5.727  71.663  1.00  0.00    -0.117 A  
HETATM   27  C   UNL     1      -8.077   4.471  72.293  1.00  0.00    -0.101 A  
HETATM   28  C   UNL     1      -8.927   4.284  73.385  1.00  0.00    -0.104 A  
HETATM   29  C   UNL     1      -9.683   5.353  73.863  1.00  0.00    -0.157 A  
HETATM   30  C   UNL     1      -9.038   2.995  74.006  1.00  0.00    -0.081 C  
HETATM   31  N   UNL     1      -9.144   1.955  74.511  1.00  0.00    -0.061 NA 
HETATM   32  C   UNL     1      -9.602   6.602  73.239  1.00  0.00    -0.175 A  
ENDBRANCH  11  25
TORSDOF 2
ENDMDL
MODEL       96
REMARK 921   NORMALIZED FREE ENERGY PREDICTED BY IDOCK:   54.30 KCAL/MOL
REMARK 922        TOTAL FREE ENERGY PREDICTED BY IDOCK:   59.91 KCAL/MOL
REMARK 923 INTER-LIGAND FREE ENERGY PREDICTED BY IDOCK:   60.27 KCAL/MOL
REMARK 924 INTRA-LIGAND FREE ENERGY PREDICTED BY IDOCK:   -0.36 KCAL/MOL
REMARK 927      BINDING AFFINITY PREDICTED BY RF-SCORE:    0.00 PKD
ROOT
HETATM    1  C   UNL     1     -12.741  10.290  71.048  1.00  0.00    -0.491 C  
HETATM    2  C   UNL     1     -11.669   9.647  70.154  1.00  0.00    -0.143 C  
HETATM    3  C   UNL     1     -10.894  10.718  69.389  1.00  0.00    -0.244 A  
HETATM    4  C   UNL     1     -10.764   8.584  70.902  1.00  0.00    -0.224 C  
HETATM    5  C   UNL     1     -11.625   7.382  71.410  1.00  0.00    -0.275 C  
HETATM    6  C   UNL     1      -9.872   9.215  71.989  1.00  0.00     0.005 A  
HETATM    7  N   UNL     1     -10.806  11.996  69.711  1.00  0.00     0.193 NA 
HETATM    8  O   UNL     1      -9.863   7.974  69.939  1.00  0.00    -0.182 OA 
HETATM    9  H   UNL     1      -9.320   7.337  70.387  1.00  0.00     0.000 HD 
HETATM   10  F   UNL     1      -6.823  11.234  72.190  1.00  0.00     3.030 F  
HETATM   11  C   UNL     1     -10.126  12.698  68.719  1.00  0.00    -0.044 A  
HETATM   12  C   UNL     1     -10.172   9.184  73.362  1.00  0.00     3.413 A  
HETATM   13  C   UNL     1      -9.396   9.853  74.314  1.00  0.00     9.760 A  
HETATM   14  C   UNL     1      -8.698   9.910  71.625  1.00  0.00     2.311 A  
HETATM   15  C   UNL     1      -9.611  11.912  67.711  1.00  0.00    -0.190 A  
HETATM   16  C   UNL     1      -7.923  10.575  72.578  1.00  0.00     8.171 A  
HETATM   17  F   UNL     1     -11.220   8.497  73.827  1.00  0.00     0.895 F  
HETATM   18  S   UNL     1     -10.132  10.298  67.894  1.00  0.00    -0.179 SA 
HETATM   19  C   UNL     1      -8.273  10.569  73.919  1.00  0.00     9.731 A  
ENDROOT
BRANCH   5  20
HETATM   20  N   UNL     1     -12.539   6.810  70.435  1.00  0.00     0.029 NA 
HETATM   21  N   UNL     1     -13.866   6.839  70.665  1.00  0.00     0.944 NA 
HETATM   22  C   UNL     1     -14.337   6.205  69.590  1.00  0.00    11.232 A  
HETATM   23  C   UNL     1     -12.266   6.182  69.260  1.00  0.00     2.279 A  
HETATM   24  N   UNL     1     -13.388   5.792  68.700  1.00  0.00    12.285 NA 
ENDBRANCH   5  20
BRANCH  11  25
HETATM   25  C   UNL     1      -9.995  14.156  68.739  1.00  0.00    -0.184 A  
HETATM   26  C   UNL     1      -8.756  14.761  68.986  1.00  0.00    -0.139 A  
HETATM   27  C   UNL     1      -8.643  16.162  69.052  1.00  0.00    -0.251 A  
HETATM   28  C   UNL     1      -9.774  16.966  68.886  1.00  0.00    -0.256 A  
HETATM   29  C   UNL     1     -11.010  16.375  68.633  1.00  0.00    -0.345 A  
HETATM   30  C   UNL     1      -9.671  18.393  68.994  1.00  0.00    -0.223 C  
HETATM   31  N   UNL     1      -9.604  19.548  69.087  1.00  0.00    -0.362 NA 
HETATM   32  C   UNL     1     -11.119  14.982  68.561  1.00  0.00    -0.279 A  
ENDBRANCH  11  25
TORSDOF 2
ENDMDL
MODEL       97
REMARK 921   NORMALIZED FREE ENERGY PREDICTED BY IDOCK:   56.88 KCAL/MOL
REMARK 922        TOTAL FREE ENERGY PREDICTED BY IDOCK:   62.79 KCAL/MOL
REMARK 923 INTER-LIGAND FREE ENERGY PREDICTED BY IDOCK:   63.30 KCAL/MOL
REMARK 924 INTRA-LIGAND FREE ENERGY PREDICTED BY IDOCK:   -0.52 KCAL/MOL
REMARK 927      BINDING AFFINITY PREDICTED BY RF-SCORE:    0.00 PKD
ROOT
HETATM    1  C   UNL     1      -6.490  16.047  69.498  1.00  0.00    -0.187 C  
HETATM    2  C   UNL     1      -7.906  16.457  69.066  1.00  0.00    -0.231 C  
HETATM    3  C   UNL     1      -8.698  15.238  68.596  1.00  0.00    -0.182 A  
HETATM    4  C   UNL     1      -8.660  17.368  70.120  1.00  0.00     2.575 C  
HETATM    5  C   UNL     1      -7.905  18.722  70.323  1.00  0.00     1.877 C  
HETATM    6  C   UNL     1      -8.977  16.628  71.434  1.00  0.00     7.254 A  
HETATM    7  N   UNL     1      -8.435  13.977  68.888  1.00  0.00    -0.027 NA 
HETATM    8  O   UNL     1      -9.939  17.772  69.561  1.00  0.00    -0.054 OA 
HETATM    9  H   UNL     1     -10.391  18.319  70.193  1.00  0.00     0.000 HD 
HETATM   10  F   UNL     1     -11.339  14.106  72.649  1.00  0.00     0.564 F  
HETATM   11  C   UNL     1      -9.287  13.130  68.184  1.00  0.00    -0.217 A  
HETATM   12  C   UNL     1      -8.218  16.761  72.609  1.00  0.00    17.157 A  
HETATM   13  C   UNL     1      -8.470  15.999  73.755  1.00  0.00    16.803 A  
HETATM   14  C   UNL     1     -10.059  15.721  71.492  1.00  0.00     2.014 A  
HETATM   15  C   UNL     1     -10.259  13.776  67.450  1.00  0.00    -0.252 A  
HETATM   16  C   UNL     1     -10.310  14.964  72.638  1.00  0.00     3.383 A  
HETATM   17  F   UNL     1      -7.214  17.639  72.690  1.00  0.00     6.348 F  
HETATM   18  S   UNL     1     -10.005  15.462  67.485  1.00  0.00    -0.227 SA 
HETATM   19  C   UNL     1      -9.512  15.080  73.765  1.00  0.00     9.453 A  
ENDROOT
BRANCH   5  20
HETATM   20  N   UNL     1      -7.517  19.412  69.104  1.00  0.00    -0.345 NA 
HETATM   21  N   UNL     1      -8.330  19.377  68.030  1.00  0.00    -0.309 NA 
HETATM   22  C   UNL     1      -7.624  20.074  67.139  1.00  0.00    -0.287 A  
HETATM   23  C   UNL     1      -6.385  20.112  68.831  1.00  0.00    -0.323 A  
HETATM   24  N   UNL     1      -6.426  20.548  67.592  1.00  0.00    -0.256 NA 
ENDBRANCH   5  20
BRANCH  11  25
HETATM   25  C   UNL     1      -9.138  11.674  68.204  1.00  0.00    -0.183 A  
HETATM   26  C   UNL     1     -10.208  10.840  67.856  1.00  0.00    -0.203 A  
HETATM   27  C   UNL     1     -10.078   9.441  67.923  1.00  0.00    -0.239 A  
HETATM   28  C   UNL     1      -8.879   8.868  68.354  1.00  0.00    -0.134 A  
HETATM   29  C   UNL     1      -7.805   9.687  68.695  1.00  0.00    -0.081 A  
HETATM   30  C   UNL     1      -8.755   7.442  68.463  1.00  0.00    -0.127 C  
HETATM   31  N   UNL     1      -8.643   6.291  68.564  1.00  0.00    -0.114 NA 
HETATM   32  C   UNL     1      -7.935  11.078  68.623  1.00  0.00    -0.143 A  
ENDBRANCH  11  25
TORSDOF 2
ENDMDL
MODEL       98
REMARK 921   NORMALIZED FREE ENERGY PREDICTED BY IDOCK:   58.30 KCAL/MOL
REMARK 922        TOTAL FREE ENERGY PREDICTED BY IDOCK:   64.38 KCAL/MOL
REMARK 923 INTER-LIGAND FREE ENERGY PREDICTED BY IDOCK:   64.36 KCAL/MOL
REMARK 924 INTRA-LIGAND FREE ENERGY PREDICTED BY IDOCK:    0.02 KCAL/MOL
REMARK 927      BINDING AFFINITY PREDICTED BY RF-SCORE:    0.00 PKD
ROOT
HETATM    1  C   UNL     1      -8.277   8.403  71.480  1.00  0.00    -0.182 C  
HETATM    2  C   UNL     1      -8.440   9.810  70.884  1.00  0.00     0.435 C  
HETATM    3  C   UNL     1      -8.631   9.734  69.371  1.00  0.00    -0.165 A  
HETATM    4  C   UNL     1      -9.503  10.709  71.640  1.00  0.00     6.410 C  
HETATM    5  C   UNL     1      -9.067  10.957  73.121  1.00  0.00    16.369 C  
HETATM    6  C   UNL     1     -10.944  10.181  71.495  1.00  0.00     0.505 A  
HETATM    7  N   UNL     1      -9.032   8.677  68.688  1.00  0.00    -0.142 NA 
HETATM    8  O   UNL     1      -9.495  12.039  71.054  1.00  0.00     6.415 OA 
HETATM    9  H   UNL     1     -10.132  12.578  71.507  1.00  0.00     0.000 HD 
HETATM   10  F   UNL     1     -13.569  10.070  68.943  1.00  0.00     2.396 F  
HETATM   11  C   UNL     1      -8.968   8.932  67.321  1.00  0.00    -0.128 A  
HETATM   12  C   UNL     1     -11.608   9.439  72.486  1.00  0.00     0.728 A  
HETATM   13  C   UNL     1     -12.878   8.888  72.284  1.00  0.00    -0.475 A  
HETATM   14  C   UNL     1     -11.659  10.399  70.297  1.00  0.00    -0.410 A  
HETATM   15  C   UNL     1      -8.621  10.225  66.995  1.00  0.00    -0.129 A  
HETATM   16  C   UNL     1     -12.928   9.850  70.099  1.00  0.00     0.354 A  
HETATM   17  F   UNL     1     -11.054   9.231  73.684  1.00  0.00     2.560 F  
HETATM   18  S   UNL     1      -8.190  11.094  68.398  1.00  0.00    -0.149 SA 
HETATM   19  C   UNL     1     -13.537   9.079  71.076  1.00  0.00    -0.033 A  
ENDROOT
BRANCH   5  20
HETATM   20  N   UNL     1      -7.688  11.379  73.305  1.00  0.00    13.964 NA 
HETATM   21  N   UNL     1      -6.886  11.526  72.232  1.00  0.00     5.173 NA 
HETATM   22  C   UNL     1      -5.734  11.876  72.807  1.00  0.00     1.798 A  
HETATM   23  C   UNL     1      -7.011  11.643  74.454  1.00  0.00     5.715 A  
HETATM   24  N   UNL     1      -5.770  11.965  74.168  1.00  0.00     0.606 NA 
ENDBRANCH   5  20
BRANCH  11  25
HETATM   25  C   UNL     1      -9.222   7.897  66.317  1.00  0.00    -0.231 A  
HETATM   26  C   UNL     1     -10.321   7.036  66.437  1.00  0.00     0.045 A  
HETATM   27  C   UNL     1     -10.535   6.012  65.497  1.00  0.00     1.223 A  
HETATM   28  C   UNL     1      -9.642   5.833  64.438  1.00  0.00     1.229 A  
HETATM   29  C   UNL     1      -8.550   6.688  64.304  1.00  0.00     0.362 A  
HETATM   30  C   UNL     1      -9.833   4.764  63.500  1.00  0.00     0.399 C  
HETATM   31  N   UNL     1      -9.972   3.899  62.739  1.00  0.00    -0.159 NA 
HETATM   32  C   UNL     1      -8.342   7.710  65.237  1.00  0.00    -0.121 A  
ENDBRANCH  11  25
TORSDOF 2
ENDMDL
MODEL       99
REMARK 921   NORMALIZED FREE ENERGY PREDICTED BY IDOCK:   60.43 KCAL/MOL
REMARK 922        TOTAL FREE ENERGY PREDICTED BY IDOCK:   66.75 KCAL/MOL
REMARK 923 INTER-LIGAND FREE ENERGY PREDICTED BY IDOCK:   66.61 KCAL/MOL
REMARK 924 INTRA-LIGAND FREE ENERGY PREDICTED BY IDOCK:    0.14 KCAL/MOL
REMARK 927      BINDING AFFINITY PREDICTED BY RF-SCORE:    0.00 PKD
ROOT
HETATM    1  C   UNL     1      -6.678  14.543  64.789  1.00  0.00    17.919 C  
HETATM    2  C   UNL     1      -8.205  14.632  64.944  1.00  0.00     7.127 C  
HETATM    3  C   UNL     1      -8.857  13.290  64.620  1.00  0.00     2.901 A  
HETATM    4  C   UNL     1      -8.674  15.282  66.309  1.00  0.00    -0.153 C  
HETATM    5  C   UNL     1      -8.181  16.762  66.418  1.00  0.00    -0.314 C  
HETATM    6  C   UNL     1      -8.324  14.417  67.536  1.00  0.00    -0.198 A  
HETATM    7  N   UNL     1      -8.260  12.111  64.625  1.00  0.00     2.126 NA 
HETATM    8  O   UNL     1     -10.122  15.405  66.298  1.00  0.00    -0.262 OA 
HETATM    9  H   UNL     1     -10.404  15.795  67.117  1.00  0.00     0.000 HD 
HETATM   10  F   UNL     1      -9.513  11.350  69.146  1.00  0.00    -0.153 F  
HETATM   11  C   UNL     1      -9.127  11.128  64.156  1.00  0.00    -0.039 A  
HETATM   12  C   UNL     1      -7.223  14.660  68.376  1.00  0.00    -0.117 A  
HETATM   13  C   UNL     1      -6.873  13.798  69.421  1.00  0.00    -0.044 A  
HETATM   14  C   UNL     1      -9.103  13.281  67.847  1.00  0.00    -0.203 A  
HETATM   15  C   UNL     1     -10.411  11.567  63.907  1.00  0.00    -0.371 A  
HETATM   16  C   UNL     1      -8.753  12.424  68.892  1.00  0.00     0.296 A  
HETATM   17  F   UNL     1      -6.457  15.744  68.218  1.00  0.00    -0.102 F  
HETATM   18  S   UNL     1     -10.501  13.262  64.081  1.00  0.00    -0.083 SA 
HETATM   19  C   UNL     1      -7.632  12.662  69.671  1.00  0.00     0.945 A  
ENDROOT
BRANCH   5  20
HETATM   20  N   UNL     1      -8.422  17.589  65.248  1.00  0.00     0.935 NA 
HETATM   21  N   UNL     1      -9.255  18.645  65.336  1.00  0.00     0.534 NA 
HETATM   22  C   UNL     1      -9.235  19.105  64.083  1.00  0.00     8.809 A  
HETATM   23  C   UNL     1      -7.941  17.458  63.983  1.00  0.00    11.780 A  
HETATM   24  N   UNL     1      -8.436  18.408  63.223  1.00  0.00    16.363 NA 
ENDBRANCH   5  20
BRANCH  11  25
HETATM   25  C   UNL     1      -8.698   9.748  63.923  1.00  0.00    -0.236 A  
HETATM   26  C   UNL     1      -8.625   9.231  62.623  1.00  0.00    -0.224 A  
HETATM   27  C   UNL     1      -8.258   7.891  62.404  1.00  0.00    -0.141 A  
HETATM   28  C   UNL     1      -7.977   7.055  63.488  1.00  0.00    -0.070 A  
HETATM   29  C   UNL     1      -8.039   7.560  64.785  1.00  0.00    -0.112 A  
HETATM   30  C   UNL     1      -7.643   5.676  63.272  1.00  0.00    -0.078 C  
HETATM   31  N   UNL     1      -7.380   4.557  63.113  1.00  0.00    -0.051 NA 
HETATM   32  C   UNL     1      -8.398   8.895  64.999  1.00  0.00    -0.174 A  
ENDBRANCH  11  25
TORSDOF 2
ENDMDL
MODEL      100
REMARK 921   NORMALIZED FREE ENERGY PREDICTED BY IDOCK:   69.75 KCAL/MOL
REMARK 922        TOTAL FREE ENERGY PREDICTED BY IDOCK:   77.17 KCAL/MOL
REMARK 923 INTER-LIGAND FREE ENERGY PREDICTED BY IDOCK:   77.23 KCAL/MOL
REMARK 924 INTRA-LIGAND FREE ENERGY PREDICTED BY IDOCK:   -0.07 KCAL/MOL
REMARK 927      BINDING AFFINITY PREDICTED BY RF-SCORE:    0.00 PKD
ROOT
HETATM    1  C   UNL     1      -9.096  11.494  67.214  1.00  0.00    -0.164 C  
HETATM    2  C   UNL     1      -8.928  10.581  65.989  1.00  0.00    -0.185 C  
HETATM    3  C   UNL     1      -8.249   9.271  66.385  1.00  0.00    -0.111 A  
HETATM    4  C   UNL     1     -10.247  10.409  65.131  1.00  0.00    -0.256 C  
HETATM    5  C   UNL     1     -10.706  11.781  64.538  1.00  0.00    -0.315 C  
HETATM    6  C   UNL     1     -11.358   9.652  65.885  1.00  0.00     2.350 A  
HETATM    7  N   UNL     1      -8.187   8.761  67.602  1.00  0.00    -0.110 NA 
HETATM    8  O   UNL     1      -9.940   9.614  63.953  1.00  0.00    -0.363 OA 
HETATM    9  H   UNL     1     -10.731   9.511  63.438  1.00  0.00     0.000 HD 
HETATM   10  F   UNL     1     -12.133   6.213  66.878  1.00  0.00     0.630 F  
HETATM   11  C   UNL     1      -7.383   7.625  67.610  1.00  0.00    -0.095 A  
HETATM   12  C   UNL     1     -12.446  10.283  66.512  1.00  0.00     6.814 A  
HETATM   13  C   UNL     1     -13.383   9.577  67.275  1.00  0.00    16.335 A  
HETATM   14  C   UNL     1     -11.296   8.247  66.013  1.00  0.00     4.227 A  
HETATM   15  C   UNL     1      -6.937   7.230  66.367  1.00  0.00    -0.069 A  
HETATM   16  C   UNL     1     -12.234   7.545  66.772  1.00  0.00     6.147 A  
HETATM   17  F   UNL     1     -12.643  11.600  66.400  1.00  0.00     0.598 F  
HETATM   18  S   UNL     1      -7.368   8.386  65.188  1.00  0.00    -0.084 SA 
HETATM   19  C   UNL     1     -13.267   8.201  67.422  1.00  0.00    16.982 A  
ENDROOT
BRANCH   5  20
HETATM   20  N   UNL     1      -9.667  12.561  63.888  1.00  0.00    -0.136 NA 
HETATM   21  N   UNL     1      -9.675  13.904  63.994  1.00  0.00     1.158 NA 
HETATM   22  C   UNL     1      -8.616  14.236  63.254  1.00  0.00    14.610 A  
HETATM   23  C   UNL     1      -8.630  12.144  63.114  1.00  0.00     1.800 A  
HETATM   24  N   UNL     1      -7.944  13.185  62.701  1.00  0.00     7.861 NA 
ENDBRANCH   5  20
BRANCH  11  25
HETATM   25  C   UNL     1      -7.021   6.928  68.845  1.00  0.00    -0.082 A  
HETATM   26  C   UNL     1      -5.686   6.606  69.122  1.00  0.00    -0.017 A  
HETATM   27  C   UNL     1      -5.347   5.893  70.286  1.00  0.00    -0.012 A  
HETATM   28  C   UNL     1      -6.345   5.484  71.174  1.00  0.00    -0.035 A  
HETATM   29  C   UNL     1      -7.675   5.805  70.913  1.00  0.00    -0.097 A  
HETATM   30  C   UNL     1      -6.008   4.721  72.342  1.00  0.00    -0.020 C  
HETATM   31  N   UNL     1      -5.751   4.096  73.286  1.00  0.00    -0.007 NA 
HETATM   32  C   UNL     1      -8.010   6.519  69.758  1.00  0.00    -0.120 A  
ENDBRANCH  11  25
TORSDOF 2
ENDMDL
MODEL      101
REMARK 921   NORMALIZED FREE ENERGY PREDICTED BY IDOCK:   76.79 KCAL/MOL
REMARK 922        TOTAL FREE ENERGY PREDICTED BY IDOCK:   85.03 KCAL/MOL
REMARK 923 INTER-LIGAND FREE ENERGY PREDICTED BY IDOCK:   84.85 KCAL/MOL
REMARK 924 INTRA-LIGAND FREE ENERGY PREDICTED BY IDOCK:    0.19 KCAL/MOL
REMARK 927      BINDING AFFINITY PREDICTED BY RF-SCORE:    0.00 PKD
ROOT
HETATM    1  C   UNL     1     -10.818  12.619  67.569  1.00  0.00    -0.267 C  
HETATM    2  C   UNL     1     -10.394  13.257  66.237  1.00  0.00    -0.290 C  
HETATM    3  C   UNL     1     -10.756  14.741  66.213  1.00  0.00    -0.313 A  
HETATM    4  C   UNL     1      -8.902  12.935  65.817  1.00  0.00     0.716 C  
HETATM    5  C   UNL     1      -8.707  11.399  65.596  1.00  0.00    -0.016 C  
HETATM    6  C   UNL     1      -7.863  13.565  66.766  1.00  0.00     0.458 A  
HETATM    7  N   UNL     1     -10.992  15.503  67.266  1.00  0.00    -0.318 NA 
HETATM    8  O   UNL     1      -8.650  13.503  64.503  1.00  0.00     2.759 OA 
HETATM    9  H   UNL     1      -7.755  13.310  64.251  1.00  0.00     0.000 HD 
HETATM   10  F   UNL     1      -6.443  16.870  67.457  1.00  0.00    -0.127 F  
HETATM   11  C   UNL     1     -11.417  16.766  66.863  1.00  0.00     0.780 A  
HETATM   12  C   UNL     1      -7.202  12.856  67.783  1.00  0.00    -0.134 A  
HETATM   13  C   UNL     1      -6.340  13.479  68.693  1.00  0.00    -0.091 A  
HETATM   14  C   UNL     1      -7.559  14.941  66.669  1.00  0.00     0.626 A  
HETATM   15  C   UNL     1     -11.389  16.972  65.500  1.00  0.00     0.634 A  
HETATM   16  C   UNL     1      -6.697  15.560  67.576  1.00  0.00    -0.190 A  
HETATM   17  F   UNL     1      -7.360  11.537  67.924  1.00  0.00    -0.082 F  
HETATM   18  S   UNL     1     -11.005  15.521  64.690  1.00  0.00    -0.206 SA 
HETATM   19  C   UNL     1      -6.099  14.844  68.601  1.00  0.00    -0.087 A  
ENDROOT
BRANCH   5  20
HETATM   20  N   UNL     1      -9.713  10.753  64.771  1.00  0.00    -0.256 NA 
HETATM   21  N   UNL     1      -9.754   9.408  64.698  1.00  0.00     0.138 NA 
HETATM   22  C   UNL     1     -10.760   9.218  63.842  1.00  0.00     5.761 A  
HETATM   23  C   UNL     1     -10.671  11.309  63.983  1.00  0.00    -0.377 A  
HETATM   24  N   UNL     1     -11.353  10.359  63.384  1.00  0.00     2.057 NA 
ENDBRANCH   5  20
BRANCH  11  25
HETATM   25  C   UNL     1     -11.881  17.779  67.813  1.00  0.00     1.863 A  
HETATM   26  C   UNL     1     -11.350  17.842  69.108  1.00  0.00     1.779 A  
HETATM   27  C   UNL     1     -11.832  18.785  70.034  1.00  0.00     8.191 A  
HETATM   28  C   UNL     1     -12.860  19.660  69.675  1.00  0.00    15.289 A  
HETATM   29  C   UNL     1     -13.390  19.611  68.387  1.00  0.00     9.227 A  
HETATM   30  C   UNL     1     -13.383  20.596  70.629  1.00  0.00    16.541 C  
HETATM   31  N   UNL     1     -13.821  21.352  71.393  1.00  0.00    14.230 NA 
HETATM   32  C   UNL     1     -12.905  18.677  67.466  1.00  0.00     6.547 A  
ENDBRANCH  11  25
TORSDOF 2
ENDMDL
MODEL      102
REMARK 921   NORMALIZED FREE ENERGY PREDICTED BY IDOCK:   77.95 KCAL/MOL
REMARK 922        TOTAL FREE ENERGY PREDICTED BY IDOCK:   86.33 KCAL/MOL
REMARK 923 INTER-LIGAND FREE ENERGY PREDICTED BY IDOCK:   86.54 KCAL/MOL
REMARK 924 INTRA-LIGAND FREE ENERGY PREDICTED BY IDOCK:   -0.21 KCAL/MOL
REMARK 927      BINDING AFFINITY PREDICTED BY RF-SCORE:    0.00 PKD
ROOT
HETATM    1  C   UNL     1      -8.530   9.622  68.061  1.00  0.00    -0.118 C  
HETATM    2  C   UNL     1      -9.489   9.209  69.188  1.00  0.00    -0.156 C  
HETATM    3  C   UNL     1     -10.570  10.269  69.389  1.00  0.00    -0.237 A  
HETATM    4  C   UNL     1     -10.033   7.728  69.058  1.00  0.00    -0.182 C  
HETATM    5  C   UNL     1      -8.861   6.697  69.143  1.00  0.00    -0.129 C  
HETATM    6  C   UNL     1     -10.948   7.531  67.834  1.00  0.00    -0.027 A  
HETATM    7  N   UNL     1     -10.938  11.183  68.510  1.00  0.00    -0.201 NA 
HETATM    8  O   UNL     1     -10.842   7.420  70.226  1.00  0.00    -0.236 OA 
HETATM    9  H   UNL     1     -11.169   6.532  70.148  1.00  0.00     0.000 HD 
HETATM   10  F   UNL     1     -14.367   8.361  66.817  1.00  0.00    18.798 F  
HETATM   11  C   UNL     1     -11.858  12.060  69.079  1.00  0.00    -0.315 A  
HETATM   12  C   UNL     1     -10.525   6.950  66.627  1.00  0.00    -0.143 A  
HETATM   13  C   UNL     1     -11.351   6.878  65.499  1.00  0.00     5.303 A  
HETATM   14  C   UNL     1     -12.285   7.985  67.870  1.00  0.00     4.940 A  
HETATM   15  C   UNL     1     -12.254  11.724  70.356  1.00  0.00    -0.330 A  
HETATM   16  C   UNL     1     -13.108   7.909  66.744  1.00  0.00    16.034 A  
HETATM   17  F   UNL     1      -9.303   6.425  66.501  1.00  0.00    -0.146 F  
HETATM   18  S   UNL     1     -11.339  10.404  70.932  1.00  0.00    -0.088 SA 
HETATM   19  C   UNL     1     -12.646   7.377  65.551  1.00  0.00    13.353 A  
ENDROOT
BRANCH   5  20
HETATM   20  N   UNL     1      -7.929   6.898  70.240  1.00  0.00    -0.113 NA 
HETATM   21  N   UNL     1      -6.602   6.863  70.004  1.00  0.00    -0.043 NA 
HETATM   22  C   UNL     1      -6.109   7.049  71.230  1.00  0.00    -0.037 A  
HETATM   23  C   UNL     1      -8.180   7.101  71.561  1.00  0.00    -0.107 A  
HETATM   24  N   UNL     1      -7.044   7.205  72.213  1.00  0.00    -0.067 NA 
ENDBRANCH   5  20
BRANCH  11  25
HETATM   25  C   UNL     1     -12.339  13.255  68.384  1.00  0.00     0.107 A  
HETATM   26  C   UNL     1     -12.622  13.220  67.012  1.00  0.00     0.280 A  
HETATM   27  C   UNL     1     -13.038  14.382  66.337  1.00  0.00     1.031 A  
HETATM   28  C   UNL     1     -13.158  15.590  67.027  1.00  0.00     3.472 A  
HETATM   29  C   UNL     1     -12.885  15.635  68.393  1.00  0.00     1.715 A  
HETATM   30  C   UNL     1     -13.541  16.787  66.334  1.00  0.00     9.837 C  
HETATM   31  N   UNL     1     -13.843  17.763  65.784  1.00  0.00    14.323 NA 
HETATM   32  C   UNL     1     -12.478  14.477  69.064  1.00  0.00     0.021 A  
ENDBRANCH  11  25
TORSDOF 2
ENDMDL
MODEL      103
REMARK 921   NORMALIZED FREE ENERGY PREDICTED BY IDOCK:   79.97 KCAL/MOL
REMARK 922        TOTAL FREE ENERGY PREDICTED BY IDOCK:   88.58 KCAL/MOL
REMARK 923 INTER-LIGAND FREE ENERGY PREDICTED BY IDOCK:   88.43 KCAL/MOL
REMARK 924 INTRA-LIGAND FREE ENERGY PREDICTED BY IDOCK:    0.16 KCAL/MOL
REMARK 927      BINDING AFFINITY PREDICTED BY RF-SCORE:    0.00 PKD
ROOT
HETATM    1  C   UNL     1     -10.176  12.599  72.629  1.00  0.00    16.890 C  
HETATM    2  C   UNL     1      -9.104  12.785  71.543  1.00  0.00    17.017 C  
HETATM    3  C   UNL     1      -8.235  11.535  71.425  1.00  0.00     9.689 A  
HETATM    4  C   UNL     1      -9.672  13.327  70.167  1.00  0.00     3.148 C  
HETATM    5  C   UNL     1     -10.300  14.747  70.347  1.00  0.00     0.337 C  
HETATM    6  C   UNL     1     -10.602  12.318  69.464  1.00  0.00     0.322 A  
HETATM    7  N   UNL     1      -8.556  10.321  71.836  1.00  0.00     3.861 NA 
HETATM    8  O   UNL     1      -8.561  13.558  69.259  1.00  0.00    -0.170 OA 
HETATM    9  H   UNL     1      -8.902  13.882  68.434  1.00  0.00     0.000 HD 
HETATM   10  F   UNL     1     -10.314   9.200  67.564  1.00  0.00    -0.245 F  
HETATM   11  C   UNL     1      -7.475   9.458  71.684  1.00  0.00     0.467 A  
HETATM   12  C   UNL     1     -12.005  12.392  69.500  1.00  0.00    -0.261 A  
HETATM   13  C   UNL     1     -12.822  11.405  68.938  1.00  0.00     1.418 A  
HETATM   14  C   UNL     1     -10.055  11.217  68.769  1.00  0.00    -0.204 A  
HETATM   15  C   UNL     1      -6.382  10.014  71.054  1.00  0.00     0.030 A  
HETATM   16  C   UNL     1     -10.873  10.235  68.206  1.00  0.00    -0.255 A  
HETATM   17  F   UNL     1     -12.630  13.426  70.071  1.00  0.00    -0.318 F  
HETATM   18  S   UNL     1      -6.626  11.684  70.807  1.00  0.00     1.626 SA 
HETATM   19  C   UNL     1     -12.253  10.309  68.302  1.00  0.00     1.517 A  
ENDROOT
BRANCH   5  20
HETATM   20  N   UNL     1      -9.485  15.704  71.076  1.00  0.00     1.788 NA 
HETATM   21  N   UNL     1     -10.042  16.842  71.535  1.00  0.00     3.692 NA 
HETATM   22  C   UNL     1      -8.992  17.445  72.096  1.00  0.00    13.719 A  
HETATM   23  C   UNL     1      -8.159  15.661  71.372  1.00  0.00     4.590 A  
HETATM   24  N   UNL     1      -7.819  16.750  72.023  1.00  0.00    10.477 NA 
ENDBRANCH   5  20
BRANCH  11  25
HETATM   25  C   UNL     1      -7.493   8.080  72.180  1.00  0.00    -0.111 A  
HETATM   26  C   UNL     1      -6.324   7.475  72.658  1.00  0.00    -0.058 A  
HETATM   27  C   UNL     1      -6.334   6.136  73.089  1.00  0.00    -0.067 A  
HETATM   28  C   UNL     1      -7.513   5.389  73.030  1.00  0.00    -0.093 A  
HETATM   29  C   UNL     1      -8.684   5.983  72.563  1.00  0.00    -0.122 A  
HETATM   30  C   UNL     1      -7.520   4.011  73.429  1.00  0.00    -0.071 C  
HETATM   31  N   UNL     1      -7.537   2.893  73.742  1.00  0.00    -0.051 NA 
HETATM   32  C   UNL     1      -8.673   7.316  72.141  1.00  0.00    -0.134 A  
ENDBRANCH  11  25
TORSDOF 2
ENDMDL
