MODEL        1
REMARK 921   NORMALIZED FREE ENERGY PREDICTED BY IDOCK:   -6.47 KCAL/MOL
REMARK 922        TOTAL FREE ENERGY PREDICTED BY IDOCK:   -8.20 KCAL/MOL
REMARK 923 INTER-LIGAND FREE ENERGY PREDICTED BY IDOCK:   -7.99 KCAL/MOL
REMARK 924 INTRA-LIGAND FREE ENERGY PREDICTED BY IDOCK:   -0.22 KCAL/MOL
REMARK 927      BINDING AFFINITY PREDICTED BY RF-SCORE:    0.00 PKD
ROOT
HETATM    1  C   UNL     1     -12.360  15.823  74.555  1.00  0.00    -0.776 C  
HETATM    2  C   UNL     1     -12.535  15.718  73.096  1.00  0.00    -0.487 A  
HETATM    3  C   UNL     1     -11.675  15.626  72.031  1.00  0.00    -0.551 A  
HETATM    4  C   UNL     1     -12.518  15.538  70.893  1.00  0.00    -0.440 A  
HETATM    5  O   UNL     1     -13.815  15.701  72.637  1.00  0.00    -0.552 OA 
HETATM    6  N   UNL     1     -13.813  15.591  71.257  1.00  0.00    -0.565 NA 
ENDROOT
BRANCH   4   7
HETATM    7  C   UNL     1     -12.104  15.395  69.498  1.00  0.00    -0.305 C  
HETATM    8  O   UNL     1     -11.528  16.295  68.889  1.00  0.00    -0.340 OA 
HETATM    9  N   UNL     1     -12.406  14.152  68.945  1.00  0.00    -0.546 N  
HETATM   10  H   UNL     1     -12.806  13.419  69.530  1.00  0.00     0.000 HD 
BRANCH   9  11
HETATM   11  N   UNL     1     -12.162  13.903  67.576  1.00  0.00    -0.494 NA 
HETATM   12  H   UNL     1     -11.418  14.504  67.223  1.00  0.00     0.000 HD 
BRANCH  11  13
HETATM   13  C   UNL     1     -11.875  12.495  67.296  1.00  0.00    -0.311 C  
BRANCH  13  14
HETATM   14  C   UNL     1     -11.561  12.271  65.833  1.00  0.00    -0.450 A  
HETATM   15  C   UNL     1     -12.459  12.685  64.839  1.00  0.00    -0.564 A  
HETATM   16  C   UNL     1     -12.165  12.482  63.489  1.00  0.00    -0.652 A  
HETATM   17  C   UNL     1     -10.974  11.865  63.117  1.00  0.00    -0.281 A  
HETATM   18  C   UNL     1     -10.069  11.454  64.094  1.00  0.00    -0.358 A  
HETATM   19  C   UNL     1     -10.358  11.660  65.443  1.00  0.00    -0.313 A  
ENDBRANCH  13  14
ENDBRANCH  11  13
ENDBRANCH   9  11
ENDBRANCH   4   7
TORSDOF 4
ENDMDL
MODEL        2
REMARK 921   NORMALIZED FREE ENERGY PREDICTED BY IDOCK:   -6.39 KCAL/MOL
REMARK 922        TOTAL FREE ENERGY PREDICTED BY IDOCK:   -8.09 KCAL/MOL
REMARK 923 INTER-LIGAND FREE ENERGY PREDICTED BY IDOCK:   -7.79 KCAL/MOL
REMARK 924 INTRA-LIGAND FREE ENERGY PREDICTED BY IDOCK:   -0.31 KCAL/MOL
REMARK 927      BINDING AFFINITY PREDICTED BY RF-SCORE:    0.00 PKD
ROOT
HETATM    1  C   UNL     1     -11.138   7.630  72.895  1.00  0.00    -0.448 C  
HETATM    2  C   UNL     1     -11.577   8.777  72.081  1.00  0.00    -0.364 A  
HETATM    3  C   UNL     1     -10.989   9.541  71.106  1.00  0.00    -0.438 A  
HETATM    4  C   UNL     1     -11.988  10.477  70.731  1.00  0.00    -0.370 A  
HETATM    5  O   UNL     1     -12.843   9.225  72.295  1.00  0.00    -0.389 OA 
HETATM    6  N   UNL     1     -13.107  10.293  71.455  1.00  0.00    -0.401 NA 
ENDROOT
BRANCH   4   7
HETATM    7  C   UNL     1     -11.885  11.512  69.702  1.00  0.00    -0.354 C  
HETATM    8  O   UNL     1     -12.227  11.316  68.538  1.00  0.00    -0.588 OA 
HETATM    9  N   UNL     1     -11.387  12.726  70.172  1.00  0.00    -0.476 N  
HETATM   10  H   UNL     1     -11.205  12.850  71.168  1.00  0.00     0.000 HD 
BRANCH   9  11
HETATM   11  N   UNL     1     -11.133  13.787  69.275  1.00  0.00    -0.358 NA 
HETATM   12  H   UNL     1     -10.976  13.436  68.331  1.00  0.00     0.000 HD 
BRANCH  11  13
HETATM   13  C   UNL     1     -12.184  14.806  69.287  1.00  0.00    -0.199 C  
BRANCH  13  14
HETATM   14  C   UNL     1     -12.535  15.227  70.697  1.00  0.00    -0.458 A  
HETATM   15  C   UNL     1     -11.597  15.897  71.496  1.00  0.00    -0.537 A  
HETATM   16  C   UNL     1     -11.925  16.289  72.797  1.00  0.00    -0.636 A  
HETATM   17  C   UNL     1     -13.190  16.018  73.311  1.00  0.00    -0.651 A  
HETATM   18  C   UNL     1     -14.133  15.360  72.526  1.00  0.00    -0.593 A  
HETATM   19  C   UNL     1     -13.811  14.971  71.225  1.00  0.00    -0.528 A  
ENDBRANCH  13  14
ENDBRANCH  11  13
ENDBRANCH   9  11
ENDBRANCH   4   7
TORSDOF 4
ENDMDL
MODEL        3
REMARK 921   NORMALIZED FREE ENERGY PREDICTED BY IDOCK:   -6.38 KCAL/MOL
REMARK 922        TOTAL FREE ENERGY PREDICTED BY IDOCK:   -8.09 KCAL/MOL
REMARK 923 INTER-LIGAND FREE ENERGY PREDICTED BY IDOCK:   -7.87 KCAL/MOL
REMARK 924 INTRA-LIGAND FREE ENERGY PREDICTED BY IDOCK:   -0.22 KCAL/MOL
REMARK 927      BINDING AFFINITY PREDICTED BY RF-SCORE:    0.00 PKD
ROOT
HETATM    1  C   UNL     1     -12.451  15.943  74.546  1.00  0.00    -0.734 C  
HETATM    2  C   UNL     1     -12.572  15.840  73.082  1.00  0.00    -0.494 A  
HETATM    3  C   UNL     1     -11.690  15.940  72.037  1.00  0.00    -0.588 A  
HETATM    4  C   UNL     1     -12.476  15.716  70.878  1.00  0.00    -0.445 A  
HETATM    5  O   UNL     1     -13.815  15.585  72.591  1.00  0.00    -0.534 OA 
HETATM    6  N   UNL     1     -13.764  15.509  71.210  1.00  0.00    -0.559 NA 
ENDROOT
BRANCH   4   7
HETATM    7  C   UNL     1     -12.014  15.688  69.490  1.00  0.00    -0.345 C  
HETATM    8  O   UNL     1     -11.281  16.559  69.025  1.00  0.00    -0.305 OA 
HETATM    9  N   UNL     1     -12.464  14.584  68.769  1.00  0.00    -0.569 N  
HETATM   10  H   UNL     1     -12.997  13.852  69.239  1.00  0.00     0.000 HD 
BRANCH   9  11
HETATM   11  N   UNL     1     -12.186  14.474  67.388  1.00  0.00    -0.597 NA 
HETATM   12  H   UNL     1     -12.197  15.390  66.939  1.00  0.00     0.000 HD 
BRANCH  11  13
HETATM   13  C   UNL     1     -10.931  13.772  67.114  1.00  0.00    -0.290 C  
BRANCH  13  14
HETATM   14  C   UNL     1     -10.990  13.019  65.803  1.00  0.00    -0.299 A  
HETATM   15  C   UNL     1     -10.423  11.742  65.687  1.00  0.00    -0.308 A  
HETATM   16  C   UNL     1     -10.482  11.047  64.477  1.00  0.00    -0.411 A  
HETATM   17  C   UNL     1     -11.108  11.617  63.372  1.00  0.00    -0.422 A  
HETATM   18  C   UNL     1     -11.681  12.883  63.475  1.00  0.00    -0.576 A  
HETATM   19  C   UNL     1     -11.627  13.578  64.683  1.00  0.00    -0.395 A  
ENDBRANCH  13  14
ENDBRANCH  11  13
ENDBRANCH   9  11
ENDBRANCH   4   7
TORSDOF 4
ENDMDL
MODEL        4
REMARK 921   NORMALIZED FREE ENERGY PREDICTED BY IDOCK:   -6.30 KCAL/MOL
REMARK 922        TOTAL FREE ENERGY PREDICTED BY IDOCK:   -7.99 KCAL/MOL
REMARK 923 INTER-LIGAND FREE ENERGY PREDICTED BY IDOCK:   -7.71 KCAL/MOL
REMARK 924 INTRA-LIGAND FREE ENERGY PREDICTED BY IDOCK:   -0.28 KCAL/MOL
REMARK 927      BINDING AFFINITY PREDICTED BY RF-SCORE:    0.00 PKD
ROOT
HETATM    1  C   UNL     1      -9.371  10.684  62.821  1.00  0.00    -0.348 C  
HETATM    2  C   UNL     1     -10.185  11.402  63.816  1.00  0.00    -0.382 A  
HETATM    3  C   UNL     1     -10.403  11.257  65.162  1.00  0.00    -0.353 A  
HETATM    4  C   UNL     1     -11.295  12.308  65.499  1.00  0.00    -0.349 A  
HETATM    5  O   UNL     1     -10.905  12.463  63.361  1.00  0.00    -0.451 OA 
HETATM    6  N   UNL     1     -11.606  13.034  64.409  1.00  0.00    -0.349 NA 
ENDROOT
BRANCH   4   7
HETATM    7  C   UNL     1     -11.827  12.623  66.825  1.00  0.00    -0.370 C  
HETATM    8  O   UNL     1     -12.135  11.748  67.632  1.00  0.00    -0.598 OA 
HETATM    9  N   UNL     1     -11.932  13.989  67.081  1.00  0.00    -0.422 N  
HETATM   10  H   UNL     1     -11.577  14.662  66.402  1.00  0.00     0.000 HD 
BRANCH   9  11
HETATM   11  N   UNL     1     -12.527  14.445  68.278  1.00  0.00    -0.537 NA 
HETATM   12  H   UNL     1     -13.058  13.700  68.728  1.00  0.00     0.000 HD 
BRANCH  11  13
HETATM   13  C   UNL     1     -11.560  15.034  69.206  1.00  0.00    -0.315 C  
BRANCH  13  14
HETATM   14  C   UNL     1     -12.057  14.984  70.633  1.00  0.00    -0.375 A  
HETATM   15  C   UNL     1     -11.755  16.017  71.531  1.00  0.00    -0.554 A  
HETATM   16  C   UNL     1     -12.220  15.971  72.848  1.00  0.00    -0.621 A  
HETATM   17  C   UNL     1     -12.991  14.895  73.281  1.00  0.00    -0.635 A  
HETATM   18  C   UNL     1     -13.304  13.865  72.397  1.00  0.00    -0.629 A  
HETATM   19  C   UNL     1     -12.845  13.910  71.081  1.00  0.00    -0.423 A  
ENDBRANCH  13  14
ENDBRANCH  11  13
ENDBRANCH   9  11
ENDBRANCH   4   7
TORSDOF 4
ENDMDL
MODEL        5
REMARK 921   NORMALIZED FREE ENERGY PREDICTED BY IDOCK:   -6.29 KCAL/MOL
REMARK 922        TOTAL FREE ENERGY PREDICTED BY IDOCK:   -7.98 KCAL/MOL
REMARK 923 INTER-LIGAND FREE ENERGY PREDICTED BY IDOCK:   -7.74 KCAL/MOL
REMARK 924 INTRA-LIGAND FREE ENERGY PREDICTED BY IDOCK:   -0.25 KCAL/MOL
REMARK 927      BINDING AFFINITY PREDICTED BY RF-SCORE:    0.00 PKD
ROOT
HETATM    1  C   UNL     1     -10.007  10.862  62.991  1.00  0.00    -0.317 C  
HETATM    2  C   UNL     1     -10.671  11.927  63.762  1.00  0.00    -0.418 A  
HETATM    3  C   UNL     1     -10.329  12.669  64.863  1.00  0.00    -0.330 A  
HETATM    4  C   UNL     1     -11.432  13.537  65.070  1.00  0.00    -0.318 A  
HETATM    5  O   UNL     1     -11.904  12.308  63.334  1.00  0.00    -0.467 OA 
HETATM    6  N   UNL     1     -12.390  13.315  64.150  1.00  0.00    -0.608 NA 
ENDROOT
BRANCH   4   7
HETATM    7  C   UNL     1     -11.567  14.561  66.106  1.00  0.00    -0.365 C  
HETATM    8  O   UNL     1     -11.113  15.696  65.970  1.00  0.00    -0.261 OA 
HETATM    9  N   UNL     1     -12.265  14.132  67.234  1.00  0.00    -0.573 N  
HETATM   10  H   UNL     1     -12.691  13.206  67.246  1.00  0.00     0.000 HD 
BRANCH   9  11
HETATM   11  N   UNL     1     -12.385  14.976  68.360  1.00  0.00    -0.544 NA 
HETATM   12  H   UNL     1     -13.364  15.167  68.571  1.00  0.00     0.000 HD 
BRANCH  11  13
HETATM   13  C   UNL     1     -11.688  14.454  69.538  1.00  0.00    -0.313 C  
BRANCH  13  14
HETATM   14  C   UNL     1     -12.297  14.977  70.820  1.00  0.00    -0.400 A  
HETATM   15  C   UNL     1     -13.657  14.781  71.098  1.00  0.00    -0.432 A  
HETATM   16  C   UNL     1     -14.215  15.261  72.285  1.00  0.00    -0.642 A  
HETATM   17  C   UNL     1     -13.423  15.939  73.207  1.00  0.00    -0.599 A  
HETATM   18  C   UNL     1     -12.068  16.135  72.948  1.00  0.00    -0.643 A  
HETATM   19  C   UNL     1     -11.507  15.654  71.765  1.00  0.00    -0.505 A  
ENDBRANCH  13  14
ENDBRANCH  11  13
ENDBRANCH   9  11
ENDBRANCH   4   7
TORSDOF 4
ENDMDL
MODEL        6
REMARK 921   NORMALIZED FREE ENERGY PREDICTED BY IDOCK:   -6.17 KCAL/MOL
REMARK 922        TOTAL FREE ENERGY PREDICTED BY IDOCK:   -7.83 KCAL/MOL
REMARK 923 INTER-LIGAND FREE ENERGY PREDICTED BY IDOCK:   -7.57 KCAL/MOL
REMARK 924 INTRA-LIGAND FREE ENERGY PREDICTED BY IDOCK:   -0.26 KCAL/MOL
REMARK 927      BINDING AFFINITY PREDICTED BY RF-SCORE:    0.00 PKD
ROOT
HETATM    1  C   UNL     1      -9.972  18.364  66.560  1.00  0.00    -0.392 C  
HETATM    2  C   UNL     1     -10.534  17.263  65.760  1.00  0.00    -0.229 A  
HETATM    3  C   UNL     1     -10.606  15.902  65.917  1.00  0.00    -0.348 A  
HETATM    4  C   UNL     1     -11.304  15.443  64.770  1.00  0.00    -0.376 A  
HETATM    5  O   UNL     1     -11.137  17.608  64.590  1.00  0.00    -0.906 OA 
HETATM    6  N   UNL     1     -11.619  16.472  63.962  1.00  0.00    -1.124 NA 
ENDROOT
BRANCH   4   7
HETATM    7  C   UNL     1     -11.673  14.063  64.456  1.00  0.00    -0.413 C  
HETATM    8  O   UNL     1     -12.802  13.622  64.663  1.00  0.00    -0.666 OA 
HETATM    9  N   UNL     1     -10.639  13.317  63.891  1.00  0.00    -0.503 N  
HETATM   10  H   UNL     1      -9.753  13.768  63.665  1.00  0.00     0.000 HD 
BRANCH   9  11
HETATM   11  N   UNL     1     -10.814  11.940  63.631  1.00  0.00    -0.406 NA 
HETATM   12  H   UNL     1     -11.003  11.776  62.643  1.00  0.00     0.000 HD 
BRANCH  11  13
HETATM   13  C   UNL     1      -9.687  11.127  64.091  1.00  0.00    -0.276 C  
BRANCH  13  14
HETATM   14  C   UNL     1      -9.988  10.455  65.412  1.00  0.00    -0.362 A  
HETATM   15  C   UNL     1     -10.764  11.103  66.383  1.00  0.00    -0.303 A  
HETATM   16  C   UNL     1     -11.045  10.478  67.601  1.00  0.00    -0.375 A  
HETATM   17  C   UNL     1     -10.555   9.201  67.861  1.00  0.00    -0.272 A  
HETATM   18  C   UNL     1      -9.787   8.543  66.903  1.00  0.00    -0.310 A  
HETATM   19  C   UNL     1      -9.509   9.162  65.684  1.00  0.00    -0.309 A  
ENDBRANCH  13  14
ENDBRANCH  11  13
ENDBRANCH   9  11
ENDBRANCH   4   7
TORSDOF 4
ENDMDL
MODEL        7
REMARK 921   NORMALIZED FREE ENERGY PREDICTED BY IDOCK:   -6.15 KCAL/MOL
REMARK 922        TOTAL FREE ENERGY PREDICTED BY IDOCK:   -7.81 KCAL/MOL
REMARK 923 INTER-LIGAND FREE ENERGY PREDICTED BY IDOCK:   -7.47 KCAL/MOL
REMARK 924 INTRA-LIGAND FREE ENERGY PREDICTED BY IDOCK:   -0.34 KCAL/MOL
REMARK 927      BINDING AFFINITY PREDICTED BY RF-SCORE:    0.00 PKD
ROOT
HETATM    1  C   UNL     1     -12.459  16.027  74.509  1.00  0.00    -0.687 C  
HETATM    2  C   UNL     1     -12.582  15.411  73.177  1.00  0.00    -0.465 A  
HETATM    3  C   UNL     1     -11.965  15.609  71.968  1.00  0.00    -0.544 A  
HETATM    4  C   UNL     1     -12.554  14.653  71.101  1.00  0.00    -0.334 A  
HETATM    5  O   UNL     1     -13.495  14.410  73.052  1.00  0.00    -0.615 OA 
HETATM    6  N   UNL     1     -13.486  13.932  71.753  1.00  0.00    -0.369 NA 
ENDROOT
BRANCH   4   7
HETATM    7  C   UNL     1     -12.232  14.421  69.693  1.00  0.00    -0.307 C  
HETATM    8  O   UNL     1     -12.033  13.295  69.243  1.00  0.00    -0.312 OA 
HETATM    9  N   UNL     1     -12.193  15.584  68.925  1.00  0.00    -0.608 N  
HETATM   10  H   UNL     1     -12.455  16.477  69.342  1.00  0.00     0.000 HD 
BRANCH   9  11
HETATM   11  N   UNL     1     -11.793  15.530  67.572  1.00  0.00    -0.154 NA 
HETATM   12  H   UNL     1     -12.413  16.088  66.985  1.00  0.00     0.000 HD 
BRANCH  11  13
HETATM   13  C   UNL     1     -10.396  15.922  67.376  1.00  0.00    -0.288 C  
BRANCH  13  14
HETATM   14  C   UNL     1     -10.240  17.426  67.336  1.00  0.00    -0.326 A  
HETATM   15  C   UNL     1     -10.486  18.138  66.154  1.00  0.00    -0.377 A  
HETATM   16  C   UNL     1     -10.346  19.528  66.121  1.00  0.00    -0.614 A  
HETATM   17  C   UNL     1      -9.961  20.220  67.266  1.00  0.00    -0.580 A  
HETATM   18  C   UNL     1      -9.720  19.525  68.450  1.00  0.00    -0.498 A  
HETATM   19  C   UNL     1      -9.863  18.138  68.487  1.00  0.00    -0.393 A  
ENDBRANCH  13  14
ENDBRANCH  11  13
ENDBRANCH   9  11
ENDBRANCH   4   7
TORSDOF 4
ENDMDL
MODEL        8
REMARK 921   NORMALIZED FREE ENERGY PREDICTED BY IDOCK:   -6.11 KCAL/MOL
REMARK 922        TOTAL FREE ENERGY PREDICTED BY IDOCK:   -7.76 KCAL/MOL
REMARK 923 INTER-LIGAND FREE ENERGY PREDICTED BY IDOCK:   -7.43 KCAL/MOL
REMARK 924 INTRA-LIGAND FREE ENERGY PREDICTED BY IDOCK:   -0.33 KCAL/MOL
REMARK 927      BINDING AFFINITY PREDICTED BY RF-SCORE:    0.00 PKD
ROOT
HETATM    1  C   UNL     1      -9.894  20.413  66.807  1.00  0.00    -0.541 C  
HETATM    2  C   UNL     1      -9.955  18.944  66.717  1.00  0.00    -0.360 A  
HETATM    3  C   UNL     1     -10.759  17.981  67.271  1.00  0.00    -0.305 A  
HETATM    4  C   UNL     1     -10.274  16.757  66.742  1.00  0.00    -0.304 A  
HETATM    5  O   UNL     1      -9.033  18.346  65.914  1.00  0.00    -0.484 OA 
HETATM    6  N   UNL     1      -9.225  16.975  65.927  1.00  0.00    -0.530 NA 
ENDROOT
BRANCH   4   7
HETATM    7  C   UNL     1     -10.801  15.416  66.995  1.00  0.00    -0.320 C  
HETATM    8  O   UNL     1     -10.601  14.477  66.226  1.00  0.00    -0.292 OA 
HETATM    9  N   UNL     1     -11.523  15.309  68.182  1.00  0.00    -0.340 N  
HETATM   10  H   UNL     1     -11.577  16.105  68.818  1.00  0.00     0.000 HD 
BRANCH   9  11
HETATM   11  N   UNL     1     -12.182  14.103  68.508  1.00  0.00    -0.561 NA 
HETATM   12  H   UNL     1     -12.034  13.399  67.785  1.00  0.00     0.000 HD 
BRANCH  11  13
HETATM   13  C   UNL     1     -11.803  13.586  69.825  1.00  0.00    -0.329 C  
BRANCH  13  14
HETATM   14  C   UNL     1     -12.316  14.472  70.938  1.00  0.00    -0.415 A  
HETATM   15  C   UNL     1     -11.439  15.297  71.657  1.00  0.00    -0.471 A  
HETATM   16  C   UNL     1     -11.917  16.118  72.682  1.00  0.00    -0.653 A  
HETATM   17  C   UNL     1     -13.273  16.126  72.998  1.00  0.00    -0.463 A  
HETATM   18  C   UNL     1     -14.157  15.316  72.288  1.00  0.00    -0.651 A  
HETATM   19  C   UNL     1     -13.684  14.498  71.261  1.00  0.00    -0.407 A  
ENDBRANCH  13  14
ENDBRANCH  11  13
ENDBRANCH   9  11
ENDBRANCH   4   7
TORSDOF 4
ENDMDL
MODEL        9
REMARK 921   NORMALIZED FREE ENERGY PREDICTED BY IDOCK:   -6.09 KCAL/MOL
REMARK 922        TOTAL FREE ENERGY PREDICTED BY IDOCK:   -7.73 KCAL/MOL
REMARK 923 INTER-LIGAND FREE ENERGY PREDICTED BY IDOCK:   -7.49 KCAL/MOL
REMARK 924 INTRA-LIGAND FREE ENERGY PREDICTED BY IDOCK:   -0.24 KCAL/MOL
REMARK 927      BINDING AFFINITY PREDICTED BY RF-SCORE:    0.00 PKD
ROOT
HETATM    1  C   UNL     1     -13.812  15.433  72.267  1.00  0.00    -0.649 C  
HETATM    2  C   UNL     1     -13.383  14.086  71.854  1.00  0.00    -0.406 A  
HETATM    3  C   UNL     1     -12.617  13.596  70.827  1.00  0.00    -0.397 A  
HETATM    4  C   UNL     1     -12.592  12.192  71.034  1.00  0.00    -0.263 A  
HETATM    5  O   UNL     1     -13.806  13.050  72.627  1.00  0.00    -0.653 OA 
HETATM    6  N   UNL     1     -13.317  11.859  72.118  1.00  0.00    -0.420 NA 
ENDROOT
BRANCH   4   7
HETATM    7  C   UNL     1     -11.886  11.194  70.230  1.00  0.00    -0.366 C  
HETATM    8  O   UNL     1     -11.072  10.414  70.720  1.00  0.00    -0.304 OA 
HETATM    9  N   UNL     1     -12.239  11.206  68.881  1.00  0.00    -0.339 N  
HETATM   10  H   UNL     1     -12.985  11.820  68.556  1.00  0.00     0.000 HD 
BRANCH   9  11
HETATM   11  N   UNL     1     -11.565  10.371  67.962  1.00  0.00    -0.712 NA 
HETATM   12  H   UNL     1     -12.221   9.945  67.308  1.00  0.00     0.000 HD 
BRANCH  11  13
HETATM   13  C   UNL     1     -10.488  11.061  67.250  1.00  0.00    -0.231 C  
BRANCH  13  14
HETATM   14  C   UNL     1     -10.963  11.614  65.925  1.00  0.00    -0.334 A  
HETATM   15  C   UNL     1     -11.843  12.705  65.881  1.00  0.00    -0.499 A  
HETATM   16  C   UNL     1     -12.276  13.218  64.655  1.00  0.00    -0.460 A  
HETATM   17  C   UNL     1     -11.836  12.648  63.463  1.00  0.00    -0.619 A  
HETATM   18  C   UNL     1     -10.957  11.567  63.493  1.00  0.00    -0.453 A  
HETATM   19  C   UNL     1     -10.519  11.056  64.714  1.00  0.00    -0.384 A  
ENDBRANCH  13  14
ENDBRANCH  11  13
ENDBRANCH   9  11
ENDBRANCH   4   7
TORSDOF 4
ENDMDL
MODEL       10
REMARK 921   NORMALIZED FREE ENERGY PREDICTED BY IDOCK:   -6.02 KCAL/MOL
REMARK 922        TOTAL FREE ENERGY PREDICTED BY IDOCK:   -7.64 KCAL/MOL
REMARK 923 INTER-LIGAND FREE ENERGY PREDICTED BY IDOCK:   -7.39 KCAL/MOL
REMARK 924 INTRA-LIGAND FREE ENERGY PREDICTED BY IDOCK:   -0.26 KCAL/MOL
REMARK 927      BINDING AFFINITY PREDICTED BY RF-SCORE:    0.00 PKD
ROOT
HETATM    1  C   UNL     1     -10.613  10.782  64.903  1.00  0.00    -0.258 C  
HETATM    2  C   UNL     1     -11.041  12.191  64.944  1.00  0.00    -0.319 A  
HETATM    3  C   UNL     1     -10.434  13.387  64.657  1.00  0.00    -0.428 A  
HETATM    4  C   UNL     1     -11.431  14.366  64.900  1.00  0.00    -0.386 A  
HETATM    5  O   UNL     1     -12.319  12.427  65.347  1.00  0.00    -0.596 OA 
HETATM    6  N   UNL     1     -12.570  13.788  65.325  1.00  0.00    -0.588 NA 
ENDROOT
BRANCH   4   7
HETATM    7  C   UNL     1     -11.310  15.813  64.720  1.00  0.00    -0.314 C  
HETATM    8  O   UNL     1     -11.781  16.394  63.745  1.00  0.00    -1.049 OA 
HETATM    9  N   UNL     1     -10.635  16.455  65.757  1.00  0.00    -0.341 N  
HETATM   10  H   UNL     1     -10.347  15.926  66.580  1.00  0.00     0.000 HD 
BRANCH   9  11
HETATM   11  N   UNL     1     -10.349  17.835  65.673  1.00  0.00    -0.635 NA 
HETATM   12  H   UNL     1     -10.945  18.290  64.982  1.00  0.00     0.000 HD 
BRANCH  11  13
HETATM   13  C   UNL     1     -10.436  18.514  66.968  1.00  0.00    -0.402 C  
BRANCH  13  14
HETATM   14  C   UNL     1      -9.086  19.026  67.419  1.00  0.00    -0.325 A  
HETATM   15  C   UNL     1      -8.414  18.421  68.490  1.00  0.00    -0.346 A  
HETATM   16  C   UNL     1      -7.165  18.893  68.902  1.00  0.00    -0.349 A  
HETATM   17  C   UNL     1      -6.574  19.972  68.249  1.00  0.00    -0.322 A  
HETATM   18  C   UNL     1      -7.228  20.578  67.179  1.00  0.00    -0.364 A  
HETATM   19  C   UNL     1      -8.473  20.107  66.762  1.00  0.00    -0.365 A  
ENDBRANCH  13  14
ENDBRANCH  11  13
ENDBRANCH   9  11
ENDBRANCH   4   7
TORSDOF 4
ENDMDL
MODEL       11
REMARK 921   NORMALIZED FREE ENERGY PREDICTED BY IDOCK:   -6.01 KCAL/MOL
REMARK 922        TOTAL FREE ENERGY PREDICTED BY IDOCK:   -7.63 KCAL/MOL
REMARK 923 INTER-LIGAND FREE ENERGY PREDICTED BY IDOCK:   -7.30 KCAL/MOL
REMARK 924 INTRA-LIGAND FREE ENERGY PREDICTED BY IDOCK:   -0.33 KCAL/MOL
REMARK 927      BINDING AFFINITY PREDICTED BY RF-SCORE:    0.00 PKD
ROOT
HETATM    1  C   UNL     1     -12.625  15.792  74.439  1.00  0.00    -0.693 C  
HETATM    2  C   UNL     1     -12.603  15.039  73.173  1.00  0.00    -0.469 A  
HETATM    3  C   UNL     1     -11.893  15.149  72.005  1.00  0.00    -0.495 A  
HETATM    4  C   UNL     1     -12.358  14.079  71.198  1.00  0.00    -0.365 A  
HETATM    5  O   UNL     1     -13.453  13.981  73.080  1.00  0.00    -0.655 OA 
HETATM    6  N   UNL     1     -13.308  13.376  71.843  1.00  0.00    -0.434 NA 
ENDROOT
BRANCH   4   7
HETATM    7  C   UNL     1     -11.904  13.725  69.853  1.00  0.00    -0.327 C  
HETATM    8  O   UNL     1     -11.377  12.642  69.602  1.00  0.00    -0.207 OA 
HETATM    9  N   UNL     1     -12.141  14.713  68.900  1.00  0.00    -0.528 N  
HETATM   10  H   UNL     1     -12.662  15.552  69.156  1.00  0.00     0.000 HD 
BRANCH   9  11
HETATM   11  N   UNL     1     -11.664  14.559  67.579  1.00  0.00    -0.376 NA 
HETATM   12  H   UNL     1     -10.798  14.021  67.565  1.00  0.00     0.000 HD 
BRANCH  11  13
HETATM   13  C   UNL     1     -12.659  13.972  66.680  1.00  0.00    -0.107 C  
BRANCH  13  14
HETATM   14  C   UNL     1     -12.015  13.067  65.653  1.00  0.00    -0.479 A  
HETATM   15  C   UNL     1     -11.222  11.983  66.053  1.00  0.00    -0.385 A  
HETATM   16  C   UNL     1     -10.632  11.146  65.103  1.00  0.00    -0.319 A  
HETATM   17  C   UNL     1     -10.829  11.381  63.745  1.00  0.00    -0.468 A  
HETATM   18  C   UNL     1     -11.620  12.452  63.332  1.00  0.00    -0.541 A  
HETATM   19  C   UNL     1     -12.214  13.287  64.279  1.00  0.00    -0.454 A  
ENDBRANCH  13  14
ENDBRANCH  11  13
ENDBRANCH   9  11
ENDBRANCH   4   7
TORSDOF 4
ENDMDL
MODEL       12
REMARK 921   NORMALIZED FREE ENERGY PREDICTED BY IDOCK:   -5.97 KCAL/MOL
REMARK 922        TOTAL FREE ENERGY PREDICTED BY IDOCK:   -7.58 KCAL/MOL
REMARK 923 INTER-LIGAND FREE ENERGY PREDICTED BY IDOCK:   -7.34 KCAL/MOL
REMARK 924 INTRA-LIGAND FREE ENERGY PREDICTED BY IDOCK:   -0.24 KCAL/MOL
REMARK 927      BINDING AFFINITY PREDICTED BY RF-SCORE:    0.00 PKD
ROOT
HETATM    1  C   UNL     1     -12.473   9.585  71.346  1.00  0.00    -0.450 C  
HETATM    2  C   UNL     1     -12.647  11.046  71.295  1.00  0.00    -0.412 A  
HETATM    3  C   UNL     1     -12.221  12.034  70.445  1.00  0.00    -0.379 A  
HETATM    4  C   UNL     1     -12.767  13.230  70.978  1.00  0.00    -0.293 A  
HETATM    5  O   UNL     1     -13.392  11.604  72.287  1.00  0.00    -0.443 OA 
HETATM    6  N   UNL     1     -13.469  12.973  72.097  1.00  0.00    -0.545 NA 
ENDROOT
BRANCH   4   7
HETATM    7  C   UNL     1     -12.635  14.581  70.431  1.00  0.00    -0.346 C  
HETATM    8  O   UNL     1     -12.889  15.584  71.095  1.00  0.00    -0.433 OA 
HETATM    9  N   UNL     1     -12.184  14.614  69.113  1.00  0.00    -0.549 N  
HETATM   10  H   UNL     1     -11.908  13.749  68.648  1.00  0.00     0.000 HD 
BRANCH   9  11
HETATM   11  N   UNL     1     -12.108  15.841  68.417  1.00  0.00    -0.406 NA 
HETATM   12  H   UNL     1     -12.333  16.623  69.031  1.00  0.00     0.000 HD 
BRANCH  11  13
HETATM   13  C   UNL     1     -10.815  16.044  67.762  1.00  0.00    -0.324 C  
BRANCH  13  14
HETATM   14  C   UNL     1     -10.511  17.514  67.575  1.00  0.00    -0.355 A  
HETATM   15  C   UNL     1     -10.226  18.330  68.678  1.00  0.00    -0.377 A  
HETATM   16  C   UNL     1      -9.941  19.687  68.502  1.00  0.00    -0.542 A  
HETATM   17  C   UNL     1      -9.937  20.241  67.225  1.00  0.00    -0.580 A  
HETATM   18  C   UNL     1     -10.213  19.440  66.119  1.00  0.00    -0.570 A  
HETATM   19  C   UNL     1     -10.493  18.084  66.291  1.00  0.00    -0.340 A  
ENDBRANCH  13  14
ENDBRANCH  11  13
ENDBRANCH   9  11
ENDBRANCH   4   7
TORSDOF 4
ENDMDL
MODEL       13
REMARK 921   NORMALIZED FREE ENERGY PREDICTED BY IDOCK:   -5.97 KCAL/MOL
REMARK 922        TOTAL FREE ENERGY PREDICTED BY IDOCK:   -7.58 KCAL/MOL
REMARK 923 INTER-LIGAND FREE ENERGY PREDICTED BY IDOCK:   -7.33 KCAL/MOL
REMARK 924 INTRA-LIGAND FREE ENERGY PREDICTED BY IDOCK:   -0.26 KCAL/MOL
REMARK 927      BINDING AFFINITY PREDICTED BY RF-SCORE:    0.00 PKD
ROOT
HETATM    1  C   UNL     1      -9.881  18.331  66.625  1.00  0.00    -0.354 C  
HETATM    2  C   UNL     1     -10.496  17.269  65.811  1.00  0.00    -0.229 A  
HETATM    3  C   UNL     1     -10.638  15.912  65.953  1.00  0.00    -0.348 A  
HETATM    4  C   UNL     1     -11.354  15.502  64.799  1.00  0.00    -0.357 A  
HETATM    5  O   UNL     1     -11.074  17.657  64.643  1.00  0.00    -0.906 OA 
HETATM    6  N   UNL     1     -11.612  16.555  64.000  1.00  0.00    -1.124 NA 
ENDROOT
BRANCH   4   7
HETATM    7  C   UNL     1     -11.792  14.146  64.468  1.00  0.00    -0.436 C  
HETATM    8  O   UNL     1     -12.845  13.674  64.896  1.00  0.00    -0.688 OA 
HETATM    9  N   UNL     1     -10.922  13.463  63.621  1.00  0.00    -0.457 N  
HETATM   10  H   UNL     1     -10.110  13.942  63.232  1.00  0.00     0.000 HD 
BRANCH   9  11
HETATM   11  N   UNL     1     -11.159  12.108  63.298  1.00  0.00    -0.687 NA 
HETATM   12  H   UNL     1     -11.642  12.025  62.404  1.00  0.00     0.000 HD 
BRANCH  11  13
HETATM   13  C   UNL     1      -9.939  11.298  63.312  1.00  0.00    -0.393 C  
BRANCH  13  14
HETATM   14  C   UNL     1      -9.697  10.682  64.673  1.00  0.00    -0.360 A  
HETATM   15  C   UNL     1      -8.595   9.843  64.890  1.00  0.00    -0.183 A  
HETATM   16  C   UNL     1      -8.371   9.278  66.149  1.00  0.00    -0.122 A  
HETATM   17  C   UNL     1      -9.242   9.547  67.201  1.00  0.00    -0.158 A  
HETATM   18  C   UNL     1     -10.337  10.384  67.001  1.00  0.00    -0.295 A  
HETATM   19  C   UNL     1     -10.561  10.953  65.747  1.00  0.00    -0.230 A  
ENDBRANCH  13  14
ENDBRANCH  11  13
ENDBRANCH   9  11
ENDBRANCH   4   7
TORSDOF 4
ENDMDL
MODEL       14
REMARK 921   NORMALIZED FREE ENERGY PREDICTED BY IDOCK:   -5.94 KCAL/MOL
REMARK 922        TOTAL FREE ENERGY PREDICTED BY IDOCK:   -7.55 KCAL/MOL
REMARK 923 INTER-LIGAND FREE ENERGY PREDICTED BY IDOCK:   -7.16 KCAL/MOL
REMARK 924 INTRA-LIGAND FREE ENERGY PREDICTED BY IDOCK:   -0.39 KCAL/MOL
REMARK 927      BINDING AFFINITY PREDICTED BY RF-SCORE:    0.00 PKD
ROOT
HETATM    1  C   UNL     1     -12.604  11.853  63.226  1.00  0.00    -0.473 C  
HETATM    2  C   UNL     1     -12.136  13.067  63.917  1.00  0.00    -0.471 A  
HETATM    3  C   UNL     1     -11.197  13.319  64.883  1.00  0.00    -0.338 A  
HETATM    4  C   UNL     1     -11.247  14.724  65.079  1.00  0.00    -0.395 A  
HETATM    5  O   UNL     1     -12.729  14.238  63.556  1.00  0.00    -0.767 OA 
HETATM    6  N   UNL     1     -12.179  15.280  64.283  1.00  0.00    -0.527 NA 
ENDROOT
BRANCH   4   7
HETATM    7  C   UNL     1     -10.423  15.518  65.990  1.00  0.00    -0.323 C  
HETATM    8  O   UNL     1      -9.578  16.314  65.584  1.00  0.00    -0.466 OA 
HETATM    9  N   UNL     1     -10.702  15.300  67.338  1.00  0.00    -0.287 N  
HETATM   10  H   UNL     1     -11.476  14.692  67.605  1.00  0.00     0.000 HD 
BRANCH   9  11
HETATM   11  N   UNL     1      -9.916  15.917  68.336  1.00  0.00    -0.219 NA 
HETATM   12  H   UNL     1      -8.961  16.064  68.010  1.00  0.00     0.000 HD 
BRANCH  11  13
HETATM   13  C   UNL     1     -10.500  17.165  68.829  1.00  0.00    -0.351 C  
BRANCH  13  14
HETATM   14  C   UNL     1      -9.816  18.374  68.228  1.00  0.00    -0.383 A  
HETATM   15  C   UNL     1      -8.447  18.596  68.434  1.00  0.00    -0.366 A  
HETATM   16  C   UNL     1      -7.817  19.710  67.875  1.00  0.00    -0.333 A  
HETATM   17  C   UNL     1      -8.545  20.612  67.104  1.00  0.00    -0.299 A  
HETATM   18  C   UNL     1      -9.905  20.400  66.886  1.00  0.00    -0.572 A  
HETATM   19  C   UNL     1     -10.536  19.287  67.439  1.00  0.00    -0.594 A  
ENDBRANCH  13  14
ENDBRANCH  11  13
ENDBRANCH   9  11
ENDBRANCH   4   7
TORSDOF 4
ENDMDL
MODEL       15
REMARK 921   NORMALIZED FREE ENERGY PREDICTED BY IDOCK:   -5.79 KCAL/MOL
REMARK 922        TOTAL FREE ENERGY PREDICTED BY IDOCK:   -7.35 KCAL/MOL
REMARK 923 INTER-LIGAND FREE ENERGY PREDICTED BY IDOCK:   -7.03 KCAL/MOL
REMARK 924 INTRA-LIGAND FREE ENERGY PREDICTED BY IDOCK:   -0.32 KCAL/MOL
REMARK 927      BINDING AFFINITY PREDICTED BY RF-SCORE:    0.00 PKD
ROOT
HETATM    1  C   UNL     1     -12.292  11.999  63.357  1.00  0.00    -0.635 C  
HETATM    2  C   UNL     1     -12.272  12.570  64.714  1.00  0.00    -0.465 A  
HETATM    3  C   UNL     1     -11.885  12.104  65.945  1.00  0.00    -0.342 A  
HETATM    4  C   UNL     1     -12.119  13.188  66.831  1.00  0.00    -0.316 A  
HETATM    5  O   UNL     1     -12.724  13.847  64.843  1.00  0.00    -0.648 OA 
HETATM    6  N   UNL     1     -12.634  14.240  66.168  1.00  0.00    -0.370 NA 
ENDROOT
BRANCH   4   7
HETATM    7  C   UNL     1     -11.850  13.227  68.268  1.00  0.00    -0.354 C  
HETATM    8  O   UNL     1     -11.662  14.281  68.872  1.00  0.00    -0.289 OA 
HETATM    9  N   UNL     1     -11.846  11.972  68.875  1.00  0.00    -0.307 N  
HETATM   10  H   UNL     1     -12.096  11.145  68.334  1.00  0.00     0.000 HD 
BRANCH   9  11
HETATM   11  N   UNL     1     -11.497  11.841  70.237  1.00  0.00    -0.510 NA 
HETATM   12  H   UNL     1     -11.110  12.712  70.600  1.00  0.00     0.000 HD 
BRANCH  11  13
HETATM   13  C   UNL     1     -12.609  11.376  71.068  1.00  0.00    -0.386 C  
BRANCH  13  14
HETATM   14  C   UNL     1     -12.564   9.877  71.269  1.00  0.00    -0.480 A  
HETATM   15  C   UNL     1     -13.729   9.163  71.580  1.00  0.00    -0.433 A  
HETATM   16  C   UNL     1     -13.685   7.778  71.762  1.00  0.00    -0.410 A  
HETATM   17  C   UNL     1     -12.480   7.093  71.634  1.00  0.00    -0.405 A  
HETATM   18  C   UNL     1     -11.315   7.790  71.319  1.00  0.00    -0.289 A  
HETATM   19  C   UNL     1     -11.356   9.172  71.133  1.00  0.00    -0.392 A  
ENDBRANCH  13  14
ENDBRANCH  11  13
ENDBRANCH   9  11
ENDBRANCH   4   7
TORSDOF 4
ENDMDL
MODEL       16
REMARK 921   NORMALIZED FREE ENERGY PREDICTED BY IDOCK:   -5.78 KCAL/MOL
REMARK 922        TOTAL FREE ENERGY PREDICTED BY IDOCK:   -7.35 KCAL/MOL
REMARK 923 INTER-LIGAND FREE ENERGY PREDICTED BY IDOCK:   -6.99 KCAL/MOL
REMARK 924 INTRA-LIGAND FREE ENERGY PREDICTED BY IDOCK:   -0.36 KCAL/MOL
REMARK 927      BINDING AFFINITY PREDICTED BY RF-SCORE:    0.00 PKD
ROOT
HETATM    1  C   UNL     1     -13.114   9.655  72.000  1.00  0.00    -0.537 C  
HETATM    2  C   UNL     1     -12.904  11.047  71.569  1.00  0.00    -0.450 A  
HETATM    3  C   UNL     1     -12.194  11.642  70.558  1.00  0.00    -0.451 A  
HETATM    4  C   UNL     1     -12.443  13.030  70.710  1.00  0.00    -0.302 A  
HETATM    5  O   UNL     1     -13.534  12.010  72.296  1.00  0.00    -0.465 OA 
HETATM    6  N   UNL     1     -13.247  13.256  71.766  1.00  0.00    -0.414 NA 
ENDROOT
BRANCH   4   7
HETATM    7  C   UNL     1     -11.940  14.115  69.866  1.00  0.00    -0.338 C  
HETATM    8  O   UNL     1     -11.287  15.052  70.322  1.00  0.00    -0.243 OA 
HETATM    9  N   UNL     1     -12.254  13.970  68.516  1.00  0.00    -0.537 N  
HETATM   10  H   UNL     1     -12.722  13.125  68.191  1.00  0.00     0.000 HD 
BRANCH   9  11
HETATM   11  N   UNL     1     -11.927  14.990  67.596  1.00  0.00    -0.444 NA 
HETATM   12  H   UNL     1     -11.841  15.892  68.065  1.00  0.00     0.000 HD 
BRANCH  11  13
HETATM   13  C   UNL     1     -10.724  14.689  66.817  1.00  0.00    -0.301 C  
BRANCH  13  14
HETATM   14  C   UNL     1     -11.029  13.767  65.657  1.00  0.00    -0.288 A  
HETATM   15  C   UNL     1     -10.395  12.521  65.550  1.00  0.00    -0.303 A  
HETATM   16  C   UNL     1     -10.682  11.669  64.480  1.00  0.00    -0.378 A  
HETATM   17  C   UNL     1     -11.605  12.050  63.510  1.00  0.00    -0.553 A  
HETATM   18  C   UNL     1     -12.247  13.283  63.608  1.00  0.00    -0.522 A  
HETATM   19  C   UNL     1     -11.966  14.134  64.677  1.00  0.00    -0.459 A  
ENDBRANCH  13  14
ENDBRANCH  11  13
ENDBRANCH   9  11
ENDBRANCH   4   7
TORSDOF 4
ENDMDL
MODEL       17
REMARK 921   NORMALIZED FREE ENERGY PREDICTED BY IDOCK:   -5.73 KCAL/MOL
REMARK 922        TOTAL FREE ENERGY PREDICTED BY IDOCK:   -7.29 KCAL/MOL
REMARK 923 INTER-LIGAND FREE ENERGY PREDICTED BY IDOCK:   -6.93 KCAL/MOL
REMARK 924 INTRA-LIGAND FREE ENERGY PREDICTED BY IDOCK:   -0.35 KCAL/MOL
REMARK 927      BINDING AFFINITY PREDICTED BY RF-SCORE:    0.00 PKD
ROOT
HETATM    1  C   UNL     1      -8.839  19.311  68.323  1.00  0.00    -0.379 C  
HETATM    2  C   UNL     1      -9.187  18.321  67.289  1.00  0.00    -0.256 A  
HETATM    3  C   UNL     1     -10.346  17.978  66.642  1.00  0.00    -0.375 A  
HETATM    4  C   UNL     1      -9.966  16.946  65.745  1.00  0.00    -0.184 A  
HETATM    5  O   UNL     1      -8.171  17.543  66.827  1.00  0.00    -0.219 OA 
HETATM    6  N   UNL     1      -8.652  16.676  65.861  1.00  0.00    -0.474 NA 
ENDROOT
BRANCH   4   7
HETATM    7  C   UNL     1     -10.826  16.243  64.793  1.00  0.00    -0.224 C  
HETATM    8  O   UNL     1     -11.608  16.838  64.052  1.00  0.00    -1.195 OA 
HETATM    9  N   UNL     1     -10.660  14.859  64.798  1.00  0.00    -0.566 N  
HETATM   10  H   UNL     1      -9.932  14.437  65.374  1.00  0.00     0.000 HD 
BRANCH   9  11
HETATM   11  N   UNL     1     -11.496  14.039  64.008  1.00  0.00    -0.614 NA 
HETATM   12  H   UNL     1     -10.972  13.615  63.242  1.00  0.00     0.000 HD 
BRANCH  11  13
HETATM   13  C   UNL     1     -12.196  13.019  64.791  1.00  0.00    -0.435 C  
BRANCH  13  14
HETATM   14  C   UNL     1     -11.285  11.863  65.139  1.00  0.00    -0.346 A  
HETATM   15  C   UNL     1     -11.105  11.471  66.473  1.00  0.00    -0.341 A  
HETATM   16  C   UNL     1     -10.267  10.400  66.792  1.00  0.00    -0.282 A  
HETATM   17  C   UNL     1      -9.602   9.708  65.783  1.00  0.00    -0.329 A  
HETATM   18  C   UNL     1      -9.777  10.082  64.452  1.00  0.00    -0.277 A  
HETATM   19  C   UNL     1     -10.616  11.149  64.131  1.00  0.00    -0.436 A  
ENDBRANCH  13  14
ENDBRANCH  11  13
ENDBRANCH   9  11
ENDBRANCH   4   7
TORSDOF 4
ENDMDL
MODEL       18
REMARK 921   NORMALIZED FREE ENERGY PREDICTED BY IDOCK:   -5.72 KCAL/MOL
REMARK 922        TOTAL FREE ENERGY PREDICTED BY IDOCK:   -7.27 KCAL/MOL
REMARK 923 INTER-LIGAND FREE ENERGY PREDICTED BY IDOCK:   -7.04 KCAL/MOL
REMARK 924 INTRA-LIGAND FREE ENERGY PREDICTED BY IDOCK:   -0.23 KCAL/MOL
REMARK 927      BINDING AFFINITY PREDICTED BY RF-SCORE:    0.00 PKD
ROOT
HETATM    1  C   UNL     1     -10.770   7.076  73.464  1.00  0.00    -0.368 C  
HETATM    2  C   UNL     1     -11.376   8.180  72.701  1.00  0.00    -0.381 A  
HETATM    3  C   UNL     1     -10.912   9.062  71.759  1.00  0.00    -0.443 A  
HETATM    4  C   UNL     1     -12.038   9.858  71.425  1.00  0.00    -0.413 A  
HETATM    5  O   UNL     1     -12.693   8.430  72.935  1.00  0.00    -0.199 OA 
HETATM    6  N   UNL     1     -13.115   9.483  72.141  1.00  0.00    -0.426 NA 
ENDROOT
BRANCH   4   7
HETATM    7  C   UNL     1     -12.094  10.940  70.441  1.00  0.00    -0.363 C  
HETATM    8  O   UNL     1     -12.263  12.114  70.767  1.00  0.00    -0.377 OA 
HETATM    9  N   UNL     1     -11.920  10.515  69.126  1.00  0.00    -0.536 N  
HETATM   10  H   UNL     1     -11.695   9.539  68.932  1.00  0.00     0.000 HD 
BRANCH   9  11
HETATM   11  N   UNL     1     -12.052  11.431  68.058  1.00  0.00    -0.615 NA 
HETATM   12  H   UNL     1     -12.184  12.380  68.406  1.00  0.00     0.000 HD 
BRANCH  11  13
HETATM   13  C   UNL     1     -10.936  11.369  67.113  1.00  0.00    -0.285 C  
BRANCH  13  14
HETATM   14  C   UNL     1     -11.290  12.012  65.791  1.00  0.00    -0.384 A  
HETATM   15  C   UNL     1     -10.989  11.370  64.581  1.00  0.00    -0.324 A  
HETATM   16  C   UNL     1     -11.321  11.964  63.361  1.00  0.00    -0.465 A  
HETATM   17  C   UNL     1     -11.959  13.202  63.336  1.00  0.00    -0.552 A  
HETATM   18  C   UNL     1     -12.270  13.848  64.530  1.00  0.00    -0.451 A  
HETATM   19  C   UNL     1     -11.943  13.256  65.750  1.00  0.00    -0.463 A  
ENDBRANCH  13  14
ENDBRANCH  11  13
ENDBRANCH   9  11
ENDBRANCH   4   7
TORSDOF 4
ENDMDL
MODEL       19
REMARK 921   NORMALIZED FREE ENERGY PREDICTED BY IDOCK:   -5.70 KCAL/MOL
REMARK 922        TOTAL FREE ENERGY PREDICTED BY IDOCK:   -7.24 KCAL/MOL
REMARK 923 INTER-LIGAND FREE ENERGY PREDICTED BY IDOCK:   -6.77 KCAL/MOL
REMARK 924 INTRA-LIGAND FREE ENERGY PREDICTED BY IDOCK:   -0.47 KCAL/MOL
REMARK 927      BINDING AFFINITY PREDICTED BY RF-SCORE:    0.00 PKD
ROOT
HETATM    1  C   UNL     1     -12.564  11.861  63.226  1.00  0.00    -0.473 C  
HETATM    2  C   UNL     1     -12.132  12.716  64.345  1.00  0.00    -0.415 A  
HETATM    3  C   UNL     1     -10.916  13.162  64.797  1.00  0.00    -0.355 A  
HETATM    4  C   UNL     1     -11.224  13.972  65.920  1.00  0.00    -0.308 A  
HETATM    5  O   UNL     1     -13.114  13.210  65.146  1.00  0.00    -0.703 OA 
HETATM    6  N   UNL     1     -12.553  13.996  66.138  1.00  0.00    -0.443 NA 
ENDROOT
BRANCH   4   7
HETATM    7  C   UNL     1     -10.282  14.714  66.758  1.00  0.00    -0.268 C  
HETATM    8  O   UNL     1     -10.576  15.107  67.886  1.00  0.00    -0.249 OA 
HETATM    9  N   UNL     1      -9.035  14.909  66.167  1.00  0.00    -0.489 N  
HETATM   10  H   UNL     1      -8.827  14.481  65.265  1.00  0.00     0.000 HD 
BRANCH   9  11
HETATM   11  N   UNL     1      -8.057  15.698  66.812  1.00  0.00    -0.250 NA 
HETATM   12  H   UNL     1      -7.160  15.215  66.842  1.00  0.00     0.000 HD 
BRANCH  11  13
HETATM   13  C   UNL     1      -7.916  17.028  66.217  1.00  0.00    -0.308 C  
BRANCH  13  14
HETATM   14  C   UNL     1      -8.760  18.054  66.942  1.00  0.00    -0.261 A  
HETATM   15  C   UNL     1      -9.921  18.571  66.350  1.00  0.00    -0.399 A  
HETATM   16  C   UNL     1     -10.700  19.515  67.024  1.00  0.00    -0.592 A  
HETATM   17  C   UNL     1     -10.330  19.950  68.294  1.00  0.00    -0.526 A  
HETATM   18  C   UNL     1      -9.182  19.440  68.896  1.00  0.00    -0.391 A  
HETATM   19  C   UNL     1      -8.404  18.495  68.228  1.00  0.00    -0.344 A  
ENDBRANCH  13  14
ENDBRANCH  11  13
ENDBRANCH   9  11
ENDBRANCH   4   7
TORSDOF 4
ENDMDL
MODEL       20
REMARK 921   NORMALIZED FREE ENERGY PREDICTED BY IDOCK:   -5.69 KCAL/MOL
REMARK 922        TOTAL FREE ENERGY PREDICTED BY IDOCK:   -7.24 KCAL/MOL
REMARK 923 INTER-LIGAND FREE ENERGY PREDICTED BY IDOCK:   -6.86 KCAL/MOL
REMARK 924 INTRA-LIGAND FREE ENERGY PREDICTED BY IDOCK:   -0.38 KCAL/MOL
REMARK 927      BINDING AFFINITY PREDICTED BY RF-SCORE:    0.00 PKD
ROOT
HETATM    1  C   UNL     1     -12.210  10.493  70.956  1.00  0.00    -0.505 C  
HETATM    2  C   UNL     1     -12.091  11.465  69.855  1.00  0.00    -0.330 A  
HETATM    3  C   UNL     1     -11.847  12.813  69.789  1.00  0.00    -0.380 A  
HETATM    4  C   UNL     1     -11.849  13.112  68.402  1.00  0.00    -0.351 A  
HETATM    5  O   UNL     1     -12.245  10.978  68.595  1.00  0.00    -0.571 OA 
HETATM    6  N   UNL     1     -12.098  12.005  67.678  1.00  0.00    -0.509 NA 
ENDROOT
BRANCH   4   7
HETATM    7  C   UNL     1     -11.609  14.414  67.779  1.00  0.00    -0.356 C  
HETATM    8  O   UNL     1     -11.910  15.470  68.332  1.00  0.00    -0.351 OA 
HETATM    9  N   UNL     1     -10.999  14.337  66.529  1.00  0.00    -0.311 N  
HETATM   10  H   UNL     1     -10.696  13.433  66.166  1.00  0.00     0.000 HD 
BRANCH   9  11
HETATM   11  N   UNL     1     -10.800  15.505  65.760  1.00  0.00    -0.338 NA 
HETATM   12  H   UNL     1     -11.556  16.173  65.909  1.00  0.00     0.000 HD 
BRANCH  11  13
HETATM   13  C   UNL     1      -9.497  16.128  66.000  1.00  0.00    -0.339 C  
BRANCH  13  14
HETATM   14  C   UNL     1      -9.642  17.495  66.631  1.00  0.00    -0.290 A  
HETATM   15  C   UNL     1      -9.012  17.790  67.849  1.00  0.00    -0.255 A  
HETATM   16  C   UNL     1      -9.144  19.055  68.427  1.00  0.00    -0.391 A  
HETATM   17  C   UNL     1      -9.902  20.038  67.796  1.00  0.00    -0.545 A  
HETATM   18  C   UNL     1     -10.528  19.760  66.583  1.00  0.00    -0.615 A  
HETATM   19  C   UNL     1     -10.395  18.499  66.000  1.00  0.00    -0.423 A  
ENDBRANCH  13  14
ENDBRANCH  11  13
ENDBRANCH   9  11
ENDBRANCH   4   7
TORSDOF 4
ENDMDL
MODEL       21
REMARK 921   NORMALIZED FREE ENERGY PREDICTED BY IDOCK:   -5.67 KCAL/MOL
REMARK 922        TOTAL FREE ENERGY PREDICTED BY IDOCK:   -7.22 KCAL/MOL
REMARK 923 INTER-LIGAND FREE ENERGY PREDICTED BY IDOCK:   -6.93 KCAL/MOL
REMARK 924 INTRA-LIGAND FREE ENERGY PREDICTED BY IDOCK:   -0.28 KCAL/MOL
REMARK 927      BINDING AFFINITY PREDICTED BY RF-SCORE:    0.00 PKD
ROOT
HETATM    1  C   UNL     1      -9.384  18.322  66.972  1.00  0.00    -0.274 C  
HETATM    2  C   UNL     1     -10.080  17.370  66.088  1.00  0.00    -0.300 A  
HETATM    3  C   UNL     1     -10.196  16.005  66.052  1.00  0.00    -0.360 A  
HETATM    4  C   UNL     1     -11.035  15.743  64.937  1.00  0.00    -0.427 A  
HETATM    5  O   UNL     1     -10.789  17.905  65.058  1.00  0.00    -0.767 OA 
HETATM    6  N   UNL     1     -11.388  16.892  64.329  1.00  0.00    -1.103 NA 
ENDROOT
BRANCH   4   7
HETATM    7  C   UNL     1     -11.498  14.438  64.468  1.00  0.00    -0.345 C  
HETATM    8  O   UNL     1     -12.693  14.166  64.360  1.00  0.00    -0.667 OA 
HETATM    9  N   UNL     1     -10.468  13.557  64.145  1.00  0.00    -0.585 N  
HETATM   10  H   UNL     1      -9.499  13.874  64.173  1.00  0.00     0.000 HD 
BRANCH   9  11
HETATM   11  N   UNL     1     -10.759  12.224  63.778  1.00  0.00    -0.410 NA 
HETATM   12  H   UNL     1     -10.097  11.884  63.081  1.00  0.00     0.000 HD 
BRANCH  11  13
HETATM   13  C   UNL     1     -10.822  11.318  64.926  1.00  0.00    -0.229 C  
BRANCH  13  14
HETATM   14  C   UNL     1      -9.833  10.182  64.793  1.00  0.00    -0.382 A  
HETATM   15  C   UNL     1      -9.251   9.883  63.553  1.00  0.00    -0.279 A  
HETATM   16  C   UNL     1      -8.334   8.836  63.434  1.00  0.00    -0.157 A  
HETATM   17  C   UNL     1      -7.987   8.079  64.550  1.00  0.00    -0.151 A  
HETATM   18  C   UNL     1      -8.552   8.369  65.790  1.00  0.00    -0.181 A  
HETATM   19  C   UNL     1      -9.465   9.417  65.913  1.00  0.00    -0.315 A  
ENDBRANCH  13  14
ENDBRANCH  11  13
ENDBRANCH   9  11
ENDBRANCH   4   7
TORSDOF 4
ENDMDL
MODEL       22
REMARK 921   NORMALIZED FREE ENERGY PREDICTED BY IDOCK:   -5.64 KCAL/MOL
REMARK 922        TOTAL FREE ENERGY PREDICTED BY IDOCK:   -7.17 KCAL/MOL
REMARK 923 INTER-LIGAND FREE ENERGY PREDICTED BY IDOCK:   -6.77 KCAL/MOL
REMARK 924 INTRA-LIGAND FREE ENERGY PREDICTED BY IDOCK:   -0.40 KCAL/MOL
REMARK 927      BINDING AFFINITY PREDICTED BY RF-SCORE:    0.00 PKD
ROOT
HETATM    1  C   UNL     1      -5.639  17.362  66.221  1.00  0.00    -0.217 C  
HETATM    2  C   UNL     1      -7.090  17.380  66.473  1.00  0.00    -0.265 A  
HETATM    3  C   UNL     1      -7.922  16.717  67.339  1.00  0.00    -0.191 A  
HETATM    4  C   UNL     1      -9.216  17.229  67.060  1.00  0.00    -0.243 A  
HETATM    5  O   UNL     1      -7.829  18.229  65.709  1.00  0.00    -0.517 OA 
HETATM    6  N   UNL     1      -9.163  18.138  66.068  1.00  0.00    -0.517 NA 
ENDROOT
BRANCH   4   7
HETATM    7  C   UNL     1     -10.468  16.872  67.726  1.00  0.00    -0.340 C  
HETATM    8  O   UNL     1     -11.151  17.700  68.326  1.00  0.00    -0.173 OA 
HETATM    9  N   UNL     1     -10.812  15.527  67.597  1.00  0.00    -0.300 N  
HETATM   10  H   UNL     1     -10.247  14.912  67.012  1.00  0.00     0.000 HD 
BRANCH   9  11
HETATM   11  N   UNL     1     -11.939  15.013  68.275  1.00  0.00    -0.541 NA 
HETATM   12  H   UNL     1     -12.608  14.611  67.618  1.00  0.00     0.000 HD 
BRANCH  11  13
HETATM   13  C   UNL     1     -11.585  14.048  69.318  1.00  0.00    -0.309 C  
BRANCH  13  14
HETATM   14  C   UNL     1     -12.036  14.515  70.684  1.00  0.00    -0.392 A  
HETATM   15  C   UNL     1     -13.059  13.841  71.367  1.00  0.00    -0.413 A  
HETATM   16  C   UNL     1     -13.471  14.272  72.631  1.00  0.00    -0.623 A  
HETATM   17  C   UNL     1     -12.866  15.376  73.226  1.00  0.00    -0.636 A  
HETATM   18  C   UNL     1     -11.844  16.051  72.561  1.00  0.00    -0.630 A  
HETATM   19  C   UNL     1     -11.428  15.621  71.301  1.00  0.00    -0.469 A  
ENDBRANCH  13  14
ENDBRANCH  11  13
ENDBRANCH   9  11
ENDBRANCH   4   7
TORSDOF 4
ENDMDL
MODEL       23
REMARK 921   NORMALIZED FREE ENERGY PREDICTED BY IDOCK:   -5.63 KCAL/MOL
REMARK 922        TOTAL FREE ENERGY PREDICTED BY IDOCK:   -7.16 KCAL/MOL
REMARK 923 INTER-LIGAND FREE ENERGY PREDICTED BY IDOCK:   -7.02 KCAL/MOL
REMARK 924 INTRA-LIGAND FREE ENERGY PREDICTED BY IDOCK:   -0.14 KCAL/MOL
REMARK 927      BINDING AFFINITY PREDICTED BY RF-SCORE:    0.00 PKD
ROOT
HETATM    1  C   UNL     1     -12.531  15.842  74.195  1.00  0.00    -0.793 C  
HETATM    2  C   UNL     1     -12.650  15.029  72.973  1.00  0.00    -0.437 A  
HETATM    3  C   UNL     1     -12.143  15.127  71.703  1.00  0.00    -0.424 A  
HETATM    4  C   UNL     1     -12.647  13.988  71.024  1.00  0.00    -0.366 A  
HETATM    5  O   UNL     1     -13.421  13.911  73.059  1.00  0.00    -0.637 OA 
HETATM    6  N   UNL     1     -13.427  13.255  71.840  1.00  0.00    -0.442 NA 
ENDROOT
BRANCH   4   7
HETATM    7  C   UNL     1     -12.384  13.598  69.638  1.00  0.00    -0.203 C  
HETATM    8  O   UNL     1     -12.098  12.444  69.324  1.00  0.00    -0.259 OA 
HETATM    9  N   UNL     1     -12.505  14.645  68.726  1.00  0.00    -0.567 N  
HETATM   10  H   UNL     1     -12.831  15.558  69.040  1.00  0.00     0.000 HD 
BRANCH   9  11
HETATM   11  N   UNL     1     -12.179  14.445  67.366  1.00  0.00    -0.617 NA 
HETATM   12  H   UNL     1     -12.497  15.228  66.796  1.00  0.00     0.000 HD 
BRANCH  11  13
HETATM   13  C   UNL     1     -10.753  14.188  67.155  1.00  0.00    -0.280 C  
BRANCH  13  14
HETATM   14  C   UNL     1     -10.530  13.105  66.123  1.00  0.00    -0.287 A  
HETATM   15  C   UNL     1     -11.025  13.248  64.819  1.00  0.00    -0.365 A  
HETATM   16  C   UNL     1     -10.814  12.247  63.866  1.00  0.00    -0.464 A  
HETATM   17  C   UNL     1     -10.107  11.096  64.205  1.00  0.00    -0.382 A  
HETATM   18  C   UNL     1      -9.604  10.944  65.496  1.00  0.00    -0.266 A  
HETATM   19  C   UNL     1      -9.810  11.943  66.448  1.00  0.00    -0.234 A  
ENDBRANCH  13  14
ENDBRANCH  11  13
ENDBRANCH   9  11
ENDBRANCH   4   7
TORSDOF 4
ENDMDL
MODEL       24
REMARK 921   NORMALIZED FREE ENERGY PREDICTED BY IDOCK:   -5.62 KCAL/MOL
REMARK 922        TOTAL FREE ENERGY PREDICTED BY IDOCK:   -7.16 KCAL/MOL
REMARK 923 INTER-LIGAND FREE ENERGY PREDICTED BY IDOCK:   -7.18 KCAL/MOL
REMARK 924 INTRA-LIGAND FREE ENERGY PREDICTED BY IDOCK:    0.03 KCAL/MOL
REMARK 927      BINDING AFFINITY PREDICTED BY RF-SCORE:    0.00 PKD
ROOT
HETATM    1  C   UNL     1     -11.700  15.836  63.957  1.00  0.00     0.087 C  
HETATM    2  C   UNL     1     -11.815  14.631  64.797  1.00  0.00    -0.440 A  
HETATM    3  C   UNL     1     -11.297  14.255  66.010  1.00  0.00    -0.335 A  
HETATM    4  C   UNL     1     -11.833  12.962  66.245  1.00  0.00    -0.416 A  
HETATM    5  O   UNL     1     -12.603  13.630  64.319  1.00  0.00    -0.640 OA 
HETATM    6  N   UNL     1     -12.616  12.579  65.220  1.00  0.00    -0.637 NA 
ENDROOT
BRANCH   4   7
HETATM    7  C   UNL     1     -11.615  12.117  67.419  1.00  0.00    -0.340 C  
HETATM    8  O   UNL     1     -11.677  10.890  67.365  1.00  0.00    -0.510 OA 
HETATM    9  N   UNL     1     -11.318  12.829  68.579  1.00  0.00    -0.268 N  
HETATM   10  H   UNL     1     -11.195  13.841  68.537  1.00  0.00     0.000 HD 
BRANCH   9  11
HETATM   11  N   UNL     1     -11.186  12.157  69.814  1.00  0.00    -0.488 NA 
HETATM   12  H   UNL     1     -10.389  12.513  70.341  1.00  0.00     0.000 HD 
BRANCH  11  13
HETATM   13  C   UNL     1     -12.408  12.201  70.619  1.00  0.00    -0.295 C  
BRANCH  13  14
HETATM   14  C   UNL     1     -12.554  13.526  71.336  1.00  0.00    -0.398 A  
HETATM   15  C   UNL     1     -11.770  14.628  70.965  1.00  0.00    -0.331 A  
HETATM   16  C   UNL     1     -11.910  15.851  71.625  1.00  0.00    -0.565 A  
HETATM   17  C   UNL     1     -12.833  15.988  72.659  1.00  0.00    -0.506 A  
HETATM   18  C   UNL     1     -13.623  14.902  73.033  1.00  0.00    -0.416 A  
HETATM   19  C   UNL     1     -13.488  13.680  72.373  1.00  0.00    -0.685 A  
ENDBRANCH  13  14
ENDBRANCH  11  13
ENDBRANCH   9  11
ENDBRANCH   4   7
TORSDOF 4
ENDMDL
MODEL       25
REMARK 921   NORMALIZED FREE ENERGY PREDICTED BY IDOCK:   -5.62 KCAL/MOL
REMARK 922        TOTAL FREE ENERGY PREDICTED BY IDOCK:   -7.15 KCAL/MOL
REMARK 923 INTER-LIGAND FREE ENERGY PREDICTED BY IDOCK:   -6.79 KCAL/MOL
REMARK 924 INTRA-LIGAND FREE ENERGY PREDICTED BY IDOCK:   -0.36 KCAL/MOL
REMARK 927      BINDING AFFINITY PREDICTED BY RF-SCORE:    0.00 PKD
ROOT
HETATM    1  C   UNL     1     -10.767   4.302  72.912  1.00  0.00    -0.246 C  
HETATM    2  C   UNL     1     -11.111   5.723  72.734  1.00  0.00    -0.284 A  
HETATM    3  C   UNL     1     -12.061   6.397  72.009  1.00  0.00    -0.353 A  
HETATM    4  C   UNL     1     -11.840   7.766  72.309  1.00  0.00    -0.329 A  
HETATM    5  O   UNL     1     -10.354   6.622  73.419  1.00  0.00    -0.224 OA 
HETATM    6  N   UNL     1     -10.802   7.905  73.156  1.00  0.00    -0.340 NA 
ENDROOT
BRANCH   4   7
HETATM    7  C   UNL     1     -12.602   8.912  71.814  1.00  0.00    -0.361 C  
HETATM    8  O   UNL     1     -13.629   9.305  72.366  1.00  0.00    -0.458 OA 
HETATM    9  N   UNL     1     -12.047   9.513  70.686  1.00  0.00    -0.440 N  
HETATM   10  H   UNL     1     -11.147   9.192  70.330  1.00  0.00     0.000 HD 
BRANCH   9  11
HETATM   11  N   UNL     1     -12.727  10.565  70.033  1.00  0.00    -0.522 NA 
HETATM   12  H   UNL     1     -13.610  10.774  70.499  1.00  0.00     0.000 HD 
BRANCH  11  13
HETATM   13  C   UNL     1     -11.909  11.771  69.894  1.00  0.00    -0.348 C  
BRANCH  13  14
HETATM   14  C   UNL     1     -12.543  12.956  70.589  1.00  0.00    -0.256 A  
HETATM   15  C   UNL     1     -13.267  12.783  71.777  1.00  0.00    -0.471 A  
HETATM   16  C   UNL     1     -13.848  13.879  72.420  1.00  0.00    -0.668 A  
HETATM   17  C   UNL     1     -13.711  15.158  71.885  1.00  0.00    -0.577 A  
HETATM   18  C   UNL     1     -12.988  15.344  70.708  1.00  0.00    -0.510 A  
HETATM   19  C   UNL     1     -12.404  14.253  70.067  1.00  0.00    -0.403 A  
ENDBRANCH  13  14
ENDBRANCH  11  13
ENDBRANCH   9  11
ENDBRANCH   4   7
TORSDOF 4
ENDMDL
MODEL       26
REMARK 921   NORMALIZED FREE ENERGY PREDICTED BY IDOCK:   -5.62 KCAL/MOL
REMARK 922        TOTAL FREE ENERGY PREDICTED BY IDOCK:   -7.15 KCAL/MOL
REMARK 923 INTER-LIGAND FREE ENERGY PREDICTED BY IDOCK:   -6.92 KCAL/MOL
REMARK 924 INTRA-LIGAND FREE ENERGY PREDICTED BY IDOCK:   -0.24 KCAL/MOL
REMARK 927      BINDING AFFINITY PREDICTED BY RF-SCORE:    0.00 PKD
ROOT
HETATM    1  C   UNL     1     -10.380  10.637  63.809  1.00  0.00    -0.183 C  
HETATM    2  C   UNL     1     -10.914  12.000  63.967  1.00  0.00    -0.381 A  
HETATM    3  C   UNL     1     -10.377  13.202  64.350  1.00  0.00    -0.390 A  
HETATM    4  C   UNL     1     -11.454  14.122  64.264  1.00  0.00    -0.272 A  
HETATM    5  O   UNL     1     -12.233  12.173  63.679  1.00  0.00    -0.496 OA 
HETATM    6  N   UNL     1     -12.579  13.500  63.866  1.00  0.00    -0.694 NA 
ENDROOT
BRANCH   4   7
HETATM    7  C   UNL     1     -11.412  15.558  64.541  1.00  0.00    -0.308 C  
HETATM    8  O   UNL     1     -12.056  16.372  63.881  1.00  0.00    -0.977 OA 
HETATM    9  N   UNL     1     -10.599  15.901  65.620  1.00  0.00    -0.366 N  
HETATM   10  H   UNL     1     -10.162  15.169  66.180  1.00  0.00     0.000 HD 
BRANCH   9  11
HETATM   11  N   UNL     1     -10.376  17.258  65.941  1.00  0.00    -0.524 NA 
HETATM   12  H   UNL     1     -11.173  17.833  65.667  1.00  0.00     0.000 HD 
BRANCH  11  13
HETATM   13  C   UNL     1     -10.044  17.461  67.352  1.00  0.00    -0.321 C  
BRANCH  13  14
HETATM   14  C   UNL     1      -8.932  18.473  67.522  1.00  0.00    -0.286 A  
HETATM   15  C   UNL     1      -8.758  19.505  66.588  1.00  0.00    -0.377 A  
HETATM   16  C   UNL     1      -7.733  20.441  66.749  1.00  0.00    -0.311 A  
HETATM   17  C   UNL     1      -6.875  20.359  67.842  1.00  0.00    -0.336 A  
HETATM   18  C   UNL     1      -7.041  19.342  68.781  1.00  0.00    -0.375 A  
HETATM   19  C   UNL     1      -8.065  18.408  68.625  1.00  0.00    -0.319 A  
ENDBRANCH  13  14
ENDBRANCH  11  13
ENDBRANCH   9  11
ENDBRANCH   4   7
TORSDOF 4
ENDMDL
MODEL       27
REMARK 921   NORMALIZED FREE ENERGY PREDICTED BY IDOCK:   -5.56 KCAL/MOL
REMARK 922        TOTAL FREE ENERGY PREDICTED BY IDOCK:   -7.07 KCAL/MOL
REMARK 923 INTER-LIGAND FREE ENERGY PREDICTED BY IDOCK:   -6.75 KCAL/MOL
REMARK 924 INTRA-LIGAND FREE ENERGY PREDICTED BY IDOCK:   -0.33 KCAL/MOL
REMARK 927      BINDING AFFINITY PREDICTED BY RF-SCORE:    0.00 PKD
ROOT
HETATM    1  C   UNL     1     -12.322  12.032  63.408  1.00  0.00    -0.635 C  
HETATM    2  C   UNL     1     -11.706  12.577  64.630  1.00  0.00    -0.359 A  
HETATM    3  C   UNL     1     -11.946  12.433  65.972  1.00  0.00    -0.419 A  
HETATM    4  C   UNL     1     -10.959  13.233  66.603  1.00  0.00    -0.283 A  
HETATM    5  O   UNL     1     -10.651  13.419  64.454  1.00  0.00    -0.411 OA 
HETATM    6  N   UNL     1     -10.179  13.837  65.687  1.00  0.00    -0.305 NA 
ENDROOT
BRANCH   4   7
HETATM    7  C   UNL     1     -10.754  13.411  68.041  1.00  0.00    -0.248 C  
HETATM    8  O   UNL     1     -10.991  12.517  68.852  1.00  0.00    -0.237 OA 
HETATM    9  N   UNL     1     -10.253  14.664  68.389  1.00  0.00    -0.229 N  
HETATM   10  H   UNL     1      -9.995  15.328  67.659  1.00  0.00     0.000 HD 
BRANCH   9  11
HETATM   11  N   UNL     1     -10.103  15.019  69.748  1.00  0.00    -0.441 NA 
HETATM   12  H   UNL     1      -9.131  15.240  69.961  1.00  0.00     0.000 HD 
BRANCH  11  13
HETATM   13  C   UNL     1     -10.990  16.111  70.152  1.00  0.00    -0.358 C  
BRANCH  13  14
HETATM   14  C   UNL     1     -11.926  15.686  71.262  1.00  0.00    -0.467 A  
HETATM   15  C   UNL     1     -13.285  15.458  71.002  1.00  0.00    -0.560 A  
HETATM   16  C   UNL     1     -14.146  15.060  72.028  1.00  0.00    -0.633 A  
HETATM   17  C   UNL     1     -13.660  14.885  73.321  1.00  0.00    -0.051 A  
HETATM   18  C   UNL     1     -12.311  15.102  73.592  1.00  0.00    -0.674 A  
HETATM   19  C   UNL     1     -11.448  15.495  72.569  1.00  0.00    -0.435 A  
ENDBRANCH  13  14
ENDBRANCH  11  13
ENDBRANCH   9  11
ENDBRANCH   4   7
TORSDOF 4
ENDMDL
MODEL       28
REMARK 921   NORMALIZED FREE ENERGY PREDICTED BY IDOCK:   -5.55 KCAL/MOL
REMARK 922        TOTAL FREE ENERGY PREDICTED BY IDOCK:   -7.07 KCAL/MOL
REMARK 923 INTER-LIGAND FREE ENERGY PREDICTED BY IDOCK:   -6.84 KCAL/MOL
REMARK 924 INTRA-LIGAND FREE ENERGY PREDICTED BY IDOCK:   -0.23 KCAL/MOL
REMARK 927      BINDING AFFINITY PREDICTED BY RF-SCORE:    0.00 PKD
ROOT
HETATM    1  C   UNL     1      -9.420  20.098  67.616  1.00  0.00    -0.514 C  
HETATM    2  C   UNL     1      -9.617  18.886  66.803  1.00  0.00    -0.324 A  
HETATM    3  C   UNL     1     -10.702  18.298  66.205  1.00  0.00    -0.182 A  
HETATM    4  C   UNL     1     -10.179  17.149  65.558  1.00  0.00    -0.051 A  
HETATM    5  O   UNL     1      -8.509  18.139  66.548  1.00  0.00    -0.256 OA 
HETATM    6  N   UNL     1      -8.854  17.046  65.771  1.00  0.00    -0.493 NA 
ENDROOT
BRANCH   4   7
HETATM    7  C   UNL     1     -10.917  16.180  64.748  1.00  0.00    -0.313 C  
HETATM    8  O   UNL     1     -11.854  16.510  64.022  1.00  0.00    -1.022 OA 
HETATM    9  N   UNL     1     -10.447  14.873  64.865  1.00  0.00    -0.495 N  
HETATM   10  H   UNL     1      -9.611  14.681  65.416  1.00  0.00     0.000 HD 
BRANCH   9  11
HETATM   11  N   UNL     1     -11.125  13.812  64.225  1.00  0.00    -0.576 NA 
HETATM   12  H   UNL     1     -10.498  13.025  64.060  1.00  0.00     0.000 HD 
BRANCH  11  13
HETATM   13  C   UNL     1     -12.324  13.384  64.948  1.00  0.00    -0.412 C  
BRANCH  13  14
HETATM   14  C   UNL     1     -12.010  13.028  66.384  1.00  0.00    -0.466 A  
HETATM   15  C   UNL     1     -12.264  13.941  67.418  1.00  0.00    -0.291 A  
HETATM   16  C   UNL     1     -11.977  13.608  68.744  1.00  0.00    -0.394 A  
HETATM   17  C   UNL     1     -11.436  12.363  69.052  1.00  0.00    -0.352 A  
HETATM   18  C   UNL     1     -11.183  11.444  68.035  1.00  0.00    -0.346 A  
HETATM   19  C   UNL     1     -11.473  11.772  66.710  1.00  0.00    -0.352 A  
ENDBRANCH  13  14
ENDBRANCH  11  13
ENDBRANCH   9  11
ENDBRANCH   4   7
TORSDOF 4
ENDMDL
MODEL       29
REMARK 921   NORMALIZED FREE ENERGY PREDICTED BY IDOCK:   -5.55 KCAL/MOL
REMARK 922        TOTAL FREE ENERGY PREDICTED BY IDOCK:   -7.06 KCAL/MOL
REMARK 923 INTER-LIGAND FREE ENERGY PREDICTED BY IDOCK:   -6.74 KCAL/MOL
REMARK 924 INTRA-LIGAND FREE ENERGY PREDICTED BY IDOCK:   -0.32 KCAL/MOL
REMARK 927      BINDING AFFINITY PREDICTED BY RF-SCORE:    0.00 PKD
ROOT
HETATM    1  C   UNL     1     -12.241  12.574  63.353  1.00  0.00    -0.613 C  
HETATM    2  C   UNL     1     -11.679  12.299  64.686  1.00  0.00    -0.356 A  
HETATM    3  C   UNL     1     -11.829  12.866  65.926  1.00  0.00    -0.476 A  
HETATM    4  C   UNL     1     -11.004  12.090  66.780  1.00  0.00    -0.285 A  
HETATM    5  O   UNL     1     -10.811  11.255  64.776  1.00  0.00    -0.302 OA 
HETATM    6  N   UNL     1     -10.380  11.120  66.085  1.00  0.00    -0.244 NA 
ENDROOT
BRANCH   4   7
HETATM    7  C   UNL     1     -10.821  12.258  68.221  1.00  0.00    -0.225 C  
HETATM    8  O   UNL     1      -9.804  12.758  68.700  1.00  0.00    -0.173 OA 
HETATM    9  N   UNL     1     -11.903  11.819  68.982  1.00  0.00    -0.315 N  
HETATM   10  H   UNL     1     -12.752  11.495  68.519  1.00  0.00     0.000 HD 
BRANCH   9  11
HETATM   11  N   UNL     1     -11.829  11.820  70.393  1.00  0.00    -0.499 NA 
HETATM   12  H   UNL     1     -10.987  12.296  70.714  1.00  0.00     0.000 HD 
BRANCH  11  13
HETATM   13  C   UNL     1     -13.023  12.386  71.024  1.00  0.00    -0.064 C  
BRANCH  13  14
HETATM   14  C   UNL     1     -12.752  13.762  71.592  1.00  0.00    -0.409 A  
HETATM   15  C   UNL     1     -13.291  14.142  72.829  1.00  0.00    -0.618 A  
HETATM   16  C   UNL     1     -13.036  15.412  73.354  1.00  0.00    -0.662 A  
HETATM   17  C   UNL     1     -12.240  16.313  72.650  1.00  0.00    -0.581 A  
HETATM   18  C   UNL     1     -11.694  15.945  71.422  1.00  0.00    -0.530 A  
HETATM   19  C   UNL     1     -11.943  14.677  70.898  1.00  0.00    -0.388 A  
ENDBRANCH  13  14
ENDBRANCH  11  13
ENDBRANCH   9  11
ENDBRANCH   4   7
TORSDOF 4
ENDMDL
MODEL       30
REMARK 921   NORMALIZED FREE ENERGY PREDICTED BY IDOCK:   -5.50 KCAL/MOL
REMARK 922        TOTAL FREE ENERGY PREDICTED BY IDOCK:   -7.00 KCAL/MOL
REMARK 923 INTER-LIGAND FREE ENERGY PREDICTED BY IDOCK:   -6.69 KCAL/MOL
REMARK 924 INTRA-LIGAND FREE ENERGY PREDICTED BY IDOCK:   -0.31 KCAL/MOL
REMARK 927      BINDING AFFINITY PREDICTED BY RF-SCORE:    0.00 PKD
ROOT
HETATM    1  C   UNL     1     -12.605  12.179  63.409  1.00  0.00    -0.584 C  
HETATM    2  C   UNL     1     -12.326  12.568  64.802  1.00  0.00    -0.474 A  
HETATM    3  C   UNL     1     -12.308  13.760  65.479  1.00  0.00    -0.507 A  
HETATM    4  C   UNL     1     -11.974  13.412  66.813  1.00  0.00    -0.394 A  
HETATM    5  O   UNL     1     -12.012  11.562  65.662  1.00  0.00    -0.150 OA 
HETATM    6  N   UNL     1     -11.787  12.084  66.925  1.00  0.00    -0.616 NA 
ENDROOT
BRANCH   4   7
HETATM    7  C   UNL     1     -11.849  14.317  67.956  1.00  0.00    -0.344 C  
HETATM    8  O   UNL     1     -12.141  13.973  69.100  1.00  0.00    -0.346 OA 
HETATM    9  N   UNL     1     -11.356  15.578  67.625  1.00  0.00    -0.301 N  
HETATM   10  H   UNL     1     -11.050  15.770  66.672  1.00  0.00     0.000 HD 
BRANCH   9  11
HETATM   11  N   UNL     1     -11.279  16.592  68.606  1.00  0.00    -0.297 NA 
HETATM   12  H   UNL     1     -11.834  16.349  69.426  1.00  0.00     0.000 HD 
BRANCH  11  13
HETATM   13  C   UNL     1      -9.901  16.915  68.983  1.00  0.00    -0.247 C  
BRANCH  13  14
HETATM   14  C   UNL     1      -9.447  18.219  68.364  1.00  0.00    -0.336 A  
HETATM   15  C   UNL     1     -10.367  19.069  67.735  1.00  0.00    -0.498 A  
HETATM   16  C   UNL     1      -9.946  20.275  67.168  1.00  0.00    -0.593 A  
HETATM   17  C   UNL     1      -8.605  20.645  67.226  1.00  0.00    -0.310 A  
HETATM   18  C   UNL     1      -7.681  19.812  67.854  1.00  0.00    -0.330 A  
HETATM   19  C   UNL     1      -8.099  18.610  68.424  1.00  0.00    -0.360 A  
ENDBRANCH  13  14
ENDBRANCH  11  13
ENDBRANCH   9  11
ENDBRANCH   4   7
TORSDOF 4
ENDMDL
MODEL       31
REMARK 921   NORMALIZED FREE ENERGY PREDICTED BY IDOCK:   -5.49 KCAL/MOL
REMARK 922        TOTAL FREE ENERGY PREDICTED BY IDOCK:   -6.99 KCAL/MOL
REMARK 923 INTER-LIGAND FREE ENERGY PREDICTED BY IDOCK:   -6.70 KCAL/MOL
REMARK 924 INTRA-LIGAND FREE ENERGY PREDICTED BY IDOCK:   -0.29 KCAL/MOL
REMARK 927      BINDING AFFINITY PREDICTED BY RF-SCORE:    0.00 PKD
ROOT
HETATM    1  C   UNL     1      -9.169   9.611  64.171  1.00  0.00    -0.218 C  
HETATM    2  C   UNL     1      -9.992  10.819  64.351  1.00  0.00    -0.338 A  
HETATM    3  C   UNL     1     -10.365  11.572  65.435  1.00  0.00    -0.322 A  
HETATM    4  C   UNL     1     -11.156  12.618  64.892  1.00  0.00    -0.296 A  
HETATM    5  O   UNL     1     -10.530  11.361  63.226  1.00  0.00    -0.359 OA 
HETATM    6  N   UNL     1     -11.264  12.487  63.557  1.00  0.00    -0.471 NA 
ENDROOT
BRANCH   4   7
HETATM    7  C   UNL     1     -11.784  13.719  65.622  1.00  0.00    -0.347 C  
HETATM    8  O   UNL     1     -12.871  14.189  65.292  1.00  0.00    -0.670 OA 
HETATM    9  N   UNL     1     -11.046  14.161  66.719  1.00  0.00    -0.304 N  
HETATM   10  H   UNL     1     -10.194  13.670  66.990  1.00  0.00     0.000 HD 
BRANCH   9  11
HETATM   11  N   UNL     1     -11.473  15.287  67.458  1.00  0.00    -0.309 NA 
HETATM   12  H   UNL     1     -12.210  15.033  68.116  1.00  0.00     0.000 HD 
BRANCH  11  13
HETATM   13  C   UNL     1     -10.373  15.970  68.141  1.00  0.00    -0.260 C  
BRANCH  13  14
HETATM   14  C   UNL     1     -10.289  17.426  67.742  1.00  0.00    -0.358 A  
HETATM   15  C   UNL     1     -10.396  17.805  66.396  1.00  0.00    -0.351 A  
HETATM   16  C   UNL     1     -10.323  19.152  66.031  1.00  0.00    -0.538 A  
HETATM   17  C   UNL     1     -10.144  20.132  67.003  1.00  0.00    -0.599 A  
HETATM   18  C   UNL     1     -10.043  19.770  68.344  1.00  0.00    -0.568 A  
HETATM   19  C   UNL     1     -10.120  18.427  68.713  1.00  0.00    -0.393 A  
ENDBRANCH  13  14
ENDBRANCH  11  13
ENDBRANCH   9  11
ENDBRANCH   4   7
TORSDOF 4
ENDMDL
MODEL       32
REMARK 921   NORMALIZED FREE ENERGY PREDICTED BY IDOCK:   -5.47 KCAL/MOL
REMARK 922        TOTAL FREE ENERGY PREDICTED BY IDOCK:   -6.97 KCAL/MOL
REMARK 923 INTER-LIGAND FREE ENERGY PREDICTED BY IDOCK:   -6.72 KCAL/MOL
REMARK 924 INTRA-LIGAND FREE ENERGY PREDICTED BY IDOCK:   -0.25 KCAL/MOL
REMARK 927      BINDING AFFINITY PREDICTED BY RF-SCORE:    0.00 PKD
ROOT
HETATM    1  C   UNL     1     -11.381   5.480  72.784  1.00  0.00    -0.359 C  
HETATM    2  C   UNL     1     -11.404   6.854  72.253  1.00  0.00    -0.269 A  
HETATM    3  C   UNL     1     -12.258   7.553  71.439  1.00  0.00    -0.363 A  
HETATM    4  C   UNL     1     -11.686   8.848  71.344  1.00  0.00    -0.315 A  
HETATM    5  O   UNL     1     -10.374   7.664  72.619  1.00  0.00    -0.227 OA 
HETATM    6  N   UNL     1     -10.542   8.915  72.050  1.00  0.00    -0.344 NA 
ENDROOT
BRANCH   4   7
HETATM    7  C   UNL     1     -12.219   9.997  70.611  1.00  0.00    -0.269 C  
HETATM    8  O   UNL     1     -12.980  10.811  71.131  1.00  0.00    -0.369 OA 
HETATM    9  N   UNL     1     -11.771  10.082  69.294  1.00  0.00    -0.477 N  
HETATM   10  H   UNL     1     -11.072   9.423  68.951  1.00  0.00     0.000 HD 
BRANCH   9  11
HETATM   11  N   UNL     1     -12.281  11.077  68.431  1.00  0.00    -0.780 NA 
HETATM   12  H   UNL     1     -13.006  11.625  68.895  1.00  0.00     0.000 HD 
BRANCH  11  13
HETATM   13  C   UNL     1     -11.237  11.946  67.885  1.00  0.00    -0.263 C  
BRANCH  13  14
HETATM   14  C   UNL     1     -11.332  12.050  66.379  1.00  0.00    -0.411 A  
HETATM   15  C   UNL     1     -10.535  11.242  65.556  1.00  0.00    -0.323 A  
HETATM   16  C   UNL     1     -10.627  11.336  64.165  1.00  0.00    -0.437 A  
HETATM   17  C   UNL     1     -11.516  12.235  63.582  1.00  0.00    -0.572 A  
HETATM   18  C   UNL     1     -12.319  13.040  64.388  1.00  0.00    -0.442 A  
HETATM   19  C   UNL     1     -12.232  12.945  65.777  1.00  0.00    -0.498 A  
ENDBRANCH  13  14
ENDBRANCH  11  13
ENDBRANCH   9  11
ENDBRANCH   4   7
TORSDOF 4
ENDMDL
MODEL       33
REMARK 921   NORMALIZED FREE ENERGY PREDICTED BY IDOCK:   -5.46 KCAL/MOL
REMARK 922        TOTAL FREE ENERGY PREDICTED BY IDOCK:   -6.96 KCAL/MOL
REMARK 923 INTER-LIGAND FREE ENERGY PREDICTED BY IDOCK:   -6.60 KCAL/MOL
REMARK 924 INTRA-LIGAND FREE ENERGY PREDICTED BY IDOCK:   -0.36 KCAL/MOL
REMARK 927      BINDING AFFINITY PREDICTED BY RF-SCORE:    0.00 PKD
ROOT
HETATM    1  C   UNL     1      -7.222  19.883  67.248  1.00  0.00    -0.273 C  
HETATM    2  C   UNL     1      -8.265  18.844  67.190  1.00  0.00    -0.269 A  
HETATM    3  C   UNL     1      -9.032  18.203  68.129  1.00  0.00    -0.298 A  
HETATM    4  C   UNL     1      -9.854  17.320  67.381  1.00  0.00    -0.272 A  
HETATM    5  O   UNL     1      -8.588  18.375  65.955  1.00  0.00    -0.503 OA 
HETATM    6  N   UNL     1      -9.582  17.417  66.066  1.00  0.00    -0.504 NA 
ENDROOT
BRANCH   4   7
HETATM    7  C   UNL     1     -10.881  16.417  67.901  1.00  0.00    -0.328 C  
HETATM    8  O   UNL     1     -11.351  16.539  69.031  1.00  0.00    -0.282 OA 
HETATM    9  N   UNL     1     -11.278  15.435  66.996  1.00  0.00    -0.279 N  
HETATM   10  H   UNL     1     -10.913  15.443  66.043  1.00  0.00     0.000 HD 
BRANCH   9  11
HETATM   11  N   UNL     1     -12.186  14.427  67.391  1.00  0.00    -0.617 NA 
HETATM   12  H   UNL     1     -13.046  14.476  66.846  1.00  0.00     0.000 HD 
BRANCH  11  13
HETATM   13  C   UNL     1     -11.605  13.084  67.333  1.00  0.00    -0.356 C  
BRANCH  13  14
HETATM   14  C   UNL     1     -11.458  12.604  65.906  1.00  0.00    -0.407 A  
HETATM   15  C   UNL     1     -12.530  12.699  65.007  1.00  0.00    -0.556 A  
HETATM   16  C   UNL     1     -12.390  12.258  63.688  1.00  0.00    -0.664 A  
HETATM   17  C   UNL     1     -11.181  11.721  63.254  1.00  0.00    -0.357 A  
HETATM   18  C   UNL     1     -10.106  11.626  64.135  1.00  0.00    -0.338 A  
HETATM   19  C   UNL     1     -10.241  12.069  65.451  1.00  0.00    -0.295 A  
ENDBRANCH  13  14
ENDBRANCH  11  13
ENDBRANCH   9  11
ENDBRANCH   4   7
TORSDOF 4
ENDMDL
MODEL       34
REMARK 921   NORMALIZED FREE ENERGY PREDICTED BY IDOCK:   -5.46 KCAL/MOL
REMARK 922        TOTAL FREE ENERGY PREDICTED BY IDOCK:   -6.95 KCAL/MOL
REMARK 923 INTER-LIGAND FREE ENERGY PREDICTED BY IDOCK:   -6.61 KCAL/MOL
REMARK 924 INTRA-LIGAND FREE ENERGY PREDICTED BY IDOCK:   -0.35 KCAL/MOL
REMARK 927      BINDING AFFINITY PREDICTED BY RF-SCORE:    0.00 PKD
ROOT
HETATM    1  C   UNL     1     -13.145  15.857  73.315  1.00  0.00    -0.694 C  
HETATM    2  C   UNL     1     -12.656  15.474  71.980  1.00  0.00    -0.404 A  
HETATM    3  C   UNL     1     -12.983  14.487  71.086  1.00  0.00    -0.414 A  
HETATM    4  C   UNL     1     -12.124  14.705  69.978  1.00  0.00    -0.329 A  
HETATM    5  O   UNL     1     -11.656  16.234  71.458  1.00  0.00    -0.457 OA 
HETATM    6  N   UNL     1     -11.314  15.757  70.204  1.00  0.00    -0.323 NA 
ENDROOT
BRANCH   4   7
HETATM    7  C   UNL     1     -12.080  13.941  68.731  1.00  0.00    -0.309 C  
HETATM    8  O   UNL     1     -11.838  12.736  68.708  1.00  0.00    -0.304 OA 
HETATM    9  N   UNL     1     -12.356  14.700  67.595  1.00  0.00    -0.554 N  
HETATM   10  H   UNL     1     -12.636  15.676  67.691  1.00  0.00     0.000 HD 
BRANCH   9  11
HETATM   11  N   UNL     1     -12.248  14.124  66.310  1.00  0.00    -0.455 NA 
HETATM   12  H   UNL     1     -12.939  14.520  65.673  1.00  0.00     0.000 HD 
BRANCH  11  13
HETATM   13  C   UNL     1     -10.900  14.230  65.750  1.00  0.00    -0.303 C  
BRANCH  13  14
HETATM   14  C   UNL     1     -10.403  12.894  65.241  1.00  0.00    -0.315 A  
HETATM   15  C   UNL     1     -10.589  12.527  63.901  1.00  0.00    -0.472 A  
HETATM   16  C   UNL     1     -10.124  11.295  63.433  1.00  0.00    -0.445 A  
HETATM   17  C   UNL     1      -9.470  10.420  64.295  1.00  0.00    -0.349 A  
HETATM   18  C   UNL     1      -9.272  10.775  65.628  1.00  0.00    -0.226 A  
HETATM   19  C   UNL     1      -9.731  12.006  66.098  1.00  0.00    -0.254 A  
ENDBRANCH  13  14
ENDBRANCH  11  13
ENDBRANCH   9  11
ENDBRANCH   4   7
TORSDOF 4
ENDMDL
MODEL       35
REMARK 921   NORMALIZED FREE ENERGY PREDICTED BY IDOCK:   -5.42 KCAL/MOL
REMARK 922        TOTAL FREE ENERGY PREDICTED BY IDOCK:   -6.90 KCAL/MOL
REMARK 923 INTER-LIGAND FREE ENERGY PREDICTED BY IDOCK:   -6.71 KCAL/MOL
REMARK 924 INTRA-LIGAND FREE ENERGY PREDICTED BY IDOCK:   -0.19 KCAL/MOL
REMARK 927      BINDING AFFINITY PREDICTED BY RF-SCORE:    0.00 PKD
ROOT
HETATM    1  C   UNL     1     -10.942  15.440  67.758  1.00  0.00    -0.311 C  
HETATM    2  C   UNL     1     -11.674  14.992  68.956  1.00  0.00    -0.325 A  
HETATM    3  C   UNL     1     -12.008  13.767  69.473  1.00  0.00    -0.399 A  
HETATM    4  C   UNL     1     -12.707  14.060  70.673  1.00  0.00    -0.303 A  
HETATM    5  O   UNL     1     -12.148  15.967  69.778  1.00  0.00    -0.325 OA 
HETATM    6  N   UNL     1     -12.800  15.390  70.855  1.00  0.00    -0.450 NA 
ENDROOT
BRANCH   4   7
HETATM    7  C   UNL     1     -13.262  13.101  71.628  1.00  0.00    -0.346 C  
HETATM    8  O   UNL     1     -13.896  13.455  72.620  1.00  0.00    -0.726 OA 
HETATM    9  N   UNL     1     -13.019  11.769  71.295  1.00  0.00    -0.327 N  
HETATM   10  H   UNL     1     -12.562  11.541  70.412  1.00  0.00     0.000 HD 
BRANCH   9  11
HETATM   11  N   UNL     1     -13.402  10.734  72.176  1.00  0.00    -0.579 NA 
HETATM   12  H   UNL     1     -14.369  10.850  72.476  1.00  0.00     0.000 HD 
BRANCH  11  13
HETATM   13  C   UNL     1     -13.185   9.399  71.613  1.00  0.00    -0.397 C  
BRANCH  13  14
HETATM   14  C   UNL     1     -11.751   8.949  71.787  1.00  0.00    -0.432 A  
HETATM   15  C   UNL     1     -10.744   9.430  70.938  1.00  0.00    -0.393 A  
HETATM   16  C   UNL     1      -9.420   9.017  71.103  1.00  0.00    -0.348 A  
HETATM   17  C   UNL     1      -9.087   8.122  72.117  1.00  0.00    -0.249 A  
HETATM   18  C   UNL     1     -10.077   7.641  72.971  1.00  0.00    -0.362 A  
HETATM   19  C   UNL     1     -11.399   8.055  72.812  1.00  0.00    -0.439 A  
ENDBRANCH  13  14
ENDBRANCH  11  13
ENDBRANCH   9  11
ENDBRANCH   4   7
TORSDOF 4
ENDMDL
MODEL       36
REMARK 921   NORMALIZED FREE ENERGY PREDICTED BY IDOCK:   -5.41 KCAL/MOL
REMARK 922        TOTAL FREE ENERGY PREDICTED BY IDOCK:   -6.89 KCAL/MOL
REMARK 923 INTER-LIGAND FREE ENERGY PREDICTED BY IDOCK:   -6.73 KCAL/MOL
REMARK 924 INTRA-LIGAND FREE ENERGY PREDICTED BY IDOCK:   -0.15 KCAL/MOL
REMARK 927      BINDING AFFINITY PREDICTED BY RF-SCORE:    0.00 PKD
ROOT
HETATM    1  C   UNL     1     -10.806   7.454  73.018  1.00  0.00    -0.423 C  
HETATM    2  C   UNL     1     -11.409   8.569  72.268  1.00  0.00    -0.371 A  
HETATM    3  C   UNL     1     -10.985   9.377  71.244  1.00  0.00    -0.440 A  
HETATM    4  C   UNL     1     -12.082  10.239  70.987  1.00  0.00    -0.386 A  
HETATM    5  O   UNL     1     -12.675   8.922  72.619  1.00  0.00    -0.369 OA 
HETATM    6  N   UNL     1     -13.103   9.971  71.823  1.00  0.00    -0.426 NA 
ENDROOT
BRANCH   4   7
HETATM    7  C   UNL     1     -12.163  11.282  69.964  1.00  0.00    -0.314 C  
HETATM    8  O   UNL     1     -12.448  11.033  68.794  1.00  0.00    -0.468 OA 
HETATM    9  N   UNL     1     -11.909  12.565  70.447  1.00  0.00    -0.550 N  
HETATM   10  H   UNL     1     -11.765  12.713  71.445  1.00  0.00     0.000 HD 
BRANCH   9  11
HETATM   11  N   UNL     1     -11.848  13.661  69.557  1.00  0.00    -0.318 NA 
HETATM   12  H   UNL     1     -11.895  14.544  70.064  1.00  0.00     0.000 HD 
BRANCH  11  13
HETATM   13  C   UNL     1     -10.673  13.620  68.684  1.00  0.00    -0.256 C  
BRANCH  13  14
HETATM   14  C   UNL     1     -11.027  13.983  67.259  1.00  0.00    -0.303 A  
HETATM   15  C   UNL     1     -10.111  14.666  66.447  1.00  0.00    -0.288 A  
HETATM   16  C   UNL     1     -10.439  14.997  65.130  1.00  0.00    -0.438 A  
HETATM   17  C   UNL     1     -11.682  14.647  64.609  1.00  0.00    -0.431 A  
HETATM   18  C   UNL     1     -12.600  13.963  65.403  1.00  0.00    -0.538 A  
HETATM   19  C   UNL     1     -12.274  13.628  66.717  1.00  0.00    -0.416 A  
ENDBRANCH  13  14
ENDBRANCH  11  13
ENDBRANCH   9  11
ENDBRANCH   4   7
TORSDOF 4
ENDMDL
MODEL       37
REMARK 921   NORMALIZED FREE ENERGY PREDICTED BY IDOCK:   -5.40 KCAL/MOL
REMARK 922        TOTAL FREE ENERGY PREDICTED BY IDOCK:   -6.88 KCAL/MOL
REMARK 923 INTER-LIGAND FREE ENERGY PREDICTED BY IDOCK:   -6.69 KCAL/MOL
REMARK 924 INTRA-LIGAND FREE ENERGY PREDICTED BY IDOCK:   -0.19 KCAL/MOL
REMARK 927      BINDING AFFINITY PREDICTED BY RF-SCORE:    0.00 PKD
ROOT
HETATM    1  C   UNL     1      -9.794   9.429  65.908  1.00  0.00    -0.362 C  
HETATM    2  C   UNL     1     -10.489  10.566  66.535  1.00  0.00    -0.212 A  
HETATM    3  C   UNL     1     -10.540  11.914  66.287  1.00  0.00    -0.289 A  
HETATM    4  C   UNL     1     -11.423  12.429  67.271  1.00  0.00    -0.354 A  
HETATM    5  O   UNL     1     -11.278  10.281  67.606  1.00  0.00    -0.307 OA 
HETATM    6  N   UNL     1     -11.864  11.444  68.075  1.00  0.00    -0.622 NA 
ENDROOT
BRANCH   4   7
HETATM    7  C   UNL     1     -11.847  13.820  67.436  1.00  0.00    -0.396 C  
HETATM    8  O   UNL     1     -12.660  14.351  66.681  1.00  0.00    -0.263 OA 
HETATM    9  N   UNL     1     -11.261  14.462  68.525  1.00  0.00    -0.253 N  
HETATM   10  H   UNL     1     -10.662  13.938  69.163  1.00  0.00     0.000 HD 
BRANCH   9  11
HETATM   11  N   UNL     1     -11.493  15.838  68.749  1.00  0.00    -0.370 NA 
HETATM   12  H   UNL     1     -12.477  16.068  68.615  1.00  0.00     0.000 HD 
BRANCH  11  13
HETATM   13  C   UNL     1     -11.023  16.287  70.061  1.00  0.00    -0.355 C  
BRANCH  13  14
HETATM   14  C   UNL     1     -11.984  15.891  71.161  1.00  0.00    -0.472 A  
HETATM   15  C   UNL     1     -13.308  15.540  70.860  1.00  0.00    -0.414 A  
HETATM   16  C   UNL     1     -14.192  15.171  71.877  1.00  0.00    -0.676 A  
HETATM   17  C   UNL     1     -13.765  15.146  73.202  1.00  0.00    -0.232 A  
HETATM   18  C   UNL     1     -12.450  15.486  73.514  1.00  0.00    -0.674 A  
HETATM   19  C   UNL     1     -11.564  15.851  72.501  1.00  0.00    -0.438 A  
ENDBRANCH  13  14
ENDBRANCH  11  13
ENDBRANCH   9  11
ENDBRANCH   4   7
TORSDOF 4
ENDMDL
MODEL       38
REMARK 921   NORMALIZED FREE ENERGY PREDICTED BY IDOCK:   -5.40 KCAL/MOL
REMARK 922        TOTAL FREE ENERGY PREDICTED BY IDOCK:   -6.87 KCAL/MOL
REMARK 923 INTER-LIGAND FREE ENERGY PREDICTED BY IDOCK:   -6.53 KCAL/MOL
REMARK 924 INTRA-LIGAND FREE ENERGY PREDICTED BY IDOCK:   -0.34 KCAL/MOL
REMARK 927      BINDING AFFINITY PREDICTED BY RF-SCORE:    0.00 PKD
ROOT
HETATM    1  C   UNL     1      -7.845  17.911  68.392  1.00  0.00    -0.288 C  
HETATM    2  C   UNL     1      -8.929  17.334  67.578  1.00  0.00    -0.222 A  
HETATM    3  C   UNL     1      -9.063  17.010  66.252  1.00  0.00    -0.279 A  
HETATM    4  C   UNL     1     -10.373  16.474  66.143  1.00  0.00    -0.334 A  
HETATM    5  O   UNL     1     -10.082  17.028  68.230  1.00  0.00    -0.274 OA 
HETATM    6  N   UNL     1     -10.994  16.491  67.337  1.00  0.00    -0.192 NA 
ENDROOT
BRANCH   4   7
HETATM    7  C   UNL     1     -11.013  15.947  64.937  1.00  0.00    -0.411 C  
HETATM    8  O   UNL     1     -11.580  16.676  64.124  1.00  0.00    -1.102 OA 
HETATM    9  N   UNL     1     -10.901  14.565  64.798  1.00  0.00    -0.519 N  
HETATM   10  H   UNL     1     -10.342  14.031  65.462  1.00  0.00     0.000 HD 
BRANCH   9  11
HETATM   11  N   UNL     1     -11.559  13.901  63.739  1.00  0.00    -0.617 NA 
HETATM   12  H   UNL     1     -10.956  13.833  62.920  1.00  0.00     0.000 HD 
BRANCH  11  13
HETATM   13  C   UNL     1     -12.070  12.584  64.124  1.00  0.00    -0.447 C  
BRANCH  13  14
HETATM   14  C   UNL     1     -10.977  11.539  64.115  1.00  0.00    -0.434 A  
HETATM   15  C   UNL     1     -10.185  11.344  62.975  1.00  0.00    -0.311 A  
HETATM   16  C   UNL     1      -9.172  10.381  62.971  1.00  0.00    -0.312 A  
HETATM   17  C   UNL     1      -8.939   9.606  64.104  1.00  0.00    -0.269 A  
HETATM   18  C   UNL     1      -9.715   9.794  65.246  1.00  0.00    -0.371 A  
HETATM   19  C   UNL     1     -10.724  10.757  65.255  1.00  0.00    -0.153 A  
ENDBRANCH  13  14
ENDBRANCH  11  13
ENDBRANCH   9  11
ENDBRANCH   4   7
TORSDOF 4
ENDMDL
MODEL       39
REMARK 921   NORMALIZED FREE ENERGY PREDICTED BY IDOCK:   -5.37 KCAL/MOL
REMARK 922        TOTAL FREE ENERGY PREDICTED BY IDOCK:   -6.84 KCAL/MOL
REMARK 923 INTER-LIGAND FREE ENERGY PREDICTED BY IDOCK:   -6.44 KCAL/MOL
REMARK 924 INTRA-LIGAND FREE ENERGY PREDICTED BY IDOCK:   -0.40 KCAL/MOL
REMARK 927      BINDING AFFINITY PREDICTED BY RF-SCORE:    0.00 PKD
ROOT
HETATM    1  C   UNL     1     -13.924  15.413  72.369  1.00  0.00    -0.657 C  
HETATM    2  C   UNL     1     -13.439  14.107  71.891  1.00  0.00    -0.405 A  
HETATM    3  C   UNL     1     -13.631  12.809  72.289  1.00  0.00    -0.563 A  
HETATM    4  C   UNL     1     -12.875  12.034  71.372  1.00  0.00    -0.288 A  
HETATM    5  O   UNL     1     -12.611  14.124  70.812  1.00  0.00    -0.324 OA 
HETATM    6  N   UNL     1     -12.250  12.828  70.482  1.00  0.00    -0.358 NA 
ENDROOT
BRANCH   4   7
HETATM    7  C   UNL     1     -12.759  10.577  71.334  1.00  0.00    -0.442 C  
HETATM    8  O   UNL     1     -13.222   9.858  72.217  1.00  0.00    -0.431 OA 
HETATM    9  N   UNL     1     -12.098  10.093  70.206  1.00  0.00    -0.429 N  
HETATM   10  H   UNL     1     -11.815  10.737  69.467  1.00  0.00     0.000 HD 
BRANCH   9  11
HETATM   11  N   UNL     1     -11.817   8.715  70.081  1.00  0.00    -0.425 NA 
HETATM   12  H   UNL     1     -11.975   8.395  69.126  1.00  0.00     0.000 HD 
BRANCH  11  13
HETATM   13  C   UNL     1     -10.469   8.365  70.534  1.00  0.00    -0.207 C  
BRANCH  13  14
HETATM   14  C   UNL     1     -10.505   7.348  71.654  1.00  0.00    -0.219 A  
HETATM   15  C   UNL     1     -10.684   5.986  71.375  1.00  0.00    -0.314 A  
HETATM   16  C   UNL     1     -10.713   5.048  72.410  1.00  0.00    -0.262 A  
HETATM   17  C   UNL     1     -10.561   5.460  73.732  1.00  0.00    -0.325 A  
HETATM   18  C   UNL     1     -10.376   6.810  74.022  1.00  0.00    -0.377 A  
HETATM   19  C   UNL     1     -10.343   7.748  72.991  1.00  0.00    -0.410 A  
ENDBRANCH  13  14
ENDBRANCH  11  13
ENDBRANCH   9  11
ENDBRANCH   4   7
TORSDOF 4
ENDMDL
MODEL       40
REMARK 921   NORMALIZED FREE ENERGY PREDICTED BY IDOCK:   -5.34 KCAL/MOL
REMARK 922        TOTAL FREE ENERGY PREDICTED BY IDOCK:   -6.81 KCAL/MOL
REMARK 923 INTER-LIGAND FREE ENERGY PREDICTED BY IDOCK:   -6.53 KCAL/MOL
REMARK 924 INTRA-LIGAND FREE ENERGY PREDICTED BY IDOCK:   -0.28 KCAL/MOL
REMARK 927      BINDING AFFINITY PREDICTED BY RF-SCORE:    0.00 PKD
ROOT
HETATM    1  C   UNL     1     -11.534  16.050  64.334  1.00  0.00    -0.246 C  
HETATM    2  C   UNL     1     -11.582  14.611  64.641  1.00  0.00    -0.402 A  
HETATM    3  C   UNL     1     -10.777  13.753  65.347  1.00  0.00    -0.320 A  
HETATM    4  C   UNL     1     -11.425  12.494  65.256  1.00  0.00    -0.333 A  
HETATM    5  O   UNL     1     -12.642  13.918  64.143  1.00  0.00    -0.675 OA 
HETATM    6  N   UNL     1     -12.549  12.590  64.521  1.00  0.00    -0.633 NA 
ENDROOT
BRANCH   4   7
HETATM    7  C   UNL     1     -10.994  11.234  65.862  1.00  0.00    -0.157 C  
HETATM    8  O   UNL     1     -10.345  10.395  65.239  1.00  0.00    -0.284 OA 
HETATM    9  N   UNL     1     -11.370  11.093  67.196  1.00  0.00    -0.255 N  
HETATM   10  H   UNL     1     -11.831  11.864  67.679  1.00  0.00     0.000 HD 
BRANCH   9  11
HETATM   11  N   UNL     1     -11.116   9.885  67.884  1.00  0.00    -0.492 NA 
HETATM   12  H   UNL     1     -10.597   9.233  67.296  1.00  0.00     0.000 HD 
BRANCH  11  13
HETATM   13  C   UNL     1     -10.437  10.091  69.164  1.00  0.00    -0.219 C  
BRANCH  13  14
HETATM   14  C   UNL     1     -11.350   9.791  70.332  1.00  0.00    -0.362 A  
HETATM   15  C   UNL     1     -12.343  10.703  70.715  1.00  0.00    -0.472 A  
HETATM   16  C   UNL     1     -13.188  10.422  71.792  1.00  0.00    -0.529 A  
HETATM   17  C   UNL     1     -13.052   9.228  72.495  1.00  0.00    -0.416 A  
HETATM   18  C   UNL     1     -12.073   8.310  72.122  1.00  0.00    -0.425 A  
HETATM   19  C   UNL     1     -11.230   8.586  71.045  1.00  0.00    -0.312 A  
ENDBRANCH  13  14
ENDBRANCH  11  13
ENDBRANCH   9  11
ENDBRANCH   4   7
TORSDOF 4
ENDMDL
MODEL       41
REMARK 921   NORMALIZED FREE ENERGY PREDICTED BY IDOCK:   -5.33 KCAL/MOL
REMARK 922        TOTAL FREE ENERGY PREDICTED BY IDOCK:   -6.79 KCAL/MOL
REMARK 923 INTER-LIGAND FREE ENERGY PREDICTED BY IDOCK:   -6.41 KCAL/MOL
REMARK 924 INTRA-LIGAND FREE ENERGY PREDICTED BY IDOCK:   -0.38 KCAL/MOL
REMARK 927      BINDING AFFINITY PREDICTED BY RF-SCORE:    0.00 PKD
ROOT
HETATM    1  C   UNL     1     -10.535   8.827  67.252  1.00  0.00    -0.353 C  
HETATM    2  C   UNL     1     -10.972  10.196  67.577  1.00  0.00    -0.255 A  
HETATM    3  C   UNL     1     -10.911  11.402  66.927  1.00  0.00    -0.335 A  
HETATM    4  C   UNL     1     -11.540  12.319  67.808  1.00  0.00    -0.351 A  
HETATM    5  O   UNL     1     -11.586  10.369  68.779  1.00  0.00    -0.218 OA 
HETATM    6  N   UNL     1     -11.942  11.698  68.932  1.00  0.00    -0.364 NA 
ENDROOT
BRANCH   4   7
HETATM    7  C   UNL     1     -11.765  13.747  67.582  1.00  0.00    -0.367 C  
HETATM    8  O   UNL     1     -11.836  14.229  66.453  1.00  0.00    -0.383 OA 
HETATM    9  N   UNL     1     -11.907  14.487  68.754  1.00  0.00    -0.387 N  
HETATM   10  H   UNL     1     -11.926  14.012  69.657  1.00  0.00     0.000 HD 
BRANCH   9  11
HETATM   11  N   UNL     1     -12.025  15.894  68.698  1.00  0.00    -0.470 NA 
HETATM   12  H   UNL     1     -12.826  16.215  69.241  1.00  0.00     0.000 HD 
BRANCH  11  13
HETATM   13  C   UNL     1     -10.801  16.584  69.111  1.00  0.00    -0.334 C  
BRANCH  13  14
HETATM   14  C   UNL     1     -10.477  17.740  68.191  1.00  0.00    -0.382 A  
HETATM   15  C   UNL     1     -10.652  17.620  66.805  1.00  0.00    -0.224 A  
HETATM   16  C   UNL     1     -10.356  18.691  65.958  1.00  0.00    -0.436 A  
HETATM   17  C   UNL     1      -9.885  19.891  66.484  1.00  0.00    -0.567 A  
HETATM   18  C   UNL     1      -9.713  20.026  67.860  1.00  0.00    -0.517 A  
HETATM   19  C   UNL     1     -10.011  18.960  68.709  1.00  0.00    -0.466 A  
ENDBRANCH  13  14
ENDBRANCH  11  13
ENDBRANCH   9  11
ENDBRANCH   4   7
TORSDOF 4
ENDMDL
MODEL       42
REMARK 921   NORMALIZED FREE ENERGY PREDICTED BY IDOCK:   -5.30 KCAL/MOL
REMARK 922        TOTAL FREE ENERGY PREDICTED BY IDOCK:   -6.75 KCAL/MOL
REMARK 923 INTER-LIGAND FREE ENERGY PREDICTED BY IDOCK:   -6.37 KCAL/MOL
REMARK 924 INTRA-LIGAND FREE ENERGY PREDICTED BY IDOCK:   -0.38 KCAL/MOL
REMARK 927      BINDING AFFINITY PREDICTED BY RF-SCORE:    0.00 PKD
ROOT
HETATM    1  C   UNL     1     -10.273   8.843  66.853  1.00  0.00    -0.347 C  
HETATM    2  C   UNL     1     -10.623  10.273  66.917  1.00  0.00    -0.217 A  
HETATM    3  C   UNL     1     -10.079  11.417  66.393  1.00  0.00    -0.255 A  
HETATM    4  C   UNL     1     -10.935  12.459  66.835  1.00  0.00    -0.265 A  
HETATM    5  O   UNL     1     -11.728  10.596  67.640  1.00  0.00    -0.480 OA 
HETATM    6  N   UNL     1     -11.929  11.965  67.597  1.00  0.00    -0.583 NA 
ENDROOT
BRANCH   4   7
HETATM    7  C   UNL     1     -10.818  13.885  66.532  1.00  0.00    -0.295 C  
HETATM    8  O   UNL     1     -11.712  14.687  66.798  1.00  0.00    -0.373 OA 
HETATM    9  N   UNL     1      -9.607  14.239  65.941  1.00  0.00    -0.488 N  
HETATM   10  H   UNL     1      -8.873  13.540  65.828  1.00  0.00     0.000 HD 
BRANCH   9  11
HETATM   11  N   UNL     1      -9.391  15.562  65.496  1.00  0.00    -0.307 NA 
HETATM   12  H   UNL     1     -10.276  16.054  65.371  1.00  0.00     0.000 HD 
BRANCH  11  13
HETATM   13  C   UNL     1      -8.491  16.317  66.370  1.00  0.00    -0.330 C  
BRANCH  13  14
HETATM   14  C   UNL     1      -9.013  17.712  66.633  1.00  0.00    -0.283 A  
HETATM   15  C   UNL     1      -8.233  18.836  66.324  1.00  0.00    -0.270 A  
HETATM   16  C   UNL     1      -8.719  20.124  66.564  1.00  0.00    -0.338 A  
HETATM   17  C   UNL     1      -9.986  20.303  67.112  1.00  0.00    -0.593 A  
HETATM   18  C   UNL     1     -10.774  19.195  67.419  1.00  0.00    -0.578 A  
HETATM   19  C   UNL     1     -10.293  17.908  67.177  1.00  0.00    -0.371 A  
ENDBRANCH  13  14
ENDBRANCH  11  13
ENDBRANCH   9  11
ENDBRANCH   4   7
TORSDOF 4
ENDMDL
MODEL       43
REMARK 921   NORMALIZED FREE ENERGY PREDICTED BY IDOCK:   -5.29 KCAL/MOL
REMARK 922        TOTAL FREE ENERGY PREDICTED BY IDOCK:   -6.74 KCAL/MOL
REMARK 923 INTER-LIGAND FREE ENERGY PREDICTED BY IDOCK:   -6.70 KCAL/MOL
REMARK 924 INTRA-LIGAND FREE ENERGY PREDICTED BY IDOCK:   -0.05 KCAL/MOL
REMARK 927      BINDING AFFINITY PREDICTED BY RF-SCORE:    0.00 PKD
ROOT
HETATM    1  C   UNL     1     -10.097  18.172  66.158  1.00  0.00    -0.338 C  
HETATM    2  C   UNL     1     -10.674  16.851  65.856  1.00  0.00    -0.149 A  
HETATM    3  C   UNL     1     -10.966  15.739  66.604  1.00  0.00    -0.179 A  
HETATM    4  C   UNL     1     -11.525  14.820  65.680  1.00  0.00    -0.327 A  
HETATM    5  O   UNL     1     -11.019  16.620  64.561  1.00  0.00    -0.885 OA 
HETATM    6  N   UNL     1     -11.551  15.347  64.442  1.00  0.00    -0.335 NA 
ENDROOT
BRANCH   4   7
HETATM    7  C   UNL     1     -12.033  13.478  65.968  1.00  0.00    -0.409 C  
HETATM    8  O   UNL     1     -13.136  13.097  65.579  1.00  0.00    -0.522 OA 
HETATM    9  N   UNL     1     -11.149  12.685  66.697  1.00  0.00    -0.263 N  
HETATM   10  H   UNL     1     -10.214  13.031  66.912  1.00  0.00     0.000 HD 
BRANCH   9  11
HETATM   11  N   UNL     1     -11.542  11.402  67.139  1.00  0.00    -0.538 NA 
HETATM   12  H   UNL     1     -11.327  10.693  66.440  1.00  0.00     0.000 HD 
BRANCH  11  13
HETATM   13  C   UNL     1     -10.968  11.048  68.439  1.00  0.00    -0.230 C  
BRANCH  13  14
HETATM   14  C   UNL     1     -11.721  11.701  69.576  1.00  0.00    -0.410 A  
HETATM   15  C   UNL     1     -12.209  10.934  70.643  1.00  0.00    -0.472 A  
HETATM   16  C   UNL     1     -12.901  11.540  71.695  1.00  0.00    -0.475 A  
HETATM   17  C   UNL     1     -13.111  12.916  71.694  1.00  0.00    -0.430 A  
HETATM   18  C   UNL     1     -12.626  13.692  70.643  1.00  0.00    -0.366 A  
HETATM   19  C   UNL     1     -11.932  13.090  69.593  1.00  0.00    -0.367 A  
ENDBRANCH  13  14
ENDBRANCH  11  13
ENDBRANCH   9  11
ENDBRANCH   4   7
TORSDOF 4
ENDMDL
MODEL       44
REMARK 921   NORMALIZED FREE ENERGY PREDICTED BY IDOCK:   -5.27 KCAL/MOL
REMARK 922        TOTAL FREE ENERGY PREDICTED BY IDOCK:   -6.72 KCAL/MOL
REMARK 923 INTER-LIGAND FREE ENERGY PREDICTED BY IDOCK:   -6.47 KCAL/MOL
REMARK 924 INTRA-LIGAND FREE ENERGY PREDICTED BY IDOCK:   -0.25 KCAL/MOL
REMARK 927      BINDING AFFINITY PREDICTED BY RF-SCORE:    0.00 PKD
ROOT
HETATM    1  C   UNL     1     -11.528  11.664  63.366  1.00  0.00    -0.360 C  
HETATM    2  C   UNL     1     -11.794  12.591  64.479  1.00  0.00    -0.383 A  
HETATM    3  C   UNL     1     -11.007  13.242  65.394  1.00  0.00    -0.299 A  
HETATM    4  C   UNL     1     -11.916  13.999  66.178  1.00  0.00    -0.420 A  
HETATM    5  O   UNL     1     -13.096  12.919  64.698  1.00  0.00    -0.742 OA 
HETATM    6  N   UNL     1     -13.182  13.798  65.764  1.00  0.00    -0.446 NA 
ENDROOT
BRANCH   4   7
HETATM    7  C   UNL     1     -11.590  14.899  67.285  1.00  0.00    -0.324 C  
HETATM    8  O   UNL     1     -12.005  14.710  68.427  1.00  0.00    -0.311 OA 
HETATM    9  N   UNL     1     -10.763  15.960  66.923  1.00  0.00    -0.315 N  
HETATM   10  H   UNL     1     -10.384  16.010  65.977  1.00  0.00     0.000 HD 
BRANCH   9  11
HETATM   11  N   UNL     1     -10.449  16.970  67.860  1.00  0.00    -0.341 NA 
HETATM   12  H   UNL     1      -9.569  16.766  68.333  1.00  0.00     0.000 HD 
BRANCH  11  13
HETATM   13  C   UNL     1     -10.428  18.309  67.268  1.00  0.00    -0.398 C  
BRANCH  13  14
HETATM   14  C   UNL     1      -9.122  19.019  67.546  1.00  0.00    -0.322 A  
HETATM   15  C   UNL     1      -8.667  20.036  66.695  1.00  0.00    -0.397 A  
HETATM   16  C   UNL     1      -7.462  20.694  66.956  1.00  0.00    -0.350 A  
HETATM   17  C   UNL     1      -6.701  20.345  68.069  1.00  0.00    -0.336 A  
HETATM   18  C   UNL     1      -7.145  19.340  68.927  1.00  0.00    -0.385 A  
HETATM   19  C   UNL     1      -8.349  18.685  68.671  1.00  0.00    -0.344 A  
ENDBRANCH  13  14
ENDBRANCH  11  13
ENDBRANCH   9  11
ENDBRANCH   4   7
TORSDOF 4
ENDMDL
MODEL       45
REMARK 921   NORMALIZED FREE ENERGY PREDICTED BY IDOCK:   -5.25 KCAL/MOL
REMARK 922        TOTAL FREE ENERGY PREDICTED BY IDOCK:   -6.69 KCAL/MOL
REMARK 923 INTER-LIGAND FREE ENERGY PREDICTED BY IDOCK:   -6.38 KCAL/MOL
REMARK 924 INTRA-LIGAND FREE ENERGY PREDICTED BY IDOCK:   -0.30 KCAL/MOL
REMARK 927      BINDING AFFINITY PREDICTED BY RF-SCORE:    0.00 PKD
ROOT
HETATM    1  C   UNL     1     -12.620  15.935  74.053  1.00  0.00    -0.755 C  
HETATM    2  C   UNL     1     -12.733  14.882  73.029  1.00  0.00    -0.459 A  
HETATM    3  C   UNL     1     -12.014  14.555  71.908  1.00  0.00    -0.248 A  
HETATM    4  C   UNL     1     -12.664  13.407  71.385  1.00  0.00    -0.322 A  
HETATM    5  O   UNL     1     -13.760  14.002  73.172  1.00  0.00    -0.485 OA 
HETATM    6  N   UNL     1     -13.725  13.076  72.144  1.00  0.00    -0.501 NA 
ENDROOT
BRANCH   4   7
HETATM    7  C   UNL     1     -12.280  12.637  70.202  1.00  0.00    -0.238 C  
HETATM    8  O   UNL     1     -11.977  13.176  69.139  1.00  0.00    -0.305 OA 
HETATM    9  N   UNL     1     -12.274  11.258  70.404  1.00  0.00    -0.351 N  
HETATM   10  H   UNL     1     -12.450  10.880  71.334  1.00  0.00     0.000 HD 
BRANCH   9  11
HETATM   11  N   UNL     1     -12.025  10.382  69.324  1.00  0.00    -0.528 NA 
HETATM   12  H   UNL     1     -12.068  10.877  68.434  1.00  0.00     0.000 HD 
BRANCH  11  13
HETATM   13  C   UNL     1     -10.761   9.657  69.460  1.00  0.00    -0.232 C  
BRANCH  13  14
HETATM   14  C   UNL     1     -10.729   8.826  70.724  1.00  0.00    -0.277 A  
HETATM   15  C   UNL     1      -9.630   8.890  71.592  1.00  0.00    -0.363 A  
HETATM   16  C   UNL     1      -9.605   8.125  72.762  1.00  0.00    -0.353 A  
HETATM   17  C   UNL     1     -10.675   7.292  73.076  1.00  0.00    -0.384 A  
HETATM   18  C   UNL     1     -11.776   7.224  72.225  1.00  0.00    -0.304 A  
HETATM   19  C   UNL     1     -11.806   7.989  71.059  1.00  0.00    -0.280 A  
ENDBRANCH  13  14
ENDBRANCH  11  13
ENDBRANCH   9  11
ENDBRANCH   4   7
TORSDOF 4
ENDMDL
MODEL       46
REMARK 921   NORMALIZED FREE ENERGY PREDICTED BY IDOCK:   -5.24 KCAL/MOL
REMARK 922        TOTAL FREE ENERGY PREDICTED BY IDOCK:   -6.68 KCAL/MOL
REMARK 923 INTER-LIGAND FREE ENERGY PREDICTED BY IDOCK:   -6.41 KCAL/MOL
REMARK 924 INTRA-LIGAND FREE ENERGY PREDICTED BY IDOCK:   -0.27 KCAL/MOL
REMARK 927      BINDING AFFINITY PREDICTED BY RF-SCORE:    0.00 PKD
ROOT
HETATM    1  C   UNL     1      -9.866   9.333  66.305  1.00  0.00    -0.361 C  
HETATM    2  C   UNL     1     -10.613  10.524  66.745  1.00  0.00    -0.222 A  
HETATM    3  C   UNL     1     -10.629  11.841  66.364  1.00  0.00    -0.293 A  
HETATM    4  C   UNL     1     -11.604  12.446  67.199  1.00  0.00    -0.365 A  
HETATM    5  O   UNL     1     -11.509  10.341  67.753  1.00  0.00    -0.351 OA 
HETATM    6  N   UNL     1     -12.132  11.542  68.045  1.00  0.00    -0.598 NA 
ENDROOT
BRANCH   4   7
HETATM    7  C   UNL     1     -12.033  13.845  67.185  1.00  0.00    -0.420 C  
HETATM    8  O   UNL     1     -12.737  14.306  66.288  1.00  0.00    -0.360 OA 
HETATM    9  N   UNL     1     -11.586  14.582  68.280  1.00  0.00    -0.312 N  
HETATM   10  H   UNL     1     -11.080  14.118  69.033  1.00  0.00     0.000 HD 
BRANCH   9  11
HETATM   11  N   UNL     1     -11.832  15.971  68.351  1.00  0.00    -0.339 NA 
HETATM   12  H   UNL     1     -12.729  16.161  68.797  1.00  0.00     0.000 HD 
BRANCH  11  13
HETATM   13  C   UNL     1     -10.753  16.707  69.012  1.00  0.00    -0.343 C  
BRANCH  13  14
HETATM   14  C   UNL     1     -10.360  17.941  68.230  1.00  0.00    -0.389 A  
HETATM   15  C   UNL     1     -10.128  19.158  68.885  1.00  0.00    -0.422 A  
HETATM   16  C   UNL     1      -9.761  20.295  68.161  1.00  0.00    -0.362 A  
HETATM   17  C   UNL     1      -9.620  20.228  66.777  1.00  0.00    -0.548 A  
HETATM   18  C   UNL     1      -9.842  19.023  66.114  1.00  0.00    -0.370 A  
HETATM   19  C   UNL     1     -10.204  17.885  66.835  1.00  0.00    -0.358 A  
ENDBRANCH  13  14
ENDBRANCH  11  13
ENDBRANCH   9  11
ENDBRANCH   4   7
TORSDOF 4
ENDMDL
MODEL       47
REMARK 921   NORMALIZED FREE ENERGY PREDICTED BY IDOCK:   -5.19 KCAL/MOL
REMARK 922        TOTAL FREE ENERGY PREDICTED BY IDOCK:   -6.62 KCAL/MOL
REMARK 923 INTER-LIGAND FREE ENERGY PREDICTED BY IDOCK:   -6.27 KCAL/MOL
REMARK 924 INTRA-LIGAND FREE ENERGY PREDICTED BY IDOCK:   -0.35 KCAL/MOL
REMARK 927      BINDING AFFINITY PREDICTED BY RF-SCORE:    0.00 PKD
ROOT
HETATM    1  C   UNL     1     -10.689   7.293  73.299  1.00  0.00    -0.428 C  
HETATM    2  C   UNL     1     -10.921   8.343  72.293  1.00  0.00    -0.361 A  
HETATM    3  C   UNL     1     -10.199   8.836  71.236  1.00  0.00    -0.332 A  
HETATM    4  C   UNL     1     -11.027   9.840  70.670  1.00  0.00    -0.331 A  
HETATM    5  O   UNL     1     -12.104   9.011  72.373  1.00  0.00    -0.324 OA 
HETATM    6  N   UNL     1     -12.176   9.953  71.361  1.00  0.00    -0.380 NA 
ENDROOT
BRANCH   4   7
HETATM    7  C   UNL     1     -10.738  10.663  69.495  1.00  0.00    -0.251 C  
HETATM    8  O   UNL     1     -10.171  10.212  68.502  1.00  0.00    -0.161 OA 
HETATM    9  N   UNL     1     -11.180  11.980  69.607  1.00  0.00    -0.473 N  
HETATM   10  H   UNL     1     -11.722  12.267  70.422  1.00  0.00     0.000 HD 
BRANCH   9  11
HETATM   11  N   UNL     1     -10.881  12.920  68.596  1.00  0.00    -0.253 NA 
HETATM   12  H   UNL     1     -10.185  12.550  67.949  1.00  0.00     0.000 HD 
BRANCH  11  13
HETATM   13  C   UNL     1     -12.071  13.383  67.879  1.00  0.00    -0.251 C  
BRANCH  13  14
HETATM   14  C   UNL     1     -11.927  13.195  66.385  1.00  0.00    -0.462 A  
HETATM   15  C   UNL     1     -11.329  12.038  65.865  1.00  0.00    -0.391 A  
HETATM   16  C   UNL     1     -11.201  11.865  64.484  1.00  0.00    -0.380 A  
HETATM   17  C   UNL     1     -11.671  12.842  63.610  1.00  0.00    -0.587 A  
HETATM   18  C   UNL     1     -12.274  13.993  64.114  1.00  0.00    -0.433 A  
HETATM   19  C   UNL     1     -12.406  14.167  65.491  1.00  0.00    -0.472 A  
ENDBRANCH  13  14
ENDBRANCH  11  13
ENDBRANCH   9  11
ENDBRANCH   4   7
TORSDOF 4
ENDMDL
MODEL       48
REMARK 921   NORMALIZED FREE ENERGY PREDICTED BY IDOCK:   -5.19 KCAL/MOL
REMARK 922        TOTAL FREE ENERGY PREDICTED BY IDOCK:   -6.62 KCAL/MOL
REMARK 923 INTER-LIGAND FREE ENERGY PREDICTED BY IDOCK:   -6.33 KCAL/MOL
REMARK 924 INTRA-LIGAND FREE ENERGY PREDICTED BY IDOCK:   -0.29 KCAL/MOL
REMARK 927      BINDING AFFINITY PREDICTED BY RF-SCORE:    0.00 PKD
ROOT
HETATM    1  C   UNL     1      -7.368  20.093  67.704  1.00  0.00    -0.328 C  
HETATM    2  C   UNL     1      -8.551  19.240  67.910  1.00  0.00    -0.312 A  
HETATM    3  C   UNL     1      -8.767  18.033  68.525  1.00  0.00    -0.304 A  
HETATM    4  C   UNL     1     -10.157  17.793  68.370  1.00  0.00    -0.376 A  
HETATM    5  O   UNL     1      -9.727  19.698  67.402  1.00  0.00    -0.321 OA 
HETATM    6  N   UNL     1     -10.738  18.795  67.683  1.00  0.00    -0.420 NA 
ENDROOT
BRANCH   4   7
HETATM    7  C   UNL     1     -10.916  16.647  68.870  1.00  0.00    -0.294 C  
HETATM    8  O   UNL     1     -11.151  16.489  70.067  1.00  0.00    -0.345 OA 
HETATM    9  N   UNL     1     -11.353  15.781  67.870  1.00  0.00    -0.316 N  
HETATM   10  H   UNL     1     -11.200  16.016  66.890  1.00  0.00     0.000 HD 
BRANCH   9  11
HETATM   11  N   UNL     1     -12.008  14.575  68.209  1.00  0.00    -0.518 NA 
HETATM   12  H   UNL     1     -12.610  14.261  67.449  1.00  0.00     0.000 HD 
BRANCH  11  13
HETATM   13  C   UNL     1     -11.079  13.518  68.612  1.00  0.00    -0.269 C  
BRANCH  13  14
HETATM   14  C   UNL     1     -11.684  12.620  69.669  1.00  0.00    -0.373 A  
HETATM   15  C   UNL     1     -12.514  13.150  70.666  1.00  0.00    -0.363 A  
HETATM   16  C   UNL     1     -13.076  12.318  71.638  1.00  0.00    -0.408 A  
HETATM   17  C   UNL     1     -12.816  10.950  71.623  1.00  0.00    -0.554 A  
HETATM   18  C   UNL     1     -11.998  10.409  70.633  1.00  0.00    -0.448 A  
HETATM   19  C   UNL     1     -11.440  11.236  69.659  1.00  0.00    -0.380 A  
ENDBRANCH  13  14
ENDBRANCH  11  13
ENDBRANCH   9  11
ENDBRANCH   4   7
TORSDOF 4
ENDMDL
MODEL       49
REMARK 921   NORMALIZED FREE ENERGY PREDICTED BY IDOCK:   -5.19 KCAL/MOL
REMARK 922        TOTAL FREE ENERGY PREDICTED BY IDOCK:   -6.62 KCAL/MOL
REMARK 923 INTER-LIGAND FREE ENERGY PREDICTED BY IDOCK:   -6.30 KCAL/MOL
REMARK 924 INTRA-LIGAND FREE ENERGY PREDICTED BY IDOCK:   -0.32 KCAL/MOL
REMARK 927      BINDING AFFINITY PREDICTED BY RF-SCORE:    0.00 PKD
ROOT
HETATM    1  C   UNL     1     -10.020  19.091  66.295  1.00  0.00    -0.449 C  
HETATM    2  C   UNL     1     -10.395  17.684  66.517  1.00  0.00    -0.337 A  
HETATM    3  C   UNL     1     -10.822  16.965  67.604  1.00  0.00    -0.244 A  
HETATM    4  C   UNL     1     -11.023  15.650  67.111  1.00  0.00    -0.270 A  
HETATM    5  O   UNL     1     -10.328  16.859  65.437  1.00  0.00    -0.609 OA 
HETATM    6  N   UNL     1     -10.717  15.582  65.801  1.00  0.00    -0.339 NA 
ENDROOT
BRANCH   4   7
HETATM    7  C   UNL     1     -11.505  14.490  67.861  1.00  0.00    -0.325 C  
HETATM    8  O   UNL     1     -11.920  14.581  69.015  1.00  0.00    -0.315 OA 
HETATM    9  N   UNL     1     -11.464  13.297  67.141  1.00  0.00    -0.323 N  
HETATM   10  H   UNL     1     -11.191  13.305  66.159  1.00  0.00     0.000 HD 
BRANCH   9  11
HETATM   11  N   UNL     1     -11.799  12.076  67.768  1.00  0.00    -0.545 NA 
HETATM   12  H   UNL     1     -12.308  11.465  67.129  1.00  0.00     0.000 HD 
BRANCH  11  13
HETATM   13  C   UNL     1     -10.635  11.389  68.333  1.00  0.00    -0.202 C  
BRANCH  13  14
HETATM   14  C   UNL     1     -11.008  10.577  69.553  1.00  0.00    -0.312 A  
HETATM   15  C   UNL     1     -10.108   9.649  70.096  1.00  0.00    -0.311 A  
HETATM   16  C   UNL     1     -10.452   8.904  71.226  1.00  0.00    -0.357 A  
HETATM   17  C   UNL     1     -11.696   9.077  71.827  1.00  0.00    -0.440 A  
HETATM   18  C   UNL     1     -12.598  10.000  71.302  1.00  0.00    -0.495 A  
HETATM   19  C   UNL     1     -12.256  10.749  70.176  1.00  0.00    -0.425 A  
ENDBRANCH  13  14
ENDBRANCH  11  13
ENDBRANCH   9  11
ENDBRANCH   4   7
TORSDOF 4
ENDMDL
MODEL       50
REMARK 921   NORMALIZED FREE ENERGY PREDICTED BY IDOCK:   -5.19 KCAL/MOL
REMARK 922        TOTAL FREE ENERGY PREDICTED BY IDOCK:   -6.62 KCAL/MOL
REMARK 923 INTER-LIGAND FREE ENERGY PREDICTED BY IDOCK:   -6.32 KCAL/MOL
REMARK 924 INTRA-LIGAND FREE ENERGY PREDICTED BY IDOCK:   -0.30 KCAL/MOL
REMARK 927      BINDING AFFINITY PREDICTED BY RF-SCORE:    0.00 PKD
ROOT
HETATM    1  C   UNL     1     -11.579  14.480  67.289  1.00  0.00    -0.405 C  
HETATM    2  C   UNL     1     -11.850  13.302  68.130  1.00  0.00    -0.353 A  
HETATM    3  C   UNL     1     -12.005  13.102  69.478  1.00  0.00    -0.354 A  
HETATM    4  C   UNL     1     -12.266  11.713  69.609  1.00  0.00    -0.206 A  
HETATM    5  O   UNL     1     -11.994  12.114  67.484  1.00  0.00    -0.544 OA 
HETATM    6  N   UNL     1     -12.252  11.112  68.404  1.00  0.00    -0.550 NA 
ENDROOT
BRANCH   4   7
HETATM    7  C   UNL     1     -12.533  10.978  70.845  1.00  0.00    -0.410 C  
HETATM    8  O   UNL     1     -12.922  11.537  71.869  1.00  0.00    -0.440 OA 
HETATM    9  N   UNL     1     -12.325   9.604  70.740  1.00  0.00    -0.451 N  
HETATM   10  H   UNL     1     -12.087   9.193  69.837  1.00  0.00     0.000 HD 
BRANCH   9  11
HETATM   11  N   UNL     1     -12.441   8.777  71.879  1.00  0.00    -0.346 NA 
HETATM   12  H   UNL     1     -13.029   9.214  72.589  1.00  0.00     0.000 HD 
BRANCH  11  13
HETATM   13  C   UNL     1     -12.922   7.432  71.559  1.00  0.00    -0.375 C  
BRANCH  13  14
HETATM   14  C   UNL     1     -11.776   6.460  71.380  1.00  0.00    -0.364 A  
HETATM   15  C   UNL     1     -11.359   6.076  70.097  1.00  0.00    -0.351 A  
HETATM   16  C   UNL     1     -10.297   5.183  69.935  1.00  0.00    -0.347 A  
HETATM   17  C   UNL     1      -9.641   4.665  71.048  1.00  0.00    -0.245 A  
HETATM   18  C   UNL     1     -10.041   5.043  72.328  1.00  0.00    -0.245 A  
HETATM   19  C   UNL     1     -11.098   5.938  72.494  1.00  0.00    -0.328 A  
ENDBRANCH  13  14
ENDBRANCH  11  13
ENDBRANCH   9  11
ENDBRANCH   4   7
TORSDOF 4
ENDMDL
MODEL       51
REMARK 921   NORMALIZED FREE ENERGY PREDICTED BY IDOCK:   -5.17 KCAL/MOL
REMARK 922        TOTAL FREE ENERGY PREDICTED BY IDOCK:   -6.59 KCAL/MOL
REMARK 923 INTER-LIGAND FREE ENERGY PREDICTED BY IDOCK:   -6.23 KCAL/MOL
REMARK 924 INTRA-LIGAND FREE ENERGY PREDICTED BY IDOCK:   -0.36 KCAL/MOL
REMARK 927      BINDING AFFINITY PREDICTED BY RF-SCORE:    0.00 PKD
ROOT
HETATM    1  C   UNL     1     -10.667   6.308  70.902  1.00  0.00    -0.314 C  
HETATM    2  C   UNL     1     -10.955   7.690  70.484  1.00  0.00    -0.249 A  
HETATM    3  C   UNL     1     -11.677   8.724  71.023  1.00  0.00    -0.329 A  
HETATM    4  C   UNL     1     -11.520   9.792  70.101  1.00  0.00    -0.216 A  
HETATM    5  O   UNL     1     -10.404   8.097  69.308  1.00  0.00    -0.211 OA 
HETATM    6  N   UNL     1     -10.757   9.412  69.059  1.00  0.00    -0.214 NA 
ENDROOT
BRANCH   4   7
HETATM    7  C   UNL     1     -12.070  11.143  70.214  1.00  0.00    -0.377 C  
HETATM    8  O   UNL     1     -12.783  11.484  71.156  1.00  0.00    -0.393 OA 
HETATM    9  N   UNL     1     -11.696  11.992  69.174  1.00  0.00    -0.311 N  
HETATM   10  H   UNL     1     -11.032  11.672  68.470  1.00  0.00     0.000 HD 
BRANCH   9  11
HETATM   11  N   UNL     1     -12.235  13.296  69.091  1.00  0.00    -0.212 NA 
HETATM   12  H   UNL     1     -13.186  13.321  69.456  1.00  0.00     0.000 HD 
BRANCH  11  13
HETATM   13  C   UNL     1     -11.395  14.301  69.747  1.00  0.00    -0.227 C  
BRANCH  13  14
HETATM   14  C   UNL     1     -12.063  14.863  70.982  1.00  0.00    -0.380 A  
HETATM   15  C   UNL     1     -13.454  14.784  71.140  1.00  0.00    -0.450 A  
HETATM   16  C   UNL     1     -14.068  15.299  72.285  1.00  0.00    -0.651 A  
HETATM   17  C   UNL     1     -13.302  15.897  73.282  1.00  0.00    -0.660 A  
HETATM   18  C   UNL     1     -11.918  15.976  73.140  1.00  0.00    -0.570 A  
HETATM   19  C   UNL     1     -11.301  15.459  72.001  1.00  0.00    -0.466 A  
ENDBRANCH  13  14
ENDBRANCH  11  13
ENDBRANCH   9  11
ENDBRANCH   4   7
TORSDOF 4
ENDMDL
MODEL       52
REMARK 921   NORMALIZED FREE ENERGY PREDICTED BY IDOCK:   -5.16 KCAL/MOL
REMARK 922        TOTAL FREE ENERGY PREDICTED BY IDOCK:   -6.58 KCAL/MOL
REMARK 923 INTER-LIGAND FREE ENERGY PREDICTED BY IDOCK:   -6.09 KCAL/MOL
REMARK 924 INTRA-LIGAND FREE ENERGY PREDICTED BY IDOCK:   -0.49 KCAL/MOL
REMARK 927      BINDING AFFINITY PREDICTED BY RF-SCORE:    0.00 PKD
ROOT
HETATM    1  C   UNL     1     -11.714  14.025  69.706  1.00  0.00    -0.375 C  
HETATM    2  C   UNL     1     -12.248  12.878  70.459  1.00  0.00    -0.314 A  
HETATM    3  C   UNL     1     -12.172  11.516  70.314  1.00  0.00    -0.415 A  
HETATM    4  C   UNL     1     -12.909  10.995  71.409  1.00  0.00    -0.443 A  
HETATM    5  O   UNL     1     -12.993  13.168  71.560  1.00  0.00    -0.366 OA 
HETATM    6  N   UNL     1     -13.413  11.993  72.159  1.00  0.00    -0.396 NA 
ENDROOT
BRANCH   4   7
HETATM    7  C   UNL     1     -13.118   9.586  71.741  1.00  0.00    -0.418 C  
HETATM    8  O   UNL     1     -13.574   9.229  72.825  1.00  0.00    -0.403 OA 
HETATM    9  N   UNL     1     -12.773   8.708  70.715  1.00  0.00    -0.470 N  
HETATM   10  H   UNL     1     -12.484   9.074  69.808  1.00  0.00     0.000 HD 
BRANCH   9  11
HETATM   11  N   UNL     1     -12.822   7.312  70.926  1.00  0.00    -0.599 NA 
HETATM   12  H   UNL     1     -13.574   6.887  70.384  1.00  0.00     0.000 HD 
BRANCH  11  13
HETATM   13  C   UNL     1     -11.544   6.651  70.655  1.00  0.00    -0.382 C  
BRANCH  13  14
HETATM   14  C   UNL     1     -10.452   7.156  71.573  1.00  0.00    -0.221 A  
HETATM   15  C   UNL     1      -9.293   7.745  71.047  1.00  0.00    -0.160 A  
HETATM   16  C   UNL     1      -8.288   8.214  71.896  1.00  0.00    -0.187 A  
HETATM   17  C   UNL     1      -8.430   8.104  73.277  1.00  0.00    -0.294 A  
HETATM   18  C   UNL     1      -9.579   7.527  73.813  1.00  0.00    -0.321 A  
HETATM   19  C   UNL     1     -10.586   7.061  72.968  1.00  0.00    -0.323 A  
ENDBRANCH  13  14
ENDBRANCH  11  13
ENDBRANCH   9  11
ENDBRANCH   4   7
TORSDOF 4
ENDMDL
MODEL       53
REMARK 921   NORMALIZED FREE ENERGY PREDICTED BY IDOCK:   -5.13 KCAL/MOL
REMARK 922        TOTAL FREE ENERGY PREDICTED BY IDOCK:   -6.55 KCAL/MOL
REMARK 923 INTER-LIGAND FREE ENERGY PREDICTED BY IDOCK:   -6.28 KCAL/MOL
REMARK 924 INTRA-LIGAND FREE ENERGY PREDICTED BY IDOCK:   -0.27 KCAL/MOL
REMARK 927      BINDING AFFINITY PREDICTED BY RF-SCORE:    0.00 PKD
ROOT
HETATM    1  C   UNL     1     -13.184  14.933  71.153  1.00  0.00    -0.476 C  
HETATM    2  C   UNL     1     -13.016  13.473  71.255  1.00  0.00    -0.304 A  
HETATM    3  C   UNL     1     -13.468  12.514  72.124  1.00  0.00    -0.523 A  
HETATM    4  C   UNL     1     -12.940  11.296  71.625  1.00  0.00    -0.432 A  
HETATM    5  O   UNL     1     -12.252  12.881  70.297  1.00  0.00    -0.339 OA 
HETATM    6  N   UNL     1     -12.197  11.516  70.524  1.00  0.00    -0.377 NA 
ENDROOT
BRANCH   4   7
HETATM    7  C   UNL     1     -13.145   9.955  72.172  1.00  0.00    -0.403 C  
HETATM    8  O   UNL     1     -14.230   9.587  72.619  1.00  0.00    -0.344 OA 
HETATM    9  N   UNL     1     -12.011   9.145  72.120  1.00  0.00    -0.335 N  
HETATM   10  H   UNL     1     -11.167   9.482  71.658  1.00  0.00     0.000 HD 
BRANCH   9  11
HETATM   11  N   UNL     1     -12.027   7.860  72.707  1.00  0.00    -0.615 NA 
HETATM   12  H   UNL     1     -12.538   7.868  73.589  1.00  0.00     0.000 HD 
BRANCH  11  13
HETATM   13  C   UNL     1     -12.550   6.831  71.807  1.00  0.00    -0.325 C  
BRANCH  13  14
HETATM   14  C   UNL     1     -11.441   6.145  71.041  1.00  0.00    -0.316 A  
HETATM   15  C   UNL     1     -10.475   5.382  71.713  1.00  0.00    -0.288 A  
HETATM   16  C   UNL     1      -9.453   4.746  71.003  1.00  0.00    -0.227 A  
HETATM   17  C   UNL     1      -9.387   4.862  69.617  1.00  0.00    -0.190 A  
HETATM   18  C   UNL     1     -10.344   5.611  68.936  1.00  0.00    -0.295 A  
HETATM   19  C   UNL     1     -11.368   6.244  69.642  1.00  0.00    -0.492 A  
ENDBRANCH  13  14
ENDBRANCH  11  13
ENDBRANCH   9  11
ENDBRANCH   4   7
TORSDOF 4
ENDMDL
MODEL       54
REMARK 921   NORMALIZED FREE ENERGY PREDICTED BY IDOCK:   -5.13 KCAL/MOL
REMARK 922        TOTAL FREE ENERGY PREDICTED BY IDOCK:   -6.55 KCAL/MOL
REMARK 923 INTER-LIGAND FREE ENERGY PREDICTED BY IDOCK:   -6.23 KCAL/MOL
REMARK 924 INTRA-LIGAND FREE ENERGY PREDICTED BY IDOCK:   -0.32 KCAL/MOL
REMARK 927      BINDING AFFINITY PREDICTED BY RF-SCORE:    0.00 PKD
ROOT
HETATM    1  C   UNL     1     -11.696   8.155  71.808  1.00  0.00    -0.343 C  
HETATM    2  C   UNL     1     -11.969   9.557  71.452  1.00  0.00    -0.386 A  
HETATM    3  C   UNL     1     -11.427  10.442  70.555  1.00  0.00    -0.431 A  
HETATM    4  C   UNL     1     -12.182  11.632  70.720  1.00  0.00    -0.344 A  
HETATM    5  O   UNL     1     -12.979  10.170  72.126  1.00  0.00    -0.415 OA 
HETATM    6  N   UNL     1     -13.117  11.472  71.675  1.00  0.00    -0.439 NA 
ENDROOT
BRANCH   4   7
HETATM    7  C   UNL     1     -12.029  12.884  69.980  1.00  0.00    -0.309 C  
HETATM    8  O   UNL     1     -12.697  13.884  70.237  1.00  0.00    -0.296 OA 
HETATM    9  N   UNL     1     -11.053  12.835  68.985  1.00  0.00    -0.330 N  
HETATM   10  H   UNL     1     -10.474  12.003  68.882  1.00  0.00     0.000 HD 
BRANCH   9  11
HETATM   11  N   UNL     1     -10.864  13.935  68.119  1.00  0.00    -0.243 NA 
HETATM   12  H   UNL     1     -10.555  14.758  68.635  1.00  0.00     0.000 HD 
BRANCH  11  13
HETATM   13  C   UNL     1      -9.951  13.637  67.013  1.00  0.00    -0.248 C  
BRANCH  13  14
HETATM   14  C   UNL     1     -10.704  13.268  65.754  1.00  0.00    -0.286 A  
HETATM   15  C   UNL     1     -11.556  14.193  65.134  1.00  0.00    -0.344 A  
HETATM   16  C   UNL     1     -12.247  13.852  63.969  1.00  0.00    -0.413 A  
HETATM   17  C   UNL     1     -12.094  12.585  63.411  1.00  0.00    -0.621 A  
HETATM   18  C   UNL     1     -11.246  11.658  64.013  1.00  0.00    -0.448 A  
HETATM   19  C   UNL     1     -10.552  11.998  65.174  1.00  0.00    -0.330 A  
ENDBRANCH  13  14
ENDBRANCH  11  13
ENDBRANCH   9  11
ENDBRANCH   4   7
TORSDOF 4
ENDMDL
MODEL       55
REMARK 921   NORMALIZED FREE ENERGY PREDICTED BY IDOCK:   -5.13 KCAL/MOL
REMARK 922        TOTAL FREE ENERGY PREDICTED BY IDOCK:   -6.55 KCAL/MOL
REMARK 923 INTER-LIGAND FREE ENERGY PREDICTED BY IDOCK:   -6.29 KCAL/MOL
REMARK 924 INTRA-LIGAND FREE ENERGY PREDICTED BY IDOCK:   -0.25 KCAL/MOL
REMARK 927      BINDING AFFINITY PREDICTED BY RF-SCORE:    0.00 PKD
ROOT
HETATM    1  C   UNL     1     -13.767  12.768  72.297  1.00  0.00    -0.495 C  
HETATM    2  C   UNL     1     -13.030  11.686  71.622  1.00  0.00    -0.378 A  
HETATM    3  C   UNL     1     -12.172  11.632  70.553  1.00  0.00    -0.451 A  
HETATM    4  C   UNL     1     -11.812  10.263  70.449  1.00  0.00    -0.309 A  
HETATM    5  O   UNL     1     -13.192  10.433  72.127  1.00  0.00    -0.452 OA 
HETATM    6  N   UNL     1     -12.434   9.535  71.395  1.00  0.00    -0.341 NA 
ENDROOT
BRANCH   4   7
HETATM    7  C   UNL     1     -10.890   9.665  69.483  1.00  0.00    -0.231 C  
HETATM    8  O   UNL     1      -9.886   9.046  69.831  1.00  0.00    -0.171 OA 
HETATM    9  N   UNL     1     -11.270   9.847  68.154  1.00  0.00    -0.523 N  
HETATM   10  H   UNL     1     -12.160  10.294  67.937  1.00  0.00     0.000 HD 
BRANCH   9  11
HETATM   11  N   UNL     1     -10.425   9.417  67.107  1.00  0.00    -0.254 NA 
HETATM   12  H   UNL     1     -10.951   8.897  66.405  1.00  0.00     0.000 HD 
BRANCH  11  13
HETATM   13  C   UNL     1      -9.675  10.514  66.494  1.00  0.00    -0.192 C  
BRANCH  13  14
HETATM   14  C   UNL     1     -10.584  11.448  65.725  1.00  0.00    -0.315 A  
HETATM   15  C   UNL     1     -10.871  11.213  64.373  1.00  0.00    -0.340 A  
HETATM   16  C   UNL     1     -11.714  12.074  63.667  1.00  0.00    -0.587 A  
HETATM   17  C   UNL     1     -12.280  13.176  64.302  1.00  0.00    -0.463 A  
HETATM   18  C   UNL     1     -12.009  13.418  65.647  1.00  0.00    -0.439 A  
HETATM   19  C   UNL     1     -11.170  12.558  66.356  1.00  0.00    -0.353 A  
ENDBRANCH  13  14
ENDBRANCH  11  13
ENDBRANCH   9  11
ENDBRANCH   4   7
TORSDOF 4
ENDMDL
MODEL       56
REMARK 921   NORMALIZED FREE ENERGY PREDICTED BY IDOCK:   -5.13 KCAL/MOL
REMARK 922        TOTAL FREE ENERGY PREDICTED BY IDOCK:   -6.54 KCAL/MOL
REMARK 923 INTER-LIGAND FREE ENERGY PREDICTED BY IDOCK:   -6.17 KCAL/MOL
REMARK 924 INTRA-LIGAND FREE ENERGY PREDICTED BY IDOCK:   -0.38 KCAL/MOL
REMARK 927      BINDING AFFINITY PREDICTED BY RF-SCORE:    0.00 PKD
ROOT
HETATM    1  C   UNL     1     -12.710  13.966  65.507  1.00  0.00    -0.536 C  
HETATM    2  C   UNL     1     -11.890  12.766  65.751  1.00  0.00    -0.434 A  
HETATM    3  C   UNL     1     -11.578  12.028  66.863  1.00  0.00    -0.389 A  
HETATM    4  C   UNL     1     -10.748  10.983  66.382  1.00  0.00    -0.227 A  
HETATM    5  O   UNL     1     -11.281  12.216  64.666  1.00  0.00    -0.305 OA 
HETATM    6  N   UNL     1     -10.560  11.100  65.054  1.00  0.00    -0.293 NA 
ENDROOT
BRANCH   4   7
HETATM    7  C   UNL     1     -10.158   9.894  67.161  1.00  0.00    -0.215 C  
HETATM    8  O   UNL     1      -8.957   9.632  67.117  1.00  0.00    -0.133 OA 
HETATM    9  N   UNL     1     -11.075   9.210  67.957  1.00  0.00    -0.489 N  
HETATM   10  H   UNL     1     -12.040   9.534  68.014  1.00  0.00     0.000 HD 
BRANCH   9  11
HETATM   11  N   UNL     1     -10.673   8.068  68.685  1.00  0.00    -0.400 NA 
HETATM   12  H   UNL     1      -9.852   7.636  68.262  1.00  0.00     0.000 HD 
BRANCH  11  13
HETATM   13  C   UNL     1     -10.444   8.349  70.103  1.00  0.00    -0.228 C  
BRANCH  13  14
HETATM   14  C   UNL     1     -11.746   8.465  70.864  1.00  0.00    -0.269 A  
HETATM   15  C   UNL     1     -12.131   9.685  71.439  1.00  0.00    -0.472 A  
HETATM   16  C   UNL     1     -13.337   9.790  72.138  1.00  0.00    -0.527 A  
HETATM   17  C   UNL     1     -14.170   8.682  72.268  1.00  0.00    -0.497 A  
HETATM   18  C   UNL     1     -13.803   7.466  71.695  1.00  0.00    -0.490 A  
HETATM   19  C   UNL     1     -12.602   7.358  70.994  1.00  0.00    -0.264 A  
ENDBRANCH  13  14
ENDBRANCH  11  13
ENDBRANCH   9  11
ENDBRANCH   4   7
TORSDOF 4
ENDMDL
MODEL       57
REMARK 921   NORMALIZED FREE ENERGY PREDICTED BY IDOCK:   -5.12 KCAL/MOL
REMARK 922        TOTAL FREE ENERGY PREDICTED BY IDOCK:   -6.53 KCAL/MOL
REMARK 923 INTER-LIGAND FREE ENERGY PREDICTED BY IDOCK:   -6.34 KCAL/MOL
REMARK 924 INTRA-LIGAND FREE ENERGY PREDICTED BY IDOCK:   -0.19 KCAL/MOL
REMARK 927      BINDING AFFINITY PREDICTED BY RF-SCORE:    0.00 PKD
ROOT
HETATM    1  C   UNL     1     -10.749  17.011  65.493  1.00  0.00    -0.146 C  
HETATM    2  C   UNL     1     -11.219  15.782  64.830  1.00  0.00    -0.366 A  
HETATM    3  C   UNL     1     -10.736  14.503  64.729  1.00  0.00    -0.414 A  
HETATM    4  C   UNL     1     -11.703  13.813  63.951  1.00  0.00    -0.266 A  
HETATM    5  O   UNL     1     -12.394  15.870  64.149  1.00  0.00    -0.634 OA 
HETATM    6  N   UNL     1     -12.702  14.641  63.593  1.00  0.00    -0.588 NA 
ENDROOT
BRANCH   4   7
HETATM    7  C   UNL     1     -11.684  12.401  63.569  1.00  0.00    -0.510 C  
HETATM    8  O   UNL     1     -12.698  11.706  63.575  1.00  0.00    -0.445 OA 
HETATM    9  N   UNL     1     -10.426  11.938  63.186  1.00  0.00    -0.651 N  
HETATM   10  H   UNL     1      -9.643  12.589  63.119  1.00  0.00     0.000 HD 
BRANCH   9  11
HETATM   11  N   UNL     1     -10.230  10.571  62.891  1.00  0.00    -0.662 NA 
HETATM   12  H   UNL     1     -10.291  10.402  61.887  1.00  0.00     0.000 HD 
BRANCH  11  13
HETATM   13  C   UNL     1      -8.977  10.045  63.435  1.00  0.00    -0.257 C  
BRANCH  13  14
HETATM   14  C   UNL     1      -9.185   9.403  64.789  1.00  0.00    -0.220 A  
HETATM   15  C   UNL     1      -8.529   8.209  65.121  1.00  0.00    -0.134 A  
HETATM   16  C   UNL     1      -8.719   7.620  66.374  1.00  0.00    -0.166 A  
HETATM   17  C   UNL     1      -9.563   8.217  67.307  1.00  0.00    -0.211 A  
HETATM   18  C   UNL     1     -10.216   9.407  66.992  1.00  0.00    -0.322 A  
HETATM   19  C   UNL     1     -10.025   9.999  65.744  1.00  0.00    -0.346 A  
ENDBRANCH  13  14
ENDBRANCH  11  13
ENDBRANCH   9  11
ENDBRANCH   4   7
TORSDOF 4
ENDMDL
MODEL       58
REMARK 921   NORMALIZED FREE ENERGY PREDICTED BY IDOCK:   -5.10 KCAL/MOL
REMARK 922        TOTAL FREE ENERGY PREDICTED BY IDOCK:   -6.51 KCAL/MOL
REMARK 923 INTER-LIGAND FREE ENERGY PREDICTED BY IDOCK:   -6.21 KCAL/MOL
REMARK 924 INTRA-LIGAND FREE ENERGY PREDICTED BY IDOCK:   -0.30 KCAL/MOL
REMARK 927      BINDING AFFINITY PREDICTED BY RF-SCORE:    0.00 PKD
ROOT
HETATM    1  C   UNL     1      -9.203   7.484  73.944  1.00  0.00    -0.314 C  
HETATM    2  C   UNL     1      -9.382   8.110  72.622  1.00  0.00    -0.272 A  
HETATM    3  C   UNL     1     -10.381   8.099  71.683  1.00  0.00    -0.284 A  
HETATM    4  C   UNL     1      -9.906   8.936  70.641  1.00  0.00    -0.212 A  
HETATM    5  O   UNL     1      -8.361   8.890  72.176  1.00  0.00    -0.381 OA 
HETATM    6  N   UNL     1      -8.681   9.409  70.933  1.00  0.00    -0.260 NA 
ENDROOT
BRANCH   4   7
HETATM    7  C   UNL     1     -10.604   9.287  69.404  1.00  0.00    -0.223 C  
HETATM    8  O   UNL     1     -10.435   8.665  68.356  1.00  0.00    -0.213 OA 
HETATM    9  N   UNL     1     -11.476  10.366  69.535  1.00  0.00    -0.318 N  
HETATM   10  H   UNL     1     -11.636  10.782  70.453  1.00  0.00     0.000 HD 
BRANCH   9  11
HETATM   11  N   UNL     1     -12.141  10.886  68.403  1.00  0.00    -0.818 NA 
HETATM   12  H   UNL     1     -13.151  10.770  68.487  1.00  0.00     0.000 HD 
BRANCH  11  13
HETATM   13  C   UNL     1     -11.795  12.283  68.132  1.00  0.00    -0.311 C  
BRANCH  13  14
HETATM   14  C   UNL     1     -11.677  12.549  66.648  1.00  0.00    -0.453 A  
HETATM   15  C   UNL     1     -12.181  13.733  66.092  1.00  0.00    -0.499 A  
HETATM   16  C   UNL     1     -12.066  13.979  64.721  1.00  0.00    -0.455 A  
HETATM   17  C   UNL     1     -11.447  13.047  63.893  1.00  0.00    -0.490 A  
HETATM   18  C   UNL     1     -10.935  11.868  64.433  1.00  0.00    -0.392 A  
HETATM   19  C   UNL     1     -11.045  11.622  65.801  1.00  0.00    -0.313 A  
ENDBRANCH  13  14
ENDBRANCH  11  13
ENDBRANCH   9  11
ENDBRANCH   4   7
TORSDOF 4
ENDMDL
MODEL       59
REMARK 921   NORMALIZED FREE ENERGY PREDICTED BY IDOCK:   -5.08 KCAL/MOL
REMARK 922        TOTAL FREE ENERGY PREDICTED BY IDOCK:   -6.48 KCAL/MOL
REMARK 923 INTER-LIGAND FREE ENERGY PREDICTED BY IDOCK:   -6.22 KCAL/MOL
REMARK 924 INTRA-LIGAND FREE ENERGY PREDICTED BY IDOCK:   -0.27 KCAL/MOL
REMARK 927      BINDING AFFINITY PREDICTED BY RF-SCORE:    0.00 PKD
ROOT
HETATM    1  C   UNL     1      -5.247  16.767  67.146  1.00  0.00    -0.168 C  
HETATM    2  C   UNL     1      -6.712  16.880  67.042  1.00  0.00    -0.207 A  
HETATM    3  C   UNL     1      -7.756  16.620  67.892  1.00  0.00    -0.170 A  
HETATM    4  C   UNL     1      -8.917  16.971  67.156  1.00  0.00    -0.222 A  
HETATM    5  O   UNL     1      -7.203  17.346  65.863  1.00  0.00    -0.344 OA 
HETATM    6  N   UNL     1      -8.585  17.403  65.924  1.00  0.00    -0.534 NA 
ENDROOT
BRANCH   4   7
HETATM    7  C   UNL     1     -10.305  16.909  67.614  1.00  0.00    -0.317 C  
HETATM    8  O   UNL     1     -11.015  17.910  67.692  1.00  0.00    -0.310 OA 
HETATM    9  N   UNL     1     -10.737  15.622  67.929  1.00  0.00    -0.286 N  
HETATM   10  H   UNL     1     -10.126  14.824  67.758  1.00  0.00     0.000 HD 
BRANCH   9  11
HETATM   11  N   UNL     1     -12.020  15.418  68.484  1.00  0.00    -0.550 NA 
HETATM   12  H   UNL     1     -12.422  14.538  68.162  1.00  0.00     0.000 HD 
BRANCH  11  13
HETATM   13  C   UNL     1     -12.025  15.492  69.946  1.00  0.00    -0.362 C  
BRANCH  13  14
HETATM   14  C   UNL     1     -12.409  14.167  70.568  1.00  0.00    -0.434 A  
HETATM   15  C   UNL     1     -13.183  14.125  71.737  1.00  0.00    -0.450 A  
HETATM   16  C   UNL     1     -13.541  12.900  72.307  1.00  0.00    -0.611 A  
HETATM   17  C   UNL     1     -13.132  11.707  71.716  1.00  0.00    -0.487 A  
HETATM   18  C   UNL     1     -12.368  11.735  70.551  1.00  0.00    -0.387 A  
HETATM   19  C   UNL     1     -12.013  12.956  69.977  1.00  0.00    -0.380 A  
ENDBRANCH  13  14
ENDBRANCH  11  13
ENDBRANCH   9  11
ENDBRANCH   4   7
TORSDOF 4
ENDMDL
MODEL       60
REMARK 921   NORMALIZED FREE ENERGY PREDICTED BY IDOCK:   -5.08 KCAL/MOL
REMARK 922        TOTAL FREE ENERGY PREDICTED BY IDOCK:   -6.48 KCAL/MOL
REMARK 923 INTER-LIGAND FREE ENERGY PREDICTED BY IDOCK:   -6.18 KCAL/MOL
REMARK 924 INTRA-LIGAND FREE ENERGY PREDICTED BY IDOCK:   -0.30 KCAL/MOL
REMARK 927      BINDING AFFINITY PREDICTED BY RF-SCORE:    0.00 PKD
ROOT
HETATM    1  C   UNL     1     -12.348  14.375  64.411  1.00  0.00    -0.428 C  
HETATM    2  C   UNL     1     -12.020  13.611  65.626  1.00  0.00    -0.395 A  
HETATM    3  C   UNL     1     -11.654  12.312  65.873  1.00  0.00    -0.450 A  
HETATM    4  C   UNL     1     -11.470  12.250  67.278  1.00  0.00    -0.357 A  
HETATM    5  O   UNL     1     -12.068  14.291  66.803  1.00  0.00    -0.430 OA 
HETATM    6  N   UNL     1     -11.728  13.444  67.844  1.00  0.00    -0.341 NA 
ENDROOT
BRANCH   4   7
HETATM    7  C   UNL     1     -11.048  11.090  68.063  1.00  0.00    -0.286 C  
HETATM    8  O   UNL     1     -11.054   9.950  67.602  1.00  0.00    -0.267 OA 
HETATM    9  N   UNL     1     -10.629  11.404  69.354  1.00  0.00    -0.424 N  
HETATM   10  H   UNL     1     -10.565  12.380  69.645  1.00  0.00     0.000 HD 
BRANCH   9  11
HETATM   11  N   UNL     1     -10.293  10.377  70.264  1.00  0.00    -0.428 NA 
HETATM   12  H   UNL     1      -9.569  10.687  70.912  1.00  0.00     0.000 HD 
BRANCH  11  13
HETATM   13  C   UNL     1     -11.454   9.854  70.986  1.00  0.00    -0.388 C  
BRANCH  13  14
HETATM   14  C   UNL     1     -11.263   8.402  71.367  1.00  0.00    -0.316 A  
HETATM   15  C   UNL     1     -11.141   8.028  72.713  1.00  0.00    -0.448 A  
HETATM   16  C   UNL     1     -10.970   6.686  73.062  1.00  0.00    -0.279 A  
HETATM   17  C   UNL     1     -10.921   5.706  72.075  1.00  0.00    -0.302 A  
HETATM   18  C   UNL     1     -11.047   6.063  70.734  1.00  0.00    -0.355 A  
HETATM   19  C   UNL     1     -11.222   7.402  70.382  1.00  0.00    -0.284 A  
ENDBRANCH  13  14
ENDBRANCH  11  13
ENDBRANCH   9  11
ENDBRANCH   4   7
TORSDOF 4
ENDMDL
MODEL       61
REMARK 921   NORMALIZED FREE ENERGY PREDICTED BY IDOCK:   -5.06 KCAL/MOL
REMARK 922        TOTAL FREE ENERGY PREDICTED BY IDOCK:   -6.46 KCAL/MOL
REMARK 923 INTER-LIGAND FREE ENERGY PREDICTED BY IDOCK:   -6.24 KCAL/MOL
REMARK 924 INTRA-LIGAND FREE ENERGY PREDICTED BY IDOCK:   -0.22 KCAL/MOL
REMARK 927      BINDING AFFINITY PREDICTED BY RF-SCORE:    0.00 PKD
ROOT
HETATM    1  C   UNL     1     -12.646  15.513  74.398  1.00  0.00    -0.642 C  
HETATM    2  C   UNL     1     -12.595  15.615  72.930  1.00  0.00    -0.446 A  
HETATM    3  C   UNL     1     -11.634  15.992  72.027  1.00  0.00    -0.512 A  
HETATM    4  C   UNL     1     -12.251  15.838  70.758  1.00  0.00    -0.399 A  
HETATM    5  O   UNL     1     -13.726  15.267  72.257  1.00  0.00    -0.419 OA 
HETATM    6  N   UNL     1     -13.519  15.408  70.896  1.00  0.00    -0.454 NA 
ENDROOT
BRANCH   4   7
HETATM    7  C   UNL     1     -11.647  16.082  69.448  1.00  0.00    -0.320 C  
HETATM    8  O   UNL     1     -11.926  15.404  68.461  1.00  0.00    -0.316 OA 
HETATM    9  N   UNL     1     -10.754  17.152  69.430  1.00  0.00    -0.366 N  
HETATM   10  H   UNL     1     -10.634  17.728  70.262  1.00  0.00     0.000 HD 
BRANCH   9  11
HETATM   11  N   UNL     1     -10.015  17.442  68.262  1.00  0.00    -0.301 NA 
HETATM   12  H   UNL     1     -10.625  17.495  67.447  1.00  0.00     0.000 HD 
BRANCH  11  13
HETATM   13  C   UNL     1      -9.203  18.654  68.388  1.00  0.00    -0.326 C  
BRANCH  13  14
HETATM   14  C   UNL     1      -8.221  18.787  67.246  1.00  0.00    -0.276 A  
HETATM   15  C   UNL     1      -8.138  19.978  66.511  1.00  0.00    -0.346 A  
HETATM   16  C   UNL     1      -7.226  20.100  65.459  1.00  0.00    -0.283 A  
HETATM   17  C   UNL     1      -6.388  19.037  65.132  1.00  0.00    -0.309 A  
HETATM   18  C   UNL     1      -6.455  17.850  65.859  1.00  0.00    -0.294 A  
HETATM   19  C   UNL     1      -7.362  17.727  66.912  1.00  0.00    -0.229 A  
ENDBRANCH  13  14
ENDBRANCH  11  13
ENDBRANCH   9  11
ENDBRANCH   4   7
TORSDOF 4
ENDMDL
MODEL       62
REMARK 921   NORMALIZED FREE ENERGY PREDICTED BY IDOCK:   -5.06 KCAL/MOL
REMARK 922        TOTAL FREE ENERGY PREDICTED BY IDOCK:   -6.46 KCAL/MOL
REMARK 923 INTER-LIGAND FREE ENERGY PREDICTED BY IDOCK:   -6.39 KCAL/MOL
REMARK 924 INTRA-LIGAND FREE ENERGY PREDICTED BY IDOCK:   -0.07 KCAL/MOL
REMARK 927      BINDING AFFINITY PREDICTED BY RF-SCORE:    0.00 PKD
ROOT
HETATM    1  C   UNL     1      -9.833   9.591  66.683  1.00  0.00    -0.293 C  
HETATM    2  C   UNL     1     -10.282  10.586  65.694  1.00  0.00    -0.246 A  
HETATM    3  C   UNL     1     -10.886  11.814  65.776  1.00  0.00    -0.341 A  
HETATM    4  C   UNL     1     -11.023  12.239  64.429  1.00  0.00    -0.329 A  
HETATM    5  O   UNL     1     -10.076  10.277  64.385  1.00  0.00    -0.324 OA 
HETATM    6  N   UNL     1     -10.541  11.308  63.586  1.00  0.00    -0.384 NA 
ENDROOT
BRANCH   4   7
HETATM    7  C   UNL     1     -11.586  13.504  63.956  1.00  0.00    -0.353 C  
HETATM    8  O   UNL     1     -12.538  13.548  63.179  1.00  0.00    -0.762 OA 
HETATM    9  N   UNL     1     -10.958  14.632  64.481  1.00  0.00    -0.621 N  
HETATM   10  H   UNL     1     -10.232  14.527  65.189  1.00  0.00     0.000 HD 
BRANCH   9  11
HETATM   11  N   UNL     1     -11.323  15.922  64.036  1.00  0.00    -1.070 NA 
HETATM   12  H   UNL     1     -12.304  15.948  63.757  1.00  0.00     0.000 HD 
BRANCH  11  13
HETATM   13  C   UNL     1     -11.031  16.967  65.019  1.00  0.00    -0.046 C  
BRANCH  13  14
HETATM   14  C   UNL     1     -10.208  16.432  66.170  1.00  0.00    -0.363 A  
HETATM   15  C   UNL     1      -8.808  16.406  66.097  1.00  0.00    -0.349 A  
HETATM   16  C   UNL     1      -8.051  15.916  67.164  1.00  0.00    -0.240 A  
HETATM   17  C   UNL     1      -8.682  15.449  68.314  1.00  0.00    -0.164 A  
HETATM   18  C   UNL     1     -10.073  15.474  68.402  1.00  0.00    -0.214 A  
HETATM   19  C   UNL     1     -10.831  15.967  67.341  1.00  0.00    -0.291 A  
ENDBRANCH  13  14
ENDBRANCH  11  13
ENDBRANCH   9  11
ENDBRANCH   4   7
TORSDOF 4
ENDMDL
MODEL       63
REMARK 921   NORMALIZED FREE ENERGY PREDICTED BY IDOCK:   -5.05 KCAL/MOL
REMARK 922        TOTAL FREE ENERGY PREDICTED BY IDOCK:   -6.44 KCAL/MOL
REMARK 923 INTER-LIGAND FREE ENERGY PREDICTED BY IDOCK:   -6.26 KCAL/MOL
REMARK 924 INTRA-LIGAND FREE ENERGY PREDICTED BY IDOCK:   -0.18 KCAL/MOL
REMARK 927      BINDING AFFINITY PREDICTED BY RF-SCORE:    0.00 PKD
ROOT
HETATM    1  C   UNL     1     -10.263   9.205  67.137  1.00  0.00    -0.329 C  
HETATM    2  C   UNL     1     -10.729  10.540  66.727  1.00  0.00    -0.188 A  
HETATM    3  C   UNL     1     -10.397  11.402  65.713  1.00  0.00    -0.304 A  
HETATM    4  C   UNL     1     -11.255  12.518  65.893  1.00  0.00    -0.320 A  
HETATM    5  O   UNL     1     -11.715  11.098  67.481  1.00  0.00    -0.574 OA 
HETATM    6  N   UNL     1     -12.048  12.339  66.966  1.00  0.00    -0.543 NA 
ENDROOT
BRANCH   4   7
HETATM    7  C   UNL     1     -11.329  13.717  65.059  1.00  0.00    -0.328 C  
HETATM    8  O   UNL     1     -12.041  13.777  64.058  1.00  0.00    -0.461 OA 
HETATM    9  N   UNL     1     -10.541  14.771  65.517  1.00  0.00    -0.333 N  
HETATM   10  H   UNL     1     -10.043  14.686  66.402  1.00  0.00     0.000 HD 
BRANCH   9  11
HETATM   11  N   UNL     1     -10.428  15.958  64.758  1.00  0.00    -0.674 NA 
HETATM   12  H   UNL     1     -10.729  15.806  63.796  1.00  0.00     0.000 HD 
BRANCH  11  13
HETATM   13  C   UNL     1     -11.143  17.086  65.358  1.00  0.00     0.127 C  
BRANCH  13  14
HETATM   14  C   UNL     1     -10.198  18.025  66.075  1.00  0.00    -0.304 A  
HETATM   15  C   UNL     1      -9.074  17.529  66.750  1.00  0.00    -0.276 A  
HETATM   16  C   UNL     1      -8.200  18.399  67.408  1.00  0.00    -0.248 A  
HETATM   17  C   UNL     1      -8.437  19.771  67.395  1.00  0.00    -0.360 A  
HETATM   18  C   UNL     1      -9.546  20.278  66.722  1.00  0.00    -0.548 A  
HETATM   19  C   UNL     1     -10.419  19.413  66.062  1.00  0.00    -0.596 A  
ENDBRANCH  13  14
ENDBRANCH  11  13
ENDBRANCH   9  11
ENDBRANCH   4   7
TORSDOF 4
ENDMDL
MODEL       64
REMARK 921   NORMALIZED FREE ENERGY PREDICTED BY IDOCK:   -5.04 KCAL/MOL
REMARK 922        TOTAL FREE ENERGY PREDICTED BY IDOCK:   -6.44 KCAL/MOL
REMARK 923 INTER-LIGAND FREE ENERGY PREDICTED BY IDOCK:   -6.27 KCAL/MOL
REMARK 924 INTRA-LIGAND FREE ENERGY PREDICTED BY IDOCK:   -0.17 KCAL/MOL
REMARK 927      BINDING AFFINITY PREDICTED BY RF-SCORE:    0.00 PKD
ROOT
HETATM    1  C   UNL     1     -12.236  15.440  70.402  1.00  0.00    -0.430 C  
HETATM    2  C   UNL     1     -11.686  15.633  69.050  1.00  0.00    -0.395 A  
HETATM    3  C   UNL     1     -11.716  14.903  67.889  1.00  0.00    -0.344 A  
HETATM    4  C   UNL     1     -10.993  15.685  66.952  1.00  0.00    -0.243 A  
HETATM    5  O   UNL     1     -10.981  16.777  68.838  1.00  0.00    -0.314 OA 
HETATM    6  N   UNL     1     -10.541  16.816  67.526  1.00  0.00    -0.324 NA 
ENDROOT
BRANCH   4   7
HETATM    7  C   UNL     1     -10.749  15.373  65.544  1.00  0.00    -0.384 C  
HETATM    8  O   UNL     1     -10.795  16.231  64.664  1.00  0.00    -0.687 OA 
HETATM    9  N   UNL     1     -10.446  14.033  65.308  1.00  0.00    -0.358 N  
HETATM   10  H   UNL     1     -10.338  13.390  66.092  1.00  0.00     0.000 HD 
BRANCH   9  11
HETATM   11  N   UNL     1     -10.289  13.560  63.986  1.00  0.00    -0.691 NA 
HETATM   12  H   UNL     1      -9.303  13.445  63.754  1.00  0.00     0.000 HD 
BRANCH  11  13
HETATM   13  C   UNL     1     -11.034  12.326  63.731  1.00  0.00    -0.435 C  
BRANCH  13  14
HETATM   14  C   UNL     1     -10.447  11.156  64.489  1.00  0.00    -0.415 A  
HETATM   15  C   UNL     1     -10.866  10.869  65.795  1.00  0.00    -0.120 A  
HETATM   16  C   UNL     1     -10.326   9.784  66.491  1.00  0.00    -0.262 A  
HETATM   17  C   UNL     1      -9.365   8.976  65.891  1.00  0.00    -0.306 A  
HETATM   18  C   UNL     1      -8.944   9.246  64.590  1.00  0.00    -0.202 A  
HETATM   19  C   UNL     1      -9.484  10.325  63.891  1.00  0.00    -0.356 A  
ENDBRANCH  13  14
ENDBRANCH  11  13
ENDBRANCH   9  11
ENDBRANCH   4   7
TORSDOF 4
ENDMDL
MODEL       65
REMARK 921   NORMALIZED FREE ENERGY PREDICTED BY IDOCK:   -5.03 KCAL/MOL
REMARK 922        TOTAL FREE ENERGY PREDICTED BY IDOCK:   -6.42 KCAL/MOL
REMARK 923 INTER-LIGAND FREE ENERGY PREDICTED BY IDOCK:   -6.11 KCAL/MOL
REMARK 924 INTRA-LIGAND FREE ENERGY PREDICTED BY IDOCK:   -0.31 KCAL/MOL
REMARK 927      BINDING AFFINITY PREDICTED BY RF-SCORE:    0.00 PKD
ROOT
HETATM    1  C   UNL     1      -6.896   9.696  68.155  1.00  0.00    -0.069 C  
HETATM    2  C   UNL     1      -8.252  10.271  68.178  1.00  0.00    -0.114 A  
HETATM    3  C   UNL     1      -8.824  11.400  67.649  1.00  0.00    -0.139 A  
HETATM    4  C   UNL     1     -10.185  11.333  68.043  1.00  0.00    -0.183 A  
HETATM    5  O   UNL     1      -9.198   9.570  68.859  1.00  0.00    -0.140 OA 
HETATM    6  N   UNL     1     -10.412  10.231  68.782  1.00  0.00    -0.191 NA 
ENDROOT
BRANCH   4   7
HETATM    7  C   UNL     1     -11.247  12.285  67.715  1.00  0.00    -0.276 C  
HETATM    8  O   UNL     1     -12.021  12.106  66.776  1.00  0.00    -0.606 OA 
HETATM    9  N   UNL     1     -11.302  13.384  68.570  1.00  0.00    -0.269 N  
HETATM   10  H   UNL     1     -10.687  13.427  69.382  1.00  0.00     0.000 HD 
BRANCH   9  11
HETATM   11  N   UNL     1     -12.206  14.439  68.316  1.00  0.00    -0.600 NA 
HETATM   12  H   UNL     1     -13.166  14.151  68.508  1.00  0.00     0.000 HD 
BRANCH  11  13
HETATM   13  C   UNL     1     -11.871  15.663  69.046  1.00  0.00    -0.364 C  
BRANCH  13  14
HETATM   14  C   UNL     1     -12.393  15.625  70.465  1.00  0.00    -0.443 A  
HETATM   15  C   UNL     1     -11.662  16.206  71.511  1.00  0.00    -0.533 A  
HETATM   16  C   UNL     1     -12.148  16.173  72.820  1.00  0.00    -0.653 A  
HETATM   17  C   UNL     1     -13.368  15.563  73.099  1.00  0.00    -0.632 A  
HETATM   18  C   UNL     1     -14.108  14.987  72.068  1.00  0.00    -0.633 A  
HETATM   19  C   UNL     1     -13.628  15.022  70.759  1.00  0.00    -0.266 A  
ENDBRANCH  13  14
ENDBRANCH  11  13
ENDBRANCH   9  11
ENDBRANCH   4   7
TORSDOF 4
ENDMDL
MODEL       66
REMARK 921   NORMALIZED FREE ENERGY PREDICTED BY IDOCK:   -5.03 KCAL/MOL
REMARK 922        TOTAL FREE ENERGY PREDICTED BY IDOCK:   -6.42 KCAL/MOL
REMARK 923 INTER-LIGAND FREE ENERGY PREDICTED BY IDOCK:   -6.06 KCAL/MOL
REMARK 924 INTRA-LIGAND FREE ENERGY PREDICTED BY IDOCK:   -0.36 KCAL/MOL
REMARK 927      BINDING AFFINITY PREDICTED BY RF-SCORE:    0.00 PKD
ROOT
HETATM    1  C   UNL     1     -13.399  13.347  72.385  1.00  0.00    -0.629 C  
HETATM    2  C   UNL     1     -12.754  13.095  71.085  1.00  0.00    -0.300 A  
HETATM    3  C   UNL     1     -12.308  13.895  70.065  1.00  0.00    -0.378 A  
HETATM    4  C   UNL     1     -11.771  12.995  69.109  1.00  0.00    -0.326 A  
HETATM    5  O   UNL     1     -12.517  11.794  70.767  1.00  0.00    -0.357 OA 
HETATM    6  N   UNL     1     -11.904  11.722  69.528  1.00  0.00    -0.324 NA 
ENDROOT
BRANCH   4   7
HETATM    7  C   UNL     1     -11.136  13.335  67.835  1.00  0.00    -0.262 C  
HETATM    8  O   UNL     1     -10.931  12.495  66.960  1.00  0.00    -0.251 OA 
HETATM    9  N   UNL     1     -10.812  14.684  67.710  1.00  0.00    -0.262 N  
HETATM   10  H   UNL     1     -11.089  15.344  68.437  1.00  0.00     0.000 HD 
BRANCH   9  11
HETATM   11  N   UNL     1     -10.100  15.143  66.580  1.00  0.00    -0.260 NA 
HETATM   12  H   UNL     1     -10.719  15.627  65.930  1.00  0.00     0.000 HD 
BRANCH  11  13
HETATM   13  C   UNL     1      -8.952  15.981  66.932  1.00  0.00    -0.227 C  
BRANCH  13  14
HETATM   14  C   UNL     1      -9.377  17.393  67.268  1.00  0.00    -0.238 A  
HETATM   15  C   UNL     1     -10.246  18.098  66.423  1.00  0.00    -0.405 A  
HETATM   16  C   UNL     1     -10.641  19.401  66.738  1.00  0.00    -0.574 A  
HETATM   17  C   UNL     1     -10.175  20.012  67.900  1.00  0.00    -0.545 A  
HETATM   18  C   UNL     1      -9.317  19.320  68.752  1.00  0.00    -0.437 A  
HETATM   19  C   UNL     1      -8.924  18.018  68.442  1.00  0.00    -0.286 A  
ENDBRANCH  13  14
ENDBRANCH  11  13
ENDBRANCH   9  11
ENDBRANCH   4   7
TORSDOF 4
ENDMDL
MODEL       67
REMARK 921   NORMALIZED FREE ENERGY PREDICTED BY IDOCK:   -5.00 KCAL/MOL
REMARK 922        TOTAL FREE ENERGY PREDICTED BY IDOCK:   -6.39 KCAL/MOL
REMARK 923 INTER-LIGAND FREE ENERGY PREDICTED BY IDOCK:   -6.18 KCAL/MOL
REMARK 924 INTRA-LIGAND FREE ENERGY PREDICTED BY IDOCK:   -0.21 KCAL/MOL
REMARK 927      BINDING AFFINITY PREDICTED BY RF-SCORE:    0.00 PKD
ROOT
HETATM    1  C   UNL     1     -11.289   6.023  72.740  1.00  0.00    -0.282 C  
HETATM    2  C   UNL     1     -11.424   7.335  72.086  1.00  0.00    -0.273 A  
HETATM    3  C   UNL     1     -12.168   8.460  72.338  1.00  0.00    -0.430 A  
HETATM    4  C   UNL     1     -11.799   9.372  71.316  1.00  0.00    -0.360 A  
HETATM    5  O   UNL     1     -10.663   7.544  70.979  1.00  0.00    -0.227 OA 
HETATM    6  N   UNL     1     -10.894   8.817  70.488  1.00  0.00    -0.227 NA 
ENDROOT
BRANCH   4   7
HETATM    7  C   UNL     1     -12.283  10.741  71.138  1.00  0.00    -0.352 C  
HETATM    8  O   UNL     1     -13.284  11.163  71.715  1.00  0.00    -0.442 OA 
HETATM    9  N   UNL     1     -11.500  11.509  70.279  1.00  0.00    -0.515 N  
HETATM   10  H   UNL     1     -10.633  11.126  69.902  1.00  0.00     0.000 HD 
BRANCH   9  11
HETATM   11  N   UNL     1     -11.901  12.817  69.927  1.00  0.00    -0.435 NA 
HETATM   12  H   UNL     1     -12.070  13.383  70.759  1.00  0.00     0.000 HD 
BRANCH  11  13
HETATM   13  C   UNL     1     -10.955  13.480  69.027  1.00  0.00    -0.225 C  
BRANCH  13  14
HETATM   14  C   UNL     1     -11.295  13.222  67.576  1.00  0.00    -0.329 A  
HETATM   15  C   UNL     1     -10.952  12.006  66.967  1.00  0.00    -0.323 A  
HETATM   16  C   UNL     1     -11.271  11.768  65.628  1.00  0.00    -0.324 A  
HETATM   17  C   UNL     1     -11.937  12.739  64.884  1.00  0.00    -0.451 A  
HETATM   18  C   UNL     1     -12.289  13.949  65.478  1.00  0.00    -0.506 A  
HETATM   19  C   UNL     1     -11.975  14.188  66.816  1.00  0.00    -0.475 A  
ENDBRANCH  13  14
ENDBRANCH  11  13
ENDBRANCH   9  11
ENDBRANCH   4   7
TORSDOF 4
ENDMDL
MODEL       68
REMARK 921   NORMALIZED FREE ENERGY PREDICTED BY IDOCK:   -4.99 KCAL/MOL
REMARK 922        TOTAL FREE ENERGY PREDICTED BY IDOCK:   -6.37 KCAL/MOL
REMARK 923 INTER-LIGAND FREE ENERGY PREDICTED BY IDOCK:   -5.93 KCAL/MOL
REMARK 924 INTRA-LIGAND FREE ENERGY PREDICTED BY IDOCK:   -0.44 KCAL/MOL
REMARK 927      BINDING AFFINITY PREDICTED BY RF-SCORE:    0.00 PKD
ROOT
HETATM    1  C   UNL     1      -7.251  19.656  68.179  1.00  0.00    -0.337 C  
HETATM    2  C   UNL     1      -8.269  18.592  68.188  1.00  0.00    -0.303 A  
HETATM    3  C   UNL     1      -8.279  17.271  67.820  1.00  0.00    -0.205 A  
HETATM    4  C   UNL     1      -9.595  16.826  68.110  1.00  0.00    -0.242 A  
HETATM    5  O   UNL     1      -9.500  18.933  68.658  1.00  0.00    -0.347 OA 
HETATM    6  N   UNL     1     -10.337  17.831  68.610  1.00  0.00    -0.367 NA 
ENDROOT
BRANCH   4   7
HETATM    7  C   UNL     1     -10.130  15.476  67.929  1.00  0.00    -0.224 C  
HETATM    8  O   UNL     1      -9.402  14.488  67.843  1.00  0.00    -0.192 OA 
HETATM    9  N   UNL     1     -11.521  15.423  67.884  1.00  0.00    -0.327 N  
HETATM   10  H   UNL     1     -12.068  16.268  68.050  1.00  0.00     0.000 HD 
BRANCH   9  11
HETATM   11  N   UNL     1     -12.179  14.203  67.608  1.00  0.00    -0.574 NA 
HETATM   12  H   UNL     1     -13.013  14.100  68.185  1.00  0.00     0.000 HD 
BRANCH  11  13
HETATM   13  C   UNL     1     -12.499  14.037  66.189  1.00  0.00    -0.430 C  
BRANCH  13  14
HETATM   14  C   UNL     1     -11.632  12.979  65.544  1.00  0.00    -0.382 A  
HETATM   15  C   UNL     1     -11.165  11.887  66.288  1.00  0.00    -0.392 A  
HETATM   16  C   UNL     1     -10.369  10.908  65.689  1.00  0.00    -0.305 A  
HETATM   17  C   UNL     1     -10.032  11.008  64.341  1.00  0.00    -0.368 A  
HETATM   18  C   UNL     1     -10.494  12.085  63.588  1.00  0.00    -0.494 A  
HETATM   19  C   UNL     1     -11.293  13.062  64.183  1.00  0.00    -0.442 A  
ENDBRANCH  13  14
ENDBRANCH  11  13
ENDBRANCH   9  11
ENDBRANCH   4   7
TORSDOF 4
ENDMDL
MODEL       69
REMARK 921   NORMALIZED FREE ENERGY PREDICTED BY IDOCK:   -4.98 KCAL/MOL
REMARK 922        TOTAL FREE ENERGY PREDICTED BY IDOCK:   -6.36 KCAL/MOL
REMARK 923 INTER-LIGAND FREE ENERGY PREDICTED BY IDOCK:   -6.14 KCAL/MOL
REMARK 924 INTRA-LIGAND FREE ENERGY PREDICTED BY IDOCK:   -0.22 KCAL/MOL
REMARK 927      BINDING AFFINITY PREDICTED BY RF-SCORE:    0.00 PKD
ROOT
HETATM    1  C   UNL     1     -11.619   8.342  72.413  1.00  0.00    -0.464 C  
HETATM    2  C   UNL     1     -11.897   9.532  71.592  1.00  0.00    -0.397 A  
HETATM    3  C   UNL     1     -11.420  10.005  70.396  1.00  0.00    -0.389 A  
HETATM    4  C   UNL     1     -12.136  11.209  70.172  1.00  0.00    -0.362 A  
HETATM    5  O   UNL     1     -12.832  10.397  72.071  1.00  0.00    -0.431 OA 
HETATM    6  N   UNL     1     -12.985  11.453  71.188  1.00  0.00    -0.316 NA 
ENDROOT
BRANCH   4   7
HETATM    7  C   UNL     1     -12.026  12.100  69.017  1.00  0.00    -0.247 C  
HETATM    8  O   UNL     1     -12.033  11.679  67.861  1.00  0.00    -0.599 OA 
HETATM    9  N   UNL     1     -11.933  13.449  69.352  1.00  0.00    -0.321 N  
HETATM   10  H   UNL     1     -12.022  13.738  70.326  1.00  0.00     0.000 HD 
BRANCH   9  11
HETATM   11  N   UNL     1     -11.716  14.419  68.349  1.00  0.00    -0.319 NA 
HETATM   12  H   UNL     1     -12.542  15.004  68.221  1.00  0.00     0.000 HD 
BRANCH  11  13
HETATM   13  C   UNL     1     -10.528  15.238  68.597  1.00  0.00    -0.235 C  
BRANCH  13  14
HETATM   14  C   UNL     1     -10.520  16.482  67.736  1.00  0.00    -0.308 A  
HETATM   15  C   UNL     1     -10.525  17.756  68.321  1.00  0.00    -0.368 A  
HETATM   16  C   UNL     1     -10.514  18.903  67.523  1.00  0.00    -0.522 A  
HETATM   17  C   UNL     1     -10.495  18.791  66.135  1.00  0.00    -0.499 A  
HETATM   18  C   UNL     1     -10.483  17.530  65.541  1.00  0.00    -0.077 A  
HETATM   19  C   UNL     1     -10.490  16.383  66.334  1.00  0.00    -0.288 A  
ENDBRANCH  13  14
ENDBRANCH  11  13
ENDBRANCH   9  11
ENDBRANCH   4   7
TORSDOF 4
ENDMDL
MODEL       70
REMARK 921   NORMALIZED FREE ENERGY PREDICTED BY IDOCK:   -4.98 KCAL/MOL
REMARK 922        TOTAL FREE ENERGY PREDICTED BY IDOCK:   -6.36 KCAL/MOL
REMARK 923 INTER-LIGAND FREE ENERGY PREDICTED BY IDOCK:   -6.12 KCAL/MOL
REMARK 924 INTRA-LIGAND FREE ENERGY PREDICTED BY IDOCK:   -0.23 KCAL/MOL
REMARK 927      BINDING AFFINITY PREDICTED BY RF-SCORE:    0.00 PKD
ROOT
HETATM    1  C   UNL     1     -13.538  13.346  72.417  1.00  0.00    -0.708 C  
HETATM    2  C   UNL     1     -12.863  13.617  71.136  1.00  0.00    -0.323 A  
HETATM    3  C   UNL     1     -12.594  14.752  70.415  1.00  0.00    -0.399 A  
HETATM    4  C   UNL     1     -11.891  14.295  69.271  1.00  0.00    -0.330 A  
HETATM    5  O   UNL     1     -12.367  12.539  70.471  1.00  0.00    -0.332 OA 
HETATM    6  N   UNL     1     -11.759  12.955  69.299  1.00  0.00    -0.308 NA 
ENDROOT
BRANCH   4   7
HETATM    7  C   UNL     1     -11.346  15.110  68.186  1.00  0.00    -0.335 C  
HETATM    8  O   UNL     1     -11.079  14.639  67.082  1.00  0.00    -0.307 OA 
HETATM    9  N   UNL     1     -11.182  16.454  68.518  1.00  0.00    -0.363 N  
HETATM   10  H   UNL     1     -11.506  16.798  69.422  1.00  0.00     0.000 HD 
BRANCH   9  11
HETATM   11  N   UNL     1     -10.569  17.343  67.607  1.00  0.00    -0.365 NA 
HETATM   12  H   UNL     1     -11.130  17.443  66.761  1.00  0.00     0.000 HD 
BRANCH  11  13
HETATM   13  C   UNL     1     -10.274  18.649  68.198  1.00  0.00    -0.382 C  
BRANCH  13  14
HETATM   14  C   UNL     1      -8.997  19.237  67.641  1.00  0.00    -0.346 A  
HETATM   15  C   UNL     1      -8.805  19.343  66.256  1.00  0.00    -0.372 A  
HETATM   16  C   UNL     1      -7.626  19.891  65.743  1.00  0.00    -0.309 A  
HETATM   17  C   UNL     1      -6.629  20.338  66.606  1.00  0.00    -0.261 A  
HETATM   18  C   UNL     1      -6.809  20.244  67.985  1.00  0.00    -0.335 A  
HETATM   19  C   UNL     1      -7.987  19.702  68.499  1.00  0.00    -0.350 A  
ENDBRANCH  13  14
ENDBRANCH  11  13
ENDBRANCH   9  11
ENDBRANCH   4   7
TORSDOF 4
ENDMDL
MODEL       71
REMARK 921   NORMALIZED FREE ENERGY PREDICTED BY IDOCK:   -4.96 KCAL/MOL
REMARK 922        TOTAL FREE ENERGY PREDICTED BY IDOCK:   -6.33 KCAL/MOL
REMARK 923 INTER-LIGAND FREE ENERGY PREDICTED BY IDOCK:   -6.10 KCAL/MOL
REMARK 924 INTRA-LIGAND FREE ENERGY PREDICTED BY IDOCK:   -0.23 KCAL/MOL
REMARK 927      BINDING AFFINITY PREDICTED BY RF-SCORE:    0.00 PKD
ROOT
HETATM    1  C   UNL     1      -9.772   4.632  67.839  1.00  0.00    -0.198 C  
HETATM    2  C   UNL     1     -10.346   5.415  68.947  1.00  0.00    -0.190 A  
HETATM    3  C   UNL     1     -10.955   6.640  69.041  1.00  0.00    -0.332 A  
HETATM    4  C   UNL     1     -11.282   6.776  70.415  1.00  0.00    -0.328 A  
HETATM    5  O   UNL     1     -10.293   4.848  70.183  1.00  0.00    -0.265 OA 
HETATM    6  N   UNL     1     -10.875   5.697  71.109  1.00  0.00    -0.245 NA 
ENDROOT
BRANCH   4   7
HETATM    7  C   UNL     1     -11.974   7.898  71.050  1.00  0.00    -0.252 C  
HETATM    8  O   UNL     1     -12.966   7.739  71.759  1.00  0.00    -0.322 OA 
HETATM    9  N   UNL     1     -11.394   9.138  70.791  1.00  0.00    -0.269 N  
HETATM   10  H   UNL     1     -10.521   9.191  70.267  1.00  0.00     0.000 HD 
BRANCH   9  11
HETATM   11  N   UNL     1     -12.012  10.323  71.250  1.00  0.00    -0.373 NA 
HETATM   12  H   UNL     1     -11.549  10.674  72.088  1.00  0.00     0.000 HD 
BRANCH  11  13
HETATM   13  C   UNL     1     -12.087  11.361  70.220  1.00  0.00    -0.374 C  
BRANCH  13  14
HETATM   14  C   UNL     1     -12.522  12.689  70.800  1.00  0.00    -0.357 A  
HETATM   15  C   UNL     1     -13.301  12.739  71.964  1.00  0.00    -0.565 A  
HETATM   16  C   UNL     1     -13.697  13.967  72.500  1.00  0.00    -0.665 A  
HETATM   17  C   UNL     1     -13.319  15.155  71.881  1.00  0.00    -0.494 A  
HETATM   18  C   UNL     1     -12.539  15.120  70.727  1.00  0.00    -0.452 A  
HETATM   19  C   UNL     1     -12.139  13.896  70.192  1.00  0.00    -0.418 A  
ENDBRANCH  13  14
ENDBRANCH  11  13
ENDBRANCH   9  11
ENDBRANCH   4   7
TORSDOF 4
ENDMDL
MODEL       72
REMARK 921   NORMALIZED FREE ENERGY PREDICTED BY IDOCK:   -4.93 KCAL/MOL
REMARK 922        TOTAL FREE ENERGY PREDICTED BY IDOCK:   -6.30 KCAL/MOL
REMARK 923 INTER-LIGAND FREE ENERGY PREDICTED BY IDOCK:   -5.92 KCAL/MOL
REMARK 924 INTRA-LIGAND FREE ENERGY PREDICTED BY IDOCK:   -0.38 KCAL/MOL
REMARK 927      BINDING AFFINITY PREDICTED BY RF-SCORE:    0.00 PKD
ROOT
HETATM    1  C   UNL     1     -11.291  12.630  64.441  1.00  0.00    -0.393 C  
HETATM    2  C   UNL     1     -10.902  13.831  65.201  1.00  0.00    -0.345 A  
HETATM    3  C   UNL     1     -10.171  14.954  64.911  1.00  0.00    -0.286 A  
HETATM    4  C   UNL     1     -10.202  15.723  66.103  1.00  0.00    -0.315 A  
HETATM    5  O   UNL     1     -11.340  13.904  66.487  1.00  0.00    -0.314 OA 
HETATM    6  N   UNL     1     -10.902  15.086  67.060  1.00  0.00    -0.306 NA 
ENDROOT
BRANCH   4   7
HETATM    7  C   UNL     1      -9.594  17.035  66.323  1.00  0.00    -0.267 C  
HETATM    8  O   UNL     1      -8.498  17.337  65.854  1.00  0.00    -0.533 OA 
HETATM    9  N   UNL     1     -10.377  17.898  67.088  1.00  0.00    -0.358 N  
HETATM   10  H   UNL     1     -11.315  17.617  67.372  1.00  0.00     0.000 HD 
BRANCH   9  11
HETATM   11  N   UNL     1      -9.876  19.162  67.472  1.00  0.00    -0.317 NA 
HETATM   12  H   UNL     1     -10.630  19.844  67.553  1.00  0.00     0.000 HD 
BRANCH  11  13
HETATM   13  C   UNL     1      -9.082  19.110  68.701  1.00  0.00    -0.369 C  
BRANCH  13  14
HETATM   14  C   UNL     1      -7.762  19.831  68.540  1.00  0.00    -0.324 A  
HETATM   15  C   UNL     1      -7.451  20.495  67.346  1.00  0.00    -0.374 A  
HETATM   16  C   UNL     1      -6.233  21.164  67.202  1.00  0.00    -0.409 A  
HETATM   17  C   UNL     1      -5.314  21.178  68.248  1.00  0.00    -0.340 A  
HETATM   18  C   UNL     1      -5.613  20.526  69.443  1.00  0.00    -0.381 A  
HETATM   19  C   UNL     1      -6.830  19.861  69.591  1.00  0.00    -0.290 A  
ENDBRANCH  13  14
ENDBRANCH  11  13
ENDBRANCH   9  11
ENDBRANCH   4   7
TORSDOF 4
ENDMDL
MODEL       73
REMARK 921   NORMALIZED FREE ENERGY PREDICTED BY IDOCK:   -4.91 KCAL/MOL
REMARK 922        TOTAL FREE ENERGY PREDICTED BY IDOCK:   -6.28 KCAL/MOL
REMARK 923 INTER-LIGAND FREE ENERGY PREDICTED BY IDOCK:   -5.82 KCAL/MOL
REMARK 924 INTRA-LIGAND FREE ENERGY PREDICTED BY IDOCK:   -0.46 KCAL/MOL
REMARK 927      BINDING AFFINITY PREDICTED BY RF-SCORE:    0.00 PKD
ROOT
HETATM    1  C   UNL     1     -13.592  15.561  73.078  1.00  0.00    -0.593 C  
HETATM    2  C   UNL     1     -12.791  15.544  71.841  1.00  0.00    -0.427 A  
HETATM    3  C   UNL     1     -11.449  15.594  71.568  1.00  0.00    -0.494 A  
HETATM    4  C   UNL     1     -11.365  15.518  70.154  1.00  0.00    -0.326 A  
HETATM    5  O   UNL     1     -13.481  15.456  70.672  1.00  0.00    -0.355 OA 
HETATM    6  N   UNL     1     -12.594  15.443  69.609  1.00  0.00    -0.133 NA 
ENDROOT
BRANCH   4   7
HETATM    7  C   UNL     1     -10.149  15.504  69.341  1.00  0.00    -0.266 C  
HETATM    8  O   UNL     1      -9.066  15.894  69.774  1.00  0.00    -0.154 OA 
HETATM    9  N   UNL     1     -10.336  14.998  68.056  1.00  0.00    -0.234 N  
HETATM   10  H   UNL     1     -11.240  14.610  67.788  1.00  0.00     0.000 HD 
BRANCH   9  11
HETATM   11  N   UNL     1      -9.277  15.019  67.121  1.00  0.00    -0.207 NA 
HETATM   12  H   UNL     1      -9.003  14.073  66.858  1.00  0.00     0.000 HD 
BRANCH  11  13
HETATM   13  C   UNL     1      -9.580  15.825  65.937  1.00  0.00    -0.347 C  
BRANCH  13  14
HETATM   14  C   UNL     1      -9.412  17.303  66.213  1.00  0.00    -0.256 A  
HETATM   15  C   UNL     1      -8.148  17.838  66.495  1.00  0.00    -0.305 A  
HETATM   16  C   UNL     1      -7.995  19.204  66.746  1.00  0.00    -0.281 A  
HETATM   17  C   UNL     1      -9.101  20.049  66.714  1.00  0.00    -0.467 A  
HETATM   18  C   UNL     1     -10.363  19.532  66.429  1.00  0.00    -0.594 A  
HETATM   19  C   UNL     1     -10.518  18.169  66.175  1.00  0.00    -0.377 A  
ENDBRANCH  13  14
ENDBRANCH  11  13
ENDBRANCH   9  11
ENDBRANCH   4   7
TORSDOF 4
ENDMDL
MODEL       74
REMARK 921   NORMALIZED FREE ENERGY PREDICTED BY IDOCK:   -4.91 KCAL/MOL
REMARK 922        TOTAL FREE ENERGY PREDICTED BY IDOCK:   -6.27 KCAL/MOL
REMARK 923 INTER-LIGAND FREE ENERGY PREDICTED BY IDOCK:   -6.03 KCAL/MOL
REMARK 924 INTRA-LIGAND FREE ENERGY PREDICTED BY IDOCK:   -0.24 KCAL/MOL
REMARK 927      BINDING AFFINITY PREDICTED BY RF-SCORE:    0.00 PKD
ROOT
HETATM    1  C   UNL     1     -12.916  15.650  73.387  1.00  0.00    -0.676 C  
HETATM    2  C   UNL     1     -12.522  15.300  72.011  1.00  0.00    -0.354 A  
HETATM    3  C   UNL     1     -12.737  14.215  71.200  1.00  0.00    -0.431 A  
HETATM    4  C   UNL     1     -12.086  14.542  69.982  1.00  0.00    -0.339 A  
HETATM    5  O   UNL     1     -11.781  16.220  71.338  1.00  0.00    -0.446 OA 
HETATM    6  N   UNL     1     -11.500  15.751  70.066  1.00  0.00    -0.328 NA 
ENDROOT
BRANCH   4   7
HETATM    7  C   UNL     1     -12.033  13.732  68.765  1.00  0.00    -0.365 C  
HETATM    8  O   UNL     1     -11.842  12.518  68.793  1.00  0.00    -0.306 OA 
HETATM    9  N   UNL     1     -12.235  14.461  67.594  1.00  0.00    -0.623 N  
HETATM   10  H   UNL     1     -12.476  15.450  67.645  1.00  0.00     0.000 HD 
BRANCH   9  11
HETATM   11  N   UNL     1     -12.108  13.834  66.334  1.00  0.00    -0.431 NA 
HETATM   12  H   UNL     1     -12.823  14.166  65.687  1.00  0.00     0.000 HD 
BRANCH  11  13
HETATM   13  C   UNL     1     -10.770  13.981  65.758  1.00  0.00    -0.293 C  
BRANCH  13  14
HETATM   14  C   UNL     1     -10.214  15.368  65.991  1.00  0.00    -0.343 A  
HETATM   15  C   UNL     1      -9.039  15.551  66.733  1.00  0.00    -0.282 A  
HETATM   16  C   UNL     1      -8.525  16.833  66.943  1.00  0.00    -0.242 A  
HETATM   17  C   UNL     1      -9.177  17.944  66.414  1.00  0.00    -0.258 A  
HETATM   18  C   UNL     1     -10.343  17.776  65.670  1.00  0.00    -0.098 A  
HETATM   19  C   UNL     1     -10.856  16.497  65.455  1.00  0.00    -0.216 A  
ENDBRANCH  13  14
ENDBRANCH  11  13
ENDBRANCH   9  11
ENDBRANCH   4   7
TORSDOF 4
ENDMDL
MODEL       75
REMARK 921   NORMALIZED FREE ENERGY PREDICTED BY IDOCK:   -4.91 KCAL/MOL
REMARK 922        TOTAL FREE ENERGY PREDICTED BY IDOCK:   -6.27 KCAL/MOL
REMARK 923 INTER-LIGAND FREE ENERGY PREDICTED BY IDOCK:   -6.01 KCAL/MOL
REMARK 924 INTRA-LIGAND FREE ENERGY PREDICTED BY IDOCK:   -0.26 KCAL/MOL
REMARK 927      BINDING AFFINITY PREDICTED BY RF-SCORE:    0.00 PKD
ROOT
HETATM    1  C   UNL     1     -10.689  16.818  68.563  1.00  0.00    -0.358 C  
HETATM    2  C   UNL     1     -10.970  15.413  68.221  1.00  0.00    -0.288 A  
HETATM    3  C   UNL     1     -11.228  14.281  68.951  1.00  0.00    -0.289 A  
HETATM    4  C   UNL     1     -11.427  13.264  67.982  1.00  0.00    -0.309 A  
HETATM    5  O   UNL     1     -10.997  15.104  66.896  1.00  0.00    -0.317 OA 
HETATM    6  N   UNL     1     -11.279  13.758  66.738  1.00  0.00    -0.309 NA 
ENDROOT
BRANCH   4   7
HETATM    7  C   UNL     1     -11.761  11.862  68.231  1.00  0.00    -0.321 C  
HETATM    8  O   UNL     1     -11.755  11.017  67.336  1.00  0.00    -0.539 OA 
HETATM    9  N   UNL     1     -12.062  11.581  69.562  1.00  0.00    -0.304 N  
HETATM   10  H   UNL     1     -11.964  12.309  70.270  1.00  0.00     0.000 HD 
BRANCH   9  11
HETATM   11  N   UNL     1     -12.505  10.293  69.936  1.00  0.00    -0.539 NA 
HETATM   12  H   UNL     1     -11.978   9.570  69.447  1.00  0.00     0.000 HD 
BRANCH  11  13
HETATM   13  C   UNL     1     -12.471  10.078  71.384  1.00  0.00    -0.411 C  
BRANCH  13  14
HETATM   14  C   UNL     1     -11.383   9.103  71.775  1.00  0.00    -0.451 A  
HETATM   15  C   UNL     1     -10.067   9.283  71.325  1.00  0.00    -0.361 A  
HETATM   16  C   UNL     1      -9.063   8.384  71.692  1.00  0.00    -0.268 A  
HETATM   17  C   UNL     1      -9.360   7.299  72.512  1.00  0.00    -0.174 A  
HETATM   18  C   UNL     1     -10.662   7.112  72.972  1.00  0.00    -0.359 A  
HETATM   19  C   UNL     1     -11.666   8.010  72.611  1.00  0.00    -0.418 A  
ENDBRANCH  13  14
ENDBRANCH  11  13
ENDBRANCH   9  11
ENDBRANCH   4   7
TORSDOF 4
ENDMDL
MODEL       76
REMARK 921   NORMALIZED FREE ENERGY PREDICTED BY IDOCK:   -4.90 KCAL/MOL
REMARK 922        TOTAL FREE ENERGY PREDICTED BY IDOCK:   -6.26 KCAL/MOL
REMARK 923 INTER-LIGAND FREE ENERGY PREDICTED BY IDOCK:   -5.92 KCAL/MOL
REMARK 924 INTRA-LIGAND FREE ENERGY PREDICTED BY IDOCK:   -0.34 KCAL/MOL
REMARK 927      BINDING AFFINITY PREDICTED BY RF-SCORE:    0.00 PKD
ROOT
HETATM    1  C   UNL     1      -6.714  17.858  69.495  1.00  0.00    -0.092 C  
HETATM    2  C   UNL     1      -7.556  17.383  68.383  1.00  0.00    -0.255 A  
HETATM    3  C   UNL     1      -8.682  17.860  67.762  1.00  0.00    -0.250 A  
HETATM    4  C   UNL     1      -8.963  16.909  66.747  1.00  0.00    -0.240 A  
HETATM    5  O   UNL     1      -7.184  16.214  67.795  1.00  0.00    -0.123 OA 
HETATM    6  N   UNL     1      -8.063  15.908  66.771  1.00  0.00    -0.249 NA 
ENDROOT
BRANCH   4   7
HETATM    7  C   UNL     1     -10.053  16.956  65.772  1.00  0.00    -0.229 C  
HETATM    8  O   UNL     1     -10.641  18.000  65.494  1.00  0.00    -0.639 OA 
HETATM    9  N   UNL     1     -10.338  15.724  65.186  1.00  0.00    -0.356 N  
HETATM   10  H   UNL     1      -9.755  14.914  65.396  1.00  0.00     0.000 HD 
BRANCH   9  11
HETATM   11  N   UNL     1     -11.434  15.591  64.304  1.00  0.00    -0.737 NA 
HETATM   12  H   UNL     1     -11.115  15.436  63.348  1.00  0.00     0.000 HD 
BRANCH  11  13
HETATM   13  C   UNL     1     -12.375  14.550  64.718  1.00  0.00    -0.391 C  
BRANCH  13  14
HETATM   14  C   UNL     1     -11.715  13.189  64.764  1.00  0.00    -0.387 A  
HETATM   15  C   UNL     1     -11.270  12.572  63.586  1.00  0.00    -0.545 A  
HETATM   16  C   UNL     1     -10.656  11.317  63.632  1.00  0.00    -0.453 A  
HETATM   17  C   UNL     1     -10.478  10.668  64.851  1.00  0.00    -0.282 A  
HETATM   18  C   UNL     1     -10.910  11.274  66.029  1.00  0.00    -0.273 A  
HETATM   19  C   UNL     1     -11.520  12.528  65.988  1.00  0.00    -0.423 A  
ENDBRANCH  13  14
ENDBRANCH  11  13
ENDBRANCH   9  11
ENDBRANCH   4   7
TORSDOF 4
ENDMDL
MODEL       77
REMARK 921   NORMALIZED FREE ENERGY PREDICTED BY IDOCK:   -4.90 KCAL/MOL
REMARK 922        TOTAL FREE ENERGY PREDICTED BY IDOCK:   -6.26 KCAL/MOL
REMARK 923 INTER-LIGAND FREE ENERGY PREDICTED BY IDOCK:   -5.90 KCAL/MOL
REMARK 924 INTRA-LIGAND FREE ENERGY PREDICTED BY IDOCK:   -0.36 KCAL/MOL
REMARK 927      BINDING AFFINITY PREDICTED BY RF-SCORE:    0.00 PKD
ROOT
HETATM    1  C   UNL     1     -10.037  16.150  65.604  1.00  0.00    -0.366 C  
HETATM    2  C   UNL     1     -10.288  14.723  65.871  1.00  0.00    -0.320 A  
HETATM    3  C   UNL     1     -10.537  13.989  67.002  1.00  0.00    -0.279 A  
HETATM    4  C   UNL     1     -10.704  12.658  66.538  1.00  0.00    -0.250 A  
HETATM    5  O   UNL     1     -10.292  13.894  64.792  1.00  0.00    -0.418 OA 
HETATM    6  N   UNL     1     -10.548  12.597  65.203  1.00  0.00    -0.291 NA 
ENDROOT
BRANCH   4   7
HETATM    7  C   UNL     1     -11.016  11.476  67.342  1.00  0.00    -0.265 C  
HETATM    8  O   UNL     1     -12.152  11.241  67.749  1.00  0.00    -0.631 OA 
HETATM    9  N   UNL     1      -9.919  10.650  67.579  1.00  0.00    -0.168 N  
HETATM   10  H   UNL     1      -9.022  10.856  67.139  1.00  0.00     0.000 HD 
BRANCH   9  11
HETATM   11  N   UNL     1     -10.043   9.527  68.427  1.00  0.00    -0.169 NA 
HETATM   12  H   UNL     1      -9.455   8.759  68.104  1.00  0.00     0.000 HD 
BRANCH  11  13
HETATM   13  C   UNL     1      -9.770   9.841  69.831  1.00  0.00    -0.238 C  
BRANCH  13  14
HETATM   14  C   UNL     1     -10.956   9.520  70.713  1.00  0.00    -0.389 A  
HETATM   15  C   UNL     1     -11.138   8.226  71.221  1.00  0.00    -0.296 A  
HETATM   16  C   UNL     1     -12.232   7.932  72.039  1.00  0.00    -0.357 A  
HETATM   17  C   UNL     1     -13.153   8.926  72.360  1.00  0.00    -0.476 A  
HETATM   18  C   UNL     1     -12.981  10.218  71.867  1.00  0.00    -0.554 A  
HETATM   19  C   UNL     1     -11.888  10.515  71.053  1.00  0.00    -0.438 A  
ENDBRANCH  13  14
ENDBRANCH  11  13
ENDBRANCH   9  11
ENDBRANCH   4   7
TORSDOF 4
ENDMDL
MODEL       78
REMARK 921   NORMALIZED FREE ENERGY PREDICTED BY IDOCK:   -4.89 KCAL/MOL
REMARK 922        TOTAL FREE ENERGY PREDICTED BY IDOCK:   -6.25 KCAL/MOL
REMARK 923 INTER-LIGAND FREE ENERGY PREDICTED BY IDOCK:   -5.96 KCAL/MOL
REMARK 924 INTRA-LIGAND FREE ENERGY PREDICTED BY IDOCK:   -0.29 KCAL/MOL
REMARK 927      BINDING AFFINITY PREDICTED BY RF-SCORE:    0.00 PKD
ROOT
HETATM    1  C   UNL     1     -10.792   5.446  73.575  1.00  0.00    -0.342 C  
HETATM    2  C   UNL     1     -10.992   6.562  72.636  1.00  0.00    -0.255 A  
HETATM    3  C   UNL     1     -11.721   7.723  72.667  1.00  0.00    -0.364 A  
HETATM    4  C   UNL     1     -11.446   8.356  71.427  1.00  0.00    -0.277 A  
HETATM    5  O   UNL     1     -10.328   6.486  71.451  1.00  0.00    -0.203 OA 
HETATM    6  N   UNL     1     -10.610   7.605  70.687  1.00  0.00    -0.218 NA 
ENDROOT
BRANCH   4   7
HETATM    7  C   UNL     1     -11.955   9.646  70.963  1.00  0.00    -0.343 C  
HETATM    8  O   UNL     1     -12.510  10.443  71.718  1.00  0.00    -0.390 OA 
HETATM    9  N   UNL     1     -11.735   9.884  69.608  1.00  0.00    -0.456 N  
HETATM   10  H   UNL     1     -11.191   9.221  69.057  1.00  0.00     0.000 HD 
BRANCH   9  11
HETATM   11  N   UNL     1     -12.263  11.042  68.993  1.00  0.00    -0.669 NA 
HETATM   12  H   UNL     1     -13.030  11.428  69.541  1.00  0.00     0.000 HD 
BRANCH  11  13
HETATM   13  C   UNL     1     -11.244  12.059  68.727  1.00  0.00    -0.263 C  
BRANCH  13  14
HETATM   14  C   UNL     1     -11.551  13.354  69.447  1.00  0.00    -0.365 A  
HETATM   15  C   UNL     1     -10.889  14.540  69.097  1.00  0.00    -0.278 A  
HETATM   16  C   UNL     1     -11.178  15.735  69.760  1.00  0.00    -0.330 A  
HETATM   17  C   UNL     1     -12.130  15.760  70.776  1.00  0.00    -0.448 A  
HETATM   18  C   UNL     1     -12.800  14.590  71.129  1.00  0.00    -0.408 A  
HETATM   19  C   UNL     1     -12.517  13.396  70.466  1.00  0.00    -0.350 A  
ENDBRANCH  13  14
ENDBRANCH  11  13
ENDBRANCH   9  11
ENDBRANCH   4   7
TORSDOF 4
ENDMDL
MODEL       79
REMARK 921   NORMALIZED FREE ENERGY PREDICTED BY IDOCK:   -4.89 KCAL/MOL
REMARK 922        TOTAL FREE ENERGY PREDICTED BY IDOCK:   -6.25 KCAL/MOL
REMARK 923 INTER-LIGAND FREE ENERGY PREDICTED BY IDOCK:   -5.99 KCAL/MOL
REMARK 924 INTRA-LIGAND FREE ENERGY PREDICTED BY IDOCK:   -0.26 KCAL/MOL
REMARK 927      BINDING AFFINITY PREDICTED BY RF-SCORE:    0.00 PKD
ROOT
HETATM    1  C   UNL     1     -11.271  15.015  65.635  1.00  0.00    -0.327 C  
HETATM    2  C   UNL     1     -11.515  13.927  66.598  1.00  0.00    -0.355 A  
HETATM    3  C   UNL     1     -11.628  13.862  67.963  1.00  0.00    -0.368 A  
HETATM    4  C   UNL     1     -11.883  12.494  68.239  1.00  0.00    -0.309 A  
HETATM    5  O   UNL     1     -11.678  12.681  66.078  1.00  0.00    -0.373 OA 
HETATM    6  N   UNL     1     -11.906  11.776  67.100  1.00  0.00    -0.620 NA 
ENDROOT
BRANCH   4   7
HETATM    7  C   UNL     1     -12.112  11.886  69.550  1.00  0.00    -0.226 C  
HETATM    8  O   UNL     1     -12.100  12.544  70.589  1.00  0.00    -0.356 OA 
HETATM    9  N   UNL     1     -12.358  10.515  69.500  1.00  0.00    -0.549 N  
HETATM   10  H   UNL     1     -12.441  10.046  68.598  1.00  0.00     0.000 HD 
BRANCH   9  11
HETATM   11  N   UNL     1     -12.493   9.772  70.694  1.00  0.00    -0.485 NA 
HETATM   12  H   UNL     1     -13.108   8.970  70.557  1.00  0.00     0.000 HD 
BRANCH  11  13
HETATM   13  C   UNL     1     -11.206   9.356  71.253  1.00  0.00    -0.367 C  
BRANCH  13  14
HETATM   14  C   UNL     1     -10.954   7.881  71.031  1.00  0.00    -0.262 A  
HETATM   15  C   UNL     1     -11.069   6.969  72.091  1.00  0.00    -0.279 A  
HETATM   16  C   UNL     1     -10.841   5.607  71.882  1.00  0.00    -0.302 A  
HETATM   17  C   UNL     1     -10.498   5.140  70.616  1.00  0.00    -0.269 A  
HETATM   18  C   UNL     1     -10.386   6.034  69.553  1.00  0.00    -0.295 A  
HETATM   19  C   UNL     1     -10.618   7.394  69.757  1.00  0.00    -0.245 A  
ENDBRANCH  13  14
ENDBRANCH  11  13
ENDBRANCH   9  11
ENDBRANCH   4   7
TORSDOF 4
ENDMDL
MODEL       80
REMARK 921   NORMALIZED FREE ENERGY PREDICTED BY IDOCK:   -4.88 KCAL/MOL
REMARK 922        TOTAL FREE ENERGY PREDICTED BY IDOCK:   -6.23 KCAL/MOL
REMARK 923 INTER-LIGAND FREE ENERGY PREDICTED BY IDOCK:   -6.13 KCAL/MOL
REMARK 924 INTRA-LIGAND FREE ENERGY PREDICTED BY IDOCK:   -0.11 KCAL/MOL
REMARK 927      BINDING AFFINITY PREDICTED BY RF-SCORE:    0.00 PKD
ROOT
HETATM    1  C   UNL     1     -13.168   9.972  71.867  1.00  0.00    -0.557 C  
HETATM    2  C   UNL     1     -13.146  11.442  71.769  1.00  0.00    -0.418 A  
HETATM    3  C   UNL     1     -12.546  12.337  70.920  1.00  0.00    -0.334 A  
HETATM    4  C   UNL     1     -12.960  13.611  71.389  1.00  0.00    -0.347 A  
HETATM    5  O   UNL     1     -13.866  12.124  72.699  1.00  0.00     0.033 OA 
HETATM    6  N   UNL     1     -13.751  13.485  72.470  1.00  0.00    -0.708 NA 
ENDROOT
BRANCH   4   7
HETATM    7  C   UNL     1     -12.621  14.914  70.817  1.00  0.00    -0.354 C  
HETATM    8  O   UNL     1     -12.781  15.964  71.437  1.00  0.00    -0.464 OA 
HETATM    9  N   UNL     1     -12.092  14.844  69.530  1.00  0.00    -0.433 N  
HETATM   10  H   UNL     1     -11.903  13.936  69.106  1.00  0.00     0.000 HD 
BRANCH   9  11
HETATM   11  N   UNL     1     -11.815  16.027  68.809  1.00  0.00    -0.406 NA 
HETATM   12  H   UNL     1     -11.277  16.682  69.375  1.00  0.00     0.000 HD 
BRANCH  11  13
HETATM   13  C   UNL     1     -11.151  15.771  67.529  1.00  0.00    -0.258 C  
BRANCH  13  14
HETATM   14  C   UNL     1     -10.954  14.290  67.292  1.00  0.00    -0.302 A  
HETATM   15  C   UNL     1     -11.838  13.575  66.471  1.00  0.00    -0.441 A  
HETATM   16  C   UNL     1     -11.651  12.208  66.249  1.00  0.00    -0.424 A  
HETATM   17  C   UNL     1     -10.582  11.542  66.842  1.00  0.00    -0.284 A  
HETATM   18  C   UNL     1      -9.693  12.242  67.656  1.00  0.00    -0.194 A  
HETATM   19  C   UNL     1      -9.874  13.608  67.875  1.00  0.00    -0.237 A  
ENDBRANCH  13  14
ENDBRANCH  11  13
ENDBRANCH   9  11
ENDBRANCH   4   7
TORSDOF 4
ENDMDL
MODEL       81
REMARK 921   NORMALIZED FREE ENERGY PREDICTED BY IDOCK:   -4.87 KCAL/MOL
REMARK 922        TOTAL FREE ENERGY PREDICTED BY IDOCK:   -6.23 KCAL/MOL
REMARK 923 INTER-LIGAND FREE ENERGY PREDICTED BY IDOCK:   -5.85 KCAL/MOL
REMARK 924 INTRA-LIGAND FREE ENERGY PREDICTED BY IDOCK:   -0.38 KCAL/MOL
REMARK 927      BINDING AFFINITY PREDICTED BY RF-SCORE:    0.00 PKD
ROOT
HETATM    1  C   UNL     1     -13.733  13.065  72.414  1.00  0.00    -0.593 C  
HETATM    2  C   UNL     1     -12.910  12.697  71.250  1.00  0.00    -0.250 A  
HETATM    3  C   UNL     1     -12.169  13.404  70.338  1.00  0.00    -0.415 A  
HETATM    4  C   UNL     1     -11.612  12.417  69.483  1.00  0.00    -0.286 A  
HETATM    5  O   UNL     1     -12.822  11.370  70.963  1.00  0.00    -0.347 OA 
HETATM    6  N   UNL     1     -12.013  11.186  69.855  1.00  0.00    -0.332 NA 
ENDROOT
BRANCH   4   7
HETATM    7  C   UNL     1     -10.713  12.636  68.351  1.00  0.00    -0.242 C  
HETATM    8  O   UNL     1     -10.178  11.707  67.748  1.00  0.00    -0.181 OA 
HETATM    9  N   UNL     1     -10.542  13.979  68.018  1.00  0.00    -0.243 N  
HETATM   10  H   UNL     1     -11.083  14.695  68.502  1.00  0.00     0.000 HD 
BRANCH   9  11
HETATM   11  N   UNL     1      -9.622  14.352  67.014  1.00  0.00    -0.239 NA 
HETATM   12  H   UNL     1      -9.011  13.572  66.770  1.00  0.00     0.000 HD 
BRANCH  11  13
HETATM   13  C   UNL     1     -10.272  14.900  65.822  1.00  0.00    -0.336 C  
BRANCH  13  14
HETATM   14  C   UNL     1     -11.020  13.832  65.055  1.00  0.00    -0.359 A  
HETATM   15  C   UNL     1     -12.410  13.702  65.184  1.00  0.00    -0.486 A  
HETATM   16  C   UNL     1     -13.099  12.717  64.471  1.00  0.00    -0.048 A  
HETATM   17  C   UNL     1     -12.409  11.855  63.624  1.00  0.00    -0.591 A  
HETATM   18  C   UNL     1     -11.029  11.976  63.482  1.00  0.00    -0.514 A  
HETATM   19  C   UNL     1     -10.338  12.961  64.189  1.00  0.00    -0.385 A  
ENDBRANCH  13  14
ENDBRANCH  11  13
ENDBRANCH   9  11
ENDBRANCH   4   7
TORSDOF 4
ENDMDL
MODEL       82
REMARK 921   NORMALIZED FREE ENERGY PREDICTED BY IDOCK:   -4.87 KCAL/MOL
REMARK 922        TOTAL FREE ENERGY PREDICTED BY IDOCK:   -6.23 KCAL/MOL
REMARK 923 INTER-LIGAND FREE ENERGY PREDICTED BY IDOCK:   -5.81 KCAL/MOL
REMARK 924 INTRA-LIGAND FREE ENERGY PREDICTED BY IDOCK:   -0.41 KCAL/MOL
REMARK 927      BINDING AFFINITY PREDICTED BY RF-SCORE:    0.00 PKD
ROOT
HETATM    1  C   UNL     1     -14.411  15.580  72.168  1.00  0.00    -0.598 C  
HETATM    2  C   UNL     1     -13.216  15.180  71.404  1.00  0.00    -0.449 A  
HETATM    3  C   UNL     1     -12.932  14.160  70.533  1.00  0.00    -0.227 A  
HETATM    4  C   UNL     1     -11.584  14.379  70.148  1.00  0.00    -0.265 A  
HETATM    5  O   UNL     1     -12.112  15.962  71.550  1.00  0.00    -0.405 OA 
HETATM    6  N   UNL     1     -11.084  15.464  70.768  1.00  0.00    -0.333 NA 
ENDROOT
BRANCH   4   7
HETATM    7  C   UNL     1     -10.796  13.586  69.205  1.00  0.00    -0.063 C  
HETATM    8  O   UNL     1     -10.110  14.104  68.325  1.00  0.00    -0.227 OA 
HETATM    9  N   UNL     1     -10.884  12.211  69.414  1.00  0.00    -0.453 N  
HETATM   10  H   UNL     1     -11.400  11.850  70.216  1.00  0.00     0.000 HD 
BRANCH   9  11
HETATM   11  N   UNL     1     -10.261  11.313  68.518  1.00  0.00    -0.198 NA 
HETATM   12  H   UNL     1      -9.770  10.576  69.023  1.00  0.00     0.000 HD 
BRANCH  11  13
HETATM   13  C   UNL     1     -11.193  10.747  67.541  1.00  0.00    -0.274 C  
BRANCH  13  14
HETATM   14  C   UNL     1     -11.103  11.461  66.210  1.00  0.00    -0.281 A  
HETATM   15  C   UNL     1     -10.174  11.053  65.242  1.00  0.00    -0.344 A  
HETATM   16  C   UNL     1     -10.097  11.711  64.012  1.00  0.00    -0.362 A  
HETATM   17  C   UNL     1     -10.945  12.779  63.735  1.00  0.00    -0.445 A  
HETATM   18  C   UNL     1     -11.878  13.191  64.685  1.00  0.00    -0.417 A  
HETATM   19  C   UNL     1     -11.960  12.533  65.912  1.00  0.00    -0.472 A  
ENDBRANCH  13  14
ENDBRANCH  11  13
ENDBRANCH   9  11
ENDBRANCH   4   7
TORSDOF 4
ENDMDL
MODEL       83
REMARK 921   NORMALIZED FREE ENERGY PREDICTED BY IDOCK:   -4.86 KCAL/MOL
REMARK 922        TOTAL FREE ENERGY PREDICTED BY IDOCK:   -6.21 KCAL/MOL
REMARK 923 INTER-LIGAND FREE ENERGY PREDICTED BY IDOCK:   -5.84 KCAL/MOL
REMARK 924 INTRA-LIGAND FREE ENERGY PREDICTED BY IDOCK:   -0.36 KCAL/MOL
REMARK 927      BINDING AFFINITY PREDICTED BY RF-SCORE:    0.00 PKD
ROOT
HETATM    1  C   UNL     1     -12.269  14.659  69.901  1.00  0.00    -0.365 C  
HETATM    2  C   UNL     1     -11.963  13.624  68.899  1.00  0.00    -0.356 A  
HETATM    3  C   UNL     1     -11.379  12.384  68.949  1.00  0.00    -0.342 A  
HETATM    4  C   UNL     1     -11.413  11.915  67.610  1.00  0.00    -0.317 A  
HETATM    5  O   UNL     1     -12.317  13.898  67.614  1.00  0.00    -0.265 OA 
HETATM    6  N   UNL     1     -11.973  12.832  66.799  1.00  0.00    -0.466 NA 
ENDROOT
BRANCH   4   7
HETATM    7  C   UNL     1     -10.938  10.623  67.115  1.00  0.00    -0.247 C  
HETATM    8  O   UNL     1     -10.389  10.501  66.022  1.00  0.00    -0.248 OA 
HETATM    9  N   UNL     1     -11.149   9.567  68.001  1.00  0.00    -0.514 N  
HETATM   10  H   UNL     1     -11.530   9.751  68.929  1.00  0.00     0.000 HD 
BRANCH   9  11
HETATM   11  N   UNL     1     -10.838   8.244  67.618  1.00  0.00    -0.506 NA 
HETATM   12  H   UNL     1     -10.457   8.217  66.673  1.00  0.00     0.000 HD 
BRANCH  11  13
HETATM   13  C   UNL     1      -9.942   7.574  68.563  1.00  0.00    -0.168 C  
BRANCH  13  14
HETATM   14  C   UNL     1     -10.461   7.664  69.981  1.00  0.00    -0.229 A  
HETATM   15  C   UNL     1     -11.600   6.946  70.371  1.00  0.00    -0.385 A  
HETATM   16  C   UNL     1     -12.075   7.027  71.683  1.00  0.00    -0.384 A  
HETATM   17  C   UNL     1     -11.418   7.823  72.617  1.00  0.00    -0.430 A  
HETATM   18  C   UNL     1     -10.281   8.537  72.244  1.00  0.00    -0.395 A  
HETATM   19  C   UNL     1      -9.802   8.455  70.937  1.00  0.00    -0.223 A  
ENDBRANCH  13  14
ENDBRANCH  11  13
ENDBRANCH   9  11
ENDBRANCH   4   7
TORSDOF 4
ENDMDL
MODEL       84
REMARK 921   NORMALIZED FREE ENERGY PREDICTED BY IDOCK:   -4.83 KCAL/MOL
REMARK 922        TOTAL FREE ENERGY PREDICTED BY IDOCK:   -6.18 KCAL/MOL
REMARK 923 INTER-LIGAND FREE ENERGY PREDICTED BY IDOCK:   -5.93 KCAL/MOL
REMARK 924 INTRA-LIGAND FREE ENERGY PREDICTED BY IDOCK:   -0.25 KCAL/MOL
REMARK 927      BINDING AFFINITY PREDICTED BY RF-SCORE:    0.00 PKD
ROOT
HETATM    1  C   UNL     1     -11.409   5.610  72.473  1.00  0.00    -0.349 C  
HETATM    2  C   UNL     1     -11.501   6.962  71.896  1.00  0.00    -0.272 A  
HETATM    3  C   UNL     1     -12.140   8.119  72.261  1.00  0.00    -0.419 A  
HETATM    4  C   UNL     1     -11.789   9.058  71.256  1.00  0.00    -0.312 A  
HETATM    5  O   UNL     1     -10.818   7.177  70.739  1.00  0.00    -0.234 OA 
HETATM    6  N   UNL     1     -10.996   8.488  70.330  1.00  0.00    -0.243 NA 
ENDROOT
BRANCH   4   7
HETATM    7  C   UNL     1     -12.187  10.464  71.184  1.00  0.00    -0.394 C  
HETATM    8  O   UNL     1     -13.132  10.912  71.832  1.00  0.00    -0.482 OA 
HETATM    9  N   UNL     1     -11.391  11.232  70.338  1.00  0.00    -0.470 N  
HETATM   10  H   UNL     1     -10.569  10.818  69.898  1.00  0.00     0.000 HD 
BRANCH   9  11
HETATM   11  N   UNL     1     -11.717  12.583  70.085  1.00  0.00    -0.537 NA 
HETATM   12  H   UNL     1     -11.023  13.209  70.494  1.00  0.00     0.000 HD 
BRANCH  11  13
HETATM   13  C   UNL     1     -11.903  12.867  68.661  1.00  0.00    -0.312 C  
BRANCH  13  14
HETATM   14  C   UNL     1     -11.433  14.260  68.305  1.00  0.00    -0.334 A  
HETATM   15  C   UNL     1     -11.484  15.294  69.252  1.00  0.00    -0.334 A  
HETATM   16  C   UNL     1     -11.045  16.579  68.922  1.00  0.00    -0.300 A  
HETATM   17  C   UNL     1     -10.551  16.845  67.648  1.00  0.00    -0.325 A  
HETATM   18  C   UNL     1     -10.490  15.826  66.700  1.00  0.00    -0.302 A  
HETATM   19  C   UNL     1     -10.923  14.541  67.027  1.00  0.00    -0.312 A  
ENDBRANCH  13  14
ENDBRANCH  11  13
ENDBRANCH   9  11
ENDBRANCH   4   7
TORSDOF 4
ENDMDL
MODEL       85
REMARK 921   NORMALIZED FREE ENERGY PREDICTED BY IDOCK:   -4.83 KCAL/MOL
REMARK 922        TOTAL FREE ENERGY PREDICTED BY IDOCK:   -6.17 KCAL/MOL
REMARK 923 INTER-LIGAND FREE ENERGY PREDICTED BY IDOCK:   -5.91 KCAL/MOL
REMARK 924 INTRA-LIGAND FREE ENERGY PREDICTED BY IDOCK:   -0.26 KCAL/MOL
REMARK 927      BINDING AFFINITY PREDICTED BY RF-SCORE:    0.00 PKD
ROOT
HETATM    1  C   UNL     1     -10.730   9.981  67.467  1.00  0.00    -0.339 C  
HETATM    2  C   UNL     1     -11.118  11.394  67.612  1.00  0.00    -0.268 A  
HETATM    3  C   UNL     1     -10.837  12.377  68.527  1.00  0.00    -0.270 A  
HETATM    4  C   UNL     1     -11.530  13.520  68.052  1.00  0.00    -0.307 A  
HETATM    5  O   UNL     1     -11.938  11.901  66.652  1.00  0.00    -0.601 OA 
HETATM    6  N   UNL     1     -12.203  13.232  66.922  1.00  0.00    -0.314 NA 
ENDROOT
BRANCH   4   7
HETATM    7  C   UNL     1     -11.542  14.856  68.649  1.00  0.00    -0.318 C  
HETATM    8  O   UNL     1     -12.082  15.086  69.730  1.00  0.00    -0.304 OA 
HETATM    9  N   UNL     1     -10.877  15.818  67.892  1.00  0.00    -0.305 N  
HETATM   10  H   UNL     1     -10.375  15.543  67.048  1.00  0.00     0.000 HD 
BRANCH   9  11
HETATM   11  N   UNL     1     -10.895  17.174  68.289  1.00  0.00    -0.357 NA 
HETATM   12  H   UNL     1     -10.305  17.322  69.107  1.00  0.00     0.000 HD 
BRANCH  11  13
HETATM   13  C   UNL     1     -10.528  18.088  67.206  1.00  0.00    -0.380 C  
BRANCH  13  14
HETATM   14  C   UNL     1      -9.270  18.861  67.533  1.00  0.00    -0.319 A  
HETATM   15  C   UNL     1      -8.424  18.443  68.570  1.00  0.00    -0.346 A  
HETATM   16  C   UNL     1      -7.260  19.156  68.868  1.00  0.00    -0.376 A  
HETATM   17  C   UNL     1      -6.927  20.291  68.132  1.00  0.00    -0.314 A  
HETATM   18  C   UNL     1      -7.755  20.713  67.094  1.00  0.00    -0.348 A  
HETATM   19  C   UNL     1      -8.916  20.001  66.793  1.00  0.00    -0.445 A  
ENDBRANCH  13  14
ENDBRANCH  11  13
ENDBRANCH   9  11
ENDBRANCH   4   7
TORSDOF 4
ENDMDL
MODEL       86
REMARK 921   NORMALIZED FREE ENERGY PREDICTED BY IDOCK:   -4.82 KCAL/MOL
REMARK 922        TOTAL FREE ENERGY PREDICTED BY IDOCK:   -6.17 KCAL/MOL
REMARK 923 INTER-LIGAND FREE ENERGY PREDICTED BY IDOCK:   -5.91 KCAL/MOL
REMARK 924 INTRA-LIGAND FREE ENERGY PREDICTED BY IDOCK:   -0.26 KCAL/MOL
REMARK 927      BINDING AFFINITY PREDICTED BY RF-SCORE:    0.00 PKD
ROOT
HETATM    1  C   UNL     1     -10.061   4.990  67.328  1.00  0.00    -0.226 C  
HETATM    2  C   UNL     1     -10.228   6.434  67.568  1.00  0.00    -0.170 A  
HETATM    3  C   UNL     1     -10.458   7.520  66.763  1.00  0.00    -0.319 A  
HETATM    4  C   UNL     1     -10.528   8.621  67.654  1.00  0.00    -0.244 A  
HETATM    5  O   UNL     1     -10.150   6.847  68.862  1.00  0.00    -0.160 OA 
HETATM    6  N   UNL     1     -10.334   8.218  68.924  1.00  0.00    -0.217 NA 
ENDROOT
BRANCH   4   7
HETATM    7  C   UNL     1     -10.785  10.020  67.310  1.00  0.00    -0.244 C  
HETATM    8  O   UNL     1     -10.201  10.586  66.388  1.00  0.00    -0.226 OA 
HETATM    9  N   UNL     1     -11.754  10.628  68.107  1.00  0.00    -0.425 N  
HETATM   10  H   UNL     1     -12.263  10.076  68.797  1.00  0.00     0.000 HD 
BRANCH   9  11
HETATM   11  N   UNL     1     -12.034  12.005  67.962  1.00  0.00    -0.521 NA 
HETATM   12  H   UNL     1     -13.034  12.184  68.043  1.00  0.00     0.000 HD 
BRANCH  11  13
HETATM   13  C   UNL     1     -11.274  12.840  68.893  1.00  0.00    -0.283 C  
BRANCH  13  14
HETATM   14  C   UNL     1     -12.117  13.260  70.078  1.00  0.00    -0.385 A  
HETATM   15  C   UNL     1     -12.525  14.593  70.227  1.00  0.00    -0.401 A  
HETATM   16  C   UNL     1     -13.307  14.977  71.320  1.00  0.00    -0.510 A  
HETATM   17  C   UNL     1     -13.691  14.036  72.271  1.00  0.00    -0.646 A  
HETATM   18  C   UNL     1     -13.298  12.706  72.131  1.00  0.00    -0.570 A  
HETATM   19  C   UNL     1     -12.520  12.319  71.040  1.00  0.00    -0.361 A  
ENDBRANCH  13  14
ENDBRANCH  11  13
ENDBRANCH   9  11
ENDBRANCH   4   7
TORSDOF 4
ENDMDL
MODEL       87
REMARK 921   NORMALIZED FREE ENERGY PREDICTED BY IDOCK:   -4.80 KCAL/MOL
REMARK 922        TOTAL FREE ENERGY PREDICTED BY IDOCK:   -6.14 KCAL/MOL
REMARK 923 INTER-LIGAND FREE ENERGY PREDICTED BY IDOCK:   -5.71 KCAL/MOL
REMARK 924 INTRA-LIGAND FREE ENERGY PREDICTED BY IDOCK:   -0.43 KCAL/MOL
REMARK 927      BINDING AFFINITY PREDICTED BY RF-SCORE:    0.00 PKD
ROOT
HETATM    1  C   UNL     1     -11.593  13.827  69.331  1.00  0.00    -0.365 C  
HETATM    2  C   UNL     1     -12.133  12.760  70.191  1.00  0.00    -0.298 A  
HETATM    3  C   UNL     1     -12.138  11.390  70.130  1.00  0.00    -0.439 A  
HETATM    4  C   UNL     1     -12.822  10.979  71.303  1.00  0.00    -0.425 A  
HETATM    5  O   UNL     1     -12.781  13.157  71.319  1.00  0.00    -0.363 OA 
HETATM    6  N   UNL     1     -13.219  12.047  72.020  1.00  0.00    -0.465 NA 
ENDROOT
BRANCH   4   7
HETATM    7  C   UNL     1     -13.082   9.606  71.738  1.00  0.00    -0.421 C  
HETATM    8  O   UNL     1     -13.345   9.328  72.907  1.00  0.00    -0.277 OA 
HETATM    9  N   UNL     1     -13.019   8.668  70.710  1.00  0.00    -0.376 N  
HETATM   10  H   UNL     1     -12.883   8.976  69.747  1.00  0.00     0.000 HD 
BRANCH   9  11
HETATM   11  N   UNL     1     -13.144   7.290  70.995  1.00  0.00    -0.594 NA 
HETATM   12  H   UNL     1     -13.752   6.830  70.318  1.00  0.00     0.000 HD 
BRANCH  11  13
HETATM   13  C   UNL     1     -11.851   6.608  71.085  1.00  0.00    -0.360 C  
BRANCH  13  14
HETATM   14  C   UNL     1     -10.985   6.899  69.879  1.00  0.00    -0.318 A  
HETATM   15  C   UNL     1      -9.746   7.540  70.027  1.00  0.00    -0.172 A  
HETATM   16  C   UNL     1      -8.946   7.803  68.913  1.00  0.00    -0.141 A  
HETATM   17  C   UNL     1      -9.372   7.428  67.641  1.00  0.00    -0.145 A  
HETATM   18  C   UNL     1     -10.597   6.785  67.480  1.00  0.00    -0.348 A  
HETATM   19  C   UNL     1     -11.397   6.517  68.592  1.00  0.00    -0.203 A  
ENDBRANCH  13  14
ENDBRANCH  11  13
ENDBRANCH   9  11
ENDBRANCH   4   7
TORSDOF 4
ENDMDL
MODEL       88
REMARK 921   NORMALIZED FREE ENERGY PREDICTED BY IDOCK:   -4.72 KCAL/MOL
REMARK 922        TOTAL FREE ENERGY PREDICTED BY IDOCK:   -6.05 KCAL/MOL
REMARK 923 INTER-LIGAND FREE ENERGY PREDICTED BY IDOCK:   -5.79 KCAL/MOL
REMARK 924 INTRA-LIGAND FREE ENERGY PREDICTED BY IDOCK:   -0.25 KCAL/MOL
REMARK 927      BINDING AFFINITY PREDICTED BY RF-SCORE:    0.00 PKD
ROOT
HETATM    1  C   UNL     1     -12.027  15.368  64.277  1.00  0.00    -0.198 C  
HETATM    2  C   UNL     1     -11.993  14.294  65.285  1.00  0.00    -0.389 A  
HETATM    3  C   UNL     1     -11.743  14.252  66.633  1.00  0.00    -0.417 A  
HETATM    4  C   UNL     1     -11.894  12.886  66.985  1.00  0.00    -0.374 A  
HETATM    5  O   UNL     1     -12.264  13.037  64.843  1.00  0.00    -0.389 OA 
HETATM    6  N   UNL     1     -12.201  12.148  65.903  1.00  0.00    -0.536 NA 
ENDROOT
BRANCH   4   7
HETATM    7  C   UNL     1     -11.761  12.299  68.319  1.00  0.00    -0.336 C  
HETATM    8  O   UNL     1     -11.482  12.974  69.308  1.00  0.00    -0.274 OA 
HETATM    9  N   UNL     1     -11.998  10.926  68.356  1.00  0.00    -0.381 N  
HETATM   10  H   UNL     1     -12.312  10.441  67.516  1.00  0.00     0.000 HD 
BRANCH   9  11
HETATM   11  N   UNL     1     -11.805  10.203  69.554  1.00  0.00    -0.477 NA 
HETATM   12  H   UNL     1     -12.556   9.528  69.698  1.00  0.00     0.000 HD 
BRANCH  11  13
HETATM   13  C   UNL     1     -10.496   9.551  69.619  1.00  0.00    -0.223 C  
BRANCH  13  14
HETATM   14  C   UNL     1     -10.534   8.165  69.013  1.00  0.00    -0.211 A  
HETATM   15  C   UNL     1     -10.668   7.033  69.829  1.00  0.00    -0.265 A  
HETATM   16  C   UNL     1     -10.707   5.754  69.267  1.00  0.00    -0.386 A  
HETATM   17  C   UNL     1     -10.615   5.593  67.887  1.00  0.00    -0.266 A  
HETATM   18  C   UNL     1     -10.487   6.711  67.064  1.00  0.00    -0.369 A  
HETATM   19  C   UNL     1     -10.452   7.988  67.622  1.00  0.00    -0.301 A  
ENDBRANCH  13  14
ENDBRANCH  11  13
ENDBRANCH   9  11
ENDBRANCH   4   7
TORSDOF 4
ENDMDL
MODEL       89
REMARK 921   NORMALIZED FREE ENERGY PREDICTED BY IDOCK:   -4.72 KCAL/MOL
REMARK 922        TOTAL FREE ENERGY PREDICTED BY IDOCK:   -6.04 KCAL/MOL
REMARK 923 INTER-LIGAND FREE ENERGY PREDICTED BY IDOCK:   -6.08 KCAL/MOL
REMARK 924 INTRA-LIGAND FREE ENERGY PREDICTED BY IDOCK:    0.04 KCAL/MOL
REMARK 927      BINDING AFFINITY PREDICTED BY RF-SCORE:    0.00 PKD
ROOT
HETATM    1  C   UNL     1     -10.137   9.258  66.899  1.00  0.00    -0.324 C  
HETATM    2  C   UNL     1     -10.823  10.550  66.723  1.00  0.00    -0.142 A  
HETATM    3  C   UNL     1     -10.775  11.540  65.775  1.00  0.00    -0.325 A  
HETATM    4  C   UNL     1     -11.717  12.506  66.215  1.00  0.00    -0.404 A  
HETATM    5  O   UNL     1     -11.724  10.895  67.683  1.00  0.00    -0.566 OA 
HETATM    6  N   UNL     1     -12.286  12.122  67.373  1.00  0.00    -0.384 NA 
ENDROOT
BRANCH   4   7
HETATM    7  C   UNL     1     -12.075  13.757  65.546  1.00  0.00    -0.410 C  
HETATM    8  O   UNL     1     -13.244  14.070  65.325  1.00  0.00    -0.782 OA 
HETATM    9  N   UNL     1     -10.980  14.549  65.208  1.00  0.00    -0.338 N  
HETATM   10  H   UNL     1     -10.043  14.272  65.499  1.00  0.00     0.000 HD 
BRANCH   9  11
HETATM   11  N   UNL     1     -11.163  15.736  64.465  1.00  0.00    -0.724 NA 
HETATM   12  H   UNL     1     -12.133  15.835  64.167  1.00  0.00     0.000 HD 
BRANCH  11  13
HETATM   13  C   UNL     1     -10.711  16.931  65.180  1.00  0.00    -0.103 C  
BRANCH  13  14
HETATM   14  C   UNL     1      -9.922  16.572  66.420  1.00  0.00    -0.318 A  
HETATM   15  C   UNL     1      -8.523  16.496  66.379  1.00  0.00    -0.357 A  
HETATM   16  C   UNL     1      -7.796  16.169  67.527  1.00  0.00    -0.169 A  
HETATM   17  C   UNL     1      -8.458  15.914  68.725  1.00  0.00    -0.204 A  
HETATM   18  C   UNL     1      -9.848  15.992  68.781  1.00  0.00    -0.223 A  
HETATM   19  C   UNL     1     -10.576  16.323  67.638  1.00  0.00    -0.311 A  
ENDBRANCH  13  14
ENDBRANCH  11  13
ENDBRANCH   9  11
ENDBRANCH   4   7
TORSDOF 4
ENDMDL
MODEL       90
REMARK 921   NORMALIZED FREE ENERGY PREDICTED BY IDOCK:   -4.72 KCAL/MOL
REMARK 922        TOTAL FREE ENERGY PREDICTED BY IDOCK:   -6.04 KCAL/MOL
REMARK 923 INTER-LIGAND FREE ENERGY PREDICTED BY IDOCK:   -5.68 KCAL/MOL
REMARK 924 INTRA-LIGAND FREE ENERGY PREDICTED BY IDOCK:   -0.36 KCAL/MOL
REMARK 927      BINDING AFFINITY PREDICTED BY RF-SCORE:    0.00 PKD
ROOT
HETATM    1  C   UNL     1     -13.717  13.767  72.527  1.00  0.00    -0.667 C  
HETATM    2  C   UNL     1     -13.020  12.915  71.549  1.00  0.00    -0.294 A  
HETATM    3  C   UNL     1     -12.790  11.567  71.443  1.00  0.00    -0.489 A  
HETATM    4  C   UNL     1     -12.060  11.419  70.235  1.00  0.00    -0.374 A  
HETATM    5  O   UNL     1     -12.456  13.548  70.484  1.00  0.00    -0.332 OA 
HETATM    6  N   UNL     1     -11.850  12.617  69.658  1.00  0.00    -0.320 NA 
ENDROOT
BRANCH   4   7
HETATM    7  C   UNL     1     -11.585  10.171  69.639  1.00  0.00    -0.153 C  
HETATM    8  O   UNL     1     -10.998  10.142  68.558  1.00  0.00    -0.232 OA 
HETATM    9  N   UNL     1     -11.844   9.042  70.413  1.00  0.00    -0.468 N  
HETATM   10  H   UNL     1     -12.256   9.145  71.340  1.00  0.00     0.000 HD 
BRANCH   9  11
HETATM   11  N   UNL     1     -11.538   7.754  69.920  1.00  0.00    -0.457 NA 
HETATM   12  H   UNL     1     -11.588   7.732  68.901  1.00  0.00     0.000 HD 
BRANCH  11  13
HETATM   13  C   UNL     1     -10.244   7.257  70.391  1.00  0.00    -0.194 C  
BRANCH  13  14
HETATM   14  C   UNL     1     -10.340   6.695  71.792  1.00  0.00    -0.218 A  
HETATM   15  C   UNL     1     -11.030   5.499  72.035  1.00  0.00    -0.276 A  
HETATM   16  C   UNL     1     -11.114   4.979  73.329  1.00  0.00    -0.406 A  
HETATM   17  C   UNL     1     -10.510   5.646  74.392  1.00  0.00    -0.214 A  
HETATM   18  C   UNL     1      -9.816   6.832  74.163  1.00  0.00    -0.352 A  
HETATM   19  C   UNL     1      -9.727   7.352  72.872  1.00  0.00    -0.231 A  
ENDBRANCH  13  14
ENDBRANCH  11  13
ENDBRANCH   9  11
ENDBRANCH   4   7
TORSDOF 4
ENDMDL
MODEL       91
REMARK 921   NORMALIZED FREE ENERGY PREDICTED BY IDOCK:   -4.69 KCAL/MOL
REMARK 922        TOTAL FREE ENERGY PREDICTED BY IDOCK:   -6.00 KCAL/MOL
REMARK 923 INTER-LIGAND FREE ENERGY PREDICTED BY IDOCK:   -5.65 KCAL/MOL
REMARK 924 INTRA-LIGAND FREE ENERGY PREDICTED BY IDOCK:   -0.35 KCAL/MOL
REMARK 927      BINDING AFFINITY PREDICTED BY RF-SCORE:    0.00 PKD
ROOT
HETATM    1  C   UNL     1     -12.228  13.823  63.478  1.00  0.00    -0.236 C  
HETATM    2  C   UNL     1     -12.004  13.522  64.902  1.00  0.00    -0.379 A  
HETATM    3  C   UNL     1     -11.867  12.366  65.628  1.00  0.00    -0.468 A  
HETATM    4  C   UNL     1     -11.655  12.801  66.962  1.00  0.00    -0.360 A  
HETATM    5  O   UNL     1     -11.896  14.589  65.739  1.00  0.00    -0.362 OA 
HETATM    6  N   UNL     1     -11.681  14.145  67.033  1.00  0.00    -0.385 NA 
ENDROOT
BRANCH   4   7
HETATM    7  C   UNL     1     -11.423  11.962  68.137  1.00  0.00    -0.320 C  
HETATM    8  O   UNL     1     -12.315  11.287  68.649  1.00  0.00    -0.534 OA 
HETATM    9  N   UNL     1     -10.108  11.990  68.599  1.00  0.00    -0.328 N  
HETATM   10  H   UNL     1      -9.397  12.501  68.077  1.00  0.00     0.000 HD 
BRANCH   9  11
HETATM   11  N   UNL     1      -9.756  11.312  69.787  1.00  0.00     0.062 NA 
HETATM   12  H   UNL     1     -10.496  11.389  70.484  1.00  0.00     0.000 HD 
BRANCH  11  13
HETATM   13  C   UNL     1      -9.395   9.912  69.558  1.00  0.00    -0.220 C  
BRANCH  13  14
HETATM   14  C   UNL     1     -10.322   8.972  70.297  1.00  0.00    -0.243 A  
HETATM   15  C   UNL     1     -11.019   9.403  71.434  1.00  0.00    -0.443 A  
HETATM   16  C   UNL     1     -11.878   8.534  72.112  1.00  0.00    -0.448 A  
HETATM   17  C   UNL     1     -12.051   7.228  71.662  1.00  0.00    -0.359 A  
HETATM   18  C   UNL     1     -11.368   6.788  70.529  1.00  0.00    -0.394 A  
HETATM   19  C   UNL     1     -10.514   7.654  69.848  1.00  0.00    -0.231 A  
ENDBRANCH  13  14
ENDBRANCH  11  13
ENDBRANCH   9  11
ENDBRANCH   4   7
TORSDOF 4
ENDMDL
MODEL       92
REMARK 921   NORMALIZED FREE ENERGY PREDICTED BY IDOCK:   -4.69 KCAL/MOL
REMARK 922        TOTAL FREE ENERGY PREDICTED BY IDOCK:   -6.00 KCAL/MOL
REMARK 923 INTER-LIGAND FREE ENERGY PREDICTED BY IDOCK:   -5.73 KCAL/MOL
REMARK 924 INTRA-LIGAND FREE ENERGY PREDICTED BY IDOCK:   -0.27 KCAL/MOL
REMARK 927      BINDING AFFINITY PREDICTED BY RF-SCORE:    0.00 PKD
ROOT
HETATM    1  C   UNL     1     -11.984  11.334  69.462  1.00  0.00    -0.421 C  
HETATM    2  C   UNL     1     -11.429  12.393  68.602  1.00  0.00    -0.303 A  
HETATM    3  C   UNL     1     -11.965  13.458  67.925  1.00  0.00    -0.360 A  
HETATM    4  C   UNL     1     -10.855  14.086  67.302  1.00  0.00    -0.284 A  
HETATM    5  O   UNL     1     -10.084  12.366  68.395  1.00  0.00    -0.219 OA 
HETATM    6  N   UNL     1      -9.717  13.422  67.579  1.00  0.00    -0.219 NA 
ENDROOT
BRANCH   4   7
HETATM    7  C   UNL     1     -10.873  15.293  66.476  1.00  0.00    -0.311 C  
HETATM    8  O   UNL     1     -11.094  15.257  65.267  1.00  0.00    -0.355 OA 
HETATM    9  N   UNL     1     -10.637  16.468  67.188  1.00  0.00    -0.301 N  
HETATM   10  H   UNL     1     -10.547  16.437  68.204  1.00  0.00     0.000 HD 
BRANCH   9  11
HETATM   11  N   UNL     1     -10.519  17.701  66.509  1.00  0.00    -0.318 NA 
HETATM   12  H   UNL     1     -11.226  17.784  65.779  1.00  0.00     0.000 HD 
BRANCH  11  13
HETATM   13  C   UNL     1     -10.560  18.853  67.411  1.00  0.00    -0.460 C  
BRANCH  13  14
HETATM   14  C   UNL     1      -9.171  19.357  67.733  1.00  0.00    -0.382 A  
HETATM   15  C   UNL     1      -8.611  20.419  67.008  1.00  0.00    -0.370 A  
HETATM   16  C   UNL     1      -7.329  20.885  67.310  1.00  0.00    -0.378 A  
HETATM   17  C   UNL     1      -6.595  20.299  68.338  1.00  0.00    -0.335 A  
HETATM   18  C   UNL     1      -7.142  19.248  69.070  1.00  0.00    -0.391 A  
HETATM   19  C   UNL     1      -8.423  18.782  68.774  1.00  0.00    -0.320 A  
ENDBRANCH  13  14
ENDBRANCH  11  13
ENDBRANCH   9  11
ENDBRANCH   4   7
TORSDOF 4
ENDMDL
MODEL       93
REMARK 921   NORMALIZED FREE ENERGY PREDICTED BY IDOCK:   -4.68 KCAL/MOL
REMARK 922        TOTAL FREE ENERGY PREDICTED BY IDOCK:   -5.99 KCAL/MOL
REMARK 923 INTER-LIGAND FREE ENERGY PREDICTED BY IDOCK:   -5.60 KCAL/MOL
REMARK 924 INTRA-LIGAND FREE ENERGY PREDICTED BY IDOCK:   -0.39 KCAL/MOL
REMARK 927      BINDING AFFINITY PREDICTED BY RF-SCORE:    0.00 PKD
ROOT
HETATM    1  C   UNL     1     -11.605  15.823  64.294  1.00  0.00    -0.192 C  
HETATM    2  C   UNL     1     -11.146  14.773  65.220  1.00  0.00    -0.370 A  
HETATM    3  C   UNL     1     -11.286  14.555  66.567  1.00  0.00    -0.354 A  
HETATM    4  C   UNL     1     -10.603  13.334  66.807  1.00  0.00    -0.276 A  
HETATM    5  O   UNL     1     -10.417  13.761  64.678  1.00  0.00    -0.416 OA 
HETATM    6  N   UNL     1     -10.069  12.857  65.667  1.00  0.00    -0.282 NA 
ENDROOT
BRANCH   4   7
HETATM    7  C   UNL     1     -10.471  12.633  68.084  1.00  0.00    -0.231 C  
HETATM    8  O   UNL     1      -9.486  11.950  68.359  1.00  0.00    -0.200 OA 
HETATM    9  N   UNL     1     -11.546  12.830  68.949  1.00  0.00    -0.295 N  
HETATM   10  H   UNL     1     -12.291  13.480  68.695  1.00  0.00     0.000 HD 
BRANCH   9  11
HETATM   11  N   UNL     1     -11.610  12.134  70.176  1.00  0.00    -0.536 NA 
HETATM   12  H   UNL     1     -11.958  12.737  70.921  1.00  0.00     0.000 HD 
BRANCH  11  13
HETATM   13  C   UNL     1     -12.396  10.901  70.091  1.00  0.00    -0.322 C  
BRANCH  13  14
HETATM   14  C   UNL     1     -11.741   9.770  70.853  1.00  0.00    -0.429 A  
HETATM   15  C   UNL     1     -12.520   8.809  71.512  1.00  0.00    -0.374 A  
HETATM   16  C   UNL     1     -11.913   7.763  72.212  1.00  0.00    -0.356 A  
HETATM   17  C   UNL     1     -10.524   7.665  72.258  1.00  0.00    -0.289 A  
HETATM   18  C   UNL     1      -9.739   8.610  71.602  1.00  0.00    -0.348 A  
HETATM   19  C   UNL     1     -10.342   9.653  70.899  1.00  0.00    -0.334 A  
ENDBRANCH  13  14
ENDBRANCH  11  13
ENDBRANCH   9  11
ENDBRANCH   4   7
TORSDOF 4
ENDMDL
MODEL       94
REMARK 921   NORMALIZED FREE ENERGY PREDICTED BY IDOCK:   -4.66 KCAL/MOL
REMARK 922        TOTAL FREE ENERGY PREDICTED BY IDOCK:   -5.97 KCAL/MOL
REMARK 923 INTER-LIGAND FREE ENERGY PREDICTED BY IDOCK:   -5.89 KCAL/MOL
REMARK 924 INTRA-LIGAND FREE ENERGY PREDICTED BY IDOCK:   -0.08 KCAL/MOL
REMARK 927      BINDING AFFINITY PREDICTED BY RF-SCORE:    0.00 PKD
ROOT
HETATM    1  C   UNL     1     -10.371   6.918  73.586  1.00  0.00    -0.397 C  
HETATM    2  C   UNL     1     -11.108   7.942  72.826  1.00  0.00    -0.400 A  
HETATM    3  C   UNL     1     -10.755   8.883  71.893  1.00  0.00    -0.426 A  
HETATM    4  C   UNL     1     -11.970   9.533  71.558  1.00  0.00    -0.399 A  
HETATM    5  O   UNL     1     -12.447   8.022  73.054  1.00  0.00    -0.038 OA 
HETATM    6  N   UNL     1     -12.994   9.020  72.265  1.00  0.00    -0.413 NA 
ENDROOT
BRANCH   4   7
HETATM    7  C   UNL     1     -12.157  10.607  70.582  1.00  0.00    -0.365 C  
HETATM    8  O   UNL     1     -12.497  11.742  70.913  1.00  0.00    -0.372 OA 
HETATM    9  N   UNL     1     -11.897  10.225  69.267  1.00  0.00    -0.506 N  
HETATM   10  H   UNL     1     -11.534   9.293  69.071  1.00  0.00     0.000 HD 
BRANCH   9  11
HETATM   11  N   UNL     1     -12.135  11.125  68.204  1.00  0.00    -0.737 NA 
HETATM   12  H   UNL     1     -12.847  11.810  68.458  1.00  0.00     0.000 HD 
BRANCH  11  13
HETATM   13  C   UNL     1     -10.916  11.785  67.734  1.00  0.00    -0.225 C  
BRANCH  13  14
HETATM   14  C   UNL     1     -10.235  10.985  66.646  1.00  0.00    -0.280 A  
HETATM   15  C   UNL     1      -9.957   9.623  66.829  1.00  0.00    -0.289 A  
HETATM   16  C   UNL     1      -9.332   8.885  65.821  1.00  0.00    -0.286 A  
HETATM   17  C   UNL     1      -8.979   9.497  64.621  1.00  0.00    -0.266 A  
HETATM   18  C   UNL     1      -9.254  10.849  64.424  1.00  0.00    -0.223 A  
HETATM   19  C   UNL     1      -9.882  11.587  65.427  1.00  0.00    -0.271 A  
ENDBRANCH  13  14
ENDBRANCH  11  13
ENDBRANCH   9  11
ENDBRANCH   4   7
TORSDOF 4
ENDMDL
MODEL       95
REMARK 921   NORMALIZED FREE ENERGY PREDICTED BY IDOCK:   -4.64 KCAL/MOL
REMARK 922        TOTAL FREE ENERGY PREDICTED BY IDOCK:   -5.94 KCAL/MOL
REMARK 923 INTER-LIGAND FREE ENERGY PREDICTED BY IDOCK:   -5.57 KCAL/MOL
REMARK 924 INTRA-LIGAND FREE ENERGY PREDICTED BY IDOCK:   -0.37 KCAL/MOL
REMARK 927      BINDING AFFINITY PREDICTED BY RF-SCORE:    0.00 PKD
ROOT
HETATM    1  C   UNL     1      -9.306   9.690  64.086  1.00  0.00    -0.148 C  
HETATM    2  C   UNL     1     -10.185  10.835  64.379  1.00  0.00    -0.364 A  
HETATM    3  C   UNL     1     -10.700  11.380  65.527  1.00  0.00    -0.313 A  
HETATM    4  C   UNL     1     -11.463  12.493  65.089  1.00  0.00    -0.328 A  
HETATM    5  O   UNL     1     -10.616  11.560  63.311  1.00  0.00    -0.370 OA 
HETATM    6  N   UNL     1     -11.420  12.599  63.747  1.00  0.00    -0.434 NA 
ENDROOT
BRANCH   4   7
HETATM    7  C   UNL     1     -12.203  13.439  65.923  1.00  0.00    -0.450 C  
HETATM    8  O   UNL     1     -13.221  14.005  65.528  1.00  0.00    -0.710 OA 
HETATM    9  N   UNL     1     -11.659  13.616  67.194  1.00  0.00    -0.341 N  
HETATM   10  H   UNL     1     -10.865  13.049  67.490  1.00  0.00     0.000 HD 
BRANCH   9  11
HETATM   11  N   UNL     1     -12.204  14.576  68.075  1.00  0.00    -0.603 NA 
HETATM   12  H   UNL     1     -12.138  14.263  69.043  1.00  0.00     0.000 HD 
BRANCH  11  13
HETATM   13  C   UNL     1     -11.606  15.902  67.911  1.00  0.00    -0.109 C  
BRANCH  13  14
HETATM   14  C   UNL     1     -10.095  15.841  67.964  1.00  0.00    -0.228 A  
HETATM   15  C   UNL     1      -9.330  16.085  66.815  1.00  0.00    -0.260 A  
HETATM   16  C   UNL     1      -7.934  16.032  66.868  1.00  0.00    -0.283 A  
HETATM   17  C   UNL     1      -7.290  15.737  68.067  1.00  0.00    -0.135 A  
HETATM   18  C   UNL     1      -8.039  15.499  69.218  1.00  0.00    -0.248 A  
HETATM   19  C   UNL     1      -9.432  15.555  69.169  1.00  0.00    -0.246 A  
ENDBRANCH  13  14
ENDBRANCH  11  13
ENDBRANCH   9  11
ENDBRANCH   4   7
TORSDOF 4
ENDMDL
MODEL       96
REMARK 921   NORMALIZED FREE ENERGY PREDICTED BY IDOCK:   -4.63 KCAL/MOL
REMARK 922        TOTAL FREE ENERGY PREDICTED BY IDOCK:   -5.93 KCAL/MOL
REMARK 923 INTER-LIGAND FREE ENERGY PREDICTED BY IDOCK:   -5.48 KCAL/MOL
REMARK 924 INTRA-LIGAND FREE ENERGY PREDICTED BY IDOCK:   -0.45 KCAL/MOL
REMARK 927      BINDING AFFINITY PREDICTED BY RF-SCORE:    0.00 PKD
ROOT
HETATM    1  C   UNL     1      -6.664  20.529  66.064  1.00  0.00    -0.270 C  
HETATM    2  C   UNL     1      -7.413  19.283  66.301  1.00  0.00    -0.271 A  
HETATM    3  C   UNL     1      -7.153  18.124  66.988  1.00  0.00    -0.217 A  
HETATM    4  C   UNL     1      -8.322  17.337  66.821  1.00  0.00    -0.245 A  
HETATM    5  O   UNL     1      -8.650  19.202  65.743  1.00  0.00    -0.408 OA 
HETATM    6  N   UNL     1      -9.226  17.984  66.061  1.00  0.00    -0.522 NA 
ENDROOT
BRANCH   4   7
HETATM    7  C   UNL     1      -8.579  16.009  67.379  1.00  0.00    -0.178 C  
HETATM    8  O   UNL     1      -8.270  14.978  66.785  1.00  0.00    -0.204 OA 
HETATM    9  N   UNL     1      -9.179  16.033  68.636  1.00  0.00    -0.206 N  
HETATM   10  H   UNL     1      -9.329  16.923  69.112  1.00  0.00     0.000 HD 
BRANCH   9  11
HETATM   11  N   UNL     1      -9.583  14.829  69.255  1.00  0.00    -0.389 NA 
HETATM   12  H   UNL     1      -9.248  14.783  70.217  1.00  0.00     0.000 HD 
BRANCH  11  13
HETATM   13  C   UNL     1     -11.031  14.616  69.194  1.00  0.00    -0.262 C  
BRANCH  13  14
HETATM   14  C   UNL     1     -11.433  13.894  67.927  1.00  0.00    -0.350 A  
HETATM   15  C   UNL     1     -12.149  14.560  66.922  1.00  0.00    -0.309 A  
HETATM   16  C   UNL     1     -12.515  13.892  65.751  1.00  0.00    -0.530 A  
HETATM   17  C   UNL     1     -12.170  12.556  65.570  1.00  0.00    -0.442 A  
HETATM   18  C   UNL     1     -11.454  11.883  66.558  1.00  0.00    -0.381 A  
HETATM   19  C   UNL     1     -11.083  12.548  67.727  1.00  0.00    -0.291 A  
ENDBRANCH  13  14
ENDBRANCH  11  13
ENDBRANCH   9  11
ENDBRANCH   4   7
TORSDOF 4
ENDMDL
MODEL       97
REMARK 921   NORMALIZED FREE ENERGY PREDICTED BY IDOCK:   -4.63 KCAL/MOL
REMARK 922        TOTAL FREE ENERGY PREDICTED BY IDOCK:   -5.93 KCAL/MOL
REMARK 923 INTER-LIGAND FREE ENERGY PREDICTED BY IDOCK:   -5.70 KCAL/MOL
REMARK 924 INTRA-LIGAND FREE ENERGY PREDICTED BY IDOCK:   -0.23 KCAL/MOL
REMARK 927      BINDING AFFINITY PREDICTED BY RF-SCORE:    0.00 PKD
ROOT
HETATM    1  C   UNL     1      -7.889  18.324  66.327  1.00  0.00    -0.279 C  
HETATM    2  C   UNL     1      -8.504  17.073  66.804  1.00  0.00    -0.234 A  
HETATM    3  C   UNL     1      -9.760  16.723  67.230  1.00  0.00    -0.250 A  
HETATM    4  C   UNL     1      -9.667  15.339  67.530  1.00  0.00    -0.204 A  
HETATM    5  O   UNL     1      -7.697  15.979  66.853  1.00  0.00    -0.208 OA 
HETATM    6  N   UNL     1      -8.417  14.889  67.310  1.00  0.00    -0.194 NA 
ENDROOT
BRANCH   4   7
HETATM    7  C   UNL     1     -10.740  14.464  68.001  1.00  0.00    -0.241 C  
HETATM    8  O   UNL     1     -11.847  14.437  67.465  1.00  0.00    -0.373 OA 
HETATM    9  N   UNL     1     -10.381  13.667  69.086  1.00  0.00    -0.432 N  
HETATM   10  H   UNL     1      -9.420  13.674  69.427  1.00  0.00     0.000 HD 
BRANCH   9  11
HETATM   11  N   UNL     1     -11.344  12.848  69.717  1.00  0.00    -0.497 NA 
HETATM   12  H   UNL     1     -12.273  13.263  69.655  1.00  0.00     0.000 HD 
BRANCH  11  13
HETATM   13  C   UNL     1     -11.348  11.477  69.203  1.00  0.00    -0.286 C  
BRANCH  13  14
HETATM   14  C   UNL     1     -11.817  10.492  70.251  1.00  0.00    -0.418 A  
HETATM   15  C   UNL     1     -12.910  10.792  71.076  1.00  0.00    -0.480 A  
HETATM   16  C   UNL     1     -13.343   9.879  72.041  1.00  0.00    -0.532 A  
HETATM   17  C   UNL     1     -12.692   8.657  72.190  1.00  0.00    -0.447 A  
HETATM   18  C   UNL     1     -11.608   8.343  71.373  1.00  0.00    -0.332 A  
HETATM   19  C   UNL     1     -11.176   9.251  70.406  1.00  0.00    -0.290 A  
ENDBRANCH  13  14
ENDBRANCH  11  13
ENDBRANCH   9  11
ENDBRANCH   4   7
TORSDOF 4
ENDMDL
MODEL       98
REMARK 921   NORMALIZED FREE ENERGY PREDICTED BY IDOCK:   -4.62 KCAL/MOL
REMARK 922        TOTAL FREE ENERGY PREDICTED BY IDOCK:   -5.92 KCAL/MOL
REMARK 923 INTER-LIGAND FREE ENERGY PREDICTED BY IDOCK:   -5.70 KCAL/MOL
REMARK 924 INTRA-LIGAND FREE ENERGY PREDICTED BY IDOCK:   -0.22 KCAL/MOL
REMARK 927      BINDING AFFINITY PREDICTED BY RF-SCORE:    0.00 PKD
ROOT
HETATM    1  C   UNL     1      -9.780   4.440  69.126  1.00  0.00    -0.240 C  
HETATM    2  C   UNL     1     -10.285   5.769  69.512  1.00  0.00    -0.239 A  
HETATM    3  C   UNL     1     -10.933   6.265  70.615  1.00  0.00    -0.370 A  
HETATM    4  C   UNL     1     -11.112   7.645  70.337  1.00  0.00    -0.258 A  
HETATM    5  O   UNL     1     -10.093   6.775  68.618  1.00  0.00    -0.149 OA 
HETATM    6  N   UNL     1     -10.612   7.954  69.126  1.00  0.00    -0.206 NA 
ENDROOT
BRANCH   4   7
HETATM    7  C   UNL     1     -11.731   8.646  71.205  1.00  0.00    -0.289 C  
HETATM    8  O   UNL     1     -12.056   8.398  72.365  1.00  0.00    -0.371 OA 
HETATM    9  N   UNL     1     -11.894   9.892  70.602  1.00  0.00    -0.291 N  
HETATM   10  H   UNL     1     -11.523  10.056  69.666  1.00  0.00     0.000 HD 
BRANCH   9  11
HETATM   11  N   UNL     1     -12.573  10.928  71.280  1.00  0.00    -0.407 NA 
HETATM   12  H   UNL     1     -12.070  11.203  72.124  1.00  0.00     0.000 HD 
BRANCH  11  13
HETATM   13  C   UNL     1     -12.837  12.089  70.427  1.00  0.00     0.219 C  
BRANCH  13  14
HETATM   14  C   UNL     1     -12.640  13.387  71.178  1.00  0.00    -0.430 A  
HETATM   15  C   UNL     1     -11.788  14.381  70.675  1.00  0.00    -0.361 A  
HETATM   16  C   UNL     1     -11.612  15.581  71.369  1.00  0.00    -0.481 A  
HETATM   17  C   UNL     1     -12.283  15.802  72.569  1.00  0.00    -0.570 A  
HETATM   18  C   UNL     1     -13.137  14.825  73.077  1.00  0.00    -0.614 A  
HETATM   19  C   UNL     1     -13.319  13.627  72.385  1.00  0.00    -0.641 A  
ENDBRANCH  13  14
ENDBRANCH  11  13
ENDBRANCH   9  11
ENDBRANCH   4   7
TORSDOF 4
ENDMDL
MODEL       99
REMARK 921   NORMALIZED FREE ENERGY PREDICTED BY IDOCK:   -4.61 KCAL/MOL
REMARK 922        TOTAL FREE ENERGY PREDICTED BY IDOCK:   -5.91 KCAL/MOL
REMARK 923 INTER-LIGAND FREE ENERGY PREDICTED BY IDOCK:   -5.54 KCAL/MOL
REMARK 924 INTRA-LIGAND FREE ENERGY PREDICTED BY IDOCK:   -0.36 KCAL/MOL
REMARK 927      BINDING AFFINITY PREDICTED BY RF-SCORE:    0.00 PKD
ROOT
HETATM    1  C   UNL     1     -13.570  14.981  72.652  1.00  0.00    -0.566 C  
HETATM    2  C   UNL     1     -13.143  13.848  71.812  1.00  0.00    -0.377 A  
HETATM    3  C   UNL     1     -12.409  13.732  70.660  1.00  0.00    -0.445 A  
HETATM    4  C   UNL     1     -12.364  12.338  70.400  1.00  0.00    -0.228 A  
HETATM    5  O   UNL     1     -13.530  12.609  72.221  1.00  0.00    -0.561 OA 
HETATM    6  N   UNL     1     -13.048  11.657  71.339  1.00  0.00    -0.328 NA 
ENDROOT
BRANCH   4   7
HETATM    7  C   UNL     1     -11.677  11.668  69.296  1.00  0.00    -0.331 C  
HETATM    8  O   UNL     1     -11.009  10.649  69.460  1.00  0.00    -0.236 OA 
HETATM    9  N   UNL     1     -11.871  12.280  68.058  1.00  0.00    -0.348 N  
HETATM   10  H   UNL     1     -12.508  13.071  67.976  1.00  0.00     0.000 HD 
BRANCH   9  11
HETATM   11  N   UNL     1     -11.186  11.808  66.916  1.00  0.00    -0.314 NA 
HETATM   12  H   UNL     1     -11.816  11.298  66.298  1.00  0.00     0.000 HD 
BRANCH  11  13
HETATM   13  C   UNL     1     -10.488  12.872  66.192  1.00  0.00    -0.269 C  
BRANCH  13  14
HETATM   14  C   UNL     1     -10.213  14.063  67.083  1.00  0.00    -0.258 A  
HETATM   15  C   UNL     1      -9.118  14.062  67.958  1.00  0.00    -0.190 A  
HETATM   16  C   UNL     1      -8.863  15.166  68.776  1.00  0.00    -0.196 A  
HETATM   17  C   UNL     1      -9.697  16.280  68.729  1.00  0.00    -0.240 A  
HETATM   18  C   UNL     1     -10.785  16.296  67.859  1.00  0.00    -0.329 A  
HETATM   19  C   UNL     1     -11.040  15.198  67.037  1.00  0.00    -0.328 A  
ENDBRANCH  13  14
ENDBRANCH  11  13
ENDBRANCH   9  11
ENDBRANCH   4   7
TORSDOF 4
ENDMDL
MODEL      100
REMARK 921   NORMALIZED FREE ENERGY PREDICTED BY IDOCK:   -4.60 KCAL/MOL
REMARK 922        TOTAL FREE ENERGY PREDICTED BY IDOCK:   -5.90 KCAL/MOL
REMARK 923 INTER-LIGAND FREE ENERGY PREDICTED BY IDOCK:   -5.51 KCAL/MOL
REMARK 924 INTRA-LIGAND FREE ENERGY PREDICTED BY IDOCK:   -0.39 KCAL/MOL
REMARK 927      BINDING AFFINITY PREDICTED BY RF-SCORE:    0.00 PKD
ROOT
HETATM    1  C   UNL     1     -13.361  14.742  71.777  1.00  0.00    -0.444 C  
HETATM    2  C   UNL     1     -12.659  13.894  70.799  1.00  0.00    -0.354 A  
HETATM    3  C   UNL     1     -12.354  12.558  70.732  1.00  0.00    -0.376 A  
HETATM    4  C   UNL     1     -11.674  12.405  69.496  1.00  0.00    -0.322 A  
HETATM    5  O   UNL     1     -12.186  14.515  69.685  1.00  0.00    -0.316 OA 
HETATM    6  N   UNL     1     -11.564  13.589  68.865  1.00  0.00    -0.299 NA 
ENDROOT
BRANCH   4   7
HETATM    7  C   UNL     1     -11.153  11.164  68.923  1.00  0.00    -0.237 C  
HETATM    8  O   UNL     1     -11.845  10.419  68.232  1.00  0.00    -0.324 OA 
HETATM    9  N   UNL     1      -9.812  10.926  69.219  1.00  0.00    -0.396 N  
HETATM   10  H   UNL     1      -9.270  11.628  69.724  1.00  0.00     0.000 HD 
BRANCH   9  11
HETATM   11  N   UNL     1      -9.199   9.717  68.824  1.00  0.00    -0.138 NA 
HETATM   12  H   UNL     1      -8.387   9.895  68.233  1.00  0.00     0.000 HD 
BRANCH  11  13
HETATM   13  C   UNL     1      -8.843   8.862  69.958  1.00  0.00    -0.160 C  
BRANCH  13  14
HETATM   14  C   UNL     1     -10.072   8.310  70.646  1.00  0.00    -0.212 A  
HETATM   15  C   UNL     1     -10.611   8.952  71.769  1.00  0.00    -0.432 A  
HETATM   16  C   UNL     1     -11.749   8.443  72.400  1.00  0.00    -0.452 A  
HETATM   17  C   UNL     1     -12.360   7.290  71.915  1.00  0.00    -0.346 A  
HETATM   18  C   UNL     1     -11.839   6.645  70.795  1.00  0.00    -0.441 A  
HETATM   19  C   UNL     1     -10.705   7.153  70.161  1.00  0.00    -0.260 A  
ENDBRANCH  13  14
ENDBRANCH  11  13
ENDBRANCH   9  11
ENDBRANCH   4   7
TORSDOF 4
ENDMDL
MODEL      101
REMARK 921   NORMALIZED FREE ENERGY PREDICTED BY IDOCK:   -4.59 KCAL/MOL
REMARK 922        TOTAL FREE ENERGY PREDICTED BY IDOCK:   -5.88 KCAL/MOL
REMARK 923 INTER-LIGAND FREE ENERGY PREDICTED BY IDOCK:   -5.61 KCAL/MOL
REMARK 924 INTRA-LIGAND FREE ENERGY PREDICTED BY IDOCK:   -0.27 KCAL/MOL
REMARK 927      BINDING AFFINITY PREDICTED BY RF-SCORE:    0.00 PKD
ROOT
HETATM    1  C   UNL     1     -12.124  16.062  72.088  1.00  0.00    -0.611 C  
HETATM    2  C   UNL     1     -11.862  15.240  70.894  1.00  0.00    -0.341 A  
HETATM    3  C   UNL     1     -12.485  14.164  70.316  1.00  0.00    -0.416 A  
HETATM    4  C   UNL     1     -11.708  13.873  69.165  1.00  0.00    -0.338 A  
HETATM    5  O   UNL     1     -10.772  15.575  70.153  1.00  0.00    -0.293 OA 
HETATM    6  N   UNL     1     -10.667  14.721  69.068  1.00  0.00    -0.243 NA 
ENDROOT
BRANCH   4   7
HETATM    7  C   UNL     1     -11.955  12.825  68.175  1.00  0.00    -0.246 C  
HETATM    8  O   UNL     1     -12.046  11.638  68.485  1.00  0.00    -0.491 OA 
HETATM    9  N   UNL     1     -12.095  13.301  66.872  1.00  0.00    -0.365 N  
HETATM   10  H   UNL     1     -12.097  14.306  66.696  1.00  0.00     0.000 HD 
BRANCH   9  11
HETATM   11  N   UNL     1     -12.233  12.398  65.795  1.00  0.00    -0.638 NA 
HETATM   12  H   UNL     1     -13.023  12.654  65.204  1.00  0.00     0.000 HD 
BRANCH  11  13
HETATM   13  C   UNL     1     -11.008  12.266  65.003  1.00  0.00    -0.302 C  
BRANCH  13  14
HETATM   14  C   UNL     1     -10.001  11.366  65.684  1.00  0.00    -0.282 A  
HETATM   15  C   UNL     1     -10.034   9.979  65.486  1.00  0.00    -0.367 A  
HETATM   16  C   UNL     1      -9.099   9.150  66.112  1.00  0.00    -0.234 A  
HETATM   17  C   UNL     1      -8.122   9.697  66.939  1.00  0.00    -0.113 A  
HETATM   18  C   UNL     1      -8.073  11.076  67.139  1.00  0.00    -0.134 A  
HETATM   19  C   UNL     1      -9.003  11.906  66.512  1.00  0.00    -0.199 A  
ENDBRANCH  13  14
ENDBRANCH  11  13
ENDBRANCH   9  11
ENDBRANCH   4   7
TORSDOF 4
ENDMDL
MODEL      102
REMARK 921   NORMALIZED FREE ENERGY PREDICTED BY IDOCK:   -4.58 KCAL/MOL
REMARK 922        TOTAL FREE ENERGY PREDICTED BY IDOCK:   -5.87 KCAL/MOL
REMARK 923 INTER-LIGAND FREE ENERGY PREDICTED BY IDOCK:   -5.63 KCAL/MOL
REMARK 924 INTRA-LIGAND FREE ENERGY PREDICTED BY IDOCK:   -0.23 KCAL/MOL
REMARK 927      BINDING AFFINITY PREDICTED BY RF-SCORE:    0.00 PKD
ROOT
HETATM    1  C   UNL     1     -10.431  19.929  68.216  1.00  0.00    -0.436 C  
HETATM    2  C   UNL     1     -10.424  18.853  67.210  1.00  0.00    -0.439 A  
HETATM    3  C   UNL     1     -10.254  17.493  67.261  1.00  0.00    -0.335 A  
HETATM    4  C   UNL     1     -10.384  17.063  65.916  1.00  0.00    -0.298 A  
HETATM    5  O   UNL     1     -10.631  19.228  65.919  1.00  0.00    -0.485 OA 
HETATM    6  N   UNL     1     -10.604  18.111  65.101  1.00  0.00    -0.372 NA 
ENDROOT
BRANCH   4   7
HETATM    7  C   UNL     1     -10.314  15.689  65.418  1.00  0.00    -0.393 C  
HETATM    8  O   UNL     1     -10.987  15.301  64.465  1.00  0.00    -0.334 OA 
HETATM    9  N   UNL     1      -9.408  14.885  66.109  1.00  0.00    -0.404 N  
HETATM   10  H   UNL     1      -8.816  15.292  66.833  1.00  0.00     0.000 HD 
BRANCH   9  11
HETATM   11  N   UNL     1      -9.307  13.508  65.811  1.00  0.00    -0.485 NA 
HETATM   12  H   UNL     1      -8.561  13.334  65.138  1.00  0.00     0.000 HD 
BRANCH  11  13
HETATM   13  C   UNL     1      -9.138  12.678  67.005  1.00  0.00    -0.215 C  
BRANCH  13  14
HETATM   14  C   UNL     1      -9.293  11.208  66.687  1.00  0.00    -0.194 A  
HETATM   15  C   UNL     1      -9.971  10.354  67.569  1.00  0.00    -0.215 A  
HETATM   16  C   UNL     1     -10.116   8.996  67.270  1.00  0.00    -0.297 A  
HETATM   17  C   UNL     1      -9.589   8.479  66.090  1.00  0.00    -0.276 A  
HETATM   18  C   UNL     1      -8.919   9.317  65.202  1.00  0.00    -0.257 A  
HETATM   19  C   UNL     1      -8.775  10.674  65.495  1.00  0.00    -0.199 A  
ENDBRANCH  13  14
ENDBRANCH  11  13
ENDBRANCH   9  11
ENDBRANCH   4   7
TORSDOF 4
ENDMDL
MODEL      103
REMARK 921   NORMALIZED FREE ENERGY PREDICTED BY IDOCK:   -4.56 KCAL/MOL
REMARK 922        TOTAL FREE ENERGY PREDICTED BY IDOCK:   -5.85 KCAL/MOL
REMARK 923 INTER-LIGAND FREE ENERGY PREDICTED BY IDOCK:   -5.53 KCAL/MOL
REMARK 924 INTRA-LIGAND FREE ENERGY PREDICTED BY IDOCK:   -0.31 KCAL/MOL
REMARK 927      BINDING AFFINITY PREDICTED BY RF-SCORE:    0.00 PKD
ROOT
HETATM    1  C   UNL     1      -8.674   7.635  67.186  1.00  0.00    -0.125 C  
HETATM    2  C   UNL     1      -9.011   8.616  66.141  1.00  0.00    -0.180 A  
HETATM    3  C   UNL     1      -9.824   9.719  66.087  1.00  0.00    -0.329 A  
HETATM    4  C   UNL     1      -9.667  10.219  64.769  1.00  0.00    -0.332 A  
HETATM    5  O   UNL     1      -8.409   8.447  64.932  1.00  0.00    -0.158 OA 
HETATM    6  N   UNL     1      -8.818   9.446  64.066  1.00  0.00    -0.206 NA 
ENDROOT
BRANCH   4   7
HETATM    7  C   UNL     1     -10.299  11.407  64.195  1.00  0.00    -0.344 C  
HETATM    8  O   UNL     1     -11.126  11.337  63.288  1.00  0.00    -0.270 OA 
HETATM    9  N   UNL     1      -9.888  12.603  64.782  1.00  0.00    -0.505 N  
HETATM   10  H   UNL     1      -9.265  12.585  65.589  1.00  0.00     0.000 HD 
BRANCH   9  11
HETATM   11  N   UNL     1     -10.332  13.840  64.263  1.00  0.00    -0.697 NA 
HETATM   12  H   UNL     1     -10.443  13.792  63.251  1.00  0.00     0.000 HD 
BRANCH  11  13
HETATM   13  C   UNL     1     -11.559  14.317  64.903  1.00  0.00    -0.384 C  
BRANCH  13  14
HETATM   14  C   UNL     1     -11.258  15.205  66.090  1.00  0.00    -0.271 A  
HETATM   15  C   UNL     1     -11.766  14.896  67.360  1.00  0.00    -0.311 A  
HETATM   16  C   UNL     1     -11.483  15.715  68.456  1.00  0.00    -0.380 A  
HETATM   17  C   UNL     1     -10.689  16.848  68.297  1.00  0.00    -0.377 A  
HETATM   18  C   UNL     1     -10.173  17.163  67.042  1.00  0.00    -0.313 A  
HETATM   19  C   UNL     1     -10.450  16.345  65.946  1.00  0.00    -0.350 A  
ENDBRANCH  13  14
ENDBRANCH  11  13
ENDBRANCH   9  11
ENDBRANCH   4   7
TORSDOF 4
ENDMDL
MODEL      104
REMARK 921   NORMALIZED FREE ENERGY PREDICTED BY IDOCK:   -4.54 KCAL/MOL
REMARK 922        TOTAL FREE ENERGY PREDICTED BY IDOCK:   -5.82 KCAL/MOL
REMARK 923 INTER-LIGAND FREE ENERGY PREDICTED BY IDOCK:   -5.87 KCAL/MOL
REMARK 924 INTRA-LIGAND FREE ENERGY PREDICTED BY IDOCK:    0.06 KCAL/MOL
REMARK 927      BINDING AFFINITY PREDICTED BY RF-SCORE:    0.00 PKD
ROOT
HETATM    1  C   UNL     1      -6.074  16.866  68.490  1.00  0.00    -0.144 C  
HETATM    2  C   UNL     1      -7.172  16.901  67.510  1.00  0.00    -0.149 A  
HETATM    3  C   UNL     1      -8.057  15.971  67.027  1.00  0.00    -0.257 A  
HETATM    4  C   UNL     1      -8.867  16.687  66.108  1.00  0.00    -0.288 A  
HETATM    5  O   UNL     1      -7.418  18.100  66.915  1.00  0.00    -0.196 OA 
HETATM    6  N   UNL     1      -8.476  17.973  66.032  1.00  0.00    -0.515 NA 
ENDROOT
BRANCH   4   7
HETATM    7  C   UNL     1      -9.991  16.166  65.330  1.00  0.00    -0.106 C  
HETATM    8  O   UNL     1     -10.873  16.896  64.882  1.00  0.00    -0.715 OA 
HETATM    9  N   UNL     1      -9.950  14.786  65.136  1.00  0.00    -0.449 N  
HETATM   10  H   UNL     1      -9.145  14.251  65.459  1.00  0.00     0.000 HD 
BRANCH   9  11
HETATM   11  N   UNL     1     -11.021  14.125  64.495  1.00  0.00    -0.568 NA 
HETATM   12  H   UNL     1     -10.906  14.143  63.482  1.00  0.00     0.000 HD 
BRANCH  11  13
HETATM   13  C   UNL     1     -11.215  12.756  64.976  1.00  0.00    -0.298 C  
BRANCH  13  14
HETATM   14  C   UNL     1     -11.465  12.722  66.468  1.00  0.00    -0.409 A  
HETATM   15  C   UNL     1     -11.879  13.875  67.149  1.00  0.00    -0.445 A  
HETATM   16  C   UNL     1     -12.114  13.839  68.526  1.00  0.00    -0.327 A  
HETATM   17  C   UNL     1     -11.939  12.654  69.236  1.00  0.00    -0.301 A  
HETATM   18  C   UNL     1     -11.533  11.499  68.570  1.00  0.00    -0.354 A  
HETATM   19  C   UNL     1     -11.303  11.530  67.194  1.00  0.00    -0.354 A  
ENDBRANCH  13  14
ENDBRANCH  11  13
ENDBRANCH   9  11
ENDBRANCH   4   7
TORSDOF 4
ENDMDL
MODEL      105
REMARK 921   NORMALIZED FREE ENERGY PREDICTED BY IDOCK:   -4.53 KCAL/MOL
REMARK 922        TOTAL FREE ENERGY PREDICTED BY IDOCK:   -5.81 KCAL/MOL
REMARK 923 INTER-LIGAND FREE ENERGY PREDICTED BY IDOCK:   -5.58 KCAL/MOL
REMARK 924 INTRA-LIGAND FREE ENERGY PREDICTED BY IDOCK:   -0.23 KCAL/MOL
REMARK 927      BINDING AFFINITY PREDICTED BY RF-SCORE:    0.00 PKD
ROOT
HETATM    1  C   UNL     1      -8.027   8.878  63.262  1.00  0.00    -0.157 C  
HETATM    2  C   UNL     1      -8.889   9.524  64.267  1.00  0.00    -0.213 A  
HETATM    3  C   UNL     1      -9.186   9.270  65.581  1.00  0.00    -0.291 A  
HETATM    4  C   UNL     1     -10.083  10.304  65.955  1.00  0.00    -0.244 A  
HETATM    5  O   UNL     1      -9.568  10.631  63.863  1.00  0.00    -0.253 OA 
HETATM    6  N   UNL     1     -10.322  11.124  64.915  1.00  0.00    -0.296 NA 
ENDROOT
BRANCH   4   7
HETATM    7  C   UNL     1     -10.688  10.515  67.270  1.00  0.00    -0.277 C  
HETATM    8  O   UNL     1     -11.007   9.580  68.003  1.00  0.00    -0.203 OA 
HETATM    9  N   UNL     1     -10.845  11.857  67.610  1.00  0.00    -0.217 N  
HETATM   10  H   UNL     1     -10.479  12.584  66.995  1.00  0.00     0.000 HD 
BRANCH   9  11
HETATM   11  N   UNL     1     -11.511  12.217  68.803  1.00  0.00    -0.285 NA 
HETATM   12  H   UNL     1     -10.938  12.001  69.619  1.00  0.00     0.000 HD 
BRANCH  11  13
HETATM   13  C   UNL     1     -11.936  13.618  68.817  1.00  0.00    -0.359 C  
BRANCH  13  14
HETATM   14  C   UNL     1     -12.492  14.017  70.166  1.00  0.00    -0.380 A  
HETATM   15  C   UNL     1     -12.970  13.045  71.056  1.00  0.00    -0.196 A  
HETATM   16  C   UNL     1     -13.480  13.416  72.304  1.00  0.00    -0.683 A  
HETATM   17  C   UNL     1     -13.515  14.757  72.675  1.00  0.00    -0.570 A  
HETATM   18  C   UNL     1     -13.037  15.733  71.802  1.00  0.00    -0.490 A  
HETATM   19  C   UNL     1     -12.524  15.366  70.558  1.00  0.00    -0.468 A  
ENDBRANCH  13  14
ENDBRANCH  11  13
ENDBRANCH   9  11
ENDBRANCH   4   7
TORSDOF 4
ENDMDL
MODEL      106
REMARK 921   NORMALIZED FREE ENERGY PREDICTED BY IDOCK:   -4.50 KCAL/MOL
REMARK 922        TOTAL FREE ENERGY PREDICTED BY IDOCK:   -5.77 KCAL/MOL
REMARK 923 INTER-LIGAND FREE ENERGY PREDICTED BY IDOCK:   -5.41 KCAL/MOL
REMARK 924 INTRA-LIGAND FREE ENERGY PREDICTED BY IDOCK:   -0.36 KCAL/MOL
REMARK 927      BINDING AFFINITY PREDICTED BY RF-SCORE:    0.00 PKD
ROOT
HETATM    1  C   UNL     1     -10.502   4.766  66.063  1.00  0.00    -0.332 C  
HETATM    2  C   UNL     1     -10.256   5.657  67.209  1.00  0.00    -0.206 A  
HETATM    3  C   UNL     1     -10.669   6.920  67.549  1.00  0.00    -0.368 A  
HETATM    4  C   UNL     1     -10.066   7.170  68.808  1.00  0.00    -0.173 A  
HETATM    5  O   UNL     1      -9.445   5.175  68.190  1.00  0.00    -0.117 OA 
HETATM    6  N   UNL     1      -9.318   6.119  69.194  1.00  0.00    -0.126 NA 
ENDROOT
BRANCH   4   7
HETATM    7  C   UNL     1     -10.206   8.372  69.630  1.00  0.00    -0.209 C  
HETATM    8  O   UNL     1      -9.458   9.341  69.509  1.00  0.00    -0.160 OA 
HETATM    9  N   UNL     1     -11.265   8.317  70.535  1.00  0.00    -0.278 N  
HETATM   10  H   UNL     1     -11.902   7.520  70.524  1.00  0.00     0.000 HD 
BRANCH   9  11
HETATM   11  N   UNL     1     -11.461   9.359  71.467  1.00  0.00    -0.376 NA 
HETATM   12  H   UNL     1     -10.745  10.079  71.366  1.00  0.00     0.000 HD 
BRANCH  11  13
HETATM   13  C   UNL     1     -12.802   9.942  71.396  1.00  0.00    -0.405 C  
BRANCH  13  14
HETATM   14  C   UNL     1     -12.748  11.432  71.144  1.00  0.00    -0.479 A  
HETATM   15  C   UNL     1     -13.409  12.325  72.000  1.00  0.00    -0.491 A  
HETATM   16  C   UNL     1     -13.354  13.702  71.768  1.00  0.00    -0.469 A  
HETATM   17  C   UNL     1     -12.639  14.201  70.682  1.00  0.00    -0.421 A  
HETATM   18  C   UNL     1     -11.973  13.325  69.827  1.00  0.00    -0.391 A  
HETATM   19  C   UNL     1     -12.023  11.950  70.059  1.00  0.00    -0.409 A  
ENDBRANCH  13  14
ENDBRANCH  11  13
ENDBRANCH   9  11
ENDBRANCH   4   7
TORSDOF 4
ENDMDL
MODEL      107
REMARK 921   NORMALIZED FREE ENERGY PREDICTED BY IDOCK:   -4.48 KCAL/MOL
REMARK 922        TOTAL FREE ENERGY PREDICTED BY IDOCK:   -5.74 KCAL/MOL
REMARK 923 INTER-LIGAND FREE ENERGY PREDICTED BY IDOCK:   -5.89 KCAL/MOL
REMARK 924 INTRA-LIGAND FREE ENERGY PREDICTED BY IDOCK:    0.15 KCAL/MOL
REMARK 927      BINDING AFFINITY PREDICTED BY RF-SCORE:    0.00 PKD
ROOT
HETATM    1  C   UNL     1     -12.754  15.948  73.992  1.00  0.00    -0.703 C  
HETATM    2  C   UNL     1     -12.616  15.020  72.856  1.00  0.00    -0.410 A  
HETATM    3  C   UNL     1     -11.860  15.012  71.712  1.00  0.00    -0.455 A  
HETATM    4  C   UNL     1     -12.208  13.800  71.060  1.00  0.00    -0.319 A  
HETATM    5  O   UNL     1     -13.381  13.896  72.893  1.00  0.00    -0.604 OA 
HETATM    6  N   UNL     1     -13.134  13.128  71.769  1.00  0.00    -0.403 NA 
ENDROOT
BRANCH   4   7
HETATM    7  C   UNL     1     -11.665  13.288  69.801  1.00  0.00    -0.284 C  
HETATM    8  O   UNL     1     -12.155  12.321  69.221  1.00  0.00    -0.258 OA 
HETATM    9  N   UNL     1     -10.569  14.006  69.327  1.00  0.00    -0.423 N  
HETATM   10  H   UNL     1     -10.266  14.852  69.811  1.00  0.00     0.000 HD 
BRANCH   9  11
HETATM   11  N   UNL     1      -9.873  13.568  68.178  1.00  0.00    -0.231 NA 
HETATM   12  H   UNL     1     -10.183  12.638  67.897  1.00  0.00     0.000 HD 
BRANCH  11  13
HETATM   13  C   UNL     1      -9.967  14.511  67.062  1.00  0.00    -0.255 C  
BRANCH  13  14
HETATM   14  C   UNL     1      -9.071  15.712  67.272  1.00  0.00    -0.217 A  
HETATM   15  C   UNL     1      -8.820  16.198  68.563  1.00  0.00    -0.200 A  
HETATM   16  C   UNL     1      -7.989  17.305  68.755  1.00  0.00    -0.250 A  
HETATM   17  C   UNL     1      -7.399  17.935  67.663  1.00  0.00    -0.211 A  
HETATM   18  C   UNL     1      -7.634  17.458  66.375  1.00  0.00    -0.342 A  
HETATM   19  C   UNL     1      -8.460  16.351  66.180  1.00  0.00    -0.329 A  
ENDBRANCH  13  14
ENDBRANCH  11  13
ENDBRANCH   9  11
ENDBRANCH   4   7
TORSDOF 4
ENDMDL
MODEL      108
REMARK 921   NORMALIZED FREE ENERGY PREDICTED BY IDOCK:   -4.47 KCAL/MOL
REMARK 922        TOTAL FREE ENERGY PREDICTED BY IDOCK:   -5.73 KCAL/MOL
REMARK 923 INTER-LIGAND FREE ENERGY PREDICTED BY IDOCK:   -5.55 KCAL/MOL
REMARK 924 INTRA-LIGAND FREE ENERGY PREDICTED BY IDOCK:   -0.18 KCAL/MOL
REMARK 927      BINDING AFFINITY PREDICTED BY RF-SCORE:    0.00 PKD
ROOT
HETATM    1  C   UNL     1     -12.734  11.651  63.486  1.00  0.00    -0.275 C  
HETATM    2  C   UNL     1     -12.045  12.836  64.026  1.00  0.00    -0.457 A  
HETATM    3  C   UNL     1     -12.171  14.188  63.835  1.00  0.00    -0.288 A  
HETATM    4  C   UNL     1     -11.196  14.765  64.690  1.00  0.00    -0.342 A  
HETATM    5  O   UNL     1     -11.053  12.604  64.927  1.00  0.00    -0.282 OA 
HETATM    6  N   UNL     1     -10.514  13.808  65.346  1.00  0.00    -0.315 NA 
ENDROOT
BRANCH   4   7
HETATM    7  C   UNL     1     -10.929  16.190  64.888  1.00  0.00    -0.349 C  
HETATM    8  O   UNL     1     -11.353  17.050  64.118  1.00  0.00    -1.164 OA 
HETATM    9  N   UNL     1     -10.174  16.469  66.026  1.00  0.00    -0.342 N  
HETATM   10  H   UNL     1      -9.928  15.717  66.669  1.00  0.00     0.000 HD 
BRANCH   9  11
HETATM   11  N   UNL     1      -9.747  17.789  66.291  1.00  0.00    -0.430 NA 
HETATM   12  H   UNL     1     -10.068  18.098  67.208  1.00  0.00     0.000 HD 
BRANCH  11  13
HETATM   13  C   UNL     1      -8.299  17.956  66.159  1.00  0.00    -0.128 C  
BRANCH  13  14
HETATM   14  C   UNL     1      -7.550  17.170  67.213  1.00  0.00    -0.192 A  
HETATM   15  C   UNL     1      -7.265  17.742  68.461  1.00  0.00    -0.259 A  
HETATM   16  C   UNL     1      -6.577  17.012  69.435  1.00  0.00    -0.225 A  
HETATM   17  C   UNL     1      -6.170  15.707  69.174  1.00  0.00    -0.119 A  
HETATM   18  C   UNL     1      -6.453  15.124  67.940  1.00  0.00    -0.176 A  
HETATM   19  C   UNL     1      -7.143  15.848  66.967  1.00  0.00    -0.207 A  
ENDBRANCH  13  14
ENDBRANCH  11  13
ENDBRANCH   9  11
ENDBRANCH   4   7
TORSDOF 4
ENDMDL
MODEL      109
REMARK 921   NORMALIZED FREE ENERGY PREDICTED BY IDOCK:   -4.47 KCAL/MOL
REMARK 922        TOTAL FREE ENERGY PREDICTED BY IDOCK:   -5.73 KCAL/MOL
REMARK 923 INTER-LIGAND FREE ENERGY PREDICTED BY IDOCK:   -5.45 KCAL/MOL
REMARK 924 INTRA-LIGAND FREE ENERGY PREDICTED BY IDOCK:   -0.28 KCAL/MOL
REMARK 927      BINDING AFFINITY PREDICTED BY RF-SCORE:    0.00 PKD
ROOT
HETATM    1  C   UNL     1     -10.934   7.253  70.389  1.00  0.00    -0.273 C  
HETATM    2  C   UNL     1     -11.512   8.551  70.776  1.00  0.00    -0.253 A  
HETATM    3  C   UNL     1     -11.252   9.855  70.440  1.00  0.00    -0.379 A  
HETATM    4  C   UNL     1     -12.203  10.613  71.171  1.00  0.00    -0.374 A  
HETATM    5  O   UNL     1     -12.545   8.517  71.661  1.00  0.00    -0.310 OA 
HETATM    6  N   UNL     1     -12.981   9.806  71.917  1.00  0.00    -0.417 NA 
ENDROOT
BRANCH   4   7
HETATM    7  C   UNL     1     -12.377  12.065  71.153  1.00  0.00    -0.177 C  
HETATM    8  O   UNL     1     -13.174  12.640  71.892  1.00  0.00    -0.450 OA 
HETATM    9  N   UNL     1     -11.549  12.720  70.243  1.00  0.00    -0.535 N  
HETATM   10  H   UNL     1     -10.848  12.193  69.722  1.00  0.00     0.000 HD 
BRANCH   9  11
HETATM   11  N   UNL     1     -11.678  14.112  70.037  1.00  0.00    -0.314 NA 
HETATM   12  H   UNL     1     -10.884  14.614  70.435  1.00  0.00     0.000 HD 
BRANCH  11  13
HETATM   13  C   UNL     1     -11.868  14.464  68.629  1.00  0.00    -0.331 C  
BRANCH  13  14
HETATM   14  C   UNL     1     -10.778  15.390  68.136  1.00  0.00    -0.271 A  
HETATM   15  C   UNL     1     -10.053  16.183  69.036  1.00  0.00    -0.247 A  
HETATM   16  C   UNL     1      -9.044  17.035  68.578  1.00  0.00    -0.259 A  
HETATM   17  C   UNL     1      -8.748  17.102  67.220  1.00  0.00    -0.213 A  
HETATM   18  C   UNL     1      -9.457  16.315  66.314  1.00  0.00    -0.347 A  
HETATM   19  C   UNL     1     -10.462  15.461  66.768  1.00  0.00    -0.299 A  
ENDBRANCH  13  14
ENDBRANCH  11  13
ENDBRANCH   9  11
ENDBRANCH   4   7
TORSDOF 4
ENDMDL
MODEL      110
REMARK 921   NORMALIZED FREE ENERGY PREDICTED BY IDOCK:   -4.47 KCAL/MOL
REMARK 922        TOTAL FREE ENERGY PREDICTED BY IDOCK:   -5.73 KCAL/MOL
REMARK 923 INTER-LIGAND FREE ENERGY PREDICTED BY IDOCK:   -5.33 KCAL/MOL
REMARK 924 INTRA-LIGAND FREE ENERGY PREDICTED BY IDOCK:   -0.40 KCAL/MOL
REMARK 927      BINDING AFFINITY PREDICTED BY RF-SCORE:    0.00 PKD
ROOT
HETATM    1  C   UNL     1     -10.512   7.269  67.015  1.00  0.00    -0.398 C  
HETATM    2  C   UNL     1      -9.916   8.559  67.404  1.00  0.00    -0.214 A  
HETATM    3  C   UNL     1     -10.185   9.869  67.104  1.00  0.00    -0.285 A  
HETATM    4  C   UNL     1      -9.227  10.613  67.840  1.00  0.00    -0.148 A  
HETATM    5  O   UNL     1      -8.856   8.506  68.256  1.00  0.00    -0.141 OA 
HETATM    6  N   UNL     1      -8.416   9.789  68.531  1.00  0.00    -0.113 NA 
ENDROOT
BRANCH   4   7
HETATM    7  C   UNL     1      -9.091  12.068  67.896  1.00  0.00    -0.183 C  
HETATM    8  O   UNL     1      -8.338  12.686  67.145  1.00  0.00    -0.181 OA 
HETATM    9  N   UNL     1      -9.901  12.673  68.855  1.00  0.00    -0.414 N  
HETATM   10  H   UNL     1     -10.567  12.112  69.385  1.00  0.00     0.000 HD 
BRANCH   9  11
HETATM   11  N   UNL     1      -9.802  14.062  69.097  1.00  0.00    -0.426 NA 
HETATM   12  H   UNL     1      -9.002  14.462  68.607  1.00  0.00     0.000 HD 
BRANCH  11  13
HETATM   13  C   UNL     1     -11.032  14.785  68.770  1.00  0.00    -0.259 C  
BRANCH  13  14
HETATM   14  C   UNL     1     -11.338  14.720  67.290  1.00  0.00    -0.366 A  
HETATM   15  C   UNL     1     -12.286  13.812  66.796  1.00  0.00    -0.440 A  
HETATM   16  C   UNL     1     -12.570  13.758  65.429  1.00  0.00    -0.534 A  
HETATM   17  C   UNL     1     -11.915  14.608  64.543  1.00  0.00    -0.473 A  
HETATM   18  C   UNL     1     -10.975  15.520  65.022  1.00  0.00    -0.454 A  
HETATM   19  C   UNL     1     -10.692  15.580  66.386  1.00  0.00    -0.303 A  
ENDBRANCH  13  14
ENDBRANCH  11  13
ENDBRANCH   9  11
ENDBRANCH   4   7
TORSDOF 4
ENDMDL
MODEL      111
REMARK 921   NORMALIZED FREE ENERGY PREDICTED BY IDOCK:   -4.46 KCAL/MOL
REMARK 922        TOTAL FREE ENERGY PREDICTED BY IDOCK:   -5.72 KCAL/MOL
REMARK 923 INTER-LIGAND FREE ENERGY PREDICTED BY IDOCK:   -5.49 KCAL/MOL
REMARK 924 INTRA-LIGAND FREE ENERGY PREDICTED BY IDOCK:   -0.23 KCAL/MOL
REMARK 927      BINDING AFFINITY PREDICTED BY RF-SCORE:    0.00 PKD
ROOT
HETATM    1  C   UNL     1      -6.207  16.758  67.494  1.00  0.00    -0.188 C  
HETATM    2  C   UNL     1      -7.627  16.565  67.834  1.00  0.00    -0.152 A  
HETATM    3  C   UNL     1      -8.676  15.914  67.237  1.00  0.00    -0.206 A  
HETATM    4  C   UNL     1      -9.772  16.113  68.116  1.00  0.00    -0.222 A  
HETATM    5  O   UNL     1      -8.057  17.133  68.993  1.00  0.00    -0.220 OA 
HETATM    6  N   UNL     1      -9.402  16.858  69.175  1.00  0.00    -0.183 NA 
ENDROOT
BRANCH   4   7
HETATM    7  C   UNL     1     -11.133  15.600  67.961  1.00  0.00    -0.335 C  
HETATM    8  O   UNL     1     -12.019  15.831  68.782  1.00  0.00    -0.374 OA 
HETATM    9  N   UNL     1     -11.324  14.852  66.801  1.00  0.00    -0.345 N  
HETATM   10  H   UNL     1     -10.571  14.771  66.118  1.00  0.00     0.000 HD 
BRANCH   9  11
HETATM   11  N   UNL     1     -12.557  14.203  66.566  1.00  0.00    -0.519 NA 
HETATM   12  H   UNL     1     -13.338  14.844  66.703  1.00  0.00     0.000 HD 
BRANCH  11  13
HETATM   13  C   UNL     1     -12.625  13.569  65.248  1.00  0.00    -0.468 C  
BRANCH  13  14
HETATM   14  C   UNL     1     -11.612  12.454  65.115  1.00  0.00    -0.408 A  
HETATM   15  C   UNL     1     -11.280  11.655  66.219  1.00  0.00    -0.332 A  
HETATM   16  C   UNL     1     -10.348  10.622  66.092  1.00  0.00    -0.291 A  
HETATM   17  C   UNL     1      -9.739  10.375  64.865  1.00  0.00    -0.372 A  
HETATM   18  C   UNL     1     -10.064  11.157  63.758  1.00  0.00    -0.416 A  
HETATM   19  C   UNL     1     -10.998  12.186  63.880  1.00  0.00    -0.463 A  
ENDBRANCH  13  14
ENDBRANCH  11  13
ENDBRANCH   9  11
ENDBRANCH   4   7
TORSDOF 4
ENDMDL
MODEL      112
REMARK 921   NORMALIZED FREE ENERGY PREDICTED BY IDOCK:   -4.46 KCAL/MOL
REMARK 922        TOTAL FREE ENERGY PREDICTED BY IDOCK:   -5.72 KCAL/MOL
REMARK 923 INTER-LIGAND FREE ENERGY PREDICTED BY IDOCK:   -5.54 KCAL/MOL
REMARK 924 INTRA-LIGAND FREE ENERGY PREDICTED BY IDOCK:   -0.17 KCAL/MOL
REMARK 927      BINDING AFFINITY PREDICTED BY RF-SCORE:    0.00 PKD
ROOT
HETATM    1  C   UNL     1      -8.677   4.019  65.001  1.00  0.00    -0.117 C  
HETATM    2  C   UNL     1      -9.207   4.746  66.167  1.00  0.00    -0.144 A  
HETATM    3  C   UNL     1      -9.832   4.370  67.328  1.00  0.00    -0.207 A  
HETATM    4  C   UNL     1     -10.061   5.585  68.025  1.00  0.00    -0.175 A  
HETATM    5  O   UNL     1      -9.076   6.100  66.150  1.00  0.00    -0.154 OA 
HETATM    6  N   UNL     1      -9.611   6.633  67.310  1.00  0.00    -0.128 NA 
ENDROOT
BRANCH   4   7
HETATM    7  C   UNL     1     -10.679   5.744  69.341  1.00  0.00    -0.326 C  
HETATM    8  O   UNL     1     -10.421   4.996  70.282  1.00  0.00    -0.261 OA 
HETATM    9  N   UNL     1     -11.560   6.821  69.423  1.00  0.00    -0.624 N  
HETATM   10  H   UNL     1     -11.662   7.456  68.631  1.00  0.00     0.000 HD 
BRANCH   9  11
HETATM   11  N   UNL     1     -12.312   7.039  70.599  1.00  0.00    -0.601 NA 
HETATM   12  H   UNL     1     -12.564   6.154  71.039  1.00  0.00     0.000 HD 
BRANCH  11  13
HETATM   13  C   UNL     1     -11.637   7.924  71.550  1.00  0.00    -0.270 C  
BRANCH  13  14
HETATM   14  C   UNL     1     -11.884   9.380  71.225  1.00  0.00    -0.435 A  
HETATM   15  C   UNL     1     -11.147  10.023  70.220  1.00  0.00    -0.381 A  
HETATM   16  C   UNL     1     -11.381  11.367  69.919  1.00  0.00    -0.300 A  
HETATM   17  C   UNL     1     -12.351  12.083  70.616  1.00  0.00    -0.394 A  
HETATM   18  C   UNL     1     -13.095  11.455  71.613  1.00  0.00    -0.498 A  
HETATM   19  C   UNL     1     -12.867  10.112  71.913  1.00  0.00    -0.526 A  
ENDBRANCH  13  14
ENDBRANCH  11  13
ENDBRANCH   9  11
ENDBRANCH   4   7
TORSDOF 4
ENDMDL
MODEL      113
REMARK 921   NORMALIZED FREE ENERGY PREDICTED BY IDOCK:   -4.45 KCAL/MOL
REMARK 922        TOTAL FREE ENERGY PREDICTED BY IDOCK:   -5.71 KCAL/MOL
REMARK 923 INTER-LIGAND FREE ENERGY PREDICTED BY IDOCK:   -5.78 KCAL/MOL
REMARK 924 INTRA-LIGAND FREE ENERGY PREDICTED BY IDOCK:    0.06 KCAL/MOL
REMARK 927      BINDING AFFINITY PREDICTED BY RF-SCORE:    0.00 PKD
ROOT
HETATM    1  C   UNL     1      -7.441  17.668  66.093  1.00  0.00    -0.334 C  
HETATM    2  C   UNL     1      -8.501  16.655  66.232  1.00  0.00    -0.320 A  
HETATM    3  C   UNL     1      -8.517  15.319  66.540  1.00  0.00    -0.202 A  
HETATM    4  C   UNL     1      -9.889  14.960  66.519  1.00  0.00    -0.266 A  
HETATM    5  O   UNL     1      -9.777  17.079  66.024  1.00  0.00    -0.421 OA 
HETATM    6  N   UNL     1     -10.653  16.021  66.199  1.00  0.00    -0.313 NA 
ENDROOT
BRANCH   4   7
HETATM    7  C   UNL     1     -10.462  13.644  66.807  1.00  0.00    -0.270 C  
HETATM    8  O   UNL     1     -10.196  12.652  66.131  1.00  0.00    -0.248 OA 
HETATM    9  N   UNL     1     -11.307  13.628  67.914  1.00  0.00    -0.280 N  
HETATM   10  H   UNL     1     -11.416  14.467  68.483  1.00  0.00     0.000 HD 
BRANCH   9  11
HETATM   11  N   UNL     1     -12.016  12.453  68.252  1.00  0.00    -0.333 NA 
HETATM   12  H   UNL     1     -11.876  11.728  67.549  1.00  0.00     0.000 HD 
BRANCH  11  13
HETATM   13  C   UNL     1     -11.688  11.957  69.589  1.00  0.00    -0.343 C  
BRANCH  13  14
HETATM   14  C   UNL     1     -12.333  12.798  70.668  1.00  0.00    -0.381 A  
HETATM   15  C   UNL     1     -13.262  12.234  71.554  1.00  0.00    -0.268 A  
HETATM   16  C   UNL     1     -13.853  13.013  72.553  1.00  0.00    -0.420 A  
HETATM   17  C   UNL     1     -13.522  14.360  72.678  1.00  0.00    -0.605 A  
HETATM   18  C   UNL     1     -12.596  14.931  71.808  1.00  0.00    -0.398 A  
HETATM   19  C   UNL     1     -12.001  14.156  70.813  1.00  0.00    -0.377 A  
ENDBRANCH  13  14
ENDBRANCH  11  13
ENDBRANCH   9  11
ENDBRANCH   4   7
TORSDOF 4
ENDMDL
MODEL      114
REMARK 921   NORMALIZED FREE ENERGY PREDICTED BY IDOCK:   -4.43 KCAL/MOL
REMARK 922        TOTAL FREE ENERGY PREDICTED BY IDOCK:   -5.69 KCAL/MOL
REMARK 923 INTER-LIGAND FREE ENERGY PREDICTED BY IDOCK:   -5.45 KCAL/MOL
REMARK 924 INTRA-LIGAND FREE ENERGY PREDICTED BY IDOCK:   -0.23 KCAL/MOL
REMARK 927      BINDING AFFINITY PREDICTED BY RF-SCORE:    0.00 PKD
ROOT
HETATM    1  C   UNL     1      -9.980   4.475  67.090  1.00  0.00    -0.201 C  
HETATM    2  C   UNL     1     -10.229   5.832  67.606  1.00  0.00    -0.193 A  
HETATM    3  C   UNL     1     -10.354   6.373  68.859  1.00  0.00    -0.237 A  
HETATM    4  C   UNL     1     -10.571   7.757  68.635  1.00  0.00    -0.120 A  
HETATM    5  O   UNL     1     -10.373   6.817  66.679  1.00  0.00    -0.211 OA 
HETATM    6  N   UNL     1     -10.591   8.027  67.316  1.00  0.00    -0.313 NA 
ENDROOT
BRANCH   4   7
HETATM    7  C   UNL     1     -10.743   8.799  69.647  1.00  0.00    -0.208 C  
HETATM    8  O   UNL     1     -11.003   8.537  70.820  1.00  0.00    -0.235 OA 
HETATM    9  N   UNL     1     -10.567  10.093  69.160  1.00  0.00    -0.210 N  
HETATM   10  H   UNL     1     -10.267  10.237  68.196  1.00  0.00     0.000 HD 
BRANCH   9  11
HETATM   11  N   UNL     1     -10.805  11.207  69.996  1.00  0.00    -0.456 NA 
HETATM   12  H   UNL     1      -9.933  11.684  70.224  1.00  0.00     0.000 HD 
BRANCH  11  13
HETATM   13  C   UNL     1     -11.782  12.141  69.434  1.00  0.00    -0.329 C  
BRANCH  13  14
HETATM   14  C   UNL     1     -12.294  13.106  70.480  1.00  0.00    -0.380 A  
HETATM   15  C   UNL     1     -13.139  12.664  71.507  1.00  0.00    -0.373 A  
HETATM   16  C   UNL     1     -13.607  13.557  72.475  1.00  0.00    -0.674 A  
HETATM   17  C   UNL     1     -13.235  14.897  72.429  1.00  0.00    -0.476 A  
HETATM   18  C   UNL     1     -12.390  15.349  71.418  1.00  0.00    -0.442 A  
HETATM   19  C   UNL     1     -11.918  14.460  70.452  1.00  0.00    -0.395 A  
ENDBRANCH  13  14
ENDBRANCH  11  13
ENDBRANCH   9  11
ENDBRANCH   4   7
TORSDOF 4
ENDMDL
MODEL      115
REMARK 921   NORMALIZED FREE ENERGY PREDICTED BY IDOCK:   -4.43 KCAL/MOL
REMARK 922        TOTAL FREE ENERGY PREDICTED BY IDOCK:   -5.68 KCAL/MOL
REMARK 923 INTER-LIGAND FREE ENERGY PREDICTED BY IDOCK:   -5.76 KCAL/MOL
REMARK 924 INTRA-LIGAND FREE ENERGY PREDICTED BY IDOCK:    0.08 KCAL/MOL
REMARK 927      BINDING AFFINITY PREDICTED BY RF-SCORE:    0.00 PKD
ROOT
HETATM    1  C   UNL     1     -12.814  11.794  63.665  1.00  0.00    -0.339 C  
HETATM    2  C   UNL     1     -12.024  12.976  64.051  1.00  0.00    -0.456 A  
HETATM    3  C   UNL     1     -12.271  14.325  64.088  1.00  0.00    -0.410 A  
HETATM    4  C   UNL     1     -11.071  14.898  64.582  1.00  0.00    -0.323 A  
HETATM    5  O   UNL     1     -10.755  12.744  64.482  1.00  0.00    -0.316 OA 
HETATM    6  N   UNL     1     -10.149  13.945  64.814  1.00  0.00    -0.316 NA 
ENDROOT
BRANCH   4   7
HETATM    7  C   UNL     1     -10.811  16.314  64.839  1.00  0.00    -0.296 C  
HETATM    8  O   UNL     1     -11.409  17.210  64.246  1.00  0.00    -1.126 OA 
HETATM    9  N   UNL     1      -9.847  16.541  65.820  1.00  0.00    -0.285 N  
HETATM   10  H   UNL     1      -9.452  15.755  66.336  1.00  0.00     0.000 HD 
BRANCH   9  11
HETATM   11  N   UNL     1      -9.414  17.856  66.103  1.00  0.00    -0.502 NA 
HETATM   12  H   UNL     1      -9.915  18.536  65.532  1.00  0.00     0.000 HD 
BRANCH  11  13
HETATM   13  C   UNL     1      -9.511  18.193  67.524  1.00  0.00    -0.262 C  
BRANCH  13  14
HETATM   14  C   UNL     1      -9.829  16.976  68.364  1.00  0.00    -0.283 A  
HETATM   15  C   UNL     1     -11.152  16.536  68.512  1.00  0.00    -0.335 A  
HETATM   16  C   UNL     1     -11.443  15.409  69.285  1.00  0.00    -0.344 A  
HETATM   17  C   UNL     1     -10.418  14.709  69.915  1.00  0.00     0.045 A  
HETATM   18  C   UNL     1      -9.098  15.131  69.772  1.00  0.00     0.025 A  
HETATM   19  C   UNL     1      -8.804  16.254  68.998  1.00  0.00    -0.243 A  
ENDBRANCH  13  14
ENDBRANCH  11  13
ENDBRANCH   9  11
ENDBRANCH   4   7
TORSDOF 4
ENDMDL
MODEL      116
REMARK 921   NORMALIZED FREE ENERGY PREDICTED BY IDOCK:   -4.41 KCAL/MOL
REMARK 922        TOTAL FREE ENERGY PREDICTED BY IDOCK:   -5.66 KCAL/MOL
REMARK 923 INTER-LIGAND FREE ENERGY PREDICTED BY IDOCK:   -5.33 KCAL/MOL
REMARK 924 INTRA-LIGAND FREE ENERGY PREDICTED BY IDOCK:   -0.33 KCAL/MOL
REMARK 927      BINDING AFFINITY PREDICTED BY RF-SCORE:    0.00 PKD
ROOT
HETATM    1  C   UNL     1      -6.635  18.074  65.888  1.00  0.00    -0.319 C  
HETATM    2  C   UNL     1      -7.950  17.545  66.291  1.00  0.00    -0.268 A  
HETATM    3  C   UNL     1      -8.363  16.533  67.118  1.00  0.00    -0.206 A  
HETATM    4  C   UNL     1      -9.780  16.580  67.065  1.00  0.00    -0.250 A  
HETATM    5  O   UNL     1      -9.041  18.160  65.759  1.00  0.00    -0.466 OA 
HETATM    6  N   UNL     1     -10.192  17.558  66.237  1.00  0.00    -0.355 NA 
ENDROOT
BRANCH   4   7
HETATM    7  C   UNL     1     -10.720  15.725  67.791  1.00  0.00    -0.307 C  
HETATM    8  O   UNL     1     -11.741  16.168  68.313  1.00  0.00    -0.281 OA 
HETATM    9  N   UNL     1     -10.356  14.380  67.814  1.00  0.00    -0.236 N  
HETATM   10  H   UNL     1      -9.542  14.064  67.287  1.00  0.00     0.000 HD 
BRANCH   9  11
HETATM   11  N   UNL     1     -11.109  13.451  68.566  1.00  0.00    -0.257 NA 
HETATM   12  H   UNL     1     -11.628  13.919  69.309  1.00  0.00     0.000 HD 
BRANCH  11  13
HETATM   13  C   UNL     1     -11.999  12.637  67.737  1.00  0.00    -0.243 C  
BRANCH  13  14
HETATM   14  C   UNL     1     -11.235  11.570  66.983  1.00  0.00    -0.365 A  
HETATM   15  C   UNL     1     -10.947  11.727  65.620  1.00  0.00    -0.348 A  
HETATM   16  C   UNL     1     -10.238  10.743  64.927  1.00  0.00    -0.388 A  
HETATM   17  C   UNL     1      -9.808   9.595  65.587  1.00  0.00    -0.369 A  
HETATM   18  C   UNL     1     -10.082   9.429  66.943  1.00  0.00    -0.314 A  
HETATM   19  C   UNL     1     -10.786  10.411  67.639  1.00  0.00    -0.361 A  
ENDBRANCH  13  14
ENDBRANCH  11  13
ENDBRANCH   9  11
ENDBRANCH   4   7
TORSDOF 4
ENDMDL
MODEL      117
REMARK 921   NORMALIZED FREE ENERGY PREDICTED BY IDOCK:   -4.41 KCAL/MOL
REMARK 922        TOTAL FREE ENERGY PREDICTED BY IDOCK:   -5.66 KCAL/MOL
REMARK 923 INTER-LIGAND FREE ENERGY PREDICTED BY IDOCK:   -5.26 KCAL/MOL
REMARK 924 INTRA-LIGAND FREE ENERGY PREDICTED BY IDOCK:   -0.40 KCAL/MOL
REMARK 927      BINDING AFFINITY PREDICTED BY RF-SCORE:    0.00 PKD
ROOT
HETATM    1  C   UNL     1     -12.567  14.074  64.596  1.00  0.00    -0.281 C  
HETATM    2  C   UNL     1     -12.009  13.212  65.653  1.00  0.00    -0.415 A  
HETATM    3  C   UNL     1     -12.005  13.256  67.023  1.00  0.00    -0.419 A  
HETATM    4  C   UNL     1     -11.297  12.092  67.420  1.00  0.00    -0.327 A  
HETATM    5  O   UNL     1     -11.338  12.103  65.241  1.00  0.00    -0.324 OA 
HETATM    6  N   UNL     1     -10.885  11.397  66.342  1.00  0.00    -0.277 NA 
ENDROOT
BRANCH   4   7
HETATM    7  C   UNL     1     -11.028  11.645  68.786  1.00  0.00    -0.226 C  
HETATM    8  O   UNL     1     -10.133  10.844  69.050  1.00  0.00    -0.200 OA 
HETATM    9  N   UNL     1     -11.861  12.223  69.742  1.00  0.00    -0.347 N  
HETATM   10  H   UNL     1     -12.525  12.947  69.468  1.00  0.00     0.000 HD 
BRANCH   9  11
HETATM   11  N   UNL     1     -11.790  11.810  71.092  1.00  0.00    -0.061 NA 
HETATM   12  H   UNL     1     -11.492  12.577  71.693  1.00  0.00     0.000 HD 
BRANCH  11  13
HETATM   13  C   UNL     1     -13.042  11.224  71.573  1.00  0.00    -0.355 C  
BRANCH  13  14
HETATM   14  C   UNL     1     -12.960   9.715  71.641  1.00  0.00    -0.501 A  
HETATM   15  C   UNL     1     -11.844   9.086  72.212  1.00  0.00    -0.306 A  
HETATM   16  C   UNL     1     -11.773   7.692  72.278  1.00  0.00    -0.371 A  
HETATM   17  C   UNL     1     -12.813   6.913  71.777  1.00  0.00    -0.349 A  
HETATM   18  C   UNL     1     -13.930   7.525  71.212  1.00  0.00    -0.384 A  
HETATM   19  C   UNL     1     -14.006   8.917  71.149  1.00  0.00    -0.114 A  
ENDBRANCH  13  14
ENDBRANCH  11  13
ENDBRANCH   9  11
ENDBRANCH   4   7
TORSDOF 4
ENDMDL
MODEL      118
REMARK 921   NORMALIZED FREE ENERGY PREDICTED BY IDOCK:   -4.41 KCAL/MOL
REMARK 922        TOTAL FREE ENERGY PREDICTED BY IDOCK:   -5.65 KCAL/MOL
REMARK 923 INTER-LIGAND FREE ENERGY PREDICTED BY IDOCK:   -5.28 KCAL/MOL
REMARK 924 INTRA-LIGAND FREE ENERGY PREDICTED BY IDOCK:   -0.37 KCAL/MOL
REMARK 927      BINDING AFFINITY PREDICTED BY RF-SCORE:    0.00 PKD
ROOT
HETATM    1  C   UNL     1      -9.282   7.293  68.142  1.00  0.00    -0.132 C  
HETATM    2  C   UNL     1     -10.011   8.357  68.854  1.00  0.00    -0.187 A  
HETATM    3  C   UNL     1     -10.061   9.723  68.746  1.00  0.00    -0.187 A  
HETATM    4  C   UNL     1     -10.989  10.130  69.739  1.00  0.00    -0.280 A  
HETATM    5  O   UNL     1     -10.843   7.959  69.854  1.00  0.00    -0.247 OA 
HETATM    6  N   UNL     1     -11.457   9.065  70.417  1.00  0.00    -0.220 NA 
ENDROOT
BRANCH   4   7
HETATM    7  C   UNL     1     -11.429  11.494  70.030  1.00  0.00    -0.220 C  
HETATM    8  O   UNL     1     -12.374  11.733  70.781  1.00  0.00    -0.374 OA 
HETATM    9  N   UNL     1     -10.672  12.478  69.397  1.00  0.00    -0.437 N  
HETATM   10  H   UNL     1      -9.847  12.216  68.857  1.00  0.00     0.000 HD 
BRANCH   9  11
HETATM   11  N   UNL     1     -11.042  13.837  69.498  1.00  0.00    -0.431 NA 
HETATM   12  H   UNL     1     -10.234  14.446  69.372  1.00  0.00     0.000 HD 
BRANCH  11  13
HETATM   13  C   UNL     1     -12.121  14.203  68.579  1.00  0.00    -0.277 C  
BRANCH  13  14
HETATM   14  C   UNL     1     -11.702  14.038  67.135  1.00  0.00    -0.421 A  
HETATM   15  C   UNL     1     -12.217  12.990  66.358  1.00  0.00    -0.350 A  
HETATM   16  C   UNL     1     -11.831  12.842  65.023  1.00  0.00    -0.411 A  
HETATM   17  C   UNL     1     -10.931  13.737  64.451  1.00  0.00    -0.356 A  
HETATM   18  C   UNL     1     -10.416  14.786  65.210  1.00  0.00    -0.427 A  
HETATM   19  C   UNL     1     -10.802  14.939  66.542  1.00  0.00    -0.322 A  
ENDBRANCH  13  14
ENDBRANCH  11  13
ENDBRANCH   9  11
ENDBRANCH   4   7
TORSDOF 4
ENDMDL
MODEL      119
REMARK 921   NORMALIZED FREE ENERGY PREDICTED BY IDOCK:   -4.37 KCAL/MOL
REMARK 922        TOTAL FREE ENERGY PREDICTED BY IDOCK:   -5.61 KCAL/MOL
REMARK 923 INTER-LIGAND FREE ENERGY PREDICTED BY IDOCK:   -5.23 KCAL/MOL
REMARK 924 INTRA-LIGAND FREE ENERGY PREDICTED BY IDOCK:   -0.38 KCAL/MOL
REMARK 927      BINDING AFFINITY PREDICTED BY RF-SCORE:    0.00 PKD
ROOT
HETATM    1  C   UNL     1     -12.496  15.906  74.378  1.00  0.00    -0.767 C  
HETATM    2  C   UNL     1     -12.446  15.130  73.127  1.00  0.00    -0.448 A  
HETATM    3  C   UNL     1     -11.704  15.214  71.977  1.00  0.00    -0.504 A  
HETATM    4  C   UNL     1     -12.157  14.133  71.176  1.00  0.00    -0.314 A  
HETATM    5  O   UNL     1     -13.302  14.078  73.030  1.00  0.00    -0.641 OA 
HETATM    6  N   UNL     1     -13.129  13.449  71.808  1.00  0.00    -0.389 NA 
ENDROOT
BRANCH   4   7
HETATM    7  C   UNL     1     -11.669  13.752  69.851  1.00  0.00    -0.284 C  
HETATM    8  O   UNL     1     -12.277  12.961  69.131  1.00  0.00    -0.209 OA 
HETATM    9  N   UNL     1     -10.480  14.379  69.485  1.00  0.00    -0.434 N  
HETATM   10  H   UNL     1     -10.074  15.092  70.092  1.00  0.00     0.000 HD 
BRANCH   9  11
HETATM   11  N   UNL     1      -9.833  14.033  68.278  1.00  0.00    -0.228 NA 
HETATM   12  H   UNL     1      -9.729  14.847  67.673  1.00  0.00     0.000 HD 
BRANCH  11  13
HETATM   13  C   UNL     1      -8.545  13.372  68.493  1.00  0.00    -0.074 C  
BRANCH  13  14
HETATM   14  C   UNL     1      -8.411  12.125  67.646  1.00  0.00    -0.163 A  
HETATM   15  C   UNL     1      -9.525  11.312  67.393  1.00  0.00    -0.175 A  
HETATM   16  C   UNL     1      -9.400  10.163  66.606  1.00  0.00    -0.195 A  
HETATM   17  C   UNL     1      -8.165   9.817  66.064  1.00  0.00    -0.117 A  
HETATM   18  C   UNL     1      -7.052  10.620  66.303  1.00  0.00    -0.137 A  
HETATM   19  C   UNL     1      -7.174  11.769  67.084  1.00  0.00    -0.147 A  
ENDBRANCH  13  14
ENDBRANCH  11  13
ENDBRANCH   9  11
ENDBRANCH   4   7
TORSDOF 4
ENDMDL
MODEL      120
REMARK 921   NORMALIZED FREE ENERGY PREDICTED BY IDOCK:   -4.37 KCAL/MOL
REMARK 922        TOTAL FREE ENERGY PREDICTED BY IDOCK:   -5.61 KCAL/MOL
REMARK 923 INTER-LIGAND FREE ENERGY PREDICTED BY IDOCK:   -5.35 KCAL/MOL
REMARK 924 INTRA-LIGAND FREE ENERGY PREDICTED BY IDOCK:   -0.25 KCAL/MOL
REMARK 927      BINDING AFFINITY PREDICTED BY RF-SCORE:    0.00 PKD
ROOT
HETATM    1  C   UNL     1      -5.229  19.545  63.981  1.00  0.00    -0.243 C  
HETATM    2  C   UNL     1      -6.192  19.106  65.006  1.00  0.00    -0.282 A  
HETATM    3  C   UNL     1      -6.158  18.182  66.019  1.00  0.00    -0.256 A  
HETATM    4  C   UNL     1      -7.430  18.283  66.641  1.00  0.00    -0.226 A  
HETATM    5  O   UNL     1      -7.406  19.719  65.002  1.00  0.00    -0.306 OA 
HETATM    6  N   UNL     1      -8.189  19.207  66.022  1.00  0.00    -0.455 NA 
ENDROOT
BRANCH   4   7
HETATM    7  C   UNL     1      -7.907  17.531  67.801  1.00  0.00    -0.207 C  
HETATM    8  O   UNL     1      -7.219  16.677  68.357  1.00  0.00    -0.159 OA 
HETATM    9  N   UNL     1      -9.190  17.887  68.215  1.00  0.00    -0.275 N  
HETATM   10  H   UNL     1      -9.672  18.665  67.765  1.00  0.00     0.000 HD 
BRANCH   9  11
HETATM   11  N   UNL     1      -9.825  17.175  69.256  1.00  0.00    -0.161 NA 
HETATM   12  H   UNL     1     -10.117  17.804  70.004  1.00  0.00     0.000 HD 
BRANCH  11  13
HETATM   13  C   UNL     1     -10.949  16.362  68.787  1.00  0.00    -0.344 C  
BRANCH  13  14
HETATM   14  C   UNL     1     -11.583  15.584  69.918  1.00  0.00    -0.348 A  
HETATM   15  C   UNL     1     -11.996  14.257  69.728  1.00  0.00    -0.394 A  
HETATM   16  C   UNL     1     -12.578  13.539  70.776  1.00  0.00    -0.382 A  
HETATM   17  C   UNL     1     -12.751  14.135  72.022  1.00  0.00    -0.392 A  
HETATM   18  C   UNL     1     -12.339  15.450  72.226  1.00  0.00    -0.465 A  
HETATM   19  C   UNL     1     -11.755  16.169  71.183  1.00  0.00    -0.454 A  
ENDBRANCH  13  14
ENDBRANCH  11  13
ENDBRANCH   9  11
ENDBRANCH   4   7
TORSDOF 4
ENDMDL
MODEL      121
REMARK 921   NORMALIZED FREE ENERGY PREDICTED BY IDOCK:   -4.35 KCAL/MOL
REMARK 922        TOTAL FREE ENERGY PREDICTED BY IDOCK:   -5.58 KCAL/MOL
REMARK 923 INTER-LIGAND FREE ENERGY PREDICTED BY IDOCK:   -5.18 KCAL/MOL
REMARK 924 INTRA-LIGAND FREE ENERGY PREDICTED BY IDOCK:   -0.40 KCAL/MOL
REMARK 927      BINDING AFFINITY PREDICTED BY RF-SCORE:    0.00 PKD
ROOT
HETATM    1  C   UNL     1     -13.278  15.535  72.874  1.00  0.00    -0.633 C  
HETATM    2  C   UNL     1     -12.992  14.341  72.061  1.00  0.00    -0.355 A  
HETATM    3  C   UNL     1     -12.281  14.111  70.911  1.00  0.00    -0.434 A  
HETATM    4  C   UNL     1     -12.403  12.716  70.684  1.00  0.00    -0.290 A  
HETATM    5  O   UNL     1     -13.523  13.167  72.498  1.00  0.00    -0.569 OA 
HETATM    6  N   UNL     1     -13.160  12.144  71.638  1.00  0.00    -0.388 NA 
ENDROOT
BRANCH   4   7
HETATM    7  C   UNL     1     -11.805  11.944  69.595  1.00  0.00    -0.337 C  
HETATM    8  O   UNL     1     -12.379  10.988  69.076  1.00  0.00    -0.481 OA 
HETATM    9  N   UNL     1     -10.550  12.405  69.200  1.00  0.00    -0.427 N  
HETATM   10  H   UNL     1     -10.168  13.256  69.612  1.00  0.00     0.000 HD 
BRANCH   9  11
HETATM   11  N   UNL     1      -9.803  11.697  68.232  1.00  0.00    -0.194 NA 
HETATM   12  H   UNL     1      -9.658  12.264  67.397  1.00  0.00     0.000 HD 
BRANCH  11  13
HETATM   13  C   UNL     1      -8.531  11.193  68.751  1.00  0.00    -0.134 C  
BRANCH  13  14
HETATM   14  C   UNL     1      -8.598   9.711  69.046  1.00  0.00    -0.133 A  
HETATM   15  C   UNL     1      -9.226   9.242  70.208  1.00  0.00    -0.273 A  
HETATM   16  C   UNL     1      -9.291   7.872  70.476  1.00  0.00    -0.162 A  
HETATM   17  C   UNL     1      -8.731   6.958  69.588  1.00  0.00    -0.141 A  
HETATM   18  C   UNL     1      -8.110   7.410  68.425  1.00  0.00    -0.125 A  
HETATM   19  C   UNL     1      -8.047   8.777  68.153  1.00  0.00    -0.107 A  
ENDBRANCH  13  14
ENDBRANCH  11  13
ENDBRANCH   9  11
ENDBRANCH   4   7
TORSDOF 4
ENDMDL
MODEL      122
REMARK 921   NORMALIZED FREE ENERGY PREDICTED BY IDOCK:   -4.34 KCAL/MOL
REMARK 922        TOTAL FREE ENERGY PREDICTED BY IDOCK:   -5.58 KCAL/MOL
REMARK 923 INTER-LIGAND FREE ENERGY PREDICTED BY IDOCK:   -5.28 KCAL/MOL
REMARK 924 INTRA-LIGAND FREE ENERGY PREDICTED BY IDOCK:   -0.30 KCAL/MOL
REMARK 927      BINDING AFFINITY PREDICTED BY RF-SCORE:    0.00 PKD
ROOT
HETATM    1  C   UNL     1      -9.128   3.991  65.415  1.00  0.00    -0.142 C  
HETATM    2  C   UNL     1      -9.560   5.212  66.117  1.00  0.00    -0.164 A  
HETATM    3  C   UNL     1      -8.914   6.321  66.598  1.00  0.00    -0.139 A  
HETATM    4  C   UNL     1      -9.943   7.126  67.153  1.00  0.00    -0.209 A  
HETATM    5  O   UNL     1     -10.892   5.326  66.372  1.00  0.00    -0.292 OA 
HETATM    6  N   UNL     1     -11.139   6.522  67.024  1.00  0.00    -0.406 NA 
ENDROOT
BRANCH   4   7
HETATM    7  C   UNL     1      -9.795   8.440  67.778  1.00  0.00    -0.174 C  
HETATM    8  O   UNL     1      -8.794   8.752  68.421  1.00  0.00    -0.137 OA 
HETATM    9  N   UNL     1     -10.875   9.294  67.558  1.00  0.00    -0.447 N  
HETATM   10  H   UNL     1     -11.634   9.004  66.942  1.00  0.00     0.000 HD 
BRANCH   9  11
HETATM   11  N   UNL     1     -10.923  10.558  68.186  1.00  0.00    -0.256 NA 
HETATM   12  H   UNL     1     -10.614  10.496  69.156  1.00  0.00     0.000 HD 
BRANCH  11  13
HETATM   13  C   UNL     1     -10.168  11.582  67.461  1.00  0.00    -0.184 C  
BRANCH  13  14
HETATM   14  C   UNL     1     -10.778  11.868  66.107  1.00  0.00    -0.318 A  
HETATM   15  C   UNL     1     -11.989  12.567  66.003  1.00  0.00    -0.456 A  
HETATM   16  C   UNL     1     -12.549  12.835  64.751  1.00  0.00    -0.518 A  
HETATM   17  C   UNL     1     -11.906  12.409  63.592  1.00  0.00    -0.610 A  
HETATM   18  C   UNL     1     -10.698  11.719  63.680  1.00  0.00    -0.503 A  
HETATM   19  C   UNL     1     -10.135  11.454  64.929  1.00  0.00    -0.323 A  
ENDBRANCH  13  14
ENDBRANCH  11  13
ENDBRANCH   9  11
ENDBRANCH   4   7
TORSDOF 4
ENDMDL
MODEL      123
REMARK 921   NORMALIZED FREE ENERGY PREDICTED BY IDOCK:   -4.33 KCAL/MOL
REMARK 922        TOTAL FREE ENERGY PREDICTED BY IDOCK:   -5.56 KCAL/MOL
REMARK 923 INTER-LIGAND FREE ENERGY PREDICTED BY IDOCK:   -5.35 KCAL/MOL
REMARK 924 INTRA-LIGAND FREE ENERGY PREDICTED BY IDOCK:   -0.21 KCAL/MOL
REMARK 927      BINDING AFFINITY PREDICTED BY RF-SCORE:    0.00 PKD
ROOT
HETATM    1  C   UNL     1     -11.455   5.844  72.480  1.00  0.00    -0.347 C  
HETATM    2  C   UNL     1     -11.138   6.365  71.139  1.00  0.00    -0.291 A  
HETATM    3  C   UNL     1     -10.991   7.620  70.608  1.00  0.00    -0.259 A  
HETATM    4  C   UNL     1     -10.665   7.400  69.244  1.00  0.00    -0.185 A  
HETATM    5  O   UNL     1     -10.929   5.441  70.162  1.00  0.00    -0.240 OA 
HETATM    6  N   UNL     1     -10.636   6.082  68.971  1.00  0.00    -0.258 NA 
ENDROOT
BRANCH   4   7
HETATM    7  C   UNL     1     -10.378   8.414  68.230  1.00  0.00    -0.199 C  
HETATM    8  O   UNL     1      -9.580   8.219  67.315  1.00  0.00    -0.149 OA 
HETATM    9  N   UNL     1     -11.102   9.594  68.393  1.00  0.00    -0.481 N  
HETATM   10  H   UNL     1     -11.813   9.659  69.121  1.00  0.00     0.000 HD 
BRANCH   9  11
HETATM   11  N   UNL     1     -10.854  10.703  67.553  1.00  0.00    -0.276 NA 
HETATM   12  H   UNL     1     -10.859  10.425  66.572  1.00  0.00     0.000 HD 
BRANCH  11  13
HETATM   13  C   UNL     1     -11.780  11.812  67.788  1.00  0.00    -0.267 C  
BRANCH  13  14
HETATM   14  C   UNL     1     -11.665  12.870  66.712  1.00  0.00    -0.445 A  
HETATM   15  C   UNL     1     -12.292  12.697  65.470  1.00  0.00    -0.455 A  
HETATM   16  C   UNL     1     -12.187  13.677  64.480  1.00  0.00    -0.444 A  
HETATM   17  C   UNL     1     -11.458  14.839  64.720  1.00  0.00    -0.410 A  
HETATM   18  C   UNL     1     -10.836  15.027  65.952  1.00  0.00    -0.339 A  
HETATM   19  C   UNL     1     -10.941  14.052  66.944  1.00  0.00    -0.301 A  
ENDBRANCH  13  14
ENDBRANCH  11  13
ENDBRANCH   9  11
ENDBRANCH   4   7
TORSDOF 4
ENDMDL
MODEL      124
REMARK 921   NORMALIZED FREE ENERGY PREDICTED BY IDOCK:   -4.32 KCAL/MOL
REMARK 922        TOTAL FREE ENERGY PREDICTED BY IDOCK:   -5.54 KCAL/MOL
REMARK 923 INTER-LIGAND FREE ENERGY PREDICTED BY IDOCK:   -5.27 KCAL/MOL
REMARK 924 INTRA-LIGAND FREE ENERGY PREDICTED BY IDOCK:   -0.27 KCAL/MOL
REMARK 927      BINDING AFFINITY PREDICTED BY RF-SCORE:    0.00 PKD
ROOT
HETATM    1  C   UNL     1     -13.607  13.484  71.927  1.00  0.00    -0.510 C  
HETATM    2  C   UNL     1     -13.063  12.170  71.544  1.00  0.00    -0.257 A  
HETATM    3  C   UNL     1     -13.240  10.889  72.000  1.00  0.00    -0.456 A  
HETATM    4  C   UNL     1     -12.418  10.090  71.164  1.00  0.00    -0.379 A  
HETATM    5  O   UNL     1     -12.181  12.155  70.508  1.00  0.00    -0.356 OA 
HETATM    6  N   UNL     1     -11.770  10.856  70.266  1.00  0.00    -0.322 NA 
ENDROOT
BRANCH   4   7
HETATM    7  C   UNL     1     -12.260   8.637  71.209  1.00  0.00    -0.281 C  
HETATM    8  O   UNL     1     -12.613   7.969  72.179  1.00  0.00    -0.313 OA 
HETATM    9  N   UNL     1     -11.698   8.095  70.055  1.00  0.00    -0.408 N  
HETATM   10  H   UNL     1     -11.509   8.694  69.251  1.00  0.00     0.000 HD 
BRANCH   9  11
HETATM   11  N   UNL     1     -11.388   6.718  69.992  1.00  0.00    -0.412 NA 
HETATM   12  H   UNL     1     -12.116   6.159  70.437  1.00  0.00     0.000 HD 
BRANCH  11  13
HETATM   13  C   UNL     1     -11.132   6.254  68.628  1.00  0.00    -0.325 C  
BRANCH  13  14
HETATM   14  C   UNL     1     -10.100   7.114  67.933  1.00  0.00    -0.211 A  
HETATM   15  C   UNL     1     -10.467   7.950  66.868  1.00  0.00    -0.388 A  
HETATM   16  C   UNL     1      -9.512   8.747  66.231  1.00  0.00    -0.300 A  
HETATM   17  C   UNL     1      -8.185   8.719  66.649  1.00  0.00    -0.107 A  
HETATM   18  C   UNL     1      -7.808   7.898  67.710  1.00  0.00    -0.123 A  
HETATM   19  C   UNL     1      -8.759   7.104  68.351  1.00  0.00    -0.125 A  
ENDBRANCH  13  14
ENDBRANCH  11  13
ENDBRANCH   9  11
ENDBRANCH   4   7
TORSDOF 4
ENDMDL
MODEL      125
REMARK 921   NORMALIZED FREE ENERGY PREDICTED BY IDOCK:   -4.30 KCAL/MOL
REMARK 922        TOTAL FREE ENERGY PREDICTED BY IDOCK:   -5.52 KCAL/MOL
REMARK 923 INTER-LIGAND FREE ENERGY PREDICTED BY IDOCK:   -5.22 KCAL/MOL
REMARK 924 INTRA-LIGAND FREE ENERGY PREDICTED BY IDOCK:   -0.30 KCAL/MOL
REMARK 927      BINDING AFFINITY PREDICTED BY RF-SCORE:    0.00 PKD
ROOT
HETATM    1  C   UNL     1     -13.840   8.995  72.553  1.00  0.00    -0.491 C  
HETATM    2  C   UNL     1     -12.944   9.748  71.659  1.00  0.00    -0.419 A  
HETATM    3  C   UNL     1     -11.900   9.406  70.838  1.00  0.00    -0.365 A  
HETATM    4  C   UNL     1     -11.491  10.629  70.246  1.00  0.00    -0.337 A  
HETATM    5  O   UNL     1     -13.149  11.090  71.582  1.00  0.00    -0.446 OA 
HETATM    6  N   UNL     1     -12.240  11.651  70.702  1.00  0.00    -0.384 NA 
ENDROOT
BRANCH   4   7
HETATM    7  C   UNL     1     -10.423  10.821  69.264  1.00  0.00    -0.217 C  
HETATM    8  O   UNL     1      -9.710   9.896  68.881  1.00  0.00    -0.162 OA 
HETATM    9  N   UNL     1     -10.311  12.132  68.803  1.00  0.00    -0.363 N  
HETATM   10  H   UNL     1     -10.991  12.834  69.095  1.00  0.00     0.000 HD 
BRANCH   9  11
HETATM   11  N   UNL     1      -9.260  12.492  67.931  1.00  0.00    -0.193 NA 
HETATM   12  H   UNL     1      -9.608  12.652  66.986  1.00  0.00     0.000 HD 
BRANCH  11  13
HETATM   13  C   UNL     1      -8.494  13.644  68.410  1.00  0.00    -0.147 C  
BRANCH  13  14
HETATM   14  C   UNL     1      -9.277  14.931  68.265  1.00  0.00    -0.187 A  
HETATM   15  C   UNL     1      -9.433  15.534  67.009  1.00  0.00    -0.238 A  
HETATM   16  C   UNL     1     -10.160  16.720  66.878  1.00  0.00    -0.286 A  
HETATM   17  C   UNL     1     -10.740  17.314  67.996  1.00  0.00    -0.367 A  
HETATM   18  C   UNL     1     -10.598  16.721  69.249  1.00  0.00    -0.336 A  
HETATM   19  C   UNL     1      -9.876  15.535  69.383  1.00  0.00    -0.283 A  
ENDBRANCH  13  14
ENDBRANCH  11  13
ENDBRANCH   9  11
ENDBRANCH   4   7
TORSDOF 4
ENDMDL
MODEL      126
REMARK 921   NORMALIZED FREE ENERGY PREDICTED BY IDOCK:   -4.29 KCAL/MOL
REMARK 922        TOTAL FREE ENERGY PREDICTED BY IDOCK:   -5.51 KCAL/MOL
REMARK 923 INTER-LIGAND FREE ENERGY PREDICTED BY IDOCK:   -5.25 KCAL/MOL
REMARK 924 INTRA-LIGAND FREE ENERGY PREDICTED BY IDOCK:   -0.26 KCAL/MOL
REMARK 927      BINDING AFFINITY PREDICTED BY RF-SCORE:    0.00 PKD
ROOT
HETATM    1  C   UNL     1     -10.232   5.310  70.279  1.00  0.00    -0.345 C  
HETATM    2  C   UNL     1     -10.517   6.744  70.104  1.00  0.00    -0.209 A  
HETATM    3  C   UNL     1     -10.048   7.719  69.261  1.00  0.00    -0.199 A  
HETATM    4  C   UNL     1     -10.768   8.887  69.624  1.00  0.00    -0.217 A  
HETATM    5  O   UNL     1     -11.450   7.284  70.934  1.00  0.00    -0.275 OA 
HETATM    6  N   UNL     1     -11.611   8.628  70.642  1.00  0.00    -0.245 NA 
ENDROOT
BRANCH   4   7
HETATM    7  C   UNL     1     -10.667  10.212  69.013  1.00  0.00    -0.221 C  
HETATM    8  O   UNL     1      -9.636  10.882  69.066  1.00  0.00    -0.200 OA 
HETATM    9  N   UNL     1     -11.828  10.622  68.361  1.00  0.00    -0.447 N  
HETATM   10  H   UNL     1     -12.618   9.983  68.279  1.00  0.00     0.000 HD 
BRANCH   9  11
HETATM   11  N   UNL     1     -11.916  11.922  67.813  1.00  0.00    -0.573 NA 
HETATM   12  H   UNL     1     -11.323  12.574  68.325  1.00  0.00     0.000 HD 
BRANCH  11  13
HETATM   13  C   UNL     1     -11.618  11.956  66.380  1.00  0.00    -0.243 C  
BRANCH  13  14
HETATM   14  C   UNL     1     -11.356  13.367  65.901  1.00  0.00    -0.327 A  
HETATM   15  C   UNL     1     -10.425  14.183  66.560  1.00  0.00    -0.280 A  
HETATM   16  C   UNL     1     -10.181  15.484  66.112  1.00  0.00    -0.322 A  
HETATM   17  C   UNL     1     -10.861  15.982  65.004  1.00  0.00    -0.421 A  
HETATM   18  C   UNL     1     -11.783  15.180  64.336  1.00  0.00    -0.301 A  
HETATM   19  C   UNL     1     -12.026  13.879  64.778  1.00  0.00    -0.426 A  
ENDBRANCH  13  14
ENDBRANCH  11  13
ENDBRANCH   9  11
ENDBRANCH   4   7
TORSDOF 4
ENDMDL
MODEL      127
REMARK 921   NORMALIZED FREE ENERGY PREDICTED BY IDOCK:   -4.29 KCAL/MOL
REMARK 922        TOTAL FREE ENERGY PREDICTED BY IDOCK:   -5.51 KCAL/MOL
REMARK 923 INTER-LIGAND FREE ENERGY PREDICTED BY IDOCK:   -5.29 KCAL/MOL
REMARK 924 INTRA-LIGAND FREE ENERGY PREDICTED BY IDOCK:   -0.21 KCAL/MOL
REMARK 927      BINDING AFFINITY PREDICTED BY RF-SCORE:    0.00 PKD
ROOT
HETATM    1  C   UNL     1     -11.919  13.068  63.757  1.00  0.00    -0.585 C  
HETATM    2  C   UNL     1     -11.284  12.023  64.577  1.00  0.00    -0.332 A  
HETATM    3  C   UNL     1     -11.232  11.759  65.922  1.00  0.00    -0.345 A  
HETATM    4  C   UNL     1     -10.455  10.576  66.027  1.00  0.00    -0.156 A  
HETATM    5  O   UNL     1     -10.576  11.072  63.909  1.00  0.00    -0.369 OA 
HETATM    6  N   UNL     1     -10.051  10.163  64.811  1.00  0.00    -0.284 NA 
ENDROOT
BRANCH   4   7
HETATM    7  C   UNL     1     -10.116   9.848  67.250  1.00  0.00    -0.211 C  
HETATM    8  O   UNL     1      -9.622  10.406  68.229  1.00  0.00    -0.139 OA 
HETATM    9  N   UNL     1     -10.423   8.490  67.202  1.00  0.00    -0.307 N  
HETATM   10  H   UNL     1     -10.913   8.108  66.393  1.00  0.00     0.000 HD 
BRANCH   9  11
HETATM   11  N   UNL     1     -10.057   7.639  68.268  1.00  0.00    -0.180 NA 
HETATM   12  H   UNL     1      -9.924   8.169  69.129  1.00  0.00     0.000 HD 
BRANCH  11  13
HETATM   13  C   UNL     1     -11.004   6.540  68.470  1.00  0.00    -0.286 C  
BRANCH  13  14
HETATM   14  C   UNL     1     -10.991   6.051  69.901  1.00  0.00    -0.458 A  
HETATM   15  C   UNL     1     -11.842   6.621  70.858  1.00  0.00    -0.434 A  
HETATM   16  C   UNL     1     -11.831   6.164  72.179  1.00  0.00    -0.339 A  
HETATM   17  C   UNL     1     -10.974   5.134  72.556  1.00  0.00    -0.276 A  
HETATM   18  C   UNL     1     -10.127   4.554  71.613  1.00  0.00    -0.249 A  
HETATM   19  C   UNL     1     -10.138   5.005  70.294  1.00  0.00    -0.339 A  
ENDBRANCH  13  14
ENDBRANCH  11  13
ENDBRANCH   9  11
ENDBRANCH   4   7
TORSDOF 4
ENDMDL
MODEL      128
REMARK 921   NORMALIZED FREE ENERGY PREDICTED BY IDOCK:   -4.28 KCAL/MOL
REMARK 922        TOTAL FREE ENERGY PREDICTED BY IDOCK:   -5.50 KCAL/MOL
REMARK 923 INTER-LIGAND FREE ENERGY PREDICTED BY IDOCK:   -5.08 KCAL/MOL
REMARK 924 INTRA-LIGAND FREE ENERGY PREDICTED BY IDOCK:   -0.42 KCAL/MOL
REMARK 927      BINDING AFFINITY PREDICTED BY RF-SCORE:    0.00 PKD
ROOT
HETATM    1  C   UNL     1      -5.315  17.878  70.145  1.00  0.00    -0.236 C  
HETATM    2  C   UNL     1      -6.375  16.962  69.690  1.00  0.00    -0.212 A  
HETATM    3  C   UNL     1      -7.548  17.120  68.997  1.00  0.00    -0.187 A  
HETATM    4  C   UNL     1      -8.080  15.810  68.885  1.00  0.00    -0.207 A  
HETATM    5  O   UNL     1      -6.210  15.645  69.991  1.00  0.00    -0.166 OA 
HETATM    6  N   UNL     1      -7.276  14.917  69.492  1.00  0.00    -0.182 NA 
ENDROOT
BRANCH   4   7
HETATM    7  C   UNL     1      -9.315  15.414  68.207  1.00  0.00    -0.193 C  
HETATM    8  O   UNL     1      -9.699  15.959  67.174  1.00  0.00    -0.221 OA 
HETATM    9  N   UNL     1      -9.988  14.365  68.830  1.00  0.00    -0.316 N  
HETATM   10  H   UNL     1      -9.570  13.899  69.635  1.00  0.00     0.000 HD 
BRANCH   9  11
HETATM   11  N   UNL     1     -11.248  13.943  68.351  1.00  0.00    -0.250 NA 
HETATM   12  H   UNL     1     -11.685  14.670  67.784  1.00  0.00     0.000 HD 
BRANCH  11  13
HETATM   13  C   UNL     1     -11.184  12.677  67.619  1.00  0.00    -0.283 C  
BRANCH  13  14
HETATM   14  C   UNL     1     -11.509  12.864  66.154  1.00  0.00    -0.393 A  
HETATM   15  C   UNL     1     -12.195  14.006  65.715  1.00  0.00    -0.475 A  
HETATM   16  C   UNL     1     -12.490  14.178  64.360  1.00  0.00    -0.325 A  
HETATM   17  C   UNL     1     -12.102  13.216  63.431  1.00  0.00    -0.558 A  
HETATM   18  C   UNL     1     -11.414  12.080  63.853  1.00  0.00    -0.518 A  
HETATM   19  C   UNL     1     -11.115  11.907  65.204  1.00  0.00    -0.360 A  
ENDBRANCH  13  14
ENDBRANCH  11  13
ENDBRANCH   9  11
ENDBRANCH   4   7
TORSDOF 4
ENDMDL
MODEL      129
REMARK 921   NORMALIZED FREE ENERGY PREDICTED BY IDOCK:   -4.28 KCAL/MOL
REMARK 922        TOTAL FREE ENERGY PREDICTED BY IDOCK:   -5.50 KCAL/MOL
REMARK 923 INTER-LIGAND FREE ENERGY PREDICTED BY IDOCK:   -5.05 KCAL/MOL
REMARK 924 INTRA-LIGAND FREE ENERGY PREDICTED BY IDOCK:   -0.45 KCAL/MOL
REMARK 927      BINDING AFFINITY PREDICTED BY RF-SCORE:    0.00 PKD
ROOT
HETATM    1  C   UNL     1      -8.379  18.466  67.326  1.00  0.00    -0.251 C  
HETATM    2  C   UNL     1      -9.462  17.500  67.578  1.00  0.00    -0.255 A  
HETATM    3  C   UNL     1      -9.831  16.305  67.016  1.00  0.00    -0.247 A  
HETATM    4  C   UNL     1     -10.969  15.893  67.758  1.00  0.00    -0.315 A  
HETATM    5  O   UNL     1     -10.324  17.803  68.586  1.00  0.00    -0.363 OA 
HETATM    6  N   UNL     1     -11.274  16.803  68.703  1.00  0.00    -0.250 NA 
ENDROOT
BRANCH   4   7
HETATM    7  C   UNL     1     -11.739  14.662  67.583  1.00  0.00    -0.363 C  
HETATM    8  O   UNL     1     -12.041  13.937  68.529  1.00  0.00    -0.362 OA 
HETATM    9  N   UNL     1     -12.104  14.410  66.262  1.00  0.00    -0.397 N  
HETATM   10  H   UNL     1     -11.897  15.096  65.537  1.00  0.00     0.000 HD 
BRANCH   9  11
HETATM   11  N   UNL     1     -12.760  13.205  65.922  1.00  0.00    -0.389 NA 
HETATM   12  H   UNL     1     -13.727  13.381  65.649  1.00  0.00     0.000 HD 
BRANCH  11  13
HETATM   13  C   UNL     1     -12.054  12.445  64.888  1.00  0.00    -0.407 C  
BRANCH  13  14
HETATM   14  C   UNL     1     -10.957  11.589  65.480  1.00  0.00    -0.290 A  
HETATM   15  C   UNL     1     -11.092  11.042  66.764  1.00  0.00    -0.240 A  
HETATM   16  C   UNL     1     -10.078  10.247  67.307  1.00  0.00    -0.249 A  
HETATM   17  C   UNL     1      -8.923   9.989  66.574  1.00  0.00    -0.162 A  
HETATM   18  C   UNL     1      -8.779  10.521  65.294  1.00  0.00    -0.200 A  
HETATM   19  C   UNL     1      -9.790  11.312  64.748  1.00  0.00    -0.312 A  
ENDBRANCH  13  14
ENDBRANCH  11  13
ENDBRANCH   9  11
ENDBRANCH   4   7
TORSDOF 4
ENDMDL
MODEL      130
REMARK 921   NORMALIZED FREE ENERGY PREDICTED BY IDOCK:   -4.28 KCAL/MOL
REMARK 922        TOTAL FREE ENERGY PREDICTED BY IDOCK:   -5.50 KCAL/MOL
REMARK 923 INTER-LIGAND FREE ENERGY PREDICTED BY IDOCK:   -5.23 KCAL/MOL
REMARK 924 INTRA-LIGAND FREE ENERGY PREDICTED BY IDOCK:   -0.27 KCAL/MOL
REMARK 927      BINDING AFFINITY PREDICTED BY RF-SCORE:    0.00 PKD
ROOT
HETATM    1  C   UNL     1     -11.809  13.067  66.075  1.00  0.00    -0.471 C  
HETATM    2  C   UNL     1     -10.481  13.397  66.621  1.00  0.00    -0.280 A  
HETATM    3  C   UNL     1      -9.661  14.494  66.551  1.00  0.00    -0.311 A  
HETATM    4  C   UNL     1      -8.526  14.146  67.327  1.00  0.00    -0.214 A  
HETATM    5  O   UNL     1      -9.881  12.440  67.379  1.00  0.00    -0.196 OA 
HETATM    6  N   UNL     1      -8.653  12.900  67.822  1.00  0.00    -0.172 NA 
ENDROOT
BRANCH   4   7
HETATM    7  C   UNL     1      -7.355  14.979  67.602  1.00  0.00    -0.188 C  
HETATM    8  O   UNL     1      -6.218  14.638  67.282  1.00  0.00    -0.305 OA 
HETATM    9  N   UNL     1      -7.657  16.184  68.234  1.00  0.00    -0.142 N  
HETATM   10  H   UNL     1      -8.630  16.445  68.393  1.00  0.00     0.000 HD 
BRANCH   9  11
HETATM   11  N   UNL     1      -6.620  17.045  68.658  1.00  0.00    -0.168 NA 
HETATM   12  H   UNL     1      -5.945  17.198  67.909  1.00  0.00     0.000 HD 
BRANCH  11  13
HETATM   13  C   UNL     1      -7.117  18.318  69.183  1.00  0.00    -0.186 C  
BRANCH  13  14
HETATM   14  C   UNL     1      -8.190  18.906  68.293  1.00  0.00    -0.362 A  
HETATM   15  C   UNL     1      -9.484  19.127  68.785  1.00  0.00    -0.454 A  
HETATM   16  C   UNL     1     -10.472  19.674  67.963  1.00  0.00    -0.537 A  
HETATM   17  C   UNL     1     -10.178  20.008  66.643  1.00  0.00    -0.597 A  
HETATM   18  C   UNL     1      -8.894  19.799  66.143  1.00  0.00    -0.378 A  
HETATM   19  C   UNL     1      -7.905  19.257  66.963  1.00  0.00    -0.267 A  
ENDBRANCH  13  14
ENDBRANCH  11  13
ENDBRANCH   9  11
ENDBRANCH   4   7
TORSDOF 4
ENDMDL
MODEL      131
REMARK 921   NORMALIZED FREE ENERGY PREDICTED BY IDOCK:   -4.27 KCAL/MOL
REMARK 922        TOTAL FREE ENERGY PREDICTED BY IDOCK:   -5.48 KCAL/MOL
REMARK 923 INTER-LIGAND FREE ENERGY PREDICTED BY IDOCK:   -5.12 KCAL/MOL
REMARK 924 INTRA-LIGAND FREE ENERGY PREDICTED BY IDOCK:   -0.36 KCAL/MOL
REMARK 927      BINDING AFFINITY PREDICTED BY RF-SCORE:    0.00 PKD
ROOT
HETATM    1  C   UNL     1      -5.465  18.253  65.498  1.00  0.00    -0.221 C  
HETATM    2  C   UNL     1      -6.552  18.251  66.492  1.00  0.00    -0.202 A  
HETATM    3  C   UNL     1      -7.863  17.850  66.478  1.00  0.00    -0.298 A  
HETATM    4  C   UNL     1      -8.336  18.118  67.789  1.00  0.00    -0.250 A  
HETATM    5  O   UNL     1      -6.249  18.742  67.724  1.00  0.00    -0.194 OA 
HETATM    6  N   UNL     1      -7.364  18.665  68.542  1.00  0.00    -0.286 NA 
ENDROOT
BRANCH   4   7
HETATM    7  C   UNL     1      -9.674  17.849  68.316  1.00  0.00    -0.327 C  
HETATM    8  O   UNL     1     -10.250  18.630  69.072  1.00  0.00    -0.347 OA 
HETATM    9  N   UNL     1     -10.226  16.651  67.868  1.00  0.00    -0.274 N  
HETATM   10  H   UNL     1      -9.732  16.092  67.173  1.00  0.00     0.000 HD 
BRANCH   9  11
HETATM   11  N   UNL     1     -11.468  16.206  68.374  1.00  0.00    -0.351 NA 
HETATM   12  H   UNL     1     -12.197  16.274  67.663  1.00  0.00     0.000 HD 
BRANCH  11  13
HETATM   13  C   UNL     1     -11.404  14.854  68.931  1.00  0.00    -0.283 C  
BRANCH  13  14
HETATM   14  C   UNL     1     -11.266  13.811  67.844  1.00  0.00    -0.299 A  
HETATM   15  C   UNL     1     -12.085  13.852  66.707  1.00  0.00    -0.476 A  
HETATM   16  C   UNL     1     -11.952  12.890  65.702  1.00  0.00    -0.490 A  
HETATM   17  C   UNL     1     -11.002  11.879  65.822  1.00  0.00    -0.359 A  
HETATM   18  C   UNL     1     -10.178  11.830  66.944  1.00  0.00    -0.236 A  
HETATM   19  C   UNL     1     -10.305  12.791  67.947  1.00  0.00    -0.228 A  
ENDBRANCH  13  14
ENDBRANCH  11  13
ENDBRANCH   9  11
ENDBRANCH   4   7
TORSDOF 4
ENDMDL
MODEL      132
REMARK 921   NORMALIZED FREE ENERGY PREDICTED BY IDOCK:   -4.26 KCAL/MOL
REMARK 922        TOTAL FREE ENERGY PREDICTED BY IDOCK:   -5.48 KCAL/MOL
REMARK 923 INTER-LIGAND FREE ENERGY PREDICTED BY IDOCK:   -5.35 KCAL/MOL
REMARK 924 INTRA-LIGAND FREE ENERGY PREDICTED BY IDOCK:   -0.13 KCAL/MOL
REMARK 927      BINDING AFFINITY PREDICTED BY RF-SCORE:    0.00 PKD
ROOT
HETATM    1  C   UNL     1     -10.192   4.910  66.210  1.00  0.00    -0.312 C  
HETATM    2  C   UNL     1     -10.440   5.396  67.579  1.00  0.00    -0.170 A  
HETATM    3  C   UNL     1     -11.028   6.517  68.106  1.00  0.00    -0.365 A  
HETATM    4  C   UNL     1     -10.946   6.340  69.512  1.00  0.00    -0.379 A  
HETATM    5  O   UNL     1     -10.017   4.596  68.594  1.00  0.00    -0.144 OA 
HETATM    6  N   UNL     1     -10.328   5.182  69.809  1.00  0.00    -0.285 NA 
ENDROOT
BRANCH   4   7
HETATM    7  C   UNL     1     -11.454   7.241  70.546  1.00  0.00    -0.279 C  
HETATM    8  O   UNL     1     -12.322   6.899  71.346  1.00  0.00    -0.348 OA 
HETATM    9  N   UNL     1     -10.851   8.498  70.543  1.00  0.00    -0.225 N  
HETATM   10  H   UNL     1     -10.075   8.688  69.910  1.00  0.00     0.000 HD 
BRANCH   9  11
HETATM   11  N   UNL     1     -11.310   9.510  71.416  1.00  0.00    -0.376 NA 
HETATM   12  H   UNL     1     -10.545  10.121  71.701  1.00  0.00     0.000 HD 
BRANCH  11  13
HETATM   13  C   UNL     1     -12.418  10.285  70.854  1.00  0.00    -0.370 C  
BRANCH  13  14
HETATM   14  C   UNL     1     -11.945  11.224  69.766  1.00  0.00    -0.431 A  
HETATM   15  C   UNL     1     -11.614  10.734  68.495  1.00  0.00    -0.325 A  
HETATM   16  C   UNL     1     -11.181  11.604  67.491  1.00  0.00    -0.355 A  
HETATM   17  C   UNL     1     -11.076  12.969  67.744  1.00  0.00    -0.291 A  
HETATM   18  C   UNL     1     -11.408  13.470  69.002  1.00  0.00    -0.336 A  
HETATM   19  C   UNL     1     -11.844  12.604  70.005  1.00  0.00    -0.358 A  
ENDBRANCH  13  14
ENDBRANCH  11  13
ENDBRANCH   9  11
ENDBRANCH   4   7
TORSDOF 4
ENDMDL
MODEL      133
REMARK 921   NORMALIZED FREE ENERGY PREDICTED BY IDOCK:   -4.26 KCAL/MOL
REMARK 922        TOTAL FREE ENERGY PREDICTED BY IDOCK:   -5.47 KCAL/MOL
REMARK 923 INTER-LIGAND FREE ENERGY PREDICTED BY IDOCK:   -5.00 KCAL/MOL
REMARK 924 INTRA-LIGAND FREE ENERGY PREDICTED BY IDOCK:   -0.47 KCAL/MOL
REMARK 927      BINDING AFFINITY PREDICTED BY RF-SCORE:    0.00 PKD
ROOT
HETATM    1  C   UNL     1     -13.817  13.639  72.226  1.00  0.00    -0.689 C  
HETATM    2  C   UNL     1     -13.288  12.313  71.863  1.00  0.00    -0.329 A  
HETATM    3  C   UNL     1     -13.652  11.023  72.154  1.00  0.00    -0.084 A  
HETATM    4  C   UNL     1     -12.713  10.218  71.458  1.00  0.00    -0.452 A  
HETATM    5  O   UNL     1     -12.194  12.296  71.056  1.00  0.00    -0.306 OA 
HETATM    6  N   UNL     1     -11.825  10.986  70.800  1.00  0.00    -0.321 NA 
ENDROOT
BRANCH   4   7
HETATM    7  C   UNL     1     -12.668   8.757  71.410  1.00  0.00    -0.283 C  
HETATM    8  O   UNL     1     -13.122   8.057  72.314  1.00  0.00    -0.237 OA 
HETATM    9  N   UNL     1     -12.086   8.249  70.251  1.00  0.00    -0.308 N  
HETATM   10  H   UNL     1     -11.809   8.882  69.501  1.00  0.00     0.000 HD 
BRANCH   9  11
HETATM   11  N   UNL     1     -11.877   6.859  70.109  1.00  0.00    -0.613 NA 
HETATM   12  H   UNL     1     -12.231   6.526  69.212  1.00  0.00     0.000 HD 
BRANCH  11  13
HETATM   13  C   UNL     1     -10.477   6.472  70.295  1.00  0.00    -0.216 C  
BRANCH  13  14
HETATM   14  C   UNL     1     -10.219   5.976  71.700  1.00  0.00    -0.245 A  
HETATM   15  C   UNL     1      -9.115   6.439  72.430  1.00  0.00    -0.137 A  
HETATM   16  C   UNL     1      -8.882   5.983  73.730  1.00  0.00    -0.123 A  
HETATM   17  C   UNL     1      -9.747   5.063  74.314  1.00  0.00    -0.166 A  
HETATM   18  C   UNL     1     -10.852   4.599  73.603  1.00  0.00    -0.375 A  
HETATM   19  C   UNL     1     -11.090   5.056  72.307  1.00  0.00    -0.116 A  
ENDBRANCH  13  14
ENDBRANCH  11  13
ENDBRANCH   9  11
ENDBRANCH   4   7
TORSDOF 4
ENDMDL
MODEL      134
REMARK 921   NORMALIZED FREE ENERGY PREDICTED BY IDOCK:   -4.22 KCAL/MOL
REMARK 922        TOTAL FREE ENERGY PREDICTED BY IDOCK:   -5.43 KCAL/MOL
REMARK 923 INTER-LIGAND FREE ENERGY PREDICTED BY IDOCK:   -5.03 KCAL/MOL
REMARK 924 INTRA-LIGAND FREE ENERGY PREDICTED BY IDOCK:   -0.40 KCAL/MOL
REMARK 927      BINDING AFFINITY PREDICTED BY RF-SCORE:    0.00 PKD
ROOT
HETATM    1  C   UNL     1      -6.207  17.504  66.959  1.00  0.00    -0.194 C  
HETATM    2  C   UNL     1      -7.462  16.845  66.558  1.00  0.00    -0.293 A  
HETATM    3  C   UNL     1      -8.017  15.613  66.796  1.00  0.00    -0.246 A  
HETATM    4  C   UNL     1      -9.263  15.642  66.118  1.00  0.00    -0.343 A  
HETATM    5  O   UNL     1      -8.307  17.571  65.777  1.00  0.00    -0.538 OA 
HETATM    6  N   UNL     1      -9.437  16.823  65.494  1.00  0.00    -0.432 NA 
ENDROOT
BRANCH   4   7
HETATM    7  C   UNL     1     -10.269  14.581  66.074  1.00  0.00    -0.315 C  
HETATM    8  O   UNL     1     -11.224  14.549  66.848  1.00  0.00    -0.316 OA 
HETATM    9  N   UNL     1     -10.048  13.637  65.072  1.00  0.00    -0.562 N  
HETATM   10  H   UNL     1      -9.286  13.770  64.407  1.00  0.00     0.000 HD 
BRANCH   9  11
HETATM   11  N   UNL     1     -10.876  12.497  64.973  1.00  0.00    -0.281 NA 
HETATM   12  H   UNL     1     -11.379  12.487  64.086  1.00  0.00     0.000 HD 
BRANCH  11  13
HETATM   13  C   UNL     1     -10.145  11.244  65.174  1.00  0.00    -0.275 C  
BRANCH  13  14
HETATM   14  C   UNL     1     -10.048  10.886  66.640  1.00  0.00    -0.264 A  
HETATM   15  C   UNL     1      -9.012  11.398  67.434  1.00  0.00    -0.154 A  
HETATM   16  C   UNL     1      -8.928  11.069  68.790  1.00  0.00    -0.153 A  
HETATM   17  C   UNL     1      -9.876  10.228  69.366  1.00  0.00    -0.247 A  
HETATM   18  C   UNL     1     -10.915   9.717  68.590  1.00  0.00    -0.189 A  
HETATM   19  C   UNL     1     -11.004  10.047  67.238  1.00  0.00    -0.225 A  
ENDBRANCH  13  14
ENDBRANCH  11  13
ENDBRANCH   9  11
ENDBRANCH   4   7
TORSDOF 4
ENDMDL
MODEL      135
REMARK 921   NORMALIZED FREE ENERGY PREDICTED BY IDOCK:   -4.22 KCAL/MOL
REMARK 922        TOTAL FREE ENERGY PREDICTED BY IDOCK:   -5.42 KCAL/MOL
REMARK 923 INTER-LIGAND FREE ENERGY PREDICTED BY IDOCK:   -5.29 KCAL/MOL
REMARK 924 INTRA-LIGAND FREE ENERGY PREDICTED BY IDOCK:   -0.13 KCAL/MOL
REMARK 927      BINDING AFFINITY PREDICTED BY RF-SCORE:    0.00 PKD
ROOT
HETATM    1  C   UNL     1     -12.428  12.249  64.120  1.00  0.00    -0.530 C  
HETATM    2  C   UNL     1     -11.902  12.991  65.278  1.00  0.00    -0.376 A  
HETATM    3  C   UNL     1     -10.680  13.061  65.896  1.00  0.00    -0.292 A  
HETATM    4  C   UNL     1     -10.863  13.991  66.953  1.00  0.00    -0.290 A  
HETATM    5  O   UNL     1     -12.774  13.812  65.922  1.00  0.00    -0.467 OA 
HETATM    6  N   UNL     1     -12.132  14.440  66.975  1.00  0.00    -0.400 NA 
ENDROOT
BRANCH   4   7
HETATM    7  C   UNL     1      -9.855  14.449  67.909  1.00  0.00    -0.224 C  
HETATM    8  O   UNL     1      -9.099  13.672  68.488  1.00  0.00    -0.183 OA 
HETATM    9  N   UNL     1      -9.829  15.832  68.080  1.00  0.00    -0.216 N  
HETATM   10  H   UNL     1     -10.424  16.427  67.503  1.00  0.00     0.000 HD 
BRANCH   9  11
HETATM   11  N   UNL     1      -8.981  16.414  69.048  1.00  0.00    -0.254 NA 
HETATM   12  H   UNL     1      -8.973  15.862  69.905  1.00  0.00     0.000 HD 
BRANCH  11  13
HETATM   13  C   UNL     1      -7.620  16.634  68.554  1.00  0.00    -0.212 C  
BRANCH  13  14
HETATM   14  C   UNL     1      -7.405  18.073  68.139  1.00  0.00    -0.250 A  
HETATM   15  C   UNL     1      -6.310  18.800  68.624  1.00  0.00    -0.248 A  
HETATM   16  C   UNL     1      -6.111  20.128  68.235  1.00  0.00    -0.299 A  
HETATM   17  C   UNL     1      -7.001  20.740  67.357  1.00  0.00    -0.418 A  
HETATM   18  C   UNL     1      -8.091  20.027  66.862  1.00  0.00    -0.361 A  
HETATM   19  C   UNL     1      -8.290  18.700  67.245  1.00  0.00    -0.270 A  
ENDBRANCH  13  14
ENDBRANCH  11  13
ENDBRANCH   9  11
ENDBRANCH   4   7
TORSDOF 4
ENDMDL
MODEL      136
REMARK 921   NORMALIZED FREE ENERGY PREDICTED BY IDOCK:   -4.21 KCAL/MOL
REMARK 922        TOTAL FREE ENERGY PREDICTED BY IDOCK:   -5.41 KCAL/MOL
REMARK 923 INTER-LIGAND FREE ENERGY PREDICTED BY IDOCK:   -5.01 KCAL/MOL
REMARK 924 INTRA-LIGAND FREE ENERGY PREDICTED BY IDOCK:   -0.41 KCAL/MOL
REMARK 927      BINDING AFFINITY PREDICTED BY RF-SCORE:    0.00 PKD
ROOT
HETATM    1  C   UNL     1      -8.696   8.194  72.292  1.00  0.00    -0.243 C  
HETATM    2  C   UNL     1      -9.252   8.882  71.115  1.00  0.00    -0.256 A  
HETATM    3  C   UNL     1     -10.454   9.478  70.831  1.00  0.00    -0.382 A  
HETATM    4  C   UNL     1     -10.311   9.965  69.506  1.00  0.00    -0.229 A  
HETATM    5  O   UNL     1      -8.436   8.987  70.031  1.00  0.00    -0.121 OA 
HETATM    6  N   UNL     1      -9.094   9.662  69.017  1.00  0.00    -0.142 NA 
ENDROOT
BRANCH   4   7
HETATM    7  C   UNL     1     -11.302  10.709  68.728  1.00  0.00    -0.277 C  
HETATM    8  O   UNL     1     -12.416  10.979  69.172  1.00  0.00    -0.432 OA 
HETATM    9  N   UNL     1     -10.855  11.090  67.464  1.00  0.00    -0.244 N  
HETATM   10  H   UNL     1      -9.889  10.911  67.191  1.00  0.00     0.000 HD 
BRANCH   9  11
HETATM   11  N   UNL     1     -11.735  11.724  66.559  1.00  0.00    -0.528 NA 
HETATM   12  H   UNL     1     -12.585  12.032  67.031  1.00  0.00     0.000 HD 
BRANCH  11  13
HETATM   13  C   UNL     1     -11.107  12.830  65.835  1.00  0.00    -0.287 C  
BRANCH  13  14
HETATM   14  C   UNL     1     -10.882  14.026  66.734  1.00  0.00    -0.294 A  
HETATM   15  C   UNL     1     -11.858  14.414  67.663  1.00  0.00    -0.412 A  
HETATM   16  C   UNL     1     -11.646  15.516  68.496  1.00  0.00    -0.379 A  
HETATM   17  C   UNL     1     -10.459  16.240  68.410  1.00  0.00    -0.282 A  
HETATM   18  C   UNL     1      -9.479  15.861  67.496  1.00  0.00    -0.219 A  
HETATM   19  C   UNL     1      -9.686  14.759  66.666  1.00  0.00    -0.281 A  
ENDBRANCH  13  14
ENDBRANCH  11  13
ENDBRANCH   9  11
ENDBRANCH   4   7
TORSDOF 4
ENDMDL
MODEL      137
REMARK 921   NORMALIZED FREE ENERGY PREDICTED BY IDOCK:   -4.20 KCAL/MOL
REMARK 922        TOTAL FREE ENERGY PREDICTED BY IDOCK:   -5.40 KCAL/MOL
REMARK 923 INTER-LIGAND FREE ENERGY PREDICTED BY IDOCK:   -5.06 KCAL/MOL
REMARK 924 INTRA-LIGAND FREE ENERGY PREDICTED BY IDOCK:   -0.34 KCAL/MOL
REMARK 927      BINDING AFFINITY PREDICTED BY RF-SCORE:    0.00 PKD
ROOT
HETATM    1  C   UNL     1      -8.520   3.103  72.727  1.00  0.00    -0.080 C  
HETATM    2  C   UNL     1      -8.935   4.471  72.373  1.00  0.00    -0.124 A  
HETATM    3  C   UNL     1     -10.103   5.180  72.492  1.00  0.00    -0.226 A  
HETATM    4  C   UNL     1      -9.802   6.462  71.963  1.00  0.00    -0.156 A  
HETATM    5  O   UNL     1      -7.989   5.263  71.799  1.00  0.00    -0.108 OA 
HETATM    6  N   UNL     1      -8.526   6.512  71.536  1.00  0.00    -0.124 NA 
ENDROOT
BRANCH   4   7
HETATM    7  C   UNL     1     -10.699   7.614  71.876  1.00  0.00    -0.220 C  
HETATM    8  O   UNL     1     -11.104   8.206  72.875  1.00  0.00    -0.373 OA 
HETATM    9  N   UNL     1     -11.028   7.976  70.571  1.00  0.00    -0.246 N  
HETATM   10  H   UNL     1     -10.588   7.498  69.785  1.00  0.00     0.000 HD 
BRANCH   9  11
HETATM   11  N   UNL     1     -11.968   9.003  70.332  1.00  0.00    -0.474 NA 
HETATM   12  H   UNL     1     -12.561   9.152  71.148  1.00  0.00     0.000 HD 
BRANCH  11  13
HETATM   13  C   UNL     1     -11.344  10.256  69.902  1.00  0.00    -0.290 C  
BRANCH  13  14
HETATM   14  C   UNL     1     -12.029  11.457  70.516  1.00  0.00    -0.451 A  
HETATM   15  C   UNL     1     -12.869  11.308  71.629  1.00  0.00    -0.510 A  
HETATM   16  C   UNL     1     -13.497  12.420  72.197  1.00  0.00    -0.481 A  
HETATM   17  C   UNL     1     -13.292  13.689  71.662  1.00  0.00    -0.424 A  
HETATM   18  C   UNL     1     -12.454  13.852  70.561  1.00  0.00    -0.422 A  
HETATM   19  C   UNL     1     -11.823  12.745  69.994  1.00  0.00    -0.352 A  
ENDBRANCH  13  14
ENDBRANCH  11  13
ENDBRANCH   9  11
ENDBRANCH   4   7
TORSDOF 4
ENDMDL
MODEL      138
REMARK 921   NORMALIZED FREE ENERGY PREDICTED BY IDOCK:   -4.18 KCAL/MOL
REMARK 922        TOTAL FREE ENERGY PREDICTED BY IDOCK:   -5.38 KCAL/MOL
REMARK 923 INTER-LIGAND FREE ENERGY PREDICTED BY IDOCK:   -5.03 KCAL/MOL
REMARK 924 INTRA-LIGAND FREE ENERGY PREDICTED BY IDOCK:   -0.35 KCAL/MOL
REMARK 927      BINDING AFFINITY PREDICTED BY RF-SCORE:    0.00 PKD
ROOT
HETATM    1  C   UNL     1     -12.341  14.850  64.264  1.00  0.00    -0.300 C  
HETATM    2  C   UNL     1     -11.640  14.216  65.393  1.00  0.00    -0.334 A  
HETATM    3  C   UNL     1     -11.016  13.009  65.579  1.00  0.00    -0.296 A  
HETATM    4  C   UNL     1     -10.534  13.054  66.913  1.00  0.00    -0.254 A  
HETATM    5  O   UNL     1     -11.556  14.942  66.541  1.00  0.00    -0.339 OA 
HETATM    6  N   UNL     1     -10.867  14.219  67.499  1.00  0.00    -0.276 NA 
ENDROOT
BRANCH   4   7
HETATM    7  C   UNL     1      -9.767  12.021  67.609  1.00  0.00    -0.187 C  
HETATM    8  O   UNL     1      -8.825  11.434  67.079  1.00  0.00    -0.158 OA 
HETATM    9  N   UNL     1     -10.192  11.788  68.916  1.00  0.00    -0.378 N  
HETATM   10  H   UNL     1     -10.922  12.371  69.325  1.00  0.00     0.000 HD 
BRANCH   9  11
HETATM   11  N   UNL     1      -9.615  10.747  69.677  1.00  0.00    -0.414 NA 
HETATM   12  H   UNL     1      -8.958  11.117  70.363  1.00  0.00     0.000 HD 
BRANCH  11  13
HETATM   13  C   UNL     1     -10.615   9.891  70.319  1.00  0.00    -0.301 C  
BRANCH  13  14
HETATM   14  C   UNL     1     -10.655   8.515  69.690  1.00  0.00    -0.221 A  
HETATM   15  C   UNL     1     -10.162   8.308  68.394  1.00  0.00    -0.242 A  
HETATM   16  C   UNL     1     -10.196   7.035  67.818  1.00  0.00    -0.227 A  
HETATM   17  C   UNL     1     -10.720   5.958  68.529  1.00  0.00    -0.327 A  
HETATM   18  C   UNL     1     -11.207   6.150  69.820  1.00  0.00    -0.494 A  
HETATM   19  C   UNL     1     -11.170   7.418  70.400  1.00  0.00    -0.284 A  
ENDBRANCH  13  14
ENDBRANCH  11  13
ENDBRANCH   9  11
ENDBRANCH   4   7
TORSDOF 4
ENDMDL
MODEL      139
REMARK 921   NORMALIZED FREE ENERGY PREDICTED BY IDOCK:   -4.18 KCAL/MOL
REMARK 922        TOTAL FREE ENERGY PREDICTED BY IDOCK:   -5.37 KCAL/MOL
REMARK 923 INTER-LIGAND FREE ENERGY PREDICTED BY IDOCK:   -4.90 KCAL/MOL
REMARK 924 INTRA-LIGAND FREE ENERGY PREDICTED BY IDOCK:   -0.47 KCAL/MOL
REMARK 927      BINDING AFFINITY PREDICTED BY RF-SCORE:    0.00 PKD
ROOT
HETATM    1  C   UNL     1      -9.709   8.439  72.012  1.00  0.00    -0.353 C  
HETATM    2  C   UNL     1      -9.395   8.752  70.607  1.00  0.00    -0.195 A  
HETATM    3  C   UNL     1      -9.413   9.897  69.854  1.00  0.00    -0.256 A  
HETATM    4  C   UNL     1      -8.975   9.489  68.567  1.00  0.00    -0.128 A  
HETATM    5  O   UNL     1      -8.987   7.713  69.830  1.00  0.00    -0.140 OA 
HETATM    6  N   UNL     1      -8.724   8.167  68.548  1.00  0.00    -0.134 NA 
ENDROOT
BRANCH   4   7
HETATM    7  C   UNL     1      -8.787  10.336  67.389  1.00  0.00    -0.131 C  
HETATM    8  O   UNL     1      -8.772   9.878  66.248  1.00  0.00    -0.136 OA 
HETATM    9  N   UNL     1      -8.650  11.691  67.685  1.00  0.00    -0.137 N  
HETATM   10  H   UNL     1      -8.760  12.015  68.645  1.00  0.00     0.000 HD 
BRANCH   9  11
HETATM   11  N   UNL     1      -8.357  12.617  66.659  1.00  0.00    -0.412 NA 
HETATM   12  H   UNL     1      -8.122  12.138  65.790  1.00  0.00     0.000 HD 
BRANCH  11  13
HETATM   13  C   UNL     1      -9.432  13.589  66.447  1.00  0.00    -0.224 C  
BRANCH  13  14
HETATM   14  C   UNL     1     -10.459  13.076  65.462  1.00  0.00    -0.297 A  
HETATM   15  C   UNL     1     -11.830  13.206  65.727  1.00  0.00    -0.442 A  
HETATM   16  C   UNL     1     -12.776  12.735  64.813  1.00  0.00    -0.469 A  
HETATM   17  C   UNL     1     -12.365  12.132  63.628  1.00  0.00    -0.673 A  
HETATM   18  C   UNL     1     -11.006  12.002  63.349  1.00  0.00    -0.475 A  
HETATM   19  C   UNL     1     -10.059  12.474  64.257  1.00  0.00    -0.298 A  
ENDBRANCH  13  14
ENDBRANCH  11  13
ENDBRANCH   9  11
ENDBRANCH   4   7
TORSDOF 4
ENDMDL
MODEL      140
REMARK 921   NORMALIZED FREE ENERGY PREDICTED BY IDOCK:   -4.17 KCAL/MOL
REMARK 922        TOTAL FREE ENERGY PREDICTED BY IDOCK:   -5.36 KCAL/MOL
REMARK 923 INTER-LIGAND FREE ENERGY PREDICTED BY IDOCK:   -5.11 KCAL/MOL
REMARK 924 INTRA-LIGAND FREE ENERGY PREDICTED BY IDOCK:   -0.25 KCAL/MOL
REMARK 927      BINDING AFFINITY PREDICTED BY RF-SCORE:    0.00 PKD
ROOT
HETATM    1  C   UNL     1      -7.551   7.937  72.640  1.00  0.00    -0.138 C  
HETATM    2  C   UNL     1      -8.683   8.572  71.943  1.00  0.00    -0.203 A  
HETATM    3  C   UNL     1      -8.825   9.229  70.747  1.00  0.00    -0.282 A  
HETATM    4  C   UNL     1     -10.201   9.571  70.685  1.00  0.00    -0.297 A  
HETATM    5  O   UNL     1      -9.888   8.527  72.572  1.00  0.00    -0.290 OA 
HETATM    6  N   UNL     1     -10.844   9.154  71.792  1.00  0.00    -0.365 NA 
ENDROOT
BRANCH   4   7
HETATM    7  C   UNL     1     -10.890  10.264  69.597  1.00  0.00    -0.271 C  
HETATM    8  O   UNL     1     -11.120   9.724  68.516  1.00  0.00    -0.184 OA 
HETATM    9  N   UNL     1     -11.268  11.569  69.910  1.00  0.00    -0.478 N  
HETATM   10  H   UNL     1     -11.125  11.927  70.854  1.00  0.00     0.000 HD 
BRANCH   9  11
HETATM   11  N   UNL     1     -11.848  12.398  68.924  1.00  0.00    -0.313 NA 
HETATM   12  H   UNL     1     -12.676  11.960  68.521  1.00  0.00     0.000 HD 
BRANCH  11  13
HETATM   13  C   UNL     1     -12.154  13.741  69.419  1.00  0.00    -0.328 C  
BRANCH  13  14
HETATM   14  C   UNL     1     -11.503  14.809  68.568  1.00  0.00    -0.330 A  
HETATM   15  C   UNL     1     -11.099  14.528  67.255  1.00  0.00    -0.317 A  
HETATM   16  C   UNL     1     -10.502  15.518  66.470  1.00  0.00    -0.301 A  
HETATM   17  C   UNL     1     -10.304  16.796  66.986  1.00  0.00    -0.300 A  
HETATM   18  C   UNL     1     -10.707  17.090  68.287  1.00  0.00    -0.372 A  
HETATM   19  C   UNL     1     -11.307  16.106  69.072  1.00  0.00    -0.340 A  
ENDBRANCH  13  14
ENDBRANCH  11  13
ENDBRANCH   9  11
ENDBRANCH   4   7
TORSDOF 4
ENDMDL
MODEL      141
REMARK 921   NORMALIZED FREE ENERGY PREDICTED BY IDOCK:   -4.16 KCAL/MOL
REMARK 922        TOTAL FREE ENERGY PREDICTED BY IDOCK:   -5.35 KCAL/MOL
REMARK 923 INTER-LIGAND FREE ENERGY PREDICTED BY IDOCK:   -5.09 KCAL/MOL
REMARK 924 INTRA-LIGAND FREE ENERGY PREDICTED BY IDOCK:   -0.26 KCAL/MOL
REMARK 927      BINDING AFFINITY PREDICTED BY RF-SCORE:    0.00 PKD
ROOT
HETATM    1  C   UNL     1      -8.338   8.580  65.285  1.00  0.00    -0.168 C  
HETATM    2  C   UNL     1      -9.249   9.104  66.316  1.00  0.00    -0.194 A  
HETATM    3  C   UNL     1      -9.374   8.921  67.669  1.00  0.00    -0.156 A  
HETATM    4  C   UNL     1     -10.461   9.750  68.047  1.00  0.00    -0.226 A  
HETATM    5  O   UNL     1     -10.205   9.977  65.895  1.00  0.00    -0.259 OA 
HETATM    6  N   UNL     1     -10.971  10.384  66.974  1.00  0.00    -0.208 NA 
ENDROOT
BRANCH   4   7
HETATM    7  C   UNL     1     -10.996   9.945  69.395  1.00  0.00    -0.230 C  
HETATM    8  O   UNL     1     -11.044   9.034  70.219  1.00  0.00    -0.244 OA 
HETATM    9  N   UNL     1     -11.419  11.248  69.651  1.00  0.00    -0.284 N  
HETATM   10  H   UNL     1     -11.270  11.977  68.953  1.00  0.00     0.000 HD 
BRANCH   9  11
HETATM   11  N   UNL     1     -12.054  11.564  70.872  1.00  0.00    -0.368 NA 
HETATM   12  H   UNL     1     -11.377  11.889  71.562  1.00  0.00     0.000 HD 
BRANCH  11  13
HETATM   13  C   UNL     1     -13.144  12.529  70.714  1.00  0.00     0.252 C  
BRANCH  13  14
HETATM   14  C   UNL     1     -12.853  13.821  71.446  1.00  0.00    -0.449 A  
HETATM   15  C   UNL     1     -11.733  14.594  71.112  1.00  0.00    -0.332 A  
HETATM   16  C   UNL     1     -11.469  15.789  71.786  1.00  0.00    -0.484 A  
HETATM   17  C   UNL     1     -12.321  16.225  72.797  1.00  0.00    -0.543 A  
HETATM   18  C   UNL     1     -13.442  15.469  73.135  1.00  0.00    -0.585 A  
HETATM   19  C   UNL     1     -13.710  14.277  72.461  1.00  0.00    -0.608 A  
ENDBRANCH  13  14
ENDBRANCH  11  13
ENDBRANCH   9  11
ENDBRANCH   4   7
TORSDOF 4
ENDMDL
MODEL      142
REMARK 921   NORMALIZED FREE ENERGY PREDICTED BY IDOCK:   -4.15 KCAL/MOL
REMARK 922        TOTAL FREE ENERGY PREDICTED BY IDOCK:   -5.34 KCAL/MOL
REMARK 923 INTER-LIGAND FREE ENERGY PREDICTED BY IDOCK:   -4.88 KCAL/MOL
REMARK 924 INTRA-LIGAND FREE ENERGY PREDICTED BY IDOCK:   -0.46 KCAL/MOL
REMARK 927      BINDING AFFINITY PREDICTED BY RF-SCORE:    0.00 PKD
ROOT
HETATM    1  C   UNL     1      -8.058   7.474  74.361  1.00  0.00    -0.232 C  
HETATM    2  C   UNL     1      -9.091   7.878  73.392  1.00  0.00    -0.283 A  
HETATM    3  C   UNL     1      -9.068   8.504  72.172  1.00  0.00    -0.319 A  
HETATM    4  C   UNL     1     -10.429   8.567  71.774  1.00  0.00    -0.300 A  
HETATM    5  O   UNL     1     -10.379   7.591  73.721  1.00  0.00    -0.323 OA 
HETATM    6  N   UNL     1     -11.224   8.022  72.713  1.00  0.00    -0.400 NA 
ENDROOT
BRANCH   4   7
HETATM    7  C   UNL     1     -10.959   9.120  70.527  1.00  0.00    -0.258 C  
HETATM    8  O   UNL     1     -11.818   9.999  70.513  1.00  0.00    -0.280 OA 
HETATM    9  N   UNL     1     -10.388   8.571  69.380  1.00  0.00    -0.213 N  
HETATM   10  H   UNL     1      -9.617   7.908  69.463  1.00  0.00     0.000 HD 
BRANCH   9  11
HETATM   11  N   UNL     1     -10.873   8.929  68.102  1.00  0.00    -0.467 NA 
HETATM   12  H   UNL     1     -11.794   9.360  68.169  1.00  0.00     0.000 HD 
BRANCH  11  13
HETATM   13  C   UNL     1      -9.946   9.789  67.363  1.00  0.00    -0.191 C  
BRANCH  13  14
HETATM   14  C   UNL     1     -10.321  11.249  67.488  1.00  0.00    -0.224 A  
HETATM   15  C   UNL     1      -9.342  12.218  67.746  1.00  0.00    -0.194 A  
HETATM   16  C   UNL     1      -9.690  13.567  67.857  1.00  0.00    -0.225 A  
HETATM   17  C   UNL     1     -11.018  13.961  67.710  1.00  0.00    -0.271 A  
HETATM   18  C   UNL     1     -12.000  13.008  67.448  1.00  0.00    -0.372 A  
HETATM   19  C   UNL     1     -11.655  11.662  67.332  1.00  0.00    -0.330 A  
ENDBRANCH  13  14
ENDBRANCH  11  13
ENDBRANCH   9  11
ENDBRANCH   4   7
TORSDOF 4
ENDMDL
MODEL      143
REMARK 921   NORMALIZED FREE ENERGY PREDICTED BY IDOCK:   -4.15 KCAL/MOL
REMARK 922        TOTAL FREE ENERGY PREDICTED BY IDOCK:   -5.34 KCAL/MOL
REMARK 923 INTER-LIGAND FREE ENERGY PREDICTED BY IDOCK:   -4.90 KCAL/MOL
REMARK 924 INTRA-LIGAND FREE ENERGY PREDICTED BY IDOCK:   -0.43 KCAL/MOL
REMARK 927      BINDING AFFINITY PREDICTED BY RF-SCORE:    0.00 PKD
ROOT
HETATM    1  C   UNL     1     -11.343   7.495  72.675  1.00  0.00    -0.395 C  
HETATM    2  C   UNL     1     -11.243   8.501  71.603  1.00  0.00    -0.292 A  
HETATM    3  C   UNL     1     -10.705   8.507  70.342  1.00  0.00    -0.246 A  
HETATM    4  C   UNL     1     -10.975   9.807  69.841  1.00  0.00    -0.264 A  
HETATM    5  O   UNL     1     -11.793   9.718  71.859  1.00  0.00    -0.342 OA 
HETATM    6  N   UNL     1     -11.626  10.544  70.761  1.00  0.00    -0.347 NA 
ENDROOT
BRANCH   4   7
HETATM    7  C   UNL     1     -10.635  10.332  68.519  1.00  0.00    -0.213 C  
HETATM    8  O   UNL     1      -9.496  10.261  68.059  1.00  0.00    -0.144 OA 
HETATM    9  N   UNL     1     -11.715  10.892  67.840  1.00  0.00    -0.298 N  
HETATM   10  H   UNL     1     -12.651  10.840  68.241  1.00  0.00     0.000 HD 
BRANCH   9  11
HETATM   11  N   UNL     1     -11.519  11.533  66.596  1.00  0.00    -0.444 NA 
HETATM   12  H   UNL     1     -11.875  10.962  65.831  1.00  0.00     0.000 HD 
BRANCH  11  13
HETATM   13  C   UNL     1     -12.092  12.880  66.554  1.00  0.00    -0.305 C  
BRANCH  13  14
HETATM   14  C   UNL     1     -11.307  13.845  67.415  1.00  0.00    -0.349 A  
HETATM   15  C   UNL     1      -9.909  13.903  67.330  1.00  0.00    -0.237 A  
HETATM   16  C   UNL     1      -9.186  14.799  68.123  1.00  0.00    -0.195 A  
HETATM   17  C   UNL     1      -9.851  15.645  69.007  1.00  0.00    -0.236 A  
HETATM   18  C   UNL     1     -11.241  15.602  69.097  1.00  0.00    -0.315 A  
HETATM   19  C   UNL     1     -11.965  14.712  68.303  1.00  0.00    -0.282 A  
ENDBRANCH  13  14
ENDBRANCH  11  13
ENDBRANCH   9  11
ENDBRANCH   4   7
TORSDOF 4
ENDMDL
MODEL      144
REMARK 921   NORMALIZED FREE ENERGY PREDICTED BY IDOCK:   -4.14 KCAL/MOL
REMARK 922        TOTAL FREE ENERGY PREDICTED BY IDOCK:   -5.32 KCAL/MOL
REMARK 923 INTER-LIGAND FREE ENERGY PREDICTED BY IDOCK:   -4.97 KCAL/MOL
REMARK 924 INTRA-LIGAND FREE ENERGY PREDICTED BY IDOCK:   -0.35 KCAL/MOL
REMARK 927      BINDING AFFINITY PREDICTED BY RF-SCORE:    0.00 PKD
ROOT
HETATM    1  C   UNL     1     -12.317  12.252  63.464  1.00  0.00    -0.670 C  
HETATM    2  C   UNL     1     -11.457  11.864  64.595  1.00  0.00    -0.279 A  
HETATM    3  C   UNL     1     -11.138  12.440  65.798  1.00  0.00    -0.351 A  
HETATM    4  C   UNL     1     -10.260  11.515  66.420  1.00  0.00    -0.224 A  
HETATM    5  O   UNL     1     -10.806  10.675  64.485  1.00  0.00    -0.135 OA 
HETATM    6  N   UNL     1     -10.051  10.450  65.623  1.00  0.00    -0.271 NA 
ENDROOT
BRANCH   4   7
HETATM    7  C   UNL     1      -9.644  11.634  67.741  1.00  0.00    -0.178 C  
HETATM    8  O   UNL     1      -9.417  12.724  68.263  1.00  0.00    -0.214 OA 
HETATM    9  N   UNL     1      -9.363  10.409  68.344  1.00  0.00    -0.145 N  
HETATM   10  H   UNL     1      -9.657   9.542  67.895  1.00  0.00     0.000 HD 
BRANCH   9  11
HETATM   11  N   UNL     1      -8.673  10.363  69.576  1.00  0.00    -0.332 NA 
HETATM   12  H   UNL     1      -9.144  10.931  70.280  1.00  0.00     0.000 HD 
BRANCH  11  13
HETATM   13  C   UNL     1      -8.462   8.998  70.060  1.00  0.00    -0.145 C  
BRANCH  13  14
HETATM   14  C   UNL     1      -9.769   8.332  70.432  1.00  0.00    -0.175 A  
HETATM   15  C   UNL     1     -10.563   8.848  71.466  1.00  0.00    -0.399 A  
HETATM   16  C   UNL     1     -11.772   8.234  71.806  1.00  0.00    -0.357 A  
HETATM   17  C   UNL     1     -12.200   7.103  71.116  1.00  0.00    -0.405 A  
HETATM   18  C   UNL     1     -11.423   6.584  70.082  1.00  0.00    -0.477 A  
HETATM   19  C   UNL     1     -10.218   7.197  69.738  1.00  0.00    -0.215 A  
ENDBRANCH  13  14
ENDBRANCH  11  13
ENDBRANCH   9  11
ENDBRANCH   4   7
TORSDOF 4
ENDMDL
MODEL      145
REMARK 921   NORMALIZED FREE ENERGY PREDICTED BY IDOCK:   -4.13 KCAL/MOL
REMARK 922        TOTAL FREE ENERGY PREDICTED BY IDOCK:   -5.32 KCAL/MOL
REMARK 923 INTER-LIGAND FREE ENERGY PREDICTED BY IDOCK:   -5.08 KCAL/MOL
REMARK 924 INTRA-LIGAND FREE ENERGY PREDICTED BY IDOCK:   -0.24 KCAL/MOL
REMARK 927      BINDING AFFINITY PREDICTED BY RF-SCORE:    0.00 PKD
ROOT
HETATM    1  C   UNL     1     -12.271  14.486  64.354  1.00  0.00    -0.480 C  
HETATM    2  C   UNL     1     -11.630  13.185  64.616  1.00  0.00    -0.345 A  
HETATM    3  C   UNL     1     -11.269  12.506  65.752  1.00  0.00    -0.356 A  
HETATM    4  C   UNL     1     -10.710  11.290  65.282  1.00  0.00    -0.237 A  
HETATM    5  O   UNL     1     -11.301  12.439  63.527  1.00  0.00    -0.438 OA 
HETATM    6  N   UNL     1     -10.721  11.251  63.936  1.00  0.00    -0.382 NA 
ENDROOT
BRANCH   4   7
HETATM    7  C   UNL     1     -10.189  10.188  66.091  1.00  0.00    -0.215 C  
HETATM    8  O   UNL     1      -9.834   9.120  65.594  1.00  0.00    -0.264 OA 
HETATM    9  N   UNL     1     -10.119  10.473  67.453  1.00  0.00    -0.188 N  
HETATM   10  H   UNL     1     -10.346  11.408  67.789  1.00  0.00     0.000 HD 
BRANCH   9  11
HETATM   11  N   UNL     1      -9.736   9.470  68.371  1.00  0.00    -0.152 NA 
HETATM   12  H   UNL     1      -8.831   9.072  68.121  1.00  0.00     0.000 HD 
BRANCH  11  13
HETATM   13  C   UNL     1      -9.735   9.939  69.758  1.00  0.00    -0.236 C  
BRANCH  13  14
HETATM   14  C   UNL     1     -10.279   8.888  70.701  1.00  0.00    -0.267 A  
HETATM   15  C   UNL     1      -9.589   7.685  70.904  1.00  0.00    -0.167 A  
HETATM   16  C   UNL     1     -10.091   6.717  71.778  1.00  0.00    -0.195 A  
HETATM   17  C   UNL     1     -11.285   6.942  72.459  1.00  0.00    -0.304 A  
HETATM   18  C   UNL     1     -11.978   8.136  72.271  1.00  0.00    -0.434 A  
HETATM   19  C   UNL     1     -11.477   9.105  71.402  1.00  0.00    -0.420 A  
ENDBRANCH  13  14
ENDBRANCH  11  13
ENDBRANCH   9  11
ENDBRANCH   4   7
TORSDOF 4
ENDMDL
MODEL      146
REMARK 921   NORMALIZED FREE ENERGY PREDICTED BY IDOCK:   -4.13 KCAL/MOL
REMARK 922        TOTAL FREE ENERGY PREDICTED BY IDOCK:   -5.31 KCAL/MOL
REMARK 923 INTER-LIGAND FREE ENERGY PREDICTED BY IDOCK:   -5.06 KCAL/MOL
REMARK 924 INTRA-LIGAND FREE ENERGY PREDICTED BY IDOCK:   -0.25 KCAL/MOL
REMARK 927      BINDING AFFINITY PREDICTED BY RF-SCORE:    0.00 PKD
ROOT
HETATM    1  C   UNL     1      -9.474   3.459  68.911  1.00  0.00    -0.201 C  
HETATM    2  C   UNL     1      -9.901   4.814  69.300  1.00  0.00    -0.199 A  
HETATM    3  C   UNL     1      -9.813   6.052  68.716  1.00  0.00    -0.170 A  
HETATM    4  C   UNL     1     -10.449   6.929  69.632  1.00  0.00    -0.218 A  
HETATM    5  O   UNL     1     -10.535   4.931  70.498  1.00  0.00    -0.216 OA 
HETATM    6  N   UNL     1     -10.879   6.254  70.715  1.00  0.00    -0.264 NA 
ENDROOT
BRANCH   4   7
HETATM    7  C   UNL     1     -10.653   8.369  69.478  1.00  0.00    -0.213 C  
HETATM    8  O   UNL     1     -10.562   9.149  70.425  1.00  0.00    -0.203 OA 
HETATM    9  N   UNL     1     -10.937   8.762  68.172  1.00  0.00    -0.466 N  
HETATM   10  H   UNL     1     -10.910   8.076  67.418  1.00  0.00     0.000 HD 
BRANCH   9  11
HETATM   11  N   UNL     1     -11.261  10.107  67.887  1.00  0.00    -0.485 NA 
HETATM   12  H   UNL     1     -11.287  10.665  68.740  1.00  0.00     0.000 HD 
BRANCH  11  13
HETATM   13  C   UNL     1     -10.368  10.709  66.894  1.00  0.00    -0.236 C  
BRANCH  13  14
HETATM   14  C   UNL     1     -10.787  12.123  66.556  1.00  0.00    -0.307 A  
HETATM   15  C   UNL     1     -11.600  12.856  67.431  1.00  0.00    -0.414 A  
HETATM   16  C   UNL     1     -11.982  14.163  67.118  1.00  0.00    -0.460 A  
HETATM   17  C   UNL     1     -11.555  14.752  65.931  1.00  0.00    -0.286 A  
HETATM   18  C   UNL     1     -10.741  14.037  65.054  1.00  0.00    -0.409 A  
HETATM   19  C   UNL     1     -10.355  12.733  65.366  1.00  0.00    -0.310 A  
ENDBRANCH  13  14
ENDBRANCH  11  13
ENDBRANCH   9  11
ENDBRANCH   4   7
TORSDOF 4
ENDMDL
MODEL      147
REMARK 921   NORMALIZED FREE ENERGY PREDICTED BY IDOCK:   -4.11 KCAL/MOL
REMARK 922        TOTAL FREE ENERGY PREDICTED BY IDOCK:   -5.29 KCAL/MOL
REMARK 923 INTER-LIGAND FREE ENERGY PREDICTED BY IDOCK:   -5.27 KCAL/MOL
REMARK 924 INTRA-LIGAND FREE ENERGY PREDICTED BY IDOCK:   -0.02 KCAL/MOL
REMARK 927      BINDING AFFINITY PREDICTED BY RF-SCORE:    0.00 PKD
ROOT
HETATM    1  C   UNL     1     -12.410  15.539  71.617  1.00  0.00    -0.471 C  
HETATM    2  C   UNL     1     -11.945  15.425  70.224  1.00  0.00    -0.355 A  
HETATM    3  C   UNL     1     -12.080  14.476  69.243  1.00  0.00    -0.325 A  
HETATM    4  C   UNL     1     -11.393  15.014  68.124  1.00  0.00    -0.330 A  
HETATM    5  O   UNL     1     -11.214  16.465  69.740  1.00  0.00    -0.325 OA 
HETATM    6  N   UNL     1     -10.861  16.214  68.425  1.00  0.00    -0.302 NA 
ENDROOT
BRANCH   4   7
HETATM    7  C   UNL     1     -11.255  14.410  66.799  1.00  0.00    -0.337 C  
HETATM    8  O   UNL     1     -12.041  14.649  65.884  1.00  0.00    -0.315 OA 
HETATM    9  N   UNL     1     -10.152  13.566  66.676  1.00  0.00    -0.270 N  
HETATM   10  H   UNL     1      -9.490  13.480  67.447  1.00  0.00     0.000 HD 
BRANCH   9  11
HETATM   11  N   UNL     1      -9.948  12.830  65.488  1.00  0.00    -0.376 NA 
HETATM   12  H   UNL     1      -9.092  13.125  65.018  1.00  0.00     0.000 HD 
BRANCH  11  13
HETATM   13  C   UNL     1      -9.952  11.382  65.709  1.00  0.00    -0.230 C  
BRANCH  13  14
HETATM   14  C   UNL     1     -10.220  11.042  67.158  1.00  0.00    -0.243 A  
HETATM   15  C   UNL     1     -11.522  11.101  67.676  1.00  0.00    -0.328 A  
HETATM   16  C   UNL     1     -11.768  10.782  69.014  1.00  0.00    -0.357 A  
HETATM   17  C   UNL     1     -10.719  10.398  69.846  1.00  0.00    -0.331 A  
HETATM   18  C   UNL     1      -9.422  10.329  69.342  1.00  0.00    -0.225 A  
HETATM   19  C   UNL     1      -9.174  10.643  68.006  1.00  0.00    -0.148 A  
ENDBRANCH  13  14
ENDBRANCH  11  13
ENDBRANCH   9  11
ENDBRANCH   4   7
TORSDOF 4
ENDMDL
MODEL      148
REMARK 921   NORMALIZED FREE ENERGY PREDICTED BY IDOCK:   -4.10 KCAL/MOL
REMARK 922        TOTAL FREE ENERGY PREDICTED BY IDOCK:   -5.27 KCAL/MOL
REMARK 923 INTER-LIGAND FREE ENERGY PREDICTED BY IDOCK:   -4.88 KCAL/MOL
REMARK 924 INTRA-LIGAND FREE ENERGY PREDICTED BY IDOCK:   -0.39 KCAL/MOL
REMARK 927      BINDING AFFINITY PREDICTED BY RF-SCORE:    0.00 PKD
ROOT
HETATM    1  C   UNL     1      -9.112   9.629  64.472  1.00  0.00    -0.287 C  
HETATM    2  C   UNL     1      -9.846  10.512  65.396  1.00  0.00    -0.274 A  
HETATM    3  C   UNL     1     -10.272  10.399  66.694  1.00  0.00    -0.292 A  
HETATM    4  C   UNL     1     -10.907  11.637  66.974  1.00  0.00    -0.266 A  
HETATM    5  O   UNL     1     -10.208  11.731  64.912  1.00  0.00    -0.253 OA 
HETATM    6  N   UNL     1     -10.876  12.441  65.895  1.00  0.00    -0.262 NA 
ENDROOT
BRANCH   4   7
HETATM    7  C   UNL     1     -11.516  12.050  68.238  1.00  0.00    -0.303 C  
HETATM    8  O   UNL     1     -12.009  13.166  68.395  1.00  0.00    -0.341 OA 
HETATM    9  N   UNL     1     -11.499  11.062  69.221  1.00  0.00    -0.272 N  
HETATM   10  H   UNL     1     -11.154  10.129  68.999  1.00  0.00     0.000 HD 
BRANCH   9  11
HETATM   11  N   UNL     1     -11.957  11.349  70.527  1.00  0.00    -0.376 NA 
HETATM   12  H   UNL     1     -12.426  12.254  70.558  1.00  0.00     0.000 HD 
BRANCH  11  13
HETATM   13  C   UNL     1     -12.814  10.296  71.073  1.00  0.00    -0.397 C  
BRANCH  13  14
HETATM   14  C   UNL     1     -12.051   9.006  71.275  1.00  0.00    -0.375 A  
HETATM   15  C   UNL     1     -12.433   7.836  70.602  1.00  0.00     0.146 A  
HETATM   16  C   UNL     1     -11.723   6.647  70.787  1.00  0.00    -0.445 A  
HETATM   17  C   UNL     1     -10.625   6.613  71.642  1.00  0.00    -0.245 A  
HETATM   18  C   UNL     1     -10.230   7.770  72.312  1.00  0.00    -0.285 A  
HETATM   19  C   UNL     1     -10.934   8.959  72.126  1.00  0.00    -0.349 A  
ENDBRANCH  13  14
ENDBRANCH  11  13
ENDBRANCH   9  11
ENDBRANCH   4   7
TORSDOF 4
ENDMDL
MODEL      149
REMARK 921   NORMALIZED FREE ENERGY PREDICTED BY IDOCK:   -4.08 KCAL/MOL
REMARK 922        TOTAL FREE ENERGY PREDICTED BY IDOCK:   -5.25 KCAL/MOL
REMARK 923 INTER-LIGAND FREE ENERGY PREDICTED BY IDOCK:   -4.94 KCAL/MOL
REMARK 924 INTRA-LIGAND FREE ENERGY PREDICTED BY IDOCK:   -0.31 KCAL/MOL
REMARK 927      BINDING AFFINITY PREDICTED BY RF-SCORE:    0.00 PKD
ROOT
HETATM    1  C   UNL     1      -9.805   8.826  65.997  1.00  0.00    -0.234 C  
HETATM    2  C   UNL     1     -10.242  10.125  66.537  1.00  0.00    -0.223 A  
HETATM    3  C   UNL     1     -10.164  10.728  67.766  1.00  0.00    -0.212 A  
HETATM    4  C   UNL     1     -10.774  11.997  67.585  1.00  0.00    -0.217 A  
HETATM    5  O   UNL     1     -10.869  10.964  65.668  1.00  0.00    -0.165 OA 
HETATM    6  N   UNL     1     -11.208  12.138  66.319  1.00  0.00    -0.318 NA 
ENDROOT
BRANCH   4   7
HETATM    7  C   UNL     1     -10.930  13.052  68.586  1.00  0.00    -0.265 C  
HETATM    8  O   UNL     1     -11.748  12.973  69.501  1.00  0.00    -0.297 OA 
HETATM    9  N   UNL     1     -10.060  14.127  68.411  1.00  0.00    -0.233 N  
HETATM   10  H   UNL     1      -9.345  14.090  67.684  1.00  0.00     0.000 HD 
BRANCH   9  11
HETATM   11  N   UNL     1     -10.163  15.268  69.237  1.00  0.00    -0.238 NA 
HETATM   12  H   UNL     1      -9.243  15.660  69.436  1.00  0.00     0.000 HD 
BRANCH  11  13
HETATM   13  C   UNL     1     -11.059  16.288  68.688  1.00  0.00    -0.356 C  
BRANCH  13  14
HETATM   14  C   UNL     1     -10.287  17.467  68.136  1.00  0.00    -0.366 A  
HETATM   15  C   UNL     1     -10.907  18.389  67.281  1.00  0.00    -0.296 A  
HETATM   16  C   UNL     1     -10.193  19.479  66.776  1.00  0.00    -0.543 A  
HETATM   17  C   UNL     1      -8.856  19.660  67.121  1.00  0.00    -0.374 A  
HETATM   18  C   UNL     1      -8.230  18.755  67.975  1.00  0.00    -0.317 A  
HETATM   19  C   UNL     1      -8.941  17.668  68.484  1.00  0.00    -0.289 A  
ENDBRANCH  13  14
ENDBRANCH  11  13
ENDBRANCH   9  11
ENDBRANCH   4   7
TORSDOF 4
ENDMDL
MODEL      150
REMARK 921   NORMALIZED FREE ENERGY PREDICTED BY IDOCK:   -4.06 KCAL/MOL
REMARK 922        TOTAL FREE ENERGY PREDICTED BY IDOCK:   -5.22 KCAL/MOL
REMARK 923 INTER-LIGAND FREE ENERGY PREDICTED BY IDOCK:   -4.90 KCAL/MOL
REMARK 924 INTRA-LIGAND FREE ENERGY PREDICTED BY IDOCK:   -0.32 KCAL/MOL
REMARK 927      BINDING AFFINITY PREDICTED BY RF-SCORE:    0.00 PKD
ROOT
HETATM    1  C   UNL     1     -10.652   5.386  66.513  1.00  0.00    -0.353 C  
HETATM    2  C   UNL     1     -10.387   6.415  67.533  1.00  0.00    -0.196 A  
HETATM    3  C   UNL     1     -10.583   7.771  67.601  1.00  0.00    -0.283 A  
HETATM    4  C   UNL     1     -10.115   8.139  68.889  1.00  0.00    -0.202 A  
HETATM    5  O   UNL     1      -9.826   5.988  68.696  1.00  0.00    -0.129 OA 
HETATM    6  N   UNL     1      -9.648   7.063  69.550  1.00  0.00    -0.153 NA 
ENDROOT
BRANCH   4   7
HETATM    7  C   UNL     1     -10.121   9.477  69.481  1.00  0.00    -0.206 C  
HETATM    8  O   UNL     1      -9.831   9.674  70.659  1.00  0.00    -0.265 OA 
HETATM    9  N   UNL     1     -10.464  10.488  68.585  1.00  0.00    -0.180 N  
HETATM   10  H   UNL     1     -10.608  10.267  67.600  1.00  0.00     0.000 HD 
BRANCH   9  11
HETATM   11  N   UNL     1     -10.615  11.818  69.036  1.00  0.00    -0.357 NA 
HETATM   12  H   UNL     1      -9.763  12.356  68.879  1.00  0.00     0.000 HD 
BRANCH  11  13
HETATM   13  C   UNL     1     -11.775  12.491  68.447  1.00  0.00    -0.328 C  
BRANCH  13  14
HETATM   14  C   UNL     1     -11.394  13.271  67.208  1.00  0.00    -0.347 A  
HETATM   15  C   UNL     1     -12.125  13.126  66.021  1.00  0.00    -0.495 A  
HETATM   16  C   UNL     1     -11.775  13.852  64.879  1.00  0.00    -0.378 A  
HETATM   17  C   UNL     1     -10.694  14.730  64.912  1.00  0.00    -0.438 A  
HETATM   18  C   UNL     1      -9.963  14.888  66.088  1.00  0.00    -0.323 A  
HETATM   19  C   UNL     1     -10.313  14.168  67.230  1.00  0.00    -0.267 A  
ENDBRANCH  13  14
ENDBRANCH  11  13
ENDBRANCH   9  11
ENDBRANCH   4   7
TORSDOF 4
ENDMDL
MODEL      151
REMARK 921   NORMALIZED FREE ENERGY PREDICTED BY IDOCK:   -4.05 KCAL/MOL
REMARK 922        TOTAL FREE ENERGY PREDICTED BY IDOCK:   -5.21 KCAL/MOL
REMARK 923 INTER-LIGAND FREE ENERGY PREDICTED BY IDOCK:   -4.90 KCAL/MOL
REMARK 924 INTRA-LIGAND FREE ENERGY PREDICTED BY IDOCK:   -0.31 KCAL/MOL
REMARK 927      BINDING AFFINITY PREDICTED BY RF-SCORE:    0.00 PKD
ROOT
HETATM    1  C   UNL     1     -11.286  15.091  67.197  1.00  0.00    -0.323 C  
HETATM    2  C   UNL     1     -10.521  13.855  67.433  1.00  0.00    -0.263 A  
HETATM    3  C   UNL     1     -10.738  12.718  68.169  1.00  0.00    -0.243 A  
HETATM    4  C   UNL     1      -9.593  11.914  67.936  1.00  0.00    -0.193 A  
HETATM    5  O   UNL     1      -9.318  13.755  66.804  1.00  0.00    -0.253 OA 
HETATM    6  N   UNL     1      -8.729  12.542  67.117  1.00  0.00    -0.194 NA 
ENDROOT
BRANCH   4   7
HETATM    7  C   UNL     1      -9.331  10.576  68.468  1.00  0.00    -0.168 C  
HETATM    8  O   UNL     1      -8.190  10.155  68.652  1.00  0.00    -0.102 OA 
HETATM    9  N   UNL     1     -10.484   9.849  68.757  1.00  0.00    -0.204 N  
HETATM   10  H   UNL     1     -11.400  10.289  68.663  1.00  0.00     0.000 HD 
BRANCH   9  11
HETATM   11  N   UNL     1     -10.391   8.504  69.178  1.00  0.00    -0.216 NA 
HETATM   12  H   UNL     1      -9.579   8.047  68.764  1.00  0.00     0.000 HD 
BRANCH  11  13
HETATM   13  C   UNL     1     -10.385   8.363  70.635  1.00  0.00    -0.197 C  
BRANCH  13  14
HETATM   14  C   UNL     1     -11.788   8.374  71.201  1.00  0.00    -0.314 A  
HETATM   15  C   UNL     1     -12.553   7.200  71.235  1.00  0.00    -0.421 A  
HETATM   16  C   UNL     1     -13.847   7.212  71.762  1.00  0.00    -0.375 A  
HETATM   17  C   UNL     1     -14.389   8.394  72.261  1.00  0.00    -0.465 A  
HETATM   18  C   UNL     1     -13.637   9.567  72.238  1.00  0.00    -0.494 A  
HETATM   19  C   UNL     1     -12.343   9.557  71.717  1.00  0.00    -0.474 A  
ENDBRANCH  13  14
ENDBRANCH  11  13
ENDBRANCH   9  11
ENDBRANCH   4   7
TORSDOF 4
ENDMDL
MODEL      152
REMARK 921   NORMALIZED FREE ENERGY PREDICTED BY IDOCK:   -4.05 KCAL/MOL
REMARK 922        TOTAL FREE ENERGY PREDICTED BY IDOCK:   -5.21 KCAL/MOL
REMARK 923 INTER-LIGAND FREE ENERGY PREDICTED BY IDOCK:   -4.92 KCAL/MOL
REMARK 924 INTRA-LIGAND FREE ENERGY PREDICTED BY IDOCK:   -0.29 KCAL/MOL
REMARK 927      BINDING AFFINITY PREDICTED BY RF-SCORE:    0.00 PKD
ROOT
HETATM    1  C   UNL     1     -12.255  12.991  70.614  1.00  0.00    -0.390 C  
HETATM    2  C   UNL     1     -12.443  11.582  70.999  1.00  0.00    -0.356 A  
HETATM    3  C   UNL     1     -11.949  10.388  70.540  1.00  0.00    -0.427 A  
HETATM    4  C   UNL     1     -12.535   9.407  71.381  1.00  0.00    -0.352 A  
HETATM    5  O   UNL     1     -13.284  11.344  72.042  1.00  0.00    -0.503 OA 
HETATM    6  N   UNL     1     -13.349   9.983  72.286  1.00  0.00    -0.383 NA 
ENDROOT
BRANCH   4   7
HETATM    7  C   UNL     1     -12.317   7.961  71.336  1.00  0.00    -0.312 C  
HETATM    8  O   UNL     1     -12.586   7.228  72.285  1.00  0.00    -0.172 OA 
HETATM    9  N   UNL     1     -11.801   7.507  70.123  1.00  0.00    -0.494 N  
HETATM   10  H   UNL     1     -11.683   8.156  69.346  1.00  0.00     0.000 HD 
BRANCH   9  11
HETATM   11  N   UNL     1     -11.441   6.150  69.967  1.00  0.00    -0.382 NA 
HETATM   12  H   UNL     1     -11.862   5.756  69.126  1.00  0.00     0.000 HD 
BRANCH  11  13
HETATM   13  C   UNL     1      -9.992   5.942  69.974  1.00  0.00    -0.183 C  
BRANCH  13  14
HETATM   14  C   UNL     1      -9.558   5.013  68.862  1.00  0.00    -0.213 A  
HETATM   15  C   UNL     1      -8.561   4.052  69.082  1.00  0.00    -0.111 A  
HETATM   16  C   UNL     1      -8.166   3.192  68.054  1.00  0.00    -0.088 A  
HETATM   17  C   UNL     1      -8.760   3.281  66.799  1.00  0.00    -0.132 A  
HETATM   18  C   UNL     1      -9.756   4.228  66.568  1.00  0.00    -0.236 A  
HETATM   19  C   UNL     1     -10.157   5.085  67.593  1.00  0.00    -0.192 A  
ENDBRANCH  13  14
ENDBRANCH  11  13
ENDBRANCH   9  11
ENDBRANCH   4   7
TORSDOF 4
ENDMDL
MODEL      153
REMARK 921   NORMALIZED FREE ENERGY PREDICTED BY IDOCK:   -4.04 KCAL/MOL
REMARK 922        TOTAL FREE ENERGY PREDICTED BY IDOCK:   -5.20 KCAL/MOL
REMARK 923 INTER-LIGAND FREE ENERGY PREDICTED BY IDOCK:   -4.98 KCAL/MOL
REMARK 924 INTRA-LIGAND FREE ENERGY PREDICTED BY IDOCK:   -0.22 KCAL/MOL
REMARK 927      BINDING AFFINITY PREDICTED BY RF-SCORE:    0.00 PKD
ROOT
HETATM    1  C   UNL     1      -8.393   7.775  65.446  1.00  0.00    -0.141 C  
HETATM    2  C   UNL     1      -9.103   9.061  65.343  1.00  0.00    -0.193 A  
HETATM    3  C   UNL     1      -9.993   9.732  66.142  1.00  0.00    -0.338 A  
HETATM    4  C   UNL     1     -10.267  10.937  65.445  1.00  0.00    -0.277 A  
HETATM    5  O   UNL     1      -8.860   9.802  64.228  1.00  0.00    -0.196 OA 
HETATM    6  N   UNL     1      -9.589  10.978  64.283  1.00  0.00    -0.245 NA 
ENDROOT
BRANCH   4   7
HETATM    7  C   UNL     1     -11.141  12.028  65.878  1.00  0.00    -0.324 C  
HETATM    8  O   UNL     1     -12.281  12.169  65.438  1.00  0.00    -0.515 OA 
HETATM    9  N   UNL     1     -10.568  12.863  66.835  1.00  0.00    -0.252 N  
HETATM   10  H   UNL     1      -9.652  12.639  67.222  1.00  0.00     0.000 HD 
BRANCH   9  11
HETATM   11  N   UNL     1     -11.251  14.020  67.271  1.00  0.00    -0.302 NA 
HETATM   12  H   UNL     1     -10.942  14.297  68.202  1.00  0.00     0.000 HD 
BRANCH  11  13
HETATM   13  C   UNL     1     -11.141  15.135  66.329  1.00  0.00    -0.309 C  
BRANCH  13  14
HETATM   14  C   UNL     1     -10.216  16.213  66.849  1.00  0.00    -0.283 A  
HETATM   15  C   UNL     1     -10.537  16.929  68.011  1.00  0.00    -0.367 A  
HETATM   16  C   UNL     1      -9.679  17.922  68.493  1.00  0.00    -0.352 A  
HETATM   17  C   UNL     1      -8.493  18.208  67.821  1.00  0.00    -0.251 A  
HETATM   18  C   UNL     1      -8.159  17.499  66.669  1.00  0.00    -0.289 A  
HETATM   19  C   UNL     1      -9.012  16.505  66.188  1.00  0.00    -0.344 A  
ENDBRANCH  13  14
ENDBRANCH  11  13
ENDBRANCH   9  11
ENDBRANCH   4   7
TORSDOF 4
ENDMDL
MODEL      154
REMARK 921   NORMALIZED FREE ENERGY PREDICTED BY IDOCK:   -4.03 KCAL/MOL
REMARK 922        TOTAL FREE ENERGY PREDICTED BY IDOCK:   -5.19 KCAL/MOL
REMARK 923 INTER-LIGAND FREE ENERGY PREDICTED BY IDOCK:   -4.93 KCAL/MOL
REMARK 924 INTRA-LIGAND FREE ENERGY PREDICTED BY IDOCK:   -0.25 KCAL/MOL
REMARK 927      BINDING AFFINITY PREDICTED BY RF-SCORE:    0.00 PKD
ROOT
HETATM    1  C   UNL     1      -5.994   8.457  72.010  1.00  0.00    -0.054 C  
HETATM    2  C   UNL     1      -7.330   8.741  71.460  1.00  0.00    -0.085 A  
HETATM    3  C   UNL     1      -7.845   8.836  70.193  1.00  0.00    -0.094 A  
HETATM    4  C   UNL     1      -9.222   9.120  70.383  1.00  0.00    -0.233 A  
HETATM    5  O   UNL     1      -8.324   8.964  72.362  1.00  0.00    -0.386 OA 
HETATM    6  N   UNL     1      -9.513   9.206  71.695  1.00  0.00    -0.316 NA 
ENDROOT
BRANCH   4   7
HETATM    7  C   UNL     1     -10.239   9.293  69.346  1.00  0.00    -0.210 C  
HETATM    8  O   UNL     1     -10.594   8.370  68.615  1.00  0.00    -0.196 OA 
HETATM    9  N   UNL     1     -10.768  10.581  69.284  1.00  0.00    -0.218 N  
HETATM   10  H   UNL     1     -10.493  11.277  69.977  1.00  0.00     0.000 HD 
BRANCH   9  11
HETATM   11  N   UNL     1     -11.683  10.927  68.264  1.00  0.00    -0.640 NA 
HETATM   12  H   UNL     1     -12.538  10.376  68.339  1.00  0.00     0.000 HD 
BRANCH  11  13
HETATM   13  C   UNL     1     -11.984  12.360  68.233  1.00  0.00    -0.214 C  
BRANCH  13  14
HETATM   14  C   UNL     1     -11.543  12.992  66.931  1.00  0.00    -0.419 A  
HETATM   15  C   UNL     1     -12.151  12.630  65.720  1.00  0.00    -0.484 A  
HETATM   16  C   UNL     1     -11.745  13.219  64.520  1.00  0.00    -0.420 A  
HETATM   17  C   UNL     1     -10.732  14.174  64.516  1.00  0.00    -0.323 A  
HETATM   18  C   UNL     1     -10.124  14.547  65.713  1.00  0.00    -0.365 A  
HETATM   19  C   UNL     1     -10.529  13.964  66.913  1.00  0.00    -0.276 A  
ENDBRANCH  13  14
ENDBRANCH  11  13
ENDBRANCH   9  11
ENDBRANCH   4   7
TORSDOF 4
ENDMDL
MODEL      155
REMARK 921   NORMALIZED FREE ENERGY PREDICTED BY IDOCK:   -4.02 KCAL/MOL
REMARK 922        TOTAL FREE ENERGY PREDICTED BY IDOCK:   -5.18 KCAL/MOL
REMARK 923 INTER-LIGAND FREE ENERGY PREDICTED BY IDOCK:   -4.86 KCAL/MOL
REMARK 924 INTRA-LIGAND FREE ENERGY PREDICTED BY IDOCK:   -0.32 KCAL/MOL
REMARK 927      BINDING AFFINITY PREDICTED BY RF-SCORE:    0.00 PKD
ROOT
HETATM    1  C   UNL     1      -5.484  17.696  70.399  1.00  0.00    -0.260 C  
HETATM    2  C   UNL     1      -6.210  16.564  69.798  1.00  0.00    -0.205 A  
HETATM    3  C   UNL     1      -7.421  16.427  69.170  1.00  0.00    -0.228 A  
HETATM    4  C   UNL     1      -7.492  15.053  68.820  1.00  0.00    -0.133 A  
HETATM    5  O   UNL     1      -5.590  15.353  69.840  1.00  0.00    -0.112 OA 
HETATM    6  N   UNL     1      -6.389  14.400  69.232  1.00  0.00    -0.108 NA 
ENDROOT
BRANCH   4   7
HETATM    7  C   UNL     1      -8.575  14.380  68.102  1.00  0.00    -0.166 C  
HETATM    8  O   UNL     1      -8.946  14.741  66.987  1.00  0.00    -0.212 OA 
HETATM    9  N   UNL     1      -9.120  13.298  68.790  1.00  0.00    -0.390 N  
HETATM   10  H   UNL     1      -8.708  12.997  69.673  1.00  0.00     0.000 HD 
BRANCH   9  11
HETATM   11  N   UNL     1     -10.242  12.615  68.270  1.00  0.00    -0.235 NA 
HETATM   12  H   UNL     1     -10.172  11.613  68.443  1.00  0.00     0.000 HD 
BRANCH  11  13
HETATM   13  C   UNL     1     -11.512  13.146  68.770  1.00  0.00    -0.307 C  
BRANCH  13  14
HETATM   14  C   UNL     1     -12.090  12.270  69.860  1.00  0.00    -0.319 A  
HETATM   15  C   UNL     1     -11.998  10.873  69.777  1.00  0.00    -0.423 A  
HETATM   16  C   UNL     1     -12.529  10.066  70.787  1.00  0.00    -0.386 A  
HETATM   17  C   UNL     1     -13.154  10.644  71.889  1.00  0.00    -0.563 A  
HETATM   18  C   UNL     1     -13.247  12.031  71.986  1.00  0.00    -0.481 A  
HETATM   19  C   UNL     1     -12.714  12.839  70.982  1.00  0.00    -0.331 A  
ENDBRANCH  13  14
ENDBRANCH  11  13
ENDBRANCH   9  11
ENDBRANCH   4   7
TORSDOF 4
ENDMDL
MODEL      156
REMARK 921   NORMALIZED FREE ENERGY PREDICTED BY IDOCK:   -4.01 KCAL/MOL
REMARK 922        TOTAL FREE ENERGY PREDICTED BY IDOCK:   -5.16 KCAL/MOL
REMARK 923 INTER-LIGAND FREE ENERGY PREDICTED BY IDOCK:   -4.93 KCAL/MOL
REMARK 924 INTRA-LIGAND FREE ENERGY PREDICTED BY IDOCK:   -0.23 KCAL/MOL
REMARK 927      BINDING AFFINITY PREDICTED BY RF-SCORE:    0.00 PKD
ROOT
HETATM    1  C   UNL     1      -7.084  18.569  66.295  1.00  0.00    -0.284 C  
HETATM    2  C   UNL     1      -8.230  17.649  66.188  1.00  0.00    -0.169 A  
HETATM    3  C   UNL     1      -8.426  16.325  66.483  1.00  0.00    -0.338 A  
HETATM    4  C   UNL     1      -9.783  16.078  66.150  1.00  0.00    -0.324 A  
HETATM    5  O   UNL     1      -9.385  18.172  65.695  1.00  0.00    -0.338 OA 
HETATM    6  N   UNL     1     -10.363  17.192  65.665  1.00  0.00    -0.601 NA 
ENDROOT
BRANCH   4   7
HETATM    7  C   UNL     1     -10.514  14.820  66.298  1.00  0.00    -0.296 C  
HETATM    8  O   UNL     1     -11.743  14.773  66.320  1.00  0.00    -0.343 OA 
HETATM    9  N   UNL     1      -9.692  13.698  66.392  1.00  0.00    -0.289 N  
HETATM   10  H   UNL     1      -8.683  13.796  66.278  1.00  0.00     0.000 HD 
BRANCH   9  11
HETATM   11  N   UNL     1     -10.250  12.425  66.644  1.00  0.00    -0.222 NA 
HETATM   12  H   UNL     1     -10.954  12.475  67.380  1.00  0.00     0.000 HD 
BRANCH  11  13
HETATM   13  C   UNL     1     -10.794  11.794  65.440  1.00  0.00    -0.295 C  
BRANCH  13  14
HETATM   14  C   UNL     1      -9.719  11.073  64.656  1.00  0.00    -0.315 A  
HETATM   15  C   UNL     1      -8.637  10.473  65.314  1.00  0.00    -0.185 A  
HETATM   16  C   UNL     1      -7.648   9.804  64.588  1.00  0.00    -0.134 A  
HETATM   17  C   UNL     1      -7.730   9.726  63.201  1.00  0.00    -0.132 A  
HETATM   18  C   UNL     1      -8.805  10.312  62.535  1.00  0.00    -0.258 A  
HETATM   19  C   UNL     1      -9.796  10.977  63.257  1.00  0.00    -0.406 A  
ENDBRANCH  13  14
ENDBRANCH  11  13
ENDBRANCH   9  11
ENDBRANCH   4   7
TORSDOF 4
ENDMDL
MODEL      157
REMARK 921   NORMALIZED FREE ENERGY PREDICTED BY IDOCK:   -4.00 KCAL/MOL
REMARK 922        TOTAL FREE ENERGY PREDICTED BY IDOCK:   -5.15 KCAL/MOL
REMARK 923 INTER-LIGAND FREE ENERGY PREDICTED BY IDOCK:   -4.89 KCAL/MOL
REMARK 924 INTRA-LIGAND FREE ENERGY PREDICTED BY IDOCK:   -0.26 KCAL/MOL
REMARK 927      BINDING AFFINITY PREDICTED BY RF-SCORE:    0.00 PKD
ROOT
HETATM    1  C   UNL     1      -6.399   6.886  73.182  1.00  0.00    -0.062 C  
HETATM    2  C   UNL     1      -7.857   7.071  73.085  1.00  0.00    -0.097 A  
HETATM    3  C   UNL     1      -8.706   7.490  72.093  1.00  0.00    -0.140 A  
HETATM    4  C   UNL     1     -10.000   7.415  72.670  1.00  0.00    -0.194 A  
HETATM    5  O   UNL     1      -8.583   6.772  74.196  1.00  0.00    -0.131 OA 
HETATM    6  N   UNL     1      -9.927   6.989  73.945  1.00  0.00    -0.313 NA 
ENDROOT
BRANCH   4   7
HETATM    7  C   UNL     1     -11.274   7.728  72.024  1.00  0.00    -0.278 C  
HETATM    8  O   UNL     1     -11.952   6.871  71.460  1.00  0.00    -0.303 OA 
HETATM    9  N   UNL     1     -11.644   9.068  72.126  1.00  0.00    -0.334 N  
HETATM   10  H   UNL     1     -11.080   9.710  72.683  1.00  0.00     0.000 HD 
BRANCH   9  11
HETATM   11  N   UNL     1     -12.797   9.542  71.461  1.00  0.00    -0.352 NA 
HETATM   12  H   UNL     1     -13.571   8.886  71.562  1.00  0.00     0.000 HD 
BRANCH  11  13
HETATM   13  C   UNL     1     -13.189  10.886  71.890  1.00  0.00    -0.403 C  
BRANCH  13  14
HETATM   14  C   UNL     1     -12.634  11.948  70.967  1.00  0.00    -0.381 A  
HETATM   15  C   UNL     1     -12.677  13.302  71.328  1.00  0.00    -0.411 A  
HETATM   16  C   UNL     1     -12.160  14.280  70.476  1.00  0.00    -0.413 A  
HETATM   17  C   UNL     1     -11.594  13.918  69.256  1.00  0.00    -0.358 A  
HETATM   18  C   UNL     1     -11.539  12.576  68.888  1.00  0.00    -0.364 A  
HETATM   19  C   UNL     1     -12.050  11.596  69.738  1.00  0.00    -0.357 A  
ENDBRANCH  13  14
ENDBRANCH  11  13
ENDBRANCH   9  11
ENDBRANCH   4   7
TORSDOF 4
ENDMDL
MODEL      158
REMARK 921   NORMALIZED FREE ENERGY PREDICTED BY IDOCK:   -4.00 KCAL/MOL
REMARK 922        TOTAL FREE ENERGY PREDICTED BY IDOCK:   -5.15 KCAL/MOL
REMARK 923 INTER-LIGAND FREE ENERGY PREDICTED BY IDOCK:   -4.90 KCAL/MOL
REMARK 924 INTRA-LIGAND FREE ENERGY PREDICTED BY IDOCK:   -0.25 KCAL/MOL
REMARK 927      BINDING AFFINITY PREDICTED BY RF-SCORE:    0.00 PKD
ROOT
HETATM    1  C   UNL     1     -12.562  12.965  71.006  1.00  0.00    -0.376 C  
HETATM    2  C   UNL     1     -12.703  11.523  71.271  1.00  0.00    -0.364 A  
HETATM    3  C   UNL     1     -12.046  10.400  70.839  1.00  0.00    -0.477 A  
HETATM    4  C   UNL     1     -12.689   9.326  71.507  1.00  0.00    -0.350 A  
HETATM    5  O   UNL     1     -13.688  11.158  72.136  1.00  0.00    -0.164 OA 
HETATM    6  N   UNL     1     -13.688   9.781  72.287  1.00  0.00    -0.334 NA 
ENDROOT
BRANCH   4   7
HETATM    7  C   UNL     1     -12.355   7.904  71.418  1.00  0.00    -0.312 C  
HETATM    8  O   UNL     1     -13.212   7.025  71.471  1.00  0.00    -0.375 OA 
HETATM    9  N   UNL     1     -10.994   7.655  71.253  1.00  0.00    -0.236 N  
HETATM   10  H   UNL     1     -10.345   8.432  71.129  1.00  0.00     0.000 HD 
BRANCH   9  11
HETATM   11  N   UNL     1     -10.507   6.328  71.256  1.00  0.00    -0.211 NA 
HETATM   12  H   UNL     1      -9.689   6.238  70.654  1.00  0.00     0.000 HD 
BRANCH  11  13
HETATM   13  C   UNL     1     -10.224   5.830  72.603  1.00  0.00    -0.184 C  
BRANCH  13  14
HETATM   14  C   UNL     1     -10.349   4.324  72.676  1.00  0.00    -0.243 A  
HETATM   15  C   UNL     1     -11.007   3.713  73.753  1.00  0.00    -0.311 A  
HETATM   16  C   UNL     1     -11.124   2.322  73.816  1.00  0.00    -0.294 A  
HETATM   17  C   UNL     1     -10.588   1.528  72.805  1.00  0.00    -0.231 A  
HETATM   18  C   UNL     1      -9.937   2.122  71.726  1.00  0.00    -0.209 A  
HETATM   19  C   UNL     1      -9.822   3.511  71.658  1.00  0.00    -0.227 A  
ENDBRANCH  13  14
ENDBRANCH  11  13
ENDBRANCH   9  11
ENDBRANCH   4   7
TORSDOF 4
ENDMDL
MODEL      159
REMARK 921   NORMALIZED FREE ENERGY PREDICTED BY IDOCK:   -3.97 KCAL/MOL
REMARK 922        TOTAL FREE ENERGY PREDICTED BY IDOCK:   -5.12 KCAL/MOL
REMARK 923 INTER-LIGAND FREE ENERGY PREDICTED BY IDOCK:   -4.74 KCAL/MOL
REMARK 924 INTRA-LIGAND FREE ENERGY PREDICTED BY IDOCK:   -0.38 KCAL/MOL
REMARK 927      BINDING AFFINITY PREDICTED BY RF-SCORE:    0.00 PKD
ROOT
HETATM    1  C   UNL     1     -12.062  11.383  70.221  1.00  0.00    -0.459 C  
HETATM    2  C   UNL     1     -12.071  10.143  71.016  1.00  0.00    -0.377 A  
HETATM    3  C   UNL     1     -11.104   9.391  71.631  1.00  0.00    -0.409 A  
HETATM    4  C   UNL     1     -11.810   8.322  72.241  1.00  0.00    -0.388 A  
HETATM    5  O   UNL     1     -13.285   9.565  71.226  1.00  0.00    -0.358 OA 
HETATM    6  N   UNL     1     -13.129   8.421  71.990  1.00  0.00    -0.348 NA 
ENDROOT
BRANCH   4   7
HETATM    7  C   UNL     1     -11.249   7.242  73.052  1.00  0.00    -0.264 C  
HETATM    8  O   UNL     1     -10.434   7.450  73.949  1.00  0.00    -0.314 OA 
HETATM    9  N   UNL     1     -11.737   5.978  72.723  1.00  0.00    -0.512 N  
HETATM   10  H   UNL     1     -12.477   5.884  72.028  1.00  0.00     0.000 HD 
BRANCH   9  11
HETATM   11  N   UNL     1     -11.209   4.826  73.348  1.00  0.00    -0.338 NA 
HETATM   12  H   UNL     1     -11.910   4.378  73.937  1.00  0.00     0.000 HD 
BRANCH  11  13
HETATM   13  C   UNL     1     -10.639   3.873  72.394  1.00  0.00    -0.002 C  
BRANCH  13  14
HETATM   14  C   UNL     1      -9.640   4.538  71.474  1.00  0.00    -0.227 A  
HETATM   15  C   UNL     1      -9.919   4.691  70.108  1.00  0.00    -0.304 A  
HETATM   16  C   UNL     1      -8.996   5.310  69.261  1.00  0.00    -0.126 A  
HETATM   17  C   UNL     1      -7.788   5.782  69.767  1.00  0.00    -0.095 A  
HETATM   18  C   UNL     1      -7.500   5.642  71.123  1.00  0.00    -0.090 A  
HETATM   19  C   UNL     1      -8.421   5.028  71.972  1.00  0.00    -0.125 A  
ENDBRANCH  13  14
ENDBRANCH  11  13
ENDBRANCH   9  11
ENDBRANCH   4   7
TORSDOF 4
ENDMDL
MODEL      160
REMARK 921   NORMALIZED FREE ENERGY PREDICTED BY IDOCK:   -3.97 KCAL/MOL
REMARK 922        TOTAL FREE ENERGY PREDICTED BY IDOCK:   -5.11 KCAL/MOL
REMARK 923 INTER-LIGAND FREE ENERGY PREDICTED BY IDOCK:   -4.86 KCAL/MOL
REMARK 924 INTRA-LIGAND FREE ENERGY PREDICTED BY IDOCK:   -0.26 KCAL/MOL
REMARK 927      BINDING AFFINITY PREDICTED BY RF-SCORE:    0.00 PKD
ROOT
HETATM    1  C   UNL     1      -8.197  20.689  67.261  1.00  0.00    -0.309 C  
HETATM    2  C   UNL     1      -8.742  19.373  67.635  1.00  0.00    -0.309 A  
HETATM    3  C   UNL     1      -8.369  18.399  68.526  1.00  0.00    -0.344 A  
HETATM    4  C   UNL     1      -9.356  17.388  68.389  1.00  0.00    -0.285 A  
HETATM    5  O   UNL     1      -9.872  18.977  66.991  1.00  0.00    -0.299 OA 
HETATM    6  N   UNL     1     -10.262  17.733  67.455  1.00  0.00    -0.340 NA 
ENDROOT
BRANCH   4   7
HETATM    7  C   UNL     1      -9.443  16.133  69.136  1.00  0.00    -0.251 C  
HETATM    8  O   UNL     1      -8.444  15.540  69.540  1.00  0.00    -0.256 OA 
HETATM    9  N   UNL     1     -10.748  15.697  69.354  1.00  0.00    -0.232 N  
HETATM   10  H   UNL     1     -11.534  16.281  69.069  1.00  0.00     0.000 HD 
BRANCH   9  11
HETATM   11  N   UNL     1     -10.988  14.448  69.969  1.00  0.00    -0.459 NA 
HETATM   12  H   UNL     1     -11.350  14.570  70.915  1.00  0.00     0.000 HD 
BRANCH  11  13
HETATM   13  C   UNL     1     -11.868  13.584  69.179  1.00  0.00    -0.340 C  
BRANCH  13  14
HETATM   14  C   UNL     1     -11.081  12.561  68.390  1.00  0.00    -0.293 A  
HETATM   15  C   UNL     1     -11.737  11.538  67.693  1.00  0.00    -0.283 A  
HETATM   16  C   UNL     1     -11.008  10.596  66.961  1.00  0.00    -0.274 A  
HETATM   17  C   UNL     1      -9.618  10.669  66.917  1.00  0.00    -0.200 A  
HETATM   18  C   UNL     1      -8.953  11.685  67.600  1.00  0.00    -0.166 A  
HETATM   19  C   UNL     1      -9.679  12.628  68.328  1.00  0.00    -0.216 A  
ENDBRANCH  13  14
ENDBRANCH  11  13
ENDBRANCH   9  11
ENDBRANCH   4   7
TORSDOF 4
ENDMDL
MODEL      161
REMARK 921   NORMALIZED FREE ENERGY PREDICTED BY IDOCK:   -3.97 KCAL/MOL
REMARK 922        TOTAL FREE ENERGY PREDICTED BY IDOCK:   -5.11 KCAL/MOL
REMARK 923 INTER-LIGAND FREE ENERGY PREDICTED BY IDOCK:   -4.85 KCAL/MOL
REMARK 924 INTRA-LIGAND FREE ENERGY PREDICTED BY IDOCK:   -0.26 KCAL/MOL
REMARK 927      BINDING AFFINITY PREDICTED BY RF-SCORE:    0.00 PKD
ROOT
HETATM    1  C   UNL     1     -14.409  15.582  72.171  1.00  0.00    -0.598 C  
HETATM    2  C   UNL     1     -13.164  15.278  71.444  1.00  0.00    -0.475 A  
HETATM    3  C   UNL     1     -12.779  14.294  70.571  1.00  0.00    -0.391 A  
HETATM    4  C   UNL     1     -11.437  14.614  70.236  1.00  0.00    -0.246 A  
HETATM    5  O   UNL     1     -12.123  16.133  71.638  1.00  0.00    -0.461 OA 
HETATM    6  N   UNL     1     -11.036  15.721  70.887  1.00  0.00    -0.342 NA 
ENDROOT
BRANCH   4   7
HETATM    7  C   UNL     1     -10.563  13.892  69.311  1.00  0.00    -0.034 C  
HETATM    8  O   UNL     1      -9.893  14.469  68.457  1.00  0.00    -0.219 OA 
HETATM    9  N   UNL     1     -10.553  12.512  69.506  1.00  0.00    -0.316 N  
HETATM   10  H   UNL     1     -11.064  12.105  70.289  1.00  0.00     0.000 HD 
BRANCH   9  11
HETATM   11  N   UNL     1      -9.837  11.673  68.622  1.00  0.00    -0.296 NA 
HETATM   12  H   UNL     1      -9.312  10.966  69.136  1.00  0.00     0.000 HD 
BRANCH  11  13
HETATM   13  C   UNL     1     -10.692  11.056  67.607  1.00  0.00    -0.238 C  
BRANCH  13  14
HETATM   14  C   UNL     1     -10.292   9.622  67.340  1.00  0.00    -0.306 A  
HETATM   15  C   UNL     1     -10.828   8.576  68.105  1.00  0.00     0.004 A  
HETATM   16  C   UNL     1     -10.460   7.252  67.854  1.00  0.00    -0.267 A  
HETATM   17  C   UNL     1      -9.555   6.958  66.837  1.00  0.00    -0.205 A  
HETATM   18  C   UNL     1      -9.019   7.987  66.065  1.00  0.00    -0.205 A  
HETATM   19  C   UNL     1      -9.388   9.309  66.311  1.00  0.00    -0.257 A  
ENDBRANCH  13  14
ENDBRANCH  11  13
ENDBRANCH   9  11
ENDBRANCH   4   7
TORSDOF 4
ENDMDL
MODEL      162
REMARK 921   NORMALIZED FREE ENERGY PREDICTED BY IDOCK:   -3.96 KCAL/MOL
REMARK 922        TOTAL FREE ENERGY PREDICTED BY IDOCK:   -5.10 KCAL/MOL
REMARK 923 INTER-LIGAND FREE ENERGY PREDICTED BY IDOCK:   -4.79 KCAL/MOL
REMARK 924 INTRA-LIGAND FREE ENERGY PREDICTED BY IDOCK:   -0.31 KCAL/MOL
REMARK 927      BINDING AFFINITY PREDICTED BY RF-SCORE:    0.00 PKD
ROOT
HETATM    1  C   UNL     1     -12.359  14.381  64.412  1.00  0.00    -0.428 C  
HETATM    2  C   UNL     1     -12.116  13.680  65.685  1.00  0.00    -0.425 A  
HETATM    3  C   UNL     1     -11.787  12.392  66.022  1.00  0.00    -0.459 A  
HETATM    4  C   UNL     1     -11.688  12.404  67.437  1.00  0.00    -0.347 A  
HETATM    5  O   UNL     1     -12.223  14.424  66.819  1.00  0.00    -0.420 OA 
HETATM    6  N   UNL     1     -11.959  13.630  67.922  1.00  0.00    -0.363 NA 
ENDROOT
BRANCH   4   7
HETATM    7  C   UNL     1     -11.333  11.282  68.307  1.00  0.00    -0.289 C  
HETATM    8  O   UNL     1     -12.074  10.889  69.206  1.00  0.00    -0.332 OA 
HETATM    9  N   UNL     1     -10.101  10.704  68.006  1.00  0.00    -0.154 N  
HETATM   10  H   UNL     1      -9.575  11.022  67.191  1.00  0.00     0.000 HD 
BRANCH   9  11
HETATM   11  N   UNL     1      -9.576   9.680  68.824  1.00  0.00    -0.149 NA 
HETATM   12  H   UNL     1      -9.011   9.030  68.278  1.00  0.00     0.000 HD 
BRANCH  11  13
HETATM   13  C   UNL     1      -8.822  10.196  69.968  1.00  0.00     0.033 C  
BRANCH  13  14
HETATM   14  C   UNL     1      -8.906   9.263  71.156  1.00  0.00    -0.139 A  
HETATM   15  C   UNL     1      -7.743   8.731  71.730  1.00  0.00    -0.090 A  
HETATM   16  C   UNL     1      -7.823   7.873  72.830  1.00  0.00    -0.169 A  
HETATM   17  C   UNL     1      -9.063   7.540  73.369  1.00  0.00    -0.264 A  
HETATM   18  C   UNL     1     -10.227   8.067  72.812  1.00  0.00    -0.389 A  
HETATM   19  C   UNL     1     -10.150   8.927  71.717  1.00  0.00    -0.407 A  
ENDBRANCH  13  14
ENDBRANCH  11  13
ENDBRANCH   9  11
ENDBRANCH   4   7
TORSDOF 4
ENDMDL
MODEL      163
REMARK 921   NORMALIZED FREE ENERGY PREDICTED BY IDOCK:   -3.94 KCAL/MOL
REMARK 922        TOTAL FREE ENERGY PREDICTED BY IDOCK:   -5.08 KCAL/MOL
REMARK 923 INTER-LIGAND FREE ENERGY PREDICTED BY IDOCK:   -4.70 KCAL/MOL
REMARK 924 INTRA-LIGAND FREE ENERGY PREDICTED BY IDOCK:   -0.38 KCAL/MOL
REMARK 927      BINDING AFFINITY PREDICTED BY RF-SCORE:    0.00 PKD
ROOT
HETATM    1  C   UNL     1     -12.327  12.281  63.402  1.00  0.00    -0.624 C  
HETATM    2  C   UNL     1     -11.370  12.280  64.522  1.00  0.00    -0.329 A  
HETATM    3  C   UNL     1     -11.054  13.173  65.514  1.00  0.00    -0.299 A  
HETATM    4  C   UNL     1     -10.046  12.526  66.274  1.00  0.00    -0.250 A  
HETATM    5  O   UNL     1     -10.598  11.169  64.660  1.00  0.00    -0.325 OA 
HETATM    6  N   UNL     1      -9.762  11.316  65.754  1.00  0.00    -0.218 NA 
ENDROOT
BRANCH   4   7
HETATM    7  C   UNL     1      -9.377  13.037  67.470  1.00  0.00    -0.200 C  
HETATM    8  O   UNL     1      -8.569  12.365  68.108  1.00  0.00    -0.173 OA 
HETATM    9  N   UNL     1      -9.729  14.346  67.796  1.00  0.00    -0.217 N  
HETATM   10  H   UNL     1     -10.339  14.878  67.176  1.00  0.00     0.000 HD 
BRANCH   9  11
HETATM   11  N   UNL     1      -9.245  14.938  68.984  1.00  0.00    -0.264 NA 
HETATM   12  H   UNL     1      -8.228  14.883  69.031  1.00  0.00     0.000 HD 
BRANCH  11  13
HETATM   13  C   UNL     1      -9.703  16.318  69.159  1.00  0.00    -0.265 C  
BRANCH  13  14
HETATM   14  C   UNL     1      -9.138  17.231  68.093  1.00  0.00    -0.257 A  
HETATM   15  C   UNL     1      -7.754  17.423  67.977  1.00  0.00    -0.202 A  
HETATM   16  C   UNL     1      -7.235  18.263  66.988  1.00  0.00    -0.220 A  
HETATM   17  C   UNL     1      -8.090  18.917  66.106  1.00  0.00    -0.241 A  
HETATM   18  C   UNL     1      -9.467  18.731  66.206  1.00  0.00    -0.288 A  
HETATM   19  C   UNL     1      -9.989  17.889  67.189  1.00  0.00    -0.327 A  
ENDBRANCH  13  14
ENDBRANCH  11  13
ENDBRANCH   9  11
ENDBRANCH   4   7
TORSDOF 4
ENDMDL
MODEL      164
REMARK 921   NORMALIZED FREE ENERGY PREDICTED BY IDOCK:   -3.93 KCAL/MOL
REMARK 922        TOTAL FREE ENERGY PREDICTED BY IDOCK:   -5.07 KCAL/MOL
REMARK 923 INTER-LIGAND FREE ENERGY PREDICTED BY IDOCK:   -4.80 KCAL/MOL
REMARK 924 INTRA-LIGAND FREE ENERGY PREDICTED BY IDOCK:   -0.27 KCAL/MOL
REMARK 927      BINDING AFFINITY PREDICTED BY RF-SCORE:    0.00 PKD
ROOT
HETATM    1  C   UNL     1      -5.167  21.165  63.417  1.00  0.00    -0.250 C  
HETATM    2  C   UNL     1      -5.886  20.248  64.317  1.00  0.00    -0.257 A  
HETATM    3  C   UNL     1      -5.773  18.914  64.618  1.00  0.00    -0.300 A  
HETATM    4  C   UNL     1      -6.779  18.677  65.590  1.00  0.00    -0.274 A  
HETATM    5  O   UNL     1      -6.901  20.784  65.048  1.00  0.00    -0.194 OA 
HETATM    6  N   UNL     1      -7.468  19.805  65.845  1.00  0.00    -0.318 NA 
ENDROOT
BRANCH   4   7
HETATM    7  C   UNL     1      -7.071  17.414  66.268  1.00  0.00    -0.295 C  
HETATM    8  O   UNL     1      -6.190  16.608  66.562  1.00  0.00    -0.293 OA 
HETATM    9  N   UNL     1      -8.422  17.229  66.557  1.00  0.00    -0.253 N  
HETATM   10  H   UNL     1      -9.090  17.975  66.365  1.00  0.00     0.000 HD 
BRANCH   9  11
HETATM   11  N   UNL     1      -8.870  16.011  67.115  1.00  0.00    -0.195 NA 
HETATM   12  H   UNL     1      -9.553  16.178  67.854  1.00  0.00     0.000 HD 
BRANCH  11  13
HETATM   13  C   UNL     1      -9.400  15.086  66.111  1.00  0.00    -0.292 C  
BRANCH  13  14
HETATM   14  C   UNL     1     -10.216  13.982  66.748  1.00  0.00    -0.264 A  
HETATM   15  C   UNL     1     -10.692  12.912  65.978  1.00  0.00    -0.296 A  
HETATM   16  C   UNL     1     -11.442  11.892  66.569  1.00  0.00    -0.381 A  
HETATM   17  C   UNL     1     -11.722  11.928  67.932  1.00  0.00    -0.368 A  
HETATM   18  C   UNL     1     -11.249  12.983  68.710  1.00  0.00    -0.325 A  
HETATM   19  C   UNL     1     -10.497  14.001  68.124  1.00  0.00    -0.243 A  
ENDBRANCH  13  14
ENDBRANCH  11  13
ENDBRANCH   9  11
ENDBRANCH   4   7
TORSDOF 4
ENDMDL
MODEL      165
REMARK 921   NORMALIZED FREE ENERGY PREDICTED BY IDOCK:   -3.90 KCAL/MOL
REMARK 922        TOTAL FREE ENERGY PREDICTED BY IDOCK:   -5.03 KCAL/MOL
REMARK 923 INTER-LIGAND FREE ENERGY PREDICTED BY IDOCK:   -4.72 KCAL/MOL
REMARK 924 INTRA-LIGAND FREE ENERGY PREDICTED BY IDOCK:   -0.31 KCAL/MOL
REMARK 927      BINDING AFFINITY PREDICTED BY RF-SCORE:    0.00 PKD
ROOT
HETATM    1  C   UNL     1      -5.420   5.988  67.483  1.00  0.00    -0.005 C  
HETATM    2  C   UNL     1      -6.877   5.861  67.654  1.00  0.00    -0.060 A  
HETATM    3  C   UNL     1      -7.885   6.734  67.975  1.00  0.00    -0.113 A  
HETATM    4  C   UNL     1      -9.066   5.947  67.951  1.00  0.00    -0.109 A  
HETATM    5  O   UNL     1      -7.406   4.623  67.458  1.00  0.00    -0.072 OA 
HETATM    6  N   UNL     1      -8.777   4.668  67.646  1.00  0.00    -0.103 NA 
ENDROOT
BRANCH   4   7
HETATM    7  C   UNL     1     -10.434   6.401  68.198  1.00  0.00    -0.218 C  
HETATM    8  O   UNL     1     -11.113   6.942  67.327  1.00  0.00    -0.339 OA 
HETATM    9  N   UNL     1     -10.888   6.146  69.491  1.00  0.00    -0.322 N  
HETATM   10  H   UNL     1     -10.306   5.615  70.138  1.00  0.00     0.000 HD 
BRANCH   9  11
HETATM   11  N   UNL     1     -12.151   6.621  69.909  1.00  0.00    -0.579 NA 
HETATM   12  H   UNL     1     -12.846   5.875  69.886  1.00  0.00     0.000 HD 
BRANCH  11  13
HETATM   13  C   UNL     1     -12.111   7.260  71.226  1.00  0.00    -0.338 C  
BRANCH  13  14
HETATM   14  C   UNL     1     -12.182   8.767  71.115  1.00  0.00    -0.284 A  
HETATM   15  C   UNL     1     -11.389   9.452  70.184  1.00  0.00    -0.220 A  
HETATM   16  C   UNL     1     -11.459  10.844  70.080  1.00  0.00    -0.411 A  
HETATM   17  C   UNL     1     -12.322  11.564  70.902  1.00  0.00    -0.460 A  
HETATM   18  C   UNL     1     -13.121  10.895  71.827  1.00  0.00    -0.564 A  
HETATM   19  C   UNL     1     -13.055   9.505  71.930  1.00  0.00    -0.517 A  
ENDBRANCH  13  14
ENDBRANCH  11  13
ENDBRANCH   9  11
ENDBRANCH   4   7
TORSDOF 4
ENDMDL
MODEL      166
REMARK 921   NORMALIZED FREE ENERGY PREDICTED BY IDOCK:   -3.87 KCAL/MOL
REMARK 922        TOTAL FREE ENERGY PREDICTED BY IDOCK:   -5.00 KCAL/MOL
REMARK 923 INTER-LIGAND FREE ENERGY PREDICTED BY IDOCK:   -4.91 KCAL/MOL
REMARK 924 INTRA-LIGAND FREE ENERGY PREDICTED BY IDOCK:   -0.09 KCAL/MOL
REMARK 927      BINDING AFFINITY PREDICTED BY RF-SCORE:    0.00 PKD
ROOT
HETATM    1  C   UNL     1      -8.735   4.324  66.559  1.00  0.00    -0.113 C  
HETATM    2  C   UNL     1      -9.418   5.602  66.821  1.00  0.00    -0.141 A  
HETATM    3  C   UNL     1      -9.004   6.905  66.938  1.00  0.00    -0.128 A  
HETATM    4  C   UNL     1     -10.193   7.641  67.177  1.00  0.00    -0.290 A  
HETATM    5  O   UNL     1     -10.767   5.547  66.990  1.00  0.00    -0.267 OA 
HETATM    6  N   UNL     1     -11.260   6.820  67.217  1.00  0.00    -0.314 NA 
ENDROOT
BRANCH   4   7
HETATM    7  C   UNL     1     -10.315   9.088  67.352  1.00  0.00    -0.268 C  
HETATM    8  O   UNL     1      -9.591   9.884  66.756  1.00  0.00    -0.168 OA 
HETATM    9  N   UNL     1     -11.329   9.467  68.230  1.00  0.00    -0.388 N  
HETATM   10  H   UNL     1     -11.951   8.761  68.624  1.00  0.00     0.000 HD 
BRANCH   9  11
HETATM   11  N   UNL     1     -11.498  10.825  68.580  1.00  0.00    -0.347 NA 
HETATM   12  H   UNL     1     -12.162  11.282  67.955  1.00  0.00     0.000 HD 
BRANCH  11  13
HETATM   13  C   UNL     1     -11.884  11.008  69.980  1.00  0.00    -0.355 C  
BRANCH  13  14
HETATM   14  C   UNL     1     -11.353   9.894  70.854  1.00  0.00    -0.446 A  
HETATM   15  C   UNL     1      -9.973   9.711  71.019  1.00  0.00    -0.151 A  
HETATM   16  C   UNL     1      -9.485   8.684  71.830  1.00  0.00    -0.354 A  
HETATM   17  C   UNL     1     -10.368   7.830  72.485  1.00  0.00    -0.328 A  
HETATM   18  C   UNL     1     -11.743   8.003  72.334  1.00  0.00    -0.444 A  
HETATM   19  C   UNL     1     -12.233   9.031  71.529  1.00  0.00    -0.403 A  
ENDBRANCH  13  14
ENDBRANCH  11  13
ENDBRANCH   9  11
ENDBRANCH   4   7
TORSDOF 4
ENDMDL
MODEL      167
REMARK 921   NORMALIZED FREE ENERGY PREDICTED BY IDOCK:   -3.86 KCAL/MOL
REMARK 922        TOTAL FREE ENERGY PREDICTED BY IDOCK:   -4.98 KCAL/MOL
REMARK 923 INTER-LIGAND FREE ENERGY PREDICTED BY IDOCK:   -4.70 KCAL/MOL
REMARK 924 INTRA-LIGAND FREE ENERGY PREDICTED BY IDOCK:   -0.28 KCAL/MOL
REMARK 927      BINDING AFFINITY PREDICTED BY RF-SCORE:    0.00 PKD
ROOT
HETATM    1  C   UNL     1     -13.347  13.633  72.528  1.00  0.00    -0.638 C  
HETATM    2  C   UNL     1     -12.737  13.599  71.187  1.00  0.00    -0.353 A  
HETATM    3  C   UNL     1     -12.215  12.608  70.396  1.00  0.00    -0.368 A  
HETATM    4  C   UNL     1     -11.811  13.270  69.208  1.00  0.00    -0.331 A  
HETATM    5  O   UNL     1     -12.646  14.787  70.531  1.00  0.00    -0.334 OA 
HETATM    6  N   UNL     1     -12.063  14.590  69.291  1.00  0.00    -0.313 NA 
ENDROOT
BRANCH   4   7
HETATM    7  C   UNL     1     -11.211  12.663  68.020  1.00  0.00    -0.265 C  
HETATM    8  O   UNL     1     -10.737  13.337  67.107  1.00  0.00    -0.257 OA 
HETATM    9  N   UNL     1     -11.216  11.269  68.036  1.00  0.00    -0.262 N  
HETATM   10  H   UNL     1     -11.545  10.771  68.863  1.00  0.00     0.000 HD 
BRANCH   9  11
HETATM   11  N   UNL     1     -10.766  10.543  66.911  1.00  0.00    -0.243 NA 
HETATM   12  H   UNL     1     -10.839  11.103  66.062  1.00  0.00     0.000 HD 
BRANCH  11  13
HETATM   13  C   UNL     1      -9.410  10.018  67.078  1.00  0.00    -0.154 C  
BRANCH  13  14
HETATM   14  C   UNL     1      -9.305   8.586  66.602  1.00  0.00    -0.243 A  
HETATM   15  C   UNL     1      -8.267   8.193  65.745  1.00  0.00    -0.126 A  
HETATM   16  C   UNL     1      -8.170   6.868  65.310  1.00  0.00    -0.129 A  
HETATM   17  C   UNL     1      -9.105   5.924  65.726  1.00  0.00    -0.101 A  
HETATM   18  C   UNL     1     -10.138   6.301  66.583  1.00  0.00    -0.214 A  
HETATM   19  C   UNL     1     -10.235   7.621  67.022  1.00  0.00    -0.371 A  
ENDBRANCH  13  14
ENDBRANCH  11  13
ENDBRANCH   9  11
ENDBRANCH   4   7
TORSDOF 4
ENDMDL
MODEL      168
REMARK 921   NORMALIZED FREE ENERGY PREDICTED BY IDOCK:   -3.85 KCAL/MOL
REMARK 922        TOTAL FREE ENERGY PREDICTED BY IDOCK:   -4.97 KCAL/MOL
REMARK 923 INTER-LIGAND FREE ENERGY PREDICTED BY IDOCK:   -4.70 KCAL/MOL
REMARK 924 INTRA-LIGAND FREE ENERGY PREDICTED BY IDOCK:   -0.27 KCAL/MOL
REMARK 927      BINDING AFFINITY PREDICTED BY RF-SCORE:    0.00 PKD
ROOT
HETATM    1  C   UNL     1      -6.615   7.137  73.217  1.00  0.00    -0.065 C  
HETATM    2  C   UNL     1      -8.029   7.428  72.930  1.00  0.00    -0.100 A  
HETATM    3  C   UNL     1      -8.721   7.811  71.809  1.00  0.00    -0.147 A  
HETATM    4  C   UNL     1     -10.072   7.900  72.231  1.00  0.00    -0.236 A  
HETATM    5  O   UNL     1      -8.899   7.305  73.968  1.00  0.00    -0.182 OA 
HETATM    6  N   UNL     1     -10.181   7.602  73.540  1.00  0.00    -0.323 NA 
ENDROOT
BRANCH   4   7
HETATM    7  C   UNL     1     -11.232   8.248  71.411  1.00  0.00    -0.255 C  
HETATM    8  O   UNL     1     -12.051   7.407  71.043  1.00  0.00    -0.312 OA 
HETATM    9  N   UNL     1     -11.323   9.605  71.110  1.00  0.00    -0.357 N  
HETATM   10  H   UNL     1     -10.660  10.263  71.519  1.00  0.00     0.000 HD 
BRANCH   9  11
HETATM   11  N   UNL     1     -12.331  10.075  70.239  1.00  0.00    -0.493 NA 
HETATM   12  H   UNL     1     -13.232   9.653  70.461  1.00  0.00     0.000 HD 
BRANCH  11  13
HETATM   13  C   UNL     1     -12.429  11.536  70.218  1.00  0.00    -0.205 C  
BRANCH  13  14
HETATM   14  C   UNL     1     -12.009  12.102  68.880  1.00  0.00    -0.296 A  
HETATM   15  C   UNL     1     -11.774  11.255  67.788  1.00  0.00    -0.254 A  
HETATM   16  C   UNL     1     -11.391  11.781  66.551  1.00  0.00    -0.370 A  
HETATM   17  C   UNL     1     -11.240  13.156  66.392  1.00  0.00    -0.328 A  
HETATM   18  C   UNL     1     -11.477  14.010  67.467  1.00  0.00    -0.369 A  
HETATM   19  C   UNL     1     -11.864  13.488  68.702  1.00  0.00    -0.404 A  
ENDBRANCH  13  14
ENDBRANCH  11  13
ENDBRANCH   9  11
ENDBRANCH   4   7
TORSDOF 4
ENDMDL
MODEL      169
REMARK 921   NORMALIZED FREE ENERGY PREDICTED BY IDOCK:   -3.80 KCAL/MOL
REMARK 922        TOTAL FREE ENERGY PREDICTED BY IDOCK:   -4.90 KCAL/MOL
REMARK 923 INTER-LIGAND FREE ENERGY PREDICTED BY IDOCK:   -4.66 KCAL/MOL
REMARK 924 INTRA-LIGAND FREE ENERGY PREDICTED BY IDOCK:   -0.24 KCAL/MOL
REMARK 927      BINDING AFFINITY PREDICTED BY RF-SCORE:    0.00 PKD
ROOT
HETATM    1  C   UNL     1     -13.008  15.157  71.210  1.00  0.00    -0.478 C  
HETATM    2  C   UNL     1     -12.354  15.095  69.892  1.00  0.00    -0.276 A  
HETATM    3  C   UNL     1     -12.191  14.114  68.948  1.00  0.00    -0.257 A  
HETATM    4  C   UNL     1     -11.471  14.741  67.898  1.00  0.00    -0.342 A  
HETATM    5  O   UNL     1     -11.762  16.239  69.453  1.00  0.00    -0.255 OA 
HETATM    6  N   UNL     1     -11.203  16.024  68.205  1.00  0.00    -0.344 NA 
ENDROOT
BRANCH   4   7
HETATM    7  C   UNL     1     -11.058  14.139  66.630  1.00  0.00    -0.312 C  
HETATM    8  O   UNL     1     -11.767  14.176  65.625  1.00  0.00    -0.338 OA 
HETATM    9  N   UNL     1      -9.796  13.549  66.670  1.00  0.00    -0.272 N  
HETATM   10  H   UNL     1      -9.224  13.630  67.510  1.00  0.00     0.000 HD 
BRANCH   9  11
HETATM   11  N   UNL     1      -9.307  12.837  65.553  1.00  0.00    -0.442 NA 
HETATM   12  H   UNL     1      -8.365  13.141  65.310  1.00  0.00     0.000 HD 
BRANCH  11  13
HETATM   13  C   UNL     1      -9.357  11.385  65.737  1.00  0.00    -0.228 C  
BRANCH  13  14
HETATM   14  C   UNL     1      -8.705  10.655  64.583  1.00  0.00    -0.161 A  
HETATM   15  C   UNL     1      -7.382  10.200  64.683  1.00  0.00    -0.129 A  
HETATM   16  C   UNL     1      -6.783   9.523  63.617  1.00  0.00    -0.104 A  
HETATM   17  C   UNL     1      -7.498   9.292  62.445  1.00  0.00    -0.104 A  
HETATM   18  C   UNL     1      -8.815   9.733  62.335  1.00  0.00    -0.263 A  
HETATM   19  C   UNL     1      -9.417  10.406  63.398  1.00  0.00    -0.356 A  
ENDBRANCH  13  14
ENDBRANCH  11  13
ENDBRANCH   9  11
ENDBRANCH   4   7
TORSDOF 4
ENDMDL
MODEL      170
REMARK 921   NORMALIZED FREE ENERGY PREDICTED BY IDOCK:   -3.78 KCAL/MOL
REMARK 922        TOTAL FREE ENERGY PREDICTED BY IDOCK:   -4.88 KCAL/MOL
REMARK 923 INTER-LIGAND FREE ENERGY PREDICTED BY IDOCK:   -4.65 KCAL/MOL
REMARK 924 INTRA-LIGAND FREE ENERGY PREDICTED BY IDOCK:   -0.23 KCAL/MOL
REMARK 927      BINDING AFFINITY PREDICTED BY RF-SCORE:    0.00 PKD
ROOT
HETATM    1  C   UNL     1      -7.395   9.182  65.989  1.00  0.00    -0.094 C  
HETATM    2  C   UNL     1      -8.508   9.667  66.824  1.00  0.00    -0.127 A  
HETATM    3  C   UNL     1      -9.036  10.904  67.093  1.00  0.00    -0.152 A  
HETATM    4  C   UNL     1     -10.119  10.650  67.974  1.00  0.00    -0.157 A  
HETATM    5  O   UNL     1      -9.213   8.724  67.505  1.00  0.00    -0.135 OA 
HETATM    6  N   UNL     1     -10.223   9.332  68.231  1.00  0.00    -0.193 NA 
ENDROOT
BRANCH   4   7
HETATM    7  C   UNL     1     -11.039  11.631  68.548  1.00  0.00    -0.235 C  
HETATM    8  O   UNL     1     -12.258  11.465  68.550  1.00  0.00    -0.557 OA 
HETATM    9  N   UNL     1     -10.406  12.744  69.097  1.00  0.00    -0.426 N  
HETATM   10  H   UNL     1      -9.387  12.780  69.141  1.00  0.00     0.000 HD 
BRANCH   9  11
HETATM   11  N   UNL     1     -11.168  13.825  69.593  1.00  0.00    -0.440 NA 
HETATM   12  H   UNL     1     -10.591  14.451  70.155  1.00  0.00     0.000 HD 
BRANCH  11  13
HETATM   13  C   UNL     1     -11.865  14.562  68.537  1.00  0.00    -0.320 C  
BRANCH  13  14
HETATM   14  C   UNL     1     -10.921  15.465  67.774  1.00  0.00    -0.311 A  
HETATM   15  C   UNL     1     -10.496  15.126  66.482  1.00  0.00    -0.292 A  
HETATM   16  C   UNL     1      -9.628  15.964  65.778  1.00  0.00    -0.339 A  
HETATM   17  C   UNL     1      -9.178  17.149  66.354  1.00  0.00    -0.285 A  
HETATM   18  C   UNL     1      -9.597  17.502  67.635  1.00  0.00    -0.266 A  
HETATM   19  C   UNL     1     -10.467  16.669  68.339  1.00  0.00    -0.323 A  
ENDBRANCH  13  14
ENDBRANCH  11  13
ENDBRANCH   9  11
ENDBRANCH   4   7
TORSDOF 4
ENDMDL
MODEL      171
REMARK 921   NORMALIZED FREE ENERGY PREDICTED BY IDOCK:   -3.77 KCAL/MOL
REMARK 922        TOTAL FREE ENERGY PREDICTED BY IDOCK:   -4.87 KCAL/MOL
REMARK 923 INTER-LIGAND FREE ENERGY PREDICTED BY IDOCK:   -4.60 KCAL/MOL
REMARK 924 INTRA-LIGAND FREE ENERGY PREDICTED BY IDOCK:   -0.27 KCAL/MOL
REMARK 927      BINDING AFFINITY PREDICTED BY RF-SCORE:    0.00 PKD
ROOT
HETATM    1  C   UNL     1      -7.438   8.901  66.761  1.00  0.00    -0.083 C  
HETATM    2  C   UNL     1      -8.005  10.215  67.111  1.00  0.00    -0.109 A  
HETATM    3  C   UNL     1      -7.569  11.510  66.992  1.00  0.00    -0.154 A  
HETATM    4  C   UNL     1      -8.627  12.296  67.518  1.00  0.00    -0.174 A  
HETATM    5  O   UNL     1      -9.240  10.211  67.682  1.00  0.00    -0.140 OA 
HETATM    6  N   UNL     1      -9.635  11.512  67.943  1.00  0.00    -0.172 NA 
ENDROOT
BRANCH   4   7
HETATM    7  C   UNL     1      -8.684  13.755  67.602  1.00  0.00    -0.185 C  
HETATM    8  O   UNL     1      -7.814  14.475  67.114  1.00  0.00    -0.191 OA 
HETATM    9  N   UNL     1      -9.812  14.238  68.262  1.00  0.00    -0.229 N  
HETATM   10  H   UNL     1     -10.539  13.591  68.566  1.00  0.00     0.000 HD 
BRANCH   9  11
HETATM   11  N   UNL     1      -9.953  15.621  68.514  1.00  0.00    -0.208 NA 
HETATM   12  H   UNL     1      -9.055  16.099  68.439  1.00  0.00     0.000 HD 
BRANCH  11  13
HETATM   13  C   UNL     1     -10.956  16.256  67.657  1.00  0.00    -0.245 C  
BRANCH  13  14
HETATM   14  C   UNL     1     -10.620  17.706  67.388  1.00  0.00    -0.320 A  
HETATM   15  C   UNL     1     -10.660  18.217  66.083  1.00  0.00    -0.326 A  
HETATM   16  C   UNL     1     -10.354  19.558  65.837  1.00  0.00    -0.562 A  
HETATM   17  C   UNL     1     -10.007  20.401  66.889  1.00  0.00    -0.549 A  
HETATM   18  C   UNL     1      -9.969  19.908  68.191  1.00  0.00    -0.551 A  
HETATM   19  C   UNL     1     -10.279  18.571  68.441  1.00  0.00    -0.409 A  
ENDBRANCH  13  14
ENDBRANCH  11  13
ENDBRANCH   9  11
ENDBRANCH   4   7
TORSDOF 4
ENDMDL
MODEL      172
REMARK 921   NORMALIZED FREE ENERGY PREDICTED BY IDOCK:   -3.77 KCAL/MOL
REMARK 922        TOTAL FREE ENERGY PREDICTED BY IDOCK:   -4.87 KCAL/MOL
REMARK 923 INTER-LIGAND FREE ENERGY PREDICTED BY IDOCK:   -4.62 KCAL/MOL
REMARK 924 INTRA-LIGAND FREE ENERGY PREDICTED BY IDOCK:   -0.25 KCAL/MOL
REMARK 927      BINDING AFFINITY PREDICTED BY RF-SCORE:    0.00 PKD
ROOT
HETATM    1  C   UNL     1      -9.269   3.752  65.776  1.00  0.00    -0.156 C  
HETATM    2  C   UNL     1      -9.598   5.140  66.143  1.00  0.00    -0.164 A  
HETATM    3  C   UNL     1      -8.934   6.337  66.057  1.00  0.00    -0.150 A  
HETATM    4  C   UNL     1      -9.844   7.292  66.581  1.00  0.00    -0.187 A  
HETATM    5  O   UNL     1     -10.824   5.349  66.694  1.00  0.00    -0.277 OA 
HETATM    6  N   UNL     1     -10.985   6.695  66.974  1.00  0.00    -0.410 NA 
ENDROOT
BRANCH   4   7
HETATM    7  C   UNL     1      -9.640   8.736  66.693  1.00  0.00    -0.220 C  
HETATM    8  O   UNL     1      -9.256   9.265  67.735  1.00  0.00    -0.129 OA 
HETATM    9  N   UNL     1      -9.902   9.436  65.516  1.00  0.00    -0.431 N  
HETATM   10  H   UNL     1     -10.132   8.928  64.663  1.00  0.00     0.000 HD 
BRANCH   9  11
HETATM   11  N   UNL     1      -9.850  10.848  65.501  1.00  0.00    -0.231 NA 
HETATM   12  H   UNL     1      -9.401  11.187  64.650  1.00  0.00     0.000 HD 
BRANCH  11  13
HETATM   13  C   UNL     1     -11.164  11.467  65.682  1.00  0.00    -0.148 C  
BRANCH  13  14
HETATM   14  C   UNL     1     -11.047  12.952  65.949  1.00  0.00    -0.310 A  
HETATM   15  C   UNL     1     -10.541  13.816  64.967  1.00  0.00    -0.402 A  
HETATM   16  C   UNL     1     -10.438  15.187  65.214  1.00  0.00    -0.434 A  
HETATM   17  C   UNL     1     -10.840  15.709  66.440  1.00  0.00    -0.252 A  
HETATM   18  C   UNL     1     -11.350  14.863  67.423  1.00  0.00    -0.354 A  
HETATM   19  C   UNL     1     -11.458  13.494  67.178  1.00  0.00    -0.368 A  
ENDBRANCH  13  14
ENDBRANCH  11  13
ENDBRANCH   9  11
ENDBRANCH   4   7
TORSDOF 4
ENDMDL
MODEL      173
REMARK 921   NORMALIZED FREE ENERGY PREDICTED BY IDOCK:   -3.76 KCAL/MOL
REMARK 922        TOTAL FREE ENERGY PREDICTED BY IDOCK:   -4.86 KCAL/MOL
REMARK 923 INTER-LIGAND FREE ENERGY PREDICTED BY IDOCK:   -4.47 KCAL/MOL
REMARK 924 INTRA-LIGAND FREE ENERGY PREDICTED BY IDOCK:   -0.38 KCAL/MOL
REMARK 927      BINDING AFFINITY PREDICTED BY RF-SCORE:    0.00 PKD
ROOT
HETATM    1  C   UNL     1      -7.293   8.040  72.343  1.00  0.00    -0.115 C  
HETATM    2  C   UNL     1      -7.814   8.230  70.979  1.00  0.00    -0.096 A  
HETATM    3  C   UNL     1      -8.993   8.701  70.460  1.00  0.00    -0.185 A  
HETATM    4  C   UNL     1      -8.821   8.629  69.053  1.00  0.00    -0.138 A  
HETATM    5  O   UNL     1      -6.985   7.883  69.958  1.00  0.00    -0.048 OA 
HETATM    6  N   UNL     1      -7.610   8.127  68.747  1.00  0.00    -0.103 NA 
ENDROOT
BRANCH   4   7
HETATM    7  C   UNL     1      -9.779   9.038  68.025  1.00  0.00    -0.155 C  
HETATM    8  O   UNL     1     -10.898   9.466  68.304  1.00  0.00    -0.197 OA 
HETATM    9  N   UNL     1      -9.296   8.914  66.724  1.00  0.00    -0.163 N  
HETATM   10  H   UNL     1      -8.328   8.636  66.565  1.00  0.00     0.000 HD 
BRANCH   9  11
HETATM   11  N   UNL     1     -10.143   9.171  65.623  1.00  0.00    -0.347 NA 
HETATM   12  H   UNL     1     -11.091   9.383  65.933  1.00  0.00     0.000 HD 
BRANCH  11  13
HETATM   13  C   UNL     1      -9.631  10.225  64.745  1.00  0.00    -0.307 C  
BRANCH  13  14
HETATM   14  C   UNL     1     -10.581  11.400  64.674  1.00  0.00    -0.380 A  
HETATM   15  C   UNL     1     -10.936  12.103  65.834  1.00  0.00    -0.332 A  
HETATM   16  C   UNL     1     -11.811  13.191  65.764  1.00  0.00    -0.442 A  
HETATM   17  C   UNL     1     -12.338  13.587  64.538  1.00  0.00    -0.406 A  
HETATM   18  C   UNL     1     -11.990  12.901  63.377  1.00  0.00    -0.612 A  
HETATM   19  C   UNL     1     -11.113  11.817  63.442  1.00  0.00    -0.448 A  
ENDBRANCH  13  14
ENDBRANCH  11  13
ENDBRANCH   9  11
ENDBRANCH   4   7
TORSDOF 4
ENDMDL
MODEL      174
REMARK 921   NORMALIZED FREE ENERGY PREDICTED BY IDOCK:   -3.75 KCAL/MOL
REMARK 922        TOTAL FREE ENERGY PREDICTED BY IDOCK:   -4.85 KCAL/MOL
REMARK 923 INTER-LIGAND FREE ENERGY PREDICTED BY IDOCK:   -4.58 KCAL/MOL
REMARK 924 INTRA-LIGAND FREE ENERGY PREDICTED BY IDOCK:   -0.27 KCAL/MOL
REMARK 927      BINDING AFFINITY PREDICTED BY RF-SCORE:    0.00 PKD
ROOT
HETATM    1  C   UNL     1     -10.532  16.476  65.871  1.00  0.00    -0.335 C  
HETATM    2  C   UNL     1      -9.988  15.255  66.492  1.00  0.00    -0.265 A  
HETATM    3  C   UNL     1     -10.546  14.139  67.061  1.00  0.00    -0.276 A  
HETATM    4  C   UNL     1      -9.439  13.340  67.446  1.00  0.00    -0.218 A  
HETATM    5  O   UNL     1      -8.633  15.149  66.538  1.00  0.00    -0.270 OA 
HETATM    6  N   UNL     1      -8.280  13.953  67.139  1.00  0.00    -0.150 NA 
ENDROOT
BRANCH   4   7
HETATM    7  C   UNL     1      -9.480  12.022  68.080  1.00  0.00    -0.199 C  
HETATM    8  O   UNL     1      -8.461  11.431  68.432  1.00  0.00    -0.144 OA 
HETATM    9  N   UNL     1     -10.769  11.521  68.256  1.00  0.00    -0.200 N  
HETATM   10  H   UNL     1     -11.575  12.100  68.022  1.00  0.00     0.000 HD 
BRANCH   9  11
HETATM   11  N   UNL     1     -10.963  10.215  68.759  1.00  0.00    -0.270 NA 
HETATM   12  H   UNL     1     -10.153   9.627  68.567  1.00  0.00     0.000 HD 
BRANCH  11  13
HETATM   13  C   UNL     1     -11.298  10.198  70.184  1.00  0.00    -0.303 C  
BRANCH  13  14
HETATM   14  C   UNL     1     -11.185   8.806  70.765  1.00  0.00    -0.309 A  
HETATM   15  C   UNL     1     -10.966   7.700  69.931  1.00  0.00    -0.208 A  
HETATM   16  C   UNL     1     -10.858   6.416  70.471  1.00  0.00    -0.335 A  
HETATM   17  C   UNL     1     -10.964   6.223  71.845  1.00  0.00    -0.302 A  
HETATM   18  C   UNL     1     -11.175   7.314  72.686  1.00  0.00    -0.355 A  
HETATM   19  C   UNL     1     -11.280   8.598  72.151  1.00  0.00    -0.438 A  
ENDBRANCH  13  14
ENDBRANCH  11  13
ENDBRANCH   9  11
ENDBRANCH   4   7
TORSDOF 4
ENDMDL
MODEL      175
REMARK 921   NORMALIZED FREE ENERGY PREDICTED BY IDOCK:   -3.74 KCAL/MOL
REMARK 922        TOTAL FREE ENERGY PREDICTED BY IDOCK:   -4.83 KCAL/MOL
REMARK 923 INTER-LIGAND FREE ENERGY PREDICTED BY IDOCK:   -4.44 KCAL/MOL
REMARK 924 INTRA-LIGAND FREE ENERGY PREDICTED BY IDOCK:   -0.38 KCAL/MOL
REMARK 927      BINDING AFFINITY PREDICTED BY RF-SCORE:    0.00 PKD
ROOT
HETATM    1  C   UNL     1      -5.974   9.637  66.285  1.00  0.00    -0.063 C  
HETATM    2  C   UNL     1      -7.282   9.746  66.953  1.00  0.00    -0.090 A  
HETATM    3  C   UNL     1      -8.084  10.794  67.326  1.00  0.00    -0.117 A  
HETATM    4  C   UNL     1      -9.223  10.186  67.915  1.00  0.00    -0.138 A  
HETATM    5  O   UNL     1      -7.885   8.578  67.303  1.00  0.00    -0.096 OA 
HETATM    6  N   UNL     1      -9.100   8.845  67.909  1.00  0.00    -0.139 NA 
ENDROOT
BRANCH   4   7
HETATM    7  C   UNL     1     -10.402  10.860  68.458  1.00  0.00    -0.187 C  
HETATM    8  O   UNL     1     -10.494  12.085  68.503  1.00  0.00    -0.218 OA 
HETATM    9  N   UNL     1     -11.399   9.988  68.892  1.00  0.00    -0.463 N  
HETATM   10  H   UNL     1     -11.296   8.984  68.745  1.00  0.00     0.000 HD 
BRANCH   9  11
HETATM   11  N   UNL     1     -12.552  10.490  69.536  1.00  0.00    -0.662 NA 
HETATM   12  H   UNL     1     -13.389  10.004  69.216  1.00  0.00     0.000 HD 
BRANCH  11  13
HETATM   13  C   UNL     1     -12.450  10.452  70.996  1.00  0.00    -0.388 C  
BRANCH  13  14
HETATM   14  C   UNL     1     -12.240   9.042  71.502  1.00  0.00    -0.403 A  
HETATM   15  C   UNL     1     -11.096   8.711  72.243  1.00  0.00    -0.395 A  
HETATM   16  C   UNL     1     -10.907   7.409  72.713  1.00  0.00    -0.374 A  
HETATM   17  C   UNL     1     -11.857   6.425  72.450  1.00  0.00    -0.255 A  
HETATM   18  C   UNL     1     -13.002   6.741  71.721  1.00  0.00    -0.274 A  
HETATM   19  C   UNL     1     -13.195   8.041  71.254  1.00  0.00    -0.183 A  
ENDBRANCH  13  14
ENDBRANCH  11  13
ENDBRANCH   9  11
ENDBRANCH   4   7
TORSDOF 4
ENDMDL
MODEL      176
REMARK 921   NORMALIZED FREE ENERGY PREDICTED BY IDOCK:   -3.68 KCAL/MOL
REMARK 922        TOTAL FREE ENERGY PREDICTED BY IDOCK:   -4.76 KCAL/MOL
REMARK 923 INTER-LIGAND FREE ENERGY PREDICTED BY IDOCK:   -4.82 KCAL/MOL
REMARK 924 INTRA-LIGAND FREE ENERGY PREDICTED BY IDOCK:    0.07 KCAL/MOL
REMARK 927      BINDING AFFINITY PREDICTED BY RF-SCORE:    0.00 PKD
ROOT
HETATM    1  C   UNL     1      -5.981   7.293  67.361  1.00  0.00    -0.037 C  
HETATM    2  C   UNL     1      -7.048   7.888  66.539  1.00  0.00    -0.075 A  
HETATM    3  C   UNL     1      -7.067   8.708  65.440  1.00  0.00    -0.083 A  
HETATM    4  C   UNL     1      -8.443   8.883  65.144  1.00  0.00    -0.173 A  
HETATM    5  O   UNL     1      -8.327   7.594  66.897  1.00  0.00    -0.120 OA 
HETATM    6  N   UNL     1      -9.208   8.217  66.029  1.00  0.00    -0.176 NA 
ENDROOT
BRANCH   4   7
HETATM    7  C   UNL     1      -9.018   9.654  64.041  1.00  0.00    -0.223 C  
HETATM    8  O   UNL     1      -8.445   9.780  62.960  1.00  0.00    -0.150 OA 
HETATM    9  N   UNL     1     -10.265  10.206  64.329  1.00  0.00    -0.425 N  
HETATM   10  H   UNL     1     -10.724   9.991  65.214  1.00  0.00     0.000 HD 
BRANCH   9  11
HETATM   11  N   UNL     1     -10.896  11.063  63.400  1.00  0.00    -0.704 NA 
HETATM   12  H   UNL     1     -11.908  11.061  63.531  1.00  0.00     0.000 HD 
BRANCH  11  13
HETATM   13  C   UNL     1     -10.366  12.427  63.434  1.00  0.00    -0.278 C  
BRANCH  13  14
HETATM   14  C   UNL     1     -10.834  13.175  64.663  1.00  0.00    -0.383 A  
HETATM   15  C   UNL     1     -11.708  12.571  65.577  1.00  0.00    -0.457 A  
HETATM   16  C   UNL     1     -12.136  13.263  66.713  1.00  0.00    -0.403 A  
HETATM   17  C   UNL     1     -11.694  14.562  66.949  1.00  0.00    -0.399 A  
HETATM   18  C   UNL     1     -10.820  15.172  66.052  1.00  0.00    -0.335 A  
HETATM   19  C   UNL     1     -10.388  14.483  64.919  1.00  0.00    -0.401 A  
ENDBRANCH  13  14
ENDBRANCH  11  13
ENDBRANCH   9  11
ENDBRANCH   4   7
TORSDOF 4
ENDMDL
MODEL      177
REMARK 921   NORMALIZED FREE ENERGY PREDICTED BY IDOCK:   -3.66 KCAL/MOL
REMARK 922        TOTAL FREE ENERGY PREDICTED BY IDOCK:   -4.73 KCAL/MOL
REMARK 923 INTER-LIGAND FREE ENERGY PREDICTED BY IDOCK:   -4.30 KCAL/MOL
REMARK 924 INTRA-LIGAND FREE ENERGY PREDICTED BY IDOCK:   -0.43 KCAL/MOL
REMARK 927      BINDING AFFINITY PREDICTED BY RF-SCORE:    0.00 PKD
ROOT
HETATM    1  C   UNL     1      -5.474   6.439  68.014  1.00  0.00    -0.008 C  
HETATM    2  C   UNL     1      -6.689   6.001  68.721  1.00  0.00    -0.064 A  
HETATM    3  C   UNL     1      -7.818   6.636  69.171  1.00  0.00    -0.111 A  
HETATM    4  C   UNL     1      -8.603   5.606  69.754  1.00  0.00    -0.121 A  
HETATM    5  O   UNL     1      -6.774   4.676  69.019  1.00  0.00    -0.043 OA 
HETATM    6  N   UNL     1      -7.969   4.422  69.670  1.00  0.00    -0.057 NA 
ENDROOT
BRANCH   4   7
HETATM    7  C   UNL     1      -9.926   5.743  70.363  1.00  0.00    -0.198 C  
HETATM    8  O   UNL     1     -10.955   5.791  69.692  1.00  0.00    -0.354 OA 
HETATM    9  N   UNL     1      -9.902   5.794  71.756  1.00  0.00    -0.164 N  
HETATM   10  H   UNL     1      -9.023   5.660  72.255  1.00  0.00     0.000 HD 
BRANCH   9  11
HETATM   11  N   UNL     1     -11.092   6.029  72.480  1.00  0.00    -0.264 NA 
HETATM   12  H   UNL     1     -11.277   5.269  73.134  1.00  0.00     0.000 HD 
BRANCH  11  13
HETATM   13  C   UNL     1     -11.093   7.323  73.166  1.00  0.00    -0.292 C  
BRANCH  13  14
HETATM   14  C   UNL     1     -11.600   8.428  72.266  1.00  0.00    -0.453 A  
HETATM   15  C   UNL     1     -12.967   8.739  72.217  1.00  0.00    -0.462 A  
HETATM   16  C   UNL     1     -13.432   9.763  71.389  1.00  0.00    -0.397 A  
HETATM   17  C   UNL     1     -12.539  10.489  70.604  1.00  0.00    -0.457 A  
HETATM   18  C   UNL     1     -11.178  10.195  70.648  1.00  0.00    -0.418 A  
HETATM   19  C   UNL     1     -10.710   9.175  71.477  1.00  0.00    -0.437 A  
ENDBRANCH  13  14
ENDBRANCH  11  13
ENDBRANCH   9  11
ENDBRANCH   4   7
TORSDOF 4
ENDMDL
MODEL      178
REMARK 921   NORMALIZED FREE ENERGY PREDICTED BY IDOCK:   -3.65 KCAL/MOL
REMARK 922        TOTAL FREE ENERGY PREDICTED BY IDOCK:   -4.72 KCAL/MOL
REMARK 923 INTER-LIGAND FREE ENERGY PREDICTED BY IDOCK:   -4.49 KCAL/MOL
REMARK 924 INTRA-LIGAND FREE ENERGY PREDICTED BY IDOCK:   -0.23 KCAL/MOL
REMARK 927      BINDING AFFINITY PREDICTED BY RF-SCORE:    0.00 PKD
ROOT
HETATM    1  C   UNL     1      -9.033   2.975  62.641  1.00  0.00    -0.087 C  
HETATM    2  C   UNL     1      -9.144   3.913  63.771  1.00  0.00    -0.126 A  
HETATM    3  C   UNL     1     -10.035   4.072  64.801  1.00  0.00    -0.210 A  
HETATM    4  C   UNL     1      -9.533   5.170  65.547  1.00  0.00    -0.080 A  
HETATM    5  O   UNL     1      -8.172   4.860  63.873  1.00  0.00    -0.109 OA 
HETATM    6  N   UNL     1      -8.411   5.653  64.982  1.00  0.00    -0.144 NA 
ENDROOT
BRANCH   4   7
HETATM    7  C   UNL     1     -10.099   5.738  66.770  1.00  0.00    -0.196 C  
HETATM    8  O   UNL     1     -10.222   5.081  67.802  1.00  0.00    -0.154 OA 
HETATM    9  N   UNL     1     -10.459   7.080  66.655  1.00  0.00    -0.495 N  
HETATM   10  H   UNL     1     -10.249   7.590  65.797  1.00  0.00     0.000 HD 
BRANCH   9  11
HETATM   11  N   UNL     1     -11.115   7.735  67.720  1.00  0.00    -0.471 NA 
HETATM   12  H   UNL     1     -11.595   7.065  68.320  1.00  0.00     0.000 HD 
BRANCH  11  13
HETATM   13  C   UNL     1     -10.217   8.588  68.502  1.00  0.00    -0.198 C  
BRANCH  13  14
HETATM   14  C   UNL     1     -10.986   9.498  69.434  1.00  0.00    -0.192 A  
HETATM   15  C   UNL     1     -11.247  10.829  69.078  1.00  0.00    -0.322 A  
HETATM   16  C   UNL     1     -11.961  11.666  69.938  1.00  0.00    -0.414 A  
HETATM   17  C   UNL     1     -12.424  11.184  71.160  1.00  0.00    -0.498 A  
HETATM   18  C   UNL     1     -12.178   9.862  71.523  1.00  0.00    -0.505 A  
HETATM   19  C   UNL     1     -11.468   9.022  70.665  1.00  0.00    -0.291 A  
ENDBRANCH  13  14
ENDBRANCH  11  13
ENDBRANCH   9  11
ENDBRANCH   4   7
TORSDOF 4
ENDMDL
MODEL      179
REMARK 921   NORMALIZED FREE ENERGY PREDICTED BY IDOCK:   -3.64 KCAL/MOL
REMARK 922        TOTAL FREE ENERGY PREDICTED BY IDOCK:   -4.71 KCAL/MOL
REMARK 923 INTER-LIGAND FREE ENERGY PREDICTED BY IDOCK:   -4.81 KCAL/MOL
REMARK 924 INTRA-LIGAND FREE ENERGY PREDICTED BY IDOCK:    0.10 KCAL/MOL
REMARK 927      BINDING AFFINITY PREDICTED BY RF-SCORE:    0.00 PKD
ROOT
HETATM    1  C   UNL     1     -14.065  14.514  72.565  1.00  0.00    -0.435 C  
HETATM    2  C   UNL     1     -13.291  13.674  71.635  1.00  0.00    -0.346 A  
HETATM    3  C   UNL     1     -12.943  12.348  71.604  1.00  0.00    -0.409 A  
HETATM    4  C   UNL     1     -12.199  12.198  70.405  1.00  0.00    -0.294 A  
HETATM    5  O   UNL     1     -12.783  14.294  70.536  1.00  0.00    -0.343 OA 
HETATM    6  N   UNL     1     -12.094  13.376  69.761  1.00  0.00    -0.325 NA 
ENDROOT
BRANCH   4   7
HETATM    7  C   UNL     1     -11.613  10.966  69.878  1.00  0.00    -0.331 C  
HETATM    8  O   UNL     1     -11.044  10.149  70.601  1.00  0.00    -0.307 OA 
HETATM    9  N   UNL     1     -11.778  10.806  68.504  1.00  0.00    -0.447 N  
HETATM   10  H   UNL     1     -12.337  11.477  67.977  1.00  0.00     0.000 HD 
BRANCH   9  11
HETATM   11  N   UNL     1     -11.175   9.717  67.836  1.00  0.00    -0.501 NA 
HETATM   12  H   UNL     1     -11.847   8.965  67.683  1.00  0.00     0.000 HD 
BRANCH  11  13
HETATM   13  C   UNL     1     -10.530  10.106  66.581  1.00  0.00    -0.185 C  
BRANCH  13  14
HETATM   14  C   UNL     1      -9.162  10.705  66.821  1.00  0.00    -0.174 A  
HETATM   15  C   UNL     1      -8.976  11.689  67.802  1.00  0.00    -0.170 A  
HETATM   16  C   UNL     1      -7.710  12.238  68.025  1.00  0.00    -0.132 A  
HETATM   17  C   UNL     1      -6.619  11.810  67.273  1.00  0.00    -0.132 A  
HETATM   18  C   UNL     1      -6.789  10.828  66.299  1.00  0.00    -0.135 A  
HETATM   19  C   UNL     1      -8.050  10.275  66.077  1.00  0.00    -0.139 A  
ENDBRANCH  13  14
ENDBRANCH  11  13
ENDBRANCH   9  11
ENDBRANCH   4   7
TORSDOF 4
ENDMDL
MODEL      180
REMARK 921   NORMALIZED FREE ENERGY PREDICTED BY IDOCK:   -3.63 KCAL/MOL
REMARK 922        TOTAL FREE ENERGY PREDICTED BY IDOCK:   -4.69 KCAL/MOL
REMARK 923 INTER-LIGAND FREE ENERGY PREDICTED BY IDOCK:   -4.37 KCAL/MOL
REMARK 924 INTRA-LIGAND FREE ENERGY PREDICTED BY IDOCK:   -0.32 KCAL/MOL
REMARK 927      BINDING AFFINITY PREDICTED BY RF-SCORE:    0.00 PKD
ROOT
HETATM    1  C   UNL     1      -6.296  15.747  68.674  1.00  0.00    -0.107 C  
HETATM    2  C   UNL     1      -7.595  15.567  68.004  1.00  0.00    -0.125 A  
HETATM    3  C   UNL     1      -8.044  14.773  66.980  1.00  0.00    -0.177 A  
HETATM    4  C   UNL     1      -9.420  15.093  66.852  1.00  0.00    -0.238 A  
HETATM    5  O   UNL     1      -8.626  16.328  68.462  1.00  0.00    -0.191 OA 
HETATM    6  N   UNL     1      -9.773  16.039  67.743  1.00  0.00    -0.220 NA 
ENDROOT
BRANCH   4   7
HETATM    7  C   UNL     1     -10.379  14.506  65.916  1.00  0.00    -0.319 C  
HETATM    8  O   UNL     1     -11.532  14.922  65.811  1.00  0.00    -0.342 OA 
HETATM    9  N   UNL     1      -9.858  13.459  65.158  1.00  0.00    -0.556 N  
HETATM   10  H   UNL     1      -8.870  13.221  65.231  1.00  0.00     0.000 HD 
BRANCH   9  11
HETATM   11  N   UNL     1     -10.695  12.726  64.287  1.00  0.00    -0.369 NA 
HETATM   12  H   UNL     1     -11.261  13.350  63.713  1.00  0.00     0.000 HD 
BRANCH  11  13
HETATM   13  C   UNL     1      -9.955  11.775  63.454  1.00  0.00    -0.423 C  
BRANCH  13  14
HETATM   14  C   UNL     1      -9.293  10.702  64.290  1.00  0.00    -0.298 A  
HETATM   15  C   UNL     1      -9.998  10.060  65.317  1.00  0.00    -0.368 A  
HETATM   16  C   UNL     1      -9.385   9.066  66.084  1.00  0.00    -0.294 A  
HETATM   17  C   UNL     1      -8.065   8.703  65.834  1.00  0.00    -0.111 A  
HETATM   18  C   UNL     1      -7.354   9.329  64.813  1.00  0.00    -0.103 A  
HETATM   19  C   UNL     1      -7.964  10.319  64.042  1.00  0.00    -0.126 A  
ENDBRANCH  13  14
ENDBRANCH  11  13
ENDBRANCH   9  11
ENDBRANCH   4   7
TORSDOF 4
ENDMDL
MODEL      181
REMARK 921   NORMALIZED FREE ENERGY PREDICTED BY IDOCK:   -3.62 KCAL/MOL
REMARK 922        TOTAL FREE ENERGY PREDICTED BY IDOCK:   -4.69 KCAL/MOL
REMARK 923 INTER-LIGAND FREE ENERGY PREDICTED BY IDOCK:   -4.24 KCAL/MOL
REMARK 924 INTRA-LIGAND FREE ENERGY PREDICTED BY IDOCK:   -0.45 KCAL/MOL
REMARK 927      BINDING AFFINITY PREDICTED BY RF-SCORE:    0.00 PKD
ROOT
HETATM    1  C   UNL     1     -10.212   3.797  74.342  1.00  0.00    -0.237 C  
HETATM    2  C   UNL     1     -10.316   4.413  73.008  1.00  0.00    -0.179 A  
HETATM    3  C   UNL     1     -11.033   5.461  72.490  1.00  0.00    -0.312 A  
HETATM    4  C   UNL     1     -10.643   5.525  71.127  1.00  0.00    -0.233 A  
HETATM    5  O   UNL     1      -9.551   3.867  72.025  1.00  0.00    -0.128 OA 
HETATM    6  N   UNL     1      -9.753   4.557  70.842  1.00  0.00    -0.180 NA 
ENDROOT
BRANCH   4   7
HETATM    7  C   UNL     1     -11.096   6.489  70.124  1.00  0.00    -0.351 C  
HETATM    8  O   UNL     1     -11.626   7.556  70.432  1.00  0.00    -0.246 OA 
HETATM    9  N   UNL     1     -10.853   6.092  68.811  1.00  0.00    -0.309 N  
HETATM   10  H   UNL     1     -10.330   5.236  68.626  1.00  0.00     0.000 HD 
BRANCH   9  11
HETATM   11  N   UNL     1     -11.328   6.871  67.732  1.00  0.00    -0.556 NA 
HETATM   12  H   UNL     1     -11.999   7.568  68.053  1.00  0.00     0.000 HD 
BRANCH  11  13
HETATM   13  C   UNL     1     -10.250   7.496  66.964  1.00  0.00    -0.298 C  
BRANCH  13  14
HETATM   14  C   UNL     1      -9.955   8.895  67.458  1.00  0.00    -0.258 A  
HETATM   15  C   UNL     1     -10.745   9.979  67.050  1.00  0.00    -0.248 A  
HETATM   16  C   UNL     1     -10.473  11.269  67.511  1.00  0.00    -0.234 A  
HETATM   17  C   UNL     1      -9.412  11.491  68.384  1.00  0.00    -0.195 A  
HETATM   18  C   UNL     1      -8.621  10.422  68.803  1.00  0.00    -0.141 A  
HETATM   19  C   UNL     1      -8.893   9.132  68.347  1.00  0.00    -0.129 A  
ENDBRANCH  13  14
ENDBRANCH  11  13
ENDBRANCH   9  11
ENDBRANCH   4   7
TORSDOF 4
ENDMDL
MODEL      182
REMARK 921   NORMALIZED FREE ENERGY PREDICTED BY IDOCK:   -3.61 KCAL/MOL
REMARK 922        TOTAL FREE ENERGY PREDICTED BY IDOCK:   -4.67 KCAL/MOL
REMARK 923 INTER-LIGAND FREE ENERGY PREDICTED BY IDOCK:   -4.78 KCAL/MOL
REMARK 924 INTRA-LIGAND FREE ENERGY PREDICTED BY IDOCK:    0.10 KCAL/MOL
REMARK 927      BINDING AFFINITY PREDICTED BY RF-SCORE:    0.00 PKD
ROOT
HETATM    1  C   UNL     1      -8.287   8.549  65.647  1.00  0.00    -0.154 C  
HETATM    2  C   UNL     1      -9.222   9.288  66.513  1.00  0.00    -0.161 A  
HETATM    3  C   UNL     1      -9.444   9.333  67.865  1.00  0.00    -0.154 A  
HETATM    4  C   UNL     1     -10.491  10.276  68.028  1.00  0.00    -0.196 A  
HETATM    5  O   UNL     1     -10.084  10.136  65.891  1.00  0.00    -0.258 OA 
HETATM    6  N   UNL     1     -10.886  10.758  66.834  1.00  0.00    -0.254 NA 
ENDROOT
BRANCH   4   7
HETATM    7  C   UNL     1     -11.094  10.719  69.285  1.00  0.00    -0.256 C  
HETATM    8  O   UNL     1     -11.411   9.930  70.174  1.00  0.00    -0.253 OA 
HETATM    9  N   UNL     1     -11.251  12.100  69.380  1.00  0.00    -0.412 N  
HETATM   10  H   UNL     1     -10.887  12.705  68.644  1.00  0.00     0.000 HD 
BRANCH   9  11
HETATM   11  N   UNL     1     -11.915  12.667  70.491  1.00  0.00    -0.533 NA 
HETATM   12  H   UNL     1     -11.277  12.777  71.279  1.00  0.00     0.000 HD 
BRANCH  11  13
HETATM   13  C   UNL     1     -12.577  13.933  70.172  1.00  0.00    -0.224 C  
BRANCH  13  14
HETATM   14  C   UNL     1     -11.724  14.794  69.267  1.00  0.00    -0.347 A  
HETATM   15  C   UNL     1     -10.939  15.828  69.797  1.00  0.00    -0.316 A  
HETATM   16  C   UNL     1     -10.149  16.620  68.959  1.00  0.00    -0.293 A  
HETATM   17  C   UNL     1     -10.133  16.386  67.587  1.00  0.00    -0.263 A  
HETATM   18  C   UNL     1     -10.903  15.358  67.048  1.00  0.00    -0.320 A  
HETATM   19  C   UNL     1     -11.690  14.564  67.882  1.00  0.00    -0.381 A  
ENDBRANCH  13  14
ENDBRANCH  11  13
ENDBRANCH   9  11
ENDBRANCH   4   7
TORSDOF 4
ENDMDL
MODEL      183
REMARK 921   NORMALIZED FREE ENERGY PREDICTED BY IDOCK:   -3.61 KCAL/MOL
REMARK 922        TOTAL FREE ENERGY PREDICTED BY IDOCK:   -4.66 KCAL/MOL
REMARK 923 INTER-LIGAND FREE ENERGY PREDICTED BY IDOCK:   -4.51 KCAL/MOL
REMARK 924 INTRA-LIGAND FREE ENERGY PREDICTED BY IDOCK:   -0.15 KCAL/MOL
REMARK 927      BINDING AFFINITY PREDICTED BY RF-SCORE:    0.00 PKD
ROOT
HETATM    1  C   UNL     1      -8.411   4.592  66.430  1.00  0.00    -0.106 C  
HETATM    2  C   UNL     1      -9.234   5.602  67.117  1.00  0.00    -0.114 A  
HETATM    3  C   UNL     1      -9.056   6.921  67.446  1.00  0.00    -0.122 A  
HETATM    4  C   UNL     1     -10.263   7.298  68.089  1.00  0.00    -0.187 A  
HETATM    5  O   UNL     1     -10.462   5.198  67.542  1.00  0.00    -0.163 OA 
HETATM    6  N   UNL     1     -11.112   6.255  68.155  1.00  0.00    -0.326 NA 
ENDROOT
BRANCH   4   7
HETATM    7  C   UNL     1     -10.607   8.619  68.617  1.00  0.00    -0.129 C  
HETATM    8  O   UNL     1     -10.454   8.912  69.801  1.00  0.00    -0.203 OA 
HETATM    9  N   UNL     1     -11.099   9.499  67.655  1.00  0.00    -0.462 N  
HETATM   10  H   UNL     1     -11.119   9.221  66.674  1.00  0.00     0.000 HD 
BRANCH   9  11
HETATM   11  N   UNL     1     -11.572  10.775  68.033  1.00  0.00    -0.637 NA 
HETATM   12  H   UNL     1     -12.150  10.717  68.871  1.00  0.00     0.000 HD 
BRANCH  11  13
HETATM   13  C   UNL     1     -10.495  11.752  68.208  1.00  0.00    -0.206 C  
BRANCH  13  14
HETATM   14  C   UNL     1     -11.007  13.044  68.804  1.00  0.00    -0.295 A  
HETATM   15  C   UNL     1     -12.124  13.046  69.652  1.00  0.00    -0.304 A  
HETATM   16  C   UNL     1     -12.592  14.240  70.205  1.00  0.00    -0.378 A  
HETATM   17  C   UNL     1     -11.951  15.443  69.920  1.00  0.00    -0.384 A  
HETATM   18  C   UNL     1     -10.836  15.454  69.085  1.00  0.00    -0.249 A  
HETATM   19  C   UNL     1     -10.363  14.263  68.534  1.00  0.00    -0.244 A  
ENDBRANCH  13  14
ENDBRANCH  11  13
ENDBRANCH   9  11
ENDBRANCH   4   7
TORSDOF 4
ENDMDL
MODEL      184
REMARK 921   NORMALIZED FREE ENERGY PREDICTED BY IDOCK:   -3.60 KCAL/MOL
REMARK 922        TOTAL FREE ENERGY PREDICTED BY IDOCK:   -4.66 KCAL/MOL
REMARK 923 INTER-LIGAND FREE ENERGY PREDICTED BY IDOCK:   -4.32 KCAL/MOL
REMARK 924 INTRA-LIGAND FREE ENERGY PREDICTED BY IDOCK:   -0.34 KCAL/MOL
REMARK 927      BINDING AFFINITY PREDICTED BY RF-SCORE:    0.00 PKD
ROOT
HETATM    1  C   UNL     1     -10.338   5.942  70.452  1.00  0.00    -0.294 C  
HETATM    2  C   UNL     1     -10.656   7.359  70.701  1.00  0.00    -0.223 A  
HETATM    3  C   UNL     1     -10.804   8.463  69.902  1.00  0.00    -0.207 A  
HETATM    4  C   UNL     1     -11.130   9.515  70.797  1.00  0.00    -0.323 A  
HETATM    5  O   UNL     1     -10.865   7.716  71.997  1.00  0.00    -0.223 OA 
HETATM    6  N   UNL     1     -11.159   9.067  72.066  1.00  0.00    -0.355 NA 
ENDROOT
BRANCH   4   7
HETATM    7  C   UNL     1     -11.419  10.908  70.454  1.00  0.00    -0.275 C  
HETATM    8  O   UNL     1     -12.328  11.540  70.989  1.00  0.00    -0.371 OA 
HETATM    9  N   UNL     1     -10.563  11.440  69.492  1.00  0.00    -0.445 N  
HETATM   10  H   UNL     1      -9.774  10.890  69.153  1.00  0.00     0.000 HD 
BRANCH   9  11
HETATM   11  N   UNL     1     -10.783  12.740  68.984  1.00  0.00    -0.415 NA 
HETATM   12  H   UNL     1     -10.298  13.438  69.546  1.00  0.00     0.000 HD 
BRANCH  11  13
HETATM   13  C   UNL     1     -10.426  12.865  67.569  1.00  0.00    -0.223 C  
BRANCH  13  14
HETATM   14  C   UNL     1      -8.985  12.477  67.323  1.00  0.00    -0.192 A  
HETATM   15  C   UNL     1      -8.672  11.294  66.639  1.00  0.00    -0.174 A  
HETATM   16  C   UNL     1      -7.340  10.939  66.408  1.00  0.00    -0.141 A  
HETATM   17  C   UNL     1      -6.309  11.761  66.856  1.00  0.00    -0.131 A  
HETATM   18  C   UNL     1      -6.607  12.943  67.531  1.00  0.00    -0.160 A  
HETATM   19  C   UNL     1      -7.936  13.302  67.759  1.00  0.00    -0.166 A  
ENDBRANCH  13  14
ENDBRANCH  11  13
ENDBRANCH   9  11
ENDBRANCH   4   7
TORSDOF 4
ENDMDL
MODEL      185
REMARK 921   NORMALIZED FREE ENERGY PREDICTED BY IDOCK:   -3.60 KCAL/MOL
REMARK 922        TOTAL FREE ENERGY PREDICTED BY IDOCK:   -4.65 KCAL/MOL
REMARK 923 INTER-LIGAND FREE ENERGY PREDICTED BY IDOCK:   -4.22 KCAL/MOL
REMARK 924 INTRA-LIGAND FREE ENERGY PREDICTED BY IDOCK:   -0.43 KCAL/MOL
REMARK 927      BINDING AFFINITY PREDICTED BY RF-SCORE:    0.00 PKD
ROOT
HETATM    1  C   UNL     1     -12.980  11.352  71.493  1.00  0.00    -0.505 C  
HETATM    2  C   UNL     1     -12.419   9.995  71.618  1.00  0.00    -0.418 A  
HETATM    3  C   UNL     1     -11.163   9.462  71.487  1.00  0.00    -0.457 A  
HETATM    4  C   UNL     1     -11.328   8.079  71.760  1.00  0.00    -0.270 A  
HETATM    5  O   UNL     1     -13.293   9.003  71.937  1.00  0.00    -0.360 OA 
HETATM    6  N   UNL     1     -12.617   7.798  72.024  1.00  0.00    -0.293 NA 
ENDROOT
BRANCH   4   7
HETATM    7  C   UNL     1     -10.285   7.053  71.781  1.00  0.00    -0.192 C  
HETATM    8  O   UNL     1      -9.161   7.270  72.230  1.00  0.00    -0.131 OA 
HETATM    9  N   UNL     1     -10.694   5.823  71.269  1.00  0.00    -0.256 N  
HETATM   10  H   UNL     1     -11.666   5.685  70.994  1.00  0.00     0.000 HD 
BRANCH   9  11
HETATM   11  N   UNL     1      -9.766   4.767  71.127  1.00  0.00    -0.170 NA 
HETATM   12  H   UNL     1      -9.899   4.065  71.855  1.00  0.00     0.000 HD 
BRANCH  11  13
HETATM   13  C   UNL     1      -9.800   4.155  69.798  1.00  0.00    -0.150 C  
BRANCH  13  14
HETATM   14  C   UNL     1      -9.468   5.158  68.715  1.00  0.00    -0.181 A  
HETATM   15  C   UNL     1      -8.199   5.752  68.656  1.00  0.00    -0.105 A  
HETATM   16  C   UNL     1      -7.894   6.675  67.652  1.00  0.00    -0.111 A  
HETATM   17  C   UNL     1      -8.850   7.013  66.698  1.00  0.00    -0.139 A  
HETATM   18  C   UNL     1     -10.113   6.427  66.742  1.00  0.00    -0.239 A  
HETATM   19  C   UNL     1     -10.420   5.502  67.740  1.00  0.00    -0.245 A  
ENDBRANCH  13  14
ENDBRANCH  11  13
ENDBRANCH   9  11
ENDBRANCH   4   7
TORSDOF 4
ENDMDL
MODEL      186
REMARK 921   NORMALIZED FREE ENERGY PREDICTED BY IDOCK:   -3.59 KCAL/MOL
REMARK 922        TOTAL FREE ENERGY PREDICTED BY IDOCK:   -4.64 KCAL/MOL
REMARK 923 INTER-LIGAND FREE ENERGY PREDICTED BY IDOCK:   -4.61 KCAL/MOL
REMARK 924 INTRA-LIGAND FREE ENERGY PREDICTED BY IDOCK:   -0.04 KCAL/MOL
REMARK 927      BINDING AFFINITY PREDICTED BY RF-SCORE:    0.00 PKD
ROOT
HETATM    1  C   UNL     1      -8.778   8.788  65.441  1.00  0.00    -0.217 C  
HETATM    2  C   UNL     1      -9.631   9.473  66.427  1.00  0.00    -0.213 A  
HETATM    3  C   UNL     1     -10.207   9.106  67.615  1.00  0.00    -0.293 A  
HETATM    4  C   UNL     1     -10.892  10.267  68.058  1.00  0.00    -0.275 A  
HETATM    5  O   UNL     1      -9.953  10.767  66.157  1.00  0.00    -0.215 OA 
HETATM    6  N   UNL     1     -10.746  11.271  67.173  1.00  0.00    -0.239 NA 
ENDROOT
BRANCH   4   7
HETATM    7  C   UNL     1     -11.656  10.423  69.297  1.00  0.00    -0.176 C  
HETATM    8  O   UNL     1     -12.443  11.352  69.469  1.00  0.00    -0.197 OA 
HETATM    9  N   UNL     1     -11.418   9.420  70.235  1.00  0.00    -0.375 N  
HETATM   10  H   UNL     1     -10.820   8.630  69.995  1.00  0.00     0.000 HD 
BRANCH   9  11
HETATM   11  N   UNL     1     -12.003   9.493  71.519  1.00  0.00    -0.374 NA 
HETATM   12  H   UNL     1     -12.609  10.310  71.598  1.00  0.00     0.000 HD 
BRANCH  11  13
HETATM   13  C   UNL     1     -12.721   8.272  71.888  1.00  0.00    -0.342 C  
BRANCH  13  14
HETATM   14  C   UNL     1     -11.830   7.053  71.790  1.00  0.00    -0.347 A  
HETATM   15  C   UNL     1     -11.265   6.487  72.941  1.00  0.00    -0.215 A  
HETATM   16  C   UNL     1     -10.446   5.358  72.849  1.00  0.00    -0.250 A  
HETATM   17  C   UNL     1     -10.184   4.783  71.608  1.00  0.00    -0.249 A  
HETATM   18  C   UNL     1     -10.744   5.332  70.456  1.00  0.00    -0.208 A  
HETATM   19  C   UNL     1     -11.565   6.456  70.546  1.00  0.00    -0.424 A  
ENDBRANCH  13  14
ENDBRANCH  11  13
ENDBRANCH   9  11
ENDBRANCH   4   7
TORSDOF 4
ENDMDL
MODEL      187
REMARK 921   NORMALIZED FREE ENERGY PREDICTED BY IDOCK:   -3.58 KCAL/MOL
REMARK 922        TOTAL FREE ENERGY PREDICTED BY IDOCK:   -4.63 KCAL/MOL
REMARK 923 INTER-LIGAND FREE ENERGY PREDICTED BY IDOCK:   -4.38 KCAL/MOL
REMARK 924 INTRA-LIGAND FREE ENERGY PREDICTED BY IDOCK:   -0.25 KCAL/MOL
REMARK 927      BINDING AFFINITY PREDICTED BY RF-SCORE:    0.00 PKD
ROOT
HETATM    1  C   UNL     1      -5.852   7.623  63.498  1.00  0.00    -0.053 C  
HETATM    2  C   UNL     1      -6.868   8.434  64.190  1.00  0.00    -0.074 A  
HETATM    3  C   UNL     1      -7.956   8.145  64.973  1.00  0.00    -0.139 A  
HETATM    4  C   UNL     1      -8.491   9.411  65.328  1.00  0.00    -0.149 A  
HETATM    5  O   UNL     1      -6.754   9.784  64.066  1.00  0.00    -0.109 OA 
HETATM    6  N   UNL     1      -7.770  10.404  64.774  1.00  0.00    -0.113 NA 
ENDROOT
BRANCH   4   7
HETATM    7  C   UNL     1      -9.650   9.671  66.182  1.00  0.00    -0.233 C  
HETATM    8  O   UNL     1     -10.358  10.666  66.042  1.00  0.00    -0.250 OA 
HETATM    9  N   UNL     1      -9.876   8.684  67.140  1.00  0.00    -0.187 N  
HETATM   10  H   UNL     1      -9.304   7.840  67.146  1.00  0.00     0.000 HD 
BRANCH   9  11
HETATM   11  N   UNL     1     -10.896   8.848  68.104  1.00  0.00    -0.467 NA 
HETATM   12  H   UNL     1     -11.537   8.055  68.096  1.00  0.00     0.000 HD 
BRANCH  11  13
HETATM   13  C   UNL     1     -10.372   9.085  69.451  1.00  0.00    -0.213 C  
BRANCH  13  14
HETATM   14  C   UNL     1     -11.484   9.171  70.473  1.00  0.00    -0.271 A  
HETATM   15  C   UNL     1     -11.952  10.417  70.914  1.00  0.00    -0.478 A  
HETATM   16  C   UNL     1     -12.983  10.494  71.855  1.00  0.00    -0.553 A  
HETATM   17  C   UNL     1     -13.556   9.331  72.362  1.00  0.00    -0.527 A  
HETATM   18  C   UNL     1     -13.104   8.087  71.927  1.00  0.00    -0.336 A  
HETATM   19  C   UNL     1     -12.079   8.006  70.985  1.00  0.00    -0.232 A  
ENDBRANCH  13  14
ENDBRANCH  11  13
ENDBRANCH   9  11
ENDBRANCH   4   7
TORSDOF 4
ENDMDL
MODEL      188
REMARK 921   NORMALIZED FREE ENERGY PREDICTED BY IDOCK:   -3.58 KCAL/MOL
REMARK 922        TOTAL FREE ENERGY PREDICTED BY IDOCK:   -4.63 KCAL/MOL
REMARK 923 INTER-LIGAND FREE ENERGY PREDICTED BY IDOCK:   -4.38 KCAL/MOL
REMARK 924 INTRA-LIGAND FREE ENERGY PREDICTED BY IDOCK:   -0.25 KCAL/MOL
REMARK 927      BINDING AFFINITY PREDICTED BY RF-SCORE:    0.00 PKD
ROOT
HETATM    1  C   UNL     1      -5.484  14.560  70.859  1.00  0.00    -0.156 C  
HETATM    2  C   UNL     1      -6.237  13.720  69.911  1.00  0.00    -0.129 A  
HETATM    3  C   UNL     1      -7.146  13.976  68.916  1.00  0.00    -0.111 A  
HETATM    4  C   UNL     1      -7.464  12.701  68.381  1.00  0.00    -0.127 A  
HETATM    5  O   UNL     1      -6.025  12.379  69.986  1.00  0.00    -0.135 OA 
HETATM    6  N   UNL     1      -6.793  11.732  69.033  1.00  0.00    -0.099 NA 
ENDROOT
BRANCH   4   7
HETATM    7  C   UNL     1      -8.372  12.410  67.272  1.00  0.00    -0.184 C  
HETATM    8  O   UNL     1      -8.757  11.270  67.021  1.00  0.00    -0.144 OA 
HETATM    9  N   UNL     1      -8.764  13.539  66.554  1.00  0.00    -0.446 N  
HETATM   10  H   UNL     1      -8.478  14.466  66.868  1.00  0.00     0.000 HD 
BRANCH   9  11
HETATM   11  N   UNL     1      -9.555  13.404  65.392  1.00  0.00    -0.506 NA 
HETATM   12  H   UNL     1      -9.633  12.426  65.115  1.00  0.00     0.000 HD 
BRANCH  11  13
HETATM   13  C   UNL     1     -10.878  14.016  65.530  1.00  0.00    -0.309 C  
BRANCH  13  14
HETATM   14  C   UNL     1     -10.845  15.205  66.465  1.00  0.00    -0.317 A  
HETATM   15  C   UNL     1     -11.258  15.076  67.799  1.00  0.00    -0.327 A  
HETATM   16  C   UNL     1     -11.223  16.175  68.661  1.00  0.00    -0.369 A  
HETATM   17  C   UNL     1     -10.774  17.411  68.203  1.00  0.00    -0.343 A  
HETATM   18  C   UNL     1     -10.354  17.551  66.882  1.00  0.00    -0.315 A  
HETATM   19  C   UNL     1     -10.385  16.455  66.019  1.00  0.00    -0.365 A  
ENDBRANCH  13  14
ENDBRANCH  11  13
ENDBRANCH   9  11
ENDBRANCH   4   7
TORSDOF 4
ENDMDL
MODEL      189
REMARK 921   NORMALIZED FREE ENERGY PREDICTED BY IDOCK:   -3.58 KCAL/MOL
REMARK 922        TOTAL FREE ENERGY PREDICTED BY IDOCK:   -4.63 KCAL/MOL
REMARK 923 INTER-LIGAND FREE ENERGY PREDICTED BY IDOCK:   -4.23 KCAL/MOL
REMARK 924 INTRA-LIGAND FREE ENERGY PREDICTED BY IDOCK:   -0.40 KCAL/MOL
REMARK 927      BINDING AFFINITY PREDICTED BY RF-SCORE:    0.00 PKD
ROOT
HETATM    1  C   UNL     1     -11.047  13.897  64.720  1.00  0.00    -0.386 C  
HETATM    2  C   UNL     1     -10.665  12.493  64.950  1.00  0.00    -0.295 A  
HETATM    3  C   UNL     1     -10.578  11.693  66.061  1.00  0.00    -0.303 A  
HETATM    4  C   UNL     1     -10.160  10.431  65.565  1.00  0.00    -0.283 A  
HETATM    5  O   UNL     1     -10.311  11.771  63.853  1.00  0.00    -0.311 OA 
HETATM    6  N   UNL     1      -9.990  10.478  64.230  1.00  0.00    -0.337 NA 
ENDROOT
BRANCH   4   7
HETATM    7  C   UNL     1      -9.939   9.208  66.337  1.00  0.00    -0.288 C  
HETATM    8  O   UNL     1      -9.029   8.423  66.076  1.00  0.00    -0.166 OA 
HETATM    9  N   UNL     1     -10.837   9.037  67.389  1.00  0.00    -0.432 N  
HETATM   10  H   UNL     1     -11.513   9.769  67.606  1.00  0.00     0.000 HD 
BRANCH   9  11
HETATM   11  N   UNL     1     -10.814   7.852  68.158  1.00  0.00    -0.441 NA 
HETATM   12  H   UNL     1     -10.064   7.233  67.853  1.00  0.00     0.000 HD 
BRANCH  11  13
HETATM   13  C   UNL     1     -10.729   8.109  69.597  1.00  0.00    -0.195 C  
BRANCH  13  14
HETATM   14  C   UNL     1      -9.292   8.214  70.058  1.00  0.00    -0.159 A  
HETATM   15  C   UNL     1      -8.490   7.068  70.163  1.00  0.00    -0.139 A  
HETATM   16  C   UNL     1      -7.162   7.168  70.585  1.00  0.00    -0.067 A  
HETATM   17  C   UNL     1      -6.621   8.410  70.905  1.00  0.00    -0.041 A  
HETATM   18  C   UNL     1      -7.404   9.558  70.799  1.00  0.00    -0.103 A  
HETATM   19  C   UNL     1      -8.729   9.462  70.374  1.00  0.00    -0.278 A  
ENDBRANCH  13  14
ENDBRANCH  11  13
ENDBRANCH   9  11
ENDBRANCH   4   7
TORSDOF 4
ENDMDL
MODEL      190
REMARK 921   NORMALIZED FREE ENERGY PREDICTED BY IDOCK:   -3.56 KCAL/MOL
REMARK 922        TOTAL FREE ENERGY PREDICTED BY IDOCK:   -4.61 KCAL/MOL
REMARK 923 INTER-LIGAND FREE ENERGY PREDICTED BY IDOCK:   -4.32 KCAL/MOL
REMARK 924 INTRA-LIGAND FREE ENERGY PREDICTED BY IDOCK:   -0.28 KCAL/MOL
REMARK 927      BINDING AFFINITY PREDICTED BY RF-SCORE:    0.00 PKD
ROOT
HETATM    1  C   UNL     1      -6.038  16.390  67.331  1.00  0.00    -0.199 C  
HETATM    2  C   UNL     1      -7.440  16.093  67.674  1.00  0.00    -0.145 A  
HETATM    3  C   UNL     1      -8.322  15.102  67.328  1.00  0.00    -0.225 A  
HETATM    4  C   UNL     1      -9.511  15.415  68.036  1.00  0.00    -0.201 A  
HETATM    5  O   UNL     1      -8.054  16.960  68.524  1.00  0.00    -0.223 OA 
HETATM    6  N   UNL     1      -9.354  16.543  68.753  1.00  0.00    -0.239 NA 
ENDROOT
BRANCH   4   7
HETATM    7  C   UNL     1     -10.762  14.656  68.040  1.00  0.00    -0.246 C  
HETATM    8  O   UNL     1     -11.840  15.170  68.331  1.00  0.00    -0.328 OA 
HETATM    9  N   UNL     1     -10.611  13.321  67.669  1.00  0.00    -0.234 N  
HETATM   10  H   UNL     1      -9.703  12.979  67.354  1.00  0.00     0.000 HD 
BRANCH   9  11
HETATM   11  N   UNL     1     -11.712  12.437  67.727  1.00  0.00    -0.360 NA 
HETATM   12  H   UNL     1     -12.492  12.789  67.172  1.00  0.00     0.000 HD 
BRANCH  11  13
HETATM   13  C   UNL     1     -11.365  11.070  67.335  1.00  0.00    -0.230 C  
BRANCH  13  14
HETATM   14  C   UNL     1     -10.943  10.240  68.528  1.00  0.00    -0.294 A  
HETATM   15  C   UNL     1     -11.237  10.663  69.832  1.00  0.00    -0.378 A  
HETATM   16  C   UNL     1     -10.850   9.892  70.931  1.00  0.00    -0.357 A  
HETATM   17  C   UNL     1     -10.168   8.693  70.741  1.00  0.00    -0.250 A  
HETATM   18  C   UNL     1      -9.875   8.258  69.450  1.00  0.00    -0.185 A  
HETATM   19  C   UNL     1     -10.264   9.023  68.350  1.00  0.00    -0.232 A  
ENDBRANCH  13  14
ENDBRANCH  11  13
ENDBRANCH   9  11
ENDBRANCH   4   7
TORSDOF 4
ENDMDL
MODEL      191
REMARK 921   NORMALIZED FREE ENERGY PREDICTED BY IDOCK:   -3.54 KCAL/MOL
REMARK 922        TOTAL FREE ENERGY PREDICTED BY IDOCK:   -4.59 KCAL/MOL
REMARK 923 INTER-LIGAND FREE ENERGY PREDICTED BY IDOCK:   -4.36 KCAL/MOL
REMARK 924 INTRA-LIGAND FREE ENERGY PREDICTED BY IDOCK:   -0.23 KCAL/MOL
REMARK 927      BINDING AFFINITY PREDICTED BY RF-SCORE:    0.00 PKD
ROOT
HETATM    1  C   UNL     1     -13.194  11.821  72.024  1.00  0.00    -0.460 C  
HETATM    2  C   UNL     1     -12.398  10.820  71.294  1.00  0.00    -0.365 A  
HETATM    3  C   UNL     1     -12.197   9.470  71.429  1.00  0.00    -0.455 A  
HETATM    4  C   UNL     1     -11.316   9.129  70.371  1.00  0.00    -0.224 A  
HETATM    5  O   UNL     1     -11.677  11.274  70.233  1.00  0.00    -0.316 OA 
HETATM    6  N   UNL     1     -10.993  10.220  69.651  1.00  0.00    -0.252 NA 
ENDROOT
BRANCH   4   7
HETATM    7  C   UNL     1     -10.803   7.798  70.044  1.00  0.00    -0.241 C  
HETATM    8  O   UNL     1     -10.358   7.038  70.902  1.00  0.00    -0.198 OA 
HETATM    9  N   UNL     1     -10.886   7.479  68.690  1.00  0.00    -0.416 N  
HETATM   10  H   UNL     1     -11.347   8.120  68.044  1.00  0.00     0.000 HD 
BRANCH   9  11
HETATM   11  N   UNL     1     -10.334   6.272  68.208  1.00  0.00    -0.172 NA 
HETATM   12  H   UNL     1     -10.429   5.526  68.897  1.00  0.00     0.000 HD 
BRANCH  11  13
HETATM   13  C   UNL     1     -10.893   5.866  66.917  1.00  0.00    -0.296 C  
BRANCH  13  14
HETATM   14  C   UNL     1     -10.051   4.796  66.258  1.00  0.00    -0.291 A  
HETATM   15  C   UNL     1      -8.930   4.266  66.911  1.00  0.00    -0.128 A  
HETATM   16  C   UNL     1      -8.156   3.275  66.302  1.00  0.00    -0.092 A  
HETATM   17  C   UNL     1      -8.494   2.802  65.036  1.00  0.00    -0.095 A  
HETATM   18  C   UNL     1      -9.610   3.316  64.378  1.00  0.00    -0.153 A  
HETATM   19  C   UNL     1     -10.387   4.302  64.986  1.00  0.00    -0.203 A  
ENDBRANCH  13  14
ENDBRANCH  11  13
ENDBRANCH   9  11
ENDBRANCH   4   7
TORSDOF 4
ENDMDL
MODEL      192
REMARK 921   NORMALIZED FREE ENERGY PREDICTED BY IDOCK:   -3.54 KCAL/MOL
REMARK 922        TOTAL FREE ENERGY PREDICTED BY IDOCK:   -4.58 KCAL/MOL
REMARK 923 INTER-LIGAND FREE ENERGY PREDICTED BY IDOCK:   -4.29 KCAL/MOL
REMARK 924 INTRA-LIGAND FREE ENERGY PREDICTED BY IDOCK:   -0.29 KCAL/MOL
REMARK 927      BINDING AFFINITY PREDICTED BY RF-SCORE:    0.00 PKD
ROOT
HETATM    1  C   UNL     1      -8.045   7.485  74.387  1.00  0.00    -0.232 C  
HETATM    2  C   UNL     1      -9.127   7.825  73.448  1.00  0.00    -0.276 A  
HETATM    3  C   UNL     1      -9.171   8.388  72.198  1.00  0.00    -0.313 A  
HETATM    4  C   UNL     1     -10.550   8.411  71.862  1.00  0.00    -0.300 A  
HETATM    5  O   UNL     1     -10.394   7.536  73.851  1.00  0.00    -0.271 OA 
HETATM    6  N   UNL     1     -11.292   7.904  72.864  1.00  0.00    -0.401 NA 
ENDROOT
BRANCH   4   7
HETATM    7  C   UNL     1     -11.146   8.892  70.615  1.00  0.00    -0.262 C  
HETATM    8  O   UNL     1     -12.044   9.731  70.598  1.00  0.00    -0.274 OA 
HETATM    9  N   UNL     1     -10.589   8.325  69.469  1.00  0.00    -0.248 N  
HETATM   10  H   UNL     1      -9.787   7.701  69.549  1.00  0.00     0.000 HD 
BRANCH   9  11
HETATM   11  N   UNL     1     -11.132   8.613  68.197  1.00  0.00    -0.389 NA 
HETATM   12  H   UNL     1     -10.787   9.506  67.847  1.00  0.00     0.000 HD 
BRANCH  11  13
HETATM   13  C   UNL     1     -10.899   7.544  67.225  1.00  0.00    -0.227 C  
BRANCH  13  14
HETATM   14  C   UNL     1      -9.718   7.853  66.331  1.00  0.00    -0.235 A  
HETATM   15  C   UNL     1      -8.761   6.868  66.046  1.00  0.00    -0.151 A  
HETATM   16  C   UNL     1      -7.673   7.155  65.217  1.00  0.00    -0.114 A  
HETATM   17  C   UNL     1      -7.531   8.425  64.664  1.00  0.00    -0.098 A  
HETATM   18  C   UNL     1      -8.477   9.411  64.934  1.00  0.00    -0.176 A  
HETATM   19  C   UNL     1      -9.567   9.127  65.758  1.00  0.00    -0.323 A  
ENDBRANCH  13  14
ENDBRANCH  11  13
ENDBRANCH   9  11
ENDBRANCH   4   7
TORSDOF 4
ENDMDL
MODEL      193
REMARK 921   NORMALIZED FREE ENERGY PREDICTED BY IDOCK:   -3.53 KCAL/MOL
REMARK 922        TOTAL FREE ENERGY PREDICTED BY IDOCK:   -4.57 KCAL/MOL
REMARK 923 INTER-LIGAND FREE ENERGY PREDICTED BY IDOCK:   -4.40 KCAL/MOL
REMARK 924 INTRA-LIGAND FREE ENERGY PREDICTED BY IDOCK:   -0.17 KCAL/MOL
REMARK 927      BINDING AFFINITY PREDICTED BY RF-SCORE:    0.00 PKD
ROOT
HETATM    1  C   UNL     1     -11.850  12.272  66.577  1.00  0.00    -0.378 C  
HETATM    2  C   UNL     1     -11.524  11.382  67.705  1.00  0.00    -0.273 A  
HETATM    3  C   UNL     1     -11.670  11.466  69.066  1.00  0.00    -0.409 A  
HETATM    4  C   UNL     1     -11.157  10.239  69.560  1.00  0.00    -0.262 A  
HETATM    5  O   UNL     1     -10.949  10.189  67.392  1.00  0.00    -0.292 OA 
HETATM    6  N   UNL     1     -10.713   9.468  68.549  1.00  0.00    -0.208 NA 
ENDROOT
BRANCH   4   7
HETATM    7  C   UNL     1     -11.102   9.804  70.956  1.00  0.00    -0.361 C  
HETATM    8  O   UNL     1     -11.994  10.066  71.761  1.00  0.00    -0.354 OA 
HETATM    9  N   UNL     1      -9.966   9.059  71.269  1.00  0.00    -0.288 N  
HETATM   10  H   UNL     1      -9.308   8.802  70.534  1.00  0.00     0.000 HD 
BRANCH   9  11
HETATM   11  N   UNL     1      -9.722   8.660  72.602  1.00  0.00    -0.212 NA 
HETATM   12  H   UNL     1      -9.892   9.428  73.250  1.00  0.00     0.000 HD 
BRANCH  11  13
HETATM   13  C   UNL     1     -10.484   7.471  72.988  1.00  0.00    -0.342 C  
BRANCH  13  14
HETATM   14  C   UNL     1      -9.793   6.200  72.547  1.00  0.00    -0.180 A  
HETATM   15  C   UNL     1      -8.409   6.182  72.318  1.00  0.00    -0.113 A  
HETATM   16  C   UNL     1      -7.772   5.006  71.915  1.00  0.00    -0.107 A  
HETATM   17  C   UNL     1      -8.507   3.836  71.739  1.00  0.00    -0.102 A  
HETATM   18  C   UNL     1      -9.881   3.838  71.970  1.00  0.00    -0.243 A  
HETATM   19  C   UNL     1     -10.520   5.010  72.376  1.00  0.00    -0.275 A  
ENDBRANCH  13  14
ENDBRANCH  11  13
ENDBRANCH   9  11
ENDBRANCH   4   7
TORSDOF 4
ENDMDL
MODEL      194
REMARK 921   NORMALIZED FREE ENERGY PREDICTED BY IDOCK:   -3.52 KCAL/MOL
REMARK 922        TOTAL FREE ENERGY PREDICTED BY IDOCK:   -4.57 KCAL/MOL
REMARK 923 INTER-LIGAND FREE ENERGY PREDICTED BY IDOCK:   -4.32 KCAL/MOL
REMARK 924 INTRA-LIGAND FREE ENERGY PREDICTED BY IDOCK:   -0.24 KCAL/MOL
REMARK 927      BINDING AFFINITY PREDICTED BY RF-SCORE:    0.00 PKD
ROOT
HETATM    1  C   UNL     1      -9.454   8.705  71.780  1.00  0.00    -0.354 C  
HETATM    2  C   UNL     1      -9.485   9.013  70.340  1.00  0.00    -0.210 A  
HETATM    3  C   UNL     1      -9.316  10.156  69.600  1.00  0.00    -0.215 A  
HETATM    4  C   UNL     1      -9.460   9.736  68.252  1.00  0.00    -0.139 A  
HETATM    5  O   UNL     1      -9.727   7.971  69.501  1.00  0.00    -0.167 OA 
HETATM    6  N   UNL     1      -9.717   8.416  68.190  1.00  0.00    -0.151 NA 
ENDROOT
BRANCH   4   7
HETATM    7  C   UNL     1      -9.343  10.566  67.053  1.00  0.00    -0.155 C  
HETATM    8  O   UNL     1      -9.484  10.106  65.921  1.00  0.00    -0.172 OA 
HETATM    9  N   UNL     1      -9.081  11.909  67.320  1.00  0.00    -0.173 N  
HETATM   10  H   UNL     1      -9.063  12.242  68.284  1.00  0.00     0.000 HD 
BRANCH   9  11
HETATM   11  N   UNL     1      -8.838  12.811  66.261  1.00  0.00    -0.430 NA 
HETATM   12  H   UNL     1      -8.454  12.327  65.450  1.00  0.00     0.000 HD 
BRANCH  11  13
HETATM   13  C   UNL     1     -10.023  13.588  65.893  1.00  0.00    -0.283 C  
BRANCH  13  14
HETATM   14  C   UNL     1     -10.654  14.245  67.101  1.00  0.00    -0.279 A  
HETATM   15  C   UNL     1     -10.216  15.502  67.541  1.00  0.00    -0.254 A  
HETATM   16  C   UNL     1     -10.803  16.108  68.654  1.00  0.00    -0.311 A  
HETATM   17  C   UNL     1     -11.834  15.468  69.338  1.00  0.00    -0.392 A  
HETATM   18  C   UNL     1     -12.283  14.222  68.907  1.00  0.00    -0.240 A  
HETATM   19  C   UNL     1     -11.702  13.616  67.794  1.00  0.00    -0.397 A  
ENDBRANCH  13  14
ENDBRANCH  11  13
ENDBRANCH   9  11
ENDBRANCH   4   7
TORSDOF 4
ENDMDL
MODEL      195
REMARK 921   NORMALIZED FREE ENERGY PREDICTED BY IDOCK:   -3.51 KCAL/MOL
REMARK 922        TOTAL FREE ENERGY PREDICTED BY IDOCK:   -4.54 KCAL/MOL
REMARK 923 INTER-LIGAND FREE ENERGY PREDICTED BY IDOCK:   -4.32 KCAL/MOL
REMARK 924 INTRA-LIGAND FREE ENERGY PREDICTED BY IDOCK:   -0.22 KCAL/MOL
REMARK 927      BINDING AFFINITY PREDICTED BY RF-SCORE:    0.00 PKD
ROOT
HETATM    1  C   UNL     1     -11.615  12.388  64.408  1.00  0.00    -0.418 C  
HETATM    2  C   UNL     1     -11.261  13.605  65.159  1.00  0.00    -0.310 A  
HETATM    3  C   UNL     1     -10.348  14.612  64.978  1.00  0.00    -0.432 A  
HETATM    4  C   UNL     1     -10.553  15.487  66.076  1.00  0.00    -0.325 A  
HETATM    5  O   UNL     1     -11.968  13.843  66.297  1.00  0.00    -0.388 OA 
HETATM    6  N   UNL     1     -11.527  15.020  66.879  1.00  0.00    -0.308 NA 
ENDROOT
BRANCH   4   7
HETATM    7  C   UNL     1      -9.851  16.740  66.349  1.00  0.00    -0.297 C  
HETATM    8  O   UNL     1     -10.448  17.794  66.559  1.00  0.00    -0.345 OA 
HETATM    9  N   UNL     1      -8.463  16.617  66.364  1.00  0.00    -0.286 N  
HETATM   10  H   UNL     1      -8.033  15.697  66.269  1.00  0.00     0.000 HD 
BRANCH   9  11
HETATM   11  N   UNL     1      -7.648  17.762  66.510  1.00  0.00    -0.235 NA 
HETATM   12  H   UNL     1      -8.162  18.609  66.269  1.00  0.00     0.000 HD 
BRANCH  11  13
HETATM   13  C   UNL     1      -7.054  17.871  67.843  1.00  0.00    -0.210 C  
BRANCH  13  14
HETATM   14  C   UNL     1      -6.693  16.513  68.404  1.00  0.00    -0.143 A  
HETATM   15  C   UNL     1      -5.552  15.835  67.953  1.00  0.00    -0.156 A  
HETATM   16  C   UNL     1      -5.218  14.583  68.476  1.00  0.00    -0.103 A  
HETATM   17  C   UNL     1      -6.017  13.997  69.453  1.00  0.00    -0.097 A  
HETATM   18  C   UNL     1      -7.150  14.663  69.915  1.00  0.00    -0.056 A  
HETATM   19  C   UNL     1      -7.484  15.915  69.399  1.00  0.00    -0.213 A  
ENDBRANCH  13  14
ENDBRANCH  11  13
ENDBRANCH   9  11
ENDBRANCH   4   7
TORSDOF 4
ENDMDL
MODEL      196
REMARK 921   NORMALIZED FREE ENERGY PREDICTED BY IDOCK:   -3.50 KCAL/MOL
REMARK 922        TOTAL FREE ENERGY PREDICTED BY IDOCK:   -4.53 KCAL/MOL
REMARK 923 INTER-LIGAND FREE ENERGY PREDICTED BY IDOCK:   -4.29 KCAL/MOL
REMARK 924 INTRA-LIGAND FREE ENERGY PREDICTED BY IDOCK:   -0.24 KCAL/MOL
REMARK 927      BINDING AFFINITY PREDICTED BY RF-SCORE:    0.00 PKD
ROOT
HETATM    1  C   UNL     1      -9.577  18.180  66.083  1.00  0.00    -0.180 C  
HETATM    2  C   UNL     1     -10.017  16.834  65.676  1.00  0.00    -0.134 A  
HETATM    3  C   UNL     1      -9.655  15.559  66.028  1.00  0.00    -0.380 A  
HETATM    4  C   UNL     1     -10.501  14.719  65.259  1.00  0.00    -0.404 A  
HETATM    5  O   UNL     1     -11.008  16.775  64.745  1.00  0.00    -0.732 OA 
HETATM    6  N   UNL     1     -11.314  15.452  64.476  1.00  0.00    -0.363 NA 
ENDROOT
BRANCH   4   7
HETATM    7  C   UNL     1     -10.543  13.256  65.276  1.00  0.00    -0.315 C  
HETATM    8  O   UNL     1     -11.602  12.632  65.323  1.00  0.00    -0.321 OA 
HETATM    9  N   UNL     1      -9.287  12.655  65.217  1.00  0.00    -0.370 N  
HETATM   10  H   UNL     1      -8.454  13.230  65.091  1.00  0.00     0.000 HD 
BRANCH   9  11
HETATM   11  N   UNL     1      -9.163  11.253  65.331  1.00  0.00    -0.274 NA 
HETATM   12  H   UNL     1      -9.119  10.814  64.411  1.00  0.00     0.000 HD 
BRANCH  11  13
HETATM   13  C   UNL     1      -8.026  10.848  66.159  1.00  0.00    -0.155 C  
BRANCH  13  14
HETATM   14  C   UNL     1      -7.951   9.344  66.303  1.00  0.00    -0.111 A  
HETATM   15  C   UNL     1      -7.058   8.757  67.212  1.00  0.00    -0.079 A  
HETATM   16  C   UNL     1      -6.994   7.368  67.347  1.00  0.00    -0.079 A  
HETATM   17  C   UNL     1      -7.820   6.551  66.579  1.00  0.00    -0.104 A  
HETATM   18  C   UNL     1      -8.716   7.121  65.677  1.00  0.00    -0.088 A  
HETATM   19  C   UNL     1      -8.785   8.508  65.542  1.00  0.00    -0.208 A  
ENDBRANCH  13  14
ENDBRANCH  11  13
ENDBRANCH   9  11
ENDBRANCH   4   7
TORSDOF 4
ENDMDL
MODEL      197
REMARK 921   NORMALIZED FREE ENERGY PREDICTED BY IDOCK:   -3.49 KCAL/MOL
REMARK 922        TOTAL FREE ENERGY PREDICTED BY IDOCK:   -4.52 KCAL/MOL
REMARK 923 INTER-LIGAND FREE ENERGY PREDICTED BY IDOCK:   -4.06 KCAL/MOL
REMARK 924 INTRA-LIGAND FREE ENERGY PREDICTED BY IDOCK:   -0.46 KCAL/MOL
REMARK 927      BINDING AFFINITY PREDICTED BY RF-SCORE:    0.00 PKD
ROOT
HETATM    1  C   UNL     1     -12.457  13.358  64.647  1.00  0.00    -0.385 C  
HETATM    2  C   UNL     1     -11.476  12.260  64.612  1.00  0.00    -0.336 A  
HETATM    3  C   UNL     1     -10.755  11.588  65.564  1.00  0.00    -0.328 A  
HETATM    4  C   UNL     1     -10.006  10.626  64.838  1.00  0.00    -0.318 A  
HETATM    5  O   UNL     1     -11.178  11.751  63.386  1.00  0.00    -0.395 OA 
HETATM    6  N   UNL     1     -10.255  10.729  63.519  1.00  0.00    -0.312 NA 
ENDROOT
BRANCH   4   7
HETATM    7  C   UNL     1      -9.087   9.627  65.384  1.00  0.00    -0.215 C  
HETATM    8  O   UNL     1      -8.937   8.522  64.866  1.00  0.00    -0.061 OA 
HETATM    9  N   UNL     1      -8.398  10.055  66.517  1.00  0.00    -0.125 N  
HETATM   10  H   UNL     1      -8.503  11.015  66.844  1.00  0.00     0.000 HD 
BRANCH   9  11
HETATM   11  N   UNL     1      -7.555   9.163  67.216  1.00  0.00    -0.088 NA 
HETATM   12  H   UNL     1      -6.573   9.390  67.058  1.00  0.00     0.000 HD 
BRANCH  11  13
HETATM   13  C   UNL     1      -7.854   9.102  68.648  1.00  0.00    -0.097 C  
BRANCH  13  14
HETATM   14  C   UNL     1      -8.975   8.129  68.941  1.00  0.00    -0.141 A  
HETATM   15  C   UNL     1      -9.042   6.896  68.277  1.00  0.00    -0.125 A  
HETATM   16  C   UNL     1     -10.076   5.997  68.552  1.00  0.00    -0.197 A  
HETATM   17  C   UNL     1     -11.052   6.319  69.492  1.00  0.00    -0.476 A  
HETATM   18  C   UNL     1     -10.994   7.539  70.163  1.00  0.00    -0.267 A  
HETATM   19  C   UNL     1      -9.960   8.436  69.894  1.00  0.00    -0.190 A  
ENDBRANCH  13  14
ENDBRANCH  11  13
ENDBRANCH   9  11
ENDBRANCH   4   7
TORSDOF 4
ENDMDL
MODEL      198
REMARK 921   NORMALIZED FREE ENERGY PREDICTED BY IDOCK:   -3.49 KCAL/MOL
REMARK 922        TOTAL FREE ENERGY PREDICTED BY IDOCK:   -4.52 KCAL/MOL
REMARK 923 INTER-LIGAND FREE ENERGY PREDICTED BY IDOCK:   -4.32 KCAL/MOL
REMARK 924 INTRA-LIGAND FREE ENERGY PREDICTED BY IDOCK:   -0.20 KCAL/MOL
REMARK 927      BINDING AFFINITY PREDICTED BY RF-SCORE:    0.00 PKD
ROOT
HETATM    1  C   UNL     1      -5.139  14.235  72.585  1.00  0.00    -0.255 C  
HETATM    2  C   UNL     1      -5.522  13.251  71.558  1.00  0.00    -0.131 A  
HETATM    3  C   UNL     1      -6.013  13.339  70.281  1.00  0.00    -0.134 A  
HETATM    4  C   UNL     1      -6.145  11.994  69.850  1.00  0.00    -0.150 A  
HETATM    5  O   UNL     1      -5.376  11.939  71.889  1.00  0.00    -0.362 OA 
HETATM    6  N   UNL     1      -5.767  11.145  70.825  1.00  0.00    -0.267 NA 
ENDROOT
BRANCH   4   7
HETATM    7  C   UNL     1      -6.605  11.526  68.543  1.00  0.00    -0.063 C  
HETATM    8  O   UNL     1      -6.373  10.390  68.134  1.00  0.00    -0.051 OA 
HETATM    9  N   UNL     1      -7.335  12.475  67.830  1.00  0.00    -0.103 N  
HETATM   10  H   UNL     1      -7.567  13.369  68.263  1.00  0.00     0.000 HD 
BRANCH   9  11
HETATM   11  N   UNL     1      -7.756  12.205  66.509  1.00  0.00    -0.379 NA 
HETATM   12  H   UNL     1      -7.011  11.761  65.972  1.00  0.00     0.000 HD 
BRANCH  11  13
HETATM   13  C   UNL     1      -8.985  11.412  66.454  1.00  0.00    -0.191 C  
BRANCH  13  14
HETATM   14  C   UNL     1     -10.068  12.117  65.668  1.00  0.00    -0.274 A  
HETATM   15  C   UNL     1     -10.874  11.407  64.768  1.00  0.00    -0.339 A  
HETATM   16  C   UNL     1     -11.877  12.060  64.046  1.00  0.00    -0.500 A  
HETATM   17  C   UNL     1     -12.085  13.426  64.216  1.00  0.00    -0.479 A  
HETATM   18  C   UNL     1     -11.295  14.143  65.113  1.00  0.00    -0.336 A  
HETATM   19  C   UNL     1     -10.296  13.493  65.838  1.00  0.00    -0.301 A  
ENDBRANCH  13  14
ENDBRANCH  11  13
ENDBRANCH   9  11
ENDBRANCH   4   7
TORSDOF 4
ENDMDL
MODEL      199
REMARK 921   NORMALIZED FREE ENERGY PREDICTED BY IDOCK:   -3.47 KCAL/MOL
REMARK 922        TOTAL FREE ENERGY PREDICTED BY IDOCK:   -4.49 KCAL/MOL
REMARK 923 INTER-LIGAND FREE ENERGY PREDICTED BY IDOCK:   -4.26 KCAL/MOL
REMARK 924 INTRA-LIGAND FREE ENERGY PREDICTED BY IDOCK:   -0.23 KCAL/MOL
REMARK 927      BINDING AFFINITY PREDICTED BY RF-SCORE:    0.00 PKD
ROOT
HETATM    1  C   UNL     1      -5.323  14.570  71.132  1.00  0.00    -0.153 C  
HETATM    2  C   UNL     1      -6.262  14.136  70.083  1.00  0.00    -0.151 A  
HETATM    3  C   UNL     1      -7.244  14.760  69.358  1.00  0.00    -0.168 A  
HETATM    4  C   UNL     1      -7.753  13.752  68.498  1.00  0.00    -0.138 A  
HETATM    5  O   UNL     1      -6.186  12.832  69.701  1.00  0.00    -0.119 OA 
HETATM    6  N   UNL     1      -7.120  12.583  68.710  1.00  0.00    -0.097 NA 
ENDROOT
BRANCH   4   7
HETATM    7  C   UNL     1      -8.806  13.898  67.492  1.00  0.00    -0.196 C  
HETATM    8  O   UNL     1      -9.390  12.930  67.009  1.00  0.00    -0.219 OA 
HETATM    9  N   UNL     1      -9.086  15.222  67.158  1.00  0.00    -0.200 N  
HETATM   10  H   UNL     1      -8.626  15.981  67.660  1.00  0.00     0.000 HD 
BRANCH   9  11
HETATM   11  N   UNL     1     -10.004  15.517  66.126  1.00  0.00    -0.286 NA 
HETATM   12  H   UNL     1     -10.380  14.662  65.717  1.00  0.00     0.000 HD 
BRANCH  11  13
HETATM   13  C   UNL     1     -11.082  16.408  66.561  1.00  0.00     0.171 C  
BRANCH  13  14
HETATM   14  C   UNL     1     -10.548  17.754  66.997  1.00  0.00    -0.266 A  
HETATM   15  C   UNL     1     -10.364  18.785  66.064  1.00  0.00    -0.467 A  
HETATM   16  C   UNL     1      -9.875  20.030  66.470  1.00  0.00    -0.581 A  
HETATM   17  C   UNL     1      -9.567  20.258  67.809  1.00  0.00    -0.486 A  
HETATM   18  C   UNL     1      -9.751  19.245  68.747  1.00  0.00    -0.510 A  
HETATM   19  C   UNL     1     -10.243  18.003  68.346  1.00  0.00    -0.399 A  
ENDBRANCH  13  14
ENDBRANCH  11  13
ENDBRANCH   9  11
ENDBRANCH   4   7
TORSDOF 4
ENDMDL
MODEL      200
REMARK 921   NORMALIZED FREE ENERGY PREDICTED BY IDOCK:   -3.46 KCAL/MOL
REMARK 922        TOTAL FREE ENERGY PREDICTED BY IDOCK:   -4.49 KCAL/MOL
REMARK 923 INTER-LIGAND FREE ENERGY PREDICTED BY IDOCK:   -4.29 KCAL/MOL
REMARK 924 INTRA-LIGAND FREE ENERGY PREDICTED BY IDOCK:   -0.20 KCAL/MOL
REMARK 927      BINDING AFFINITY PREDICTED BY RF-SCORE:    0.00 PKD
ROOT
HETATM    1  C   UNL     1      -9.692   9.199  65.965  1.00  0.00    -0.358 C  
HETATM    2  C   UNL     1      -9.845  10.637  66.243  1.00  0.00    -0.214 A  
HETATM    3  C   UNL     1      -9.121  11.559  66.955  1.00  0.00    -0.175 A  
HETATM    4  C   UNL     1      -9.830  12.777  66.794  1.00  0.00    -0.242 A  
HETATM    5  O   UNL     1     -10.929  11.250  65.696  1.00  0.00    -0.231 OA 
HETATM    6  N   UNL     1     -10.929  12.591  66.039  1.00  0.00    -0.274 NA 
ENDROOT
BRANCH   4   7
HETATM    7  C   UNL     1      -9.466  14.088  67.332  1.00  0.00    -0.225 C  
HETATM    8  O   UNL     1     -10.218  14.727  68.066  1.00  0.00    -0.223 OA 
HETATM    9  N   UNL     1      -8.198  14.521  66.952  1.00  0.00    -0.380 N  
HETATM   10  H   UNL     1      -7.590  13.904  66.413  1.00  0.00     0.000 HD 
BRANCH   9  11
HETATM   11  N   UNL     1      -7.750  15.813  67.308  1.00  0.00    -0.179 NA 
HETATM   12  H   UNL     1      -6.736  15.831  67.414  1.00  0.00     0.000 HD 
BRANCH  11  13
HETATM   13  C   UNL     1      -8.197  16.848  66.374  1.00  0.00    -0.307 C  
BRANCH  13  14
HETATM   14  C   UNL     1      -7.350  18.096  66.480  1.00  0.00    -0.267 A  
HETATM   15  C   UNL     1      -7.587  19.036  67.494  1.00  0.00    -0.256 A  
HETATM   16  C   UNL     1      -6.799  20.186  67.592  1.00  0.00    -0.290 A  
HETATM   17  C   UNL     1      -5.769  20.409  66.683  1.00  0.00    -0.204 A  
HETATM   18  C   UNL     1      -5.519  19.481  65.675  1.00  0.00    -0.176 A  
HETATM   19  C   UNL     1      -6.300  18.329  65.576  1.00  0.00    -0.285 A  
ENDBRANCH  13  14
ENDBRANCH  11  13
ENDBRANCH   9  11
ENDBRANCH   4   7
TORSDOF 4
ENDMDL
MODEL      201
REMARK 921   NORMALIZED FREE ENERGY PREDICTED BY IDOCK:   -3.46 KCAL/MOL
REMARK 922        TOTAL FREE ENERGY PREDICTED BY IDOCK:   -4.49 KCAL/MOL
REMARK 923 INTER-LIGAND FREE ENERGY PREDICTED BY IDOCK:   -4.36 KCAL/MOL
REMARK 924 INTRA-LIGAND FREE ENERGY PREDICTED BY IDOCK:   -0.12 KCAL/MOL
REMARK 927      BINDING AFFINITY PREDICTED BY RF-SCORE:    0.00 PKD
ROOT
HETATM    1  C   UNL     1      -6.981   8.287  64.355  1.00  0.00    -0.073 C  
HETATM    2  C   UNL     1      -7.595   9.308  65.221  1.00  0.00    -0.099 A  
HETATM    3  C   UNL     1      -7.330   9.784  66.479  1.00  0.00    -0.095 A  
HETATM    4  C   UNL     1      -8.310  10.786  66.700  1.00  0.00    -0.141 A  
HETATM    5  O   UNL     1      -8.673   9.966  64.714  1.00  0.00    -0.160 OA 
HETATM    6  N   UNL     1      -9.129  10.892  65.637  1.00  0.00    -0.199 NA 
ENDROOT
BRANCH   4   7
HETATM    7  C   UNL     1      -8.458  11.629  67.886  1.00  0.00    -0.148 C  
HETATM    8  O   UNL     1      -8.099  11.260  69.003  1.00  0.00    -0.127 OA 
HETATM    9  N   UNL     1      -9.020  12.877  67.624  1.00  0.00    -0.181 N  
HETATM   10  H   UNL     1      -9.215  13.155  66.662  1.00  0.00     0.000 HD 
BRANCH   9  11
HETATM   11  N   UNL     1      -9.321  13.760  68.685  1.00  0.00    -0.362 NA 
HETATM   12  H   UNL     1      -8.616  14.492  68.762  1.00  0.00     0.000 HD 
BRANCH  11  13
HETATM   13  C   UNL     1     -10.664  14.335  68.582  1.00  0.00    -0.249 C  
BRANCH  13  14
HETATM   14  C   UNL     1     -11.110  14.453  67.142  1.00  0.00    -0.318 A  
HETATM   15  C   UNL     1     -12.088  13.592  66.624  1.00  0.00    -0.459 A  
HETATM   16  C   UNL     1     -12.502  13.706  65.294  1.00  0.00    -0.517 A  
HETATM   17  C   UNL     1     -11.944  14.679  64.469  1.00  0.00    -0.473 A  
HETATM   18  C   UNL     1     -10.975  15.545  64.972  1.00  0.00    -0.454 A  
HETATM   19  C   UNL     1     -10.563  15.437  66.300  1.00  0.00    -0.311 A  
ENDBRANCH  13  14
ENDBRANCH  11  13
ENDBRANCH   9  11
ENDBRANCH   4   7
TORSDOF 4
ENDMDL
MODEL      202
REMARK 921   NORMALIZED FREE ENERGY PREDICTED BY IDOCK:   -3.43 KCAL/MOL
REMARK 922        TOTAL FREE ENERGY PREDICTED BY IDOCK:   -4.44 KCAL/MOL
REMARK 923 INTER-LIGAND FREE ENERGY PREDICTED BY IDOCK:   -4.09 KCAL/MOL
REMARK 924 INTRA-LIGAND FREE ENERGY PREDICTED BY IDOCK:   -0.35 KCAL/MOL
REMARK 927      BINDING AFFINITY PREDICTED BY RF-SCORE:    0.00 PKD
ROOT
HETATM    1  C   UNL     1     -12.307  14.371  68.605  1.00  0.00    -0.051 C  
HETATM    2  C   UNL     1     -11.915  13.442  67.532  1.00  0.00    -0.339 A  
HETATM    3  C   UNL     1     -10.979  12.446  67.421  1.00  0.00    -0.296 A  
HETATM    4  C   UNL     1     -11.149  11.936  66.108  1.00  0.00    -0.326 A  
HETATM    5  O   UNL     1     -12.600  13.542  66.361  1.00  0.00    -0.333 OA 
HETATM    6  N   UNL     1     -12.124  12.603  65.462  1.00  0.00    -0.486 NA 
ENDROOT
BRANCH   4   7
HETATM    7  C   UNL     1     -10.413  10.836  65.486  1.00  0.00    -0.194 C  
HETATM    8  O   UNL     1      -9.854  10.953  64.397  1.00  0.00    -0.254 OA 
HETATM    9  N   UNL     1     -10.393   9.669  66.248  1.00  0.00    -0.208 N  
HETATM   10  H   UNL     1     -10.802   9.665  67.183  1.00  0.00     0.000 HD 
BRANCH   9  11
HETATM   11  N   UNL     1      -9.811   8.490  65.731  1.00  0.00    -0.423 NA 
HETATM   12  H   UNL     1      -9.538   8.615  64.757  1.00  0.00     0.000 HD 
BRANCH  11  13
HETATM   13  C   UNL     1      -8.683   8.014  66.535  1.00  0.00    -0.146 C  
BRANCH  13  14
HETATM   14  C   UNL     1      -9.152   7.321  67.795  1.00  0.00    -0.124 A  
HETATM   15  C   UNL     1      -9.753   6.055  67.732  1.00  0.00    -0.119 A  
HETATM   16  C   UNL     1     -10.181   5.415  68.898  1.00  0.00    -0.266 A  
HETATM   17  C   UNL     1     -10.012   6.029  70.136  1.00  0.00    -0.228 A  
HETATM   18  C   UNL     1      -9.411   7.284  70.213  1.00  0.00    -0.158 A  
HETATM   19  C   UNL     1      -8.979   7.924  69.052  1.00  0.00    -0.145 A  
ENDBRANCH  13  14
ENDBRANCH  11  13
ENDBRANCH   9  11
ENDBRANCH   4   7
TORSDOF 4
ENDMDL
MODEL      203
REMARK 921   NORMALIZED FREE ENERGY PREDICTED BY IDOCK:   -3.42 KCAL/MOL
REMARK 922        TOTAL FREE ENERGY PREDICTED BY IDOCK:   -4.44 KCAL/MOL
REMARK 923 INTER-LIGAND FREE ENERGY PREDICTED BY IDOCK:   -4.19 KCAL/MOL
REMARK 924 INTRA-LIGAND FREE ENERGY PREDICTED BY IDOCK:   -0.25 KCAL/MOL
REMARK 927      BINDING AFFINITY PREDICTED BY RF-SCORE:    0.00 PKD
ROOT
HETATM    1  C   UNL     1      -7.429   7.337  73.653  1.00  0.00    -0.115 C  
HETATM    2  C   UNL     1      -7.998   8.132  72.551  1.00  0.00    -0.144 A  
HETATM    3  C   UNL     1      -9.243   8.232  71.984  1.00  0.00    -0.270 A  
HETATM    4  C   UNL     1      -9.098   9.210  70.966  1.00  0.00    -0.237 A  
HETATM    5  O   UNL     1      -7.149   8.982  71.914  1.00  0.00    -0.291 OA 
HETATM    6  N   UNL     1      -7.830   9.659  70.916  1.00  0.00    -0.303 NA 
ENDROOT
BRANCH   4   7
HETATM    7  C   UNL     1     -10.140   9.714  70.071  1.00  0.00    -0.252 C  
HETATM    8  O   UNL     1     -11.335   9.512  70.278  1.00  0.00    -0.247 OA 
HETATM    9  N   UNL     1      -9.650  10.448  68.993  1.00  0.00    -0.195 N  
HETATM   10  H   UNL     1      -8.653  10.653  68.928  1.00  0.00     0.000 HD 
BRANCH   9  11
HETATM   11  N   UNL     1     -10.529  10.909  67.987  1.00  0.00    -0.182 NA 
HETATM   12  H   UNL     1     -10.157  11.741  67.531  1.00  0.00     0.000 HD 
BRANCH  11  13
HETATM   13  C   UNL     1     -10.860   9.876  67.004  1.00  0.00    -0.116 C  
BRANCH  13  14
HETATM   14  C   UNL     1     -10.235  10.169  65.658  1.00  0.00    -0.288 A  
HETATM   15  C   UNL     1     -10.605  11.311  64.933  1.00  0.00    -0.364 A  
HETATM   16  C   UNL     1     -10.023  11.582  63.692  1.00  0.00    -0.409 A  
HETATM   17  C   UNL     1      -9.067  10.719  63.163  1.00  0.00    -0.276 A  
HETATM   18  C   UNL     1      -8.685   9.585  63.876  1.00  0.00    -0.238 A  
HETATM   19  C   UNL     1      -9.261   9.313  65.117  1.00  0.00    -0.264 A  
ENDBRANCH  13  14
ENDBRANCH  11  13
ENDBRANCH   9  11
ENDBRANCH   4   7
TORSDOF 4
ENDMDL
MODEL      204
REMARK 921   NORMALIZED FREE ENERGY PREDICTED BY IDOCK:   -3.42 KCAL/MOL
REMARK 922        TOTAL FREE ENERGY PREDICTED BY IDOCK:   -4.43 KCAL/MOL
REMARK 923 INTER-LIGAND FREE ENERGY PREDICTED BY IDOCK:   -4.20 KCAL/MOL
REMARK 924 INTRA-LIGAND FREE ENERGY PREDICTED BY IDOCK:   -0.24 KCAL/MOL
REMARK 927      BINDING AFFINITY PREDICTED BY RF-SCORE:    0.00 PKD
ROOT
HETATM    1  C   UNL     1     -10.988  17.262  68.167  1.00  0.00    -0.193 C  
HETATM    2  C   UNL     1     -10.806  15.951  67.520  1.00  0.00    -0.305 A  
HETATM    3  C   UNL     1     -11.191  14.671  67.823  1.00  0.00    -0.320 A  
HETATM    4  C   UNL     1     -10.694  13.882  66.753  1.00  0.00    -0.281 A  
HETATM    5  O   UNL     1     -10.111  15.942  66.351  1.00  0.00    -0.263 OA 
HETATM    6  N   UNL     1     -10.033  14.648  65.866  1.00  0.00    -0.311 NA 
ENDROOT
BRANCH   4   7
HETATM    7  C   UNL     1     -10.854  12.439  66.573  1.00  0.00    -0.250 C  
HETATM    8  O   UNL     1     -11.316  11.954  65.542  1.00  0.00    -0.322 OA 
HETATM    9  N   UNL     1     -10.419  11.683  67.661  1.00  0.00    -0.187 N  
HETATM   10  H   UNL     1      -9.965  12.142  68.450  1.00  0.00     0.000 HD 
BRANCH   9  11
HETATM   11  N   UNL     1     -10.607  10.283  67.675  1.00  0.00    -0.243 NA 
HETATM   12  H   UNL     1     -10.805   9.932  66.739  1.00  0.00     0.000 HD 
BRANCH  11  13
HETATM   13  C   UNL     1      -9.481   9.565  68.277  1.00  0.00    -0.133 C  
BRANCH  13  14
HETATM   14  C   UNL     1      -9.594   8.073  68.059  1.00  0.00    -0.170 A  
HETATM   15  C   UNL     1     -10.555   7.549  67.183  1.00  0.00    -0.415 A  
HETATM   16  C   UNL     1     -10.654   6.170  66.979  1.00  0.00    -0.384 A  
HETATM   17  C   UNL     1      -9.794   5.301  67.645  1.00  0.00    -0.187 A  
HETATM   18  C   UNL     1      -8.830   5.808  68.514  1.00  0.00    -0.110 A  
HETATM   19  C   UNL     1      -8.726   7.184  68.716  1.00  0.00    -0.124 A  
ENDBRANCH  13  14
ENDBRANCH  11  13
ENDBRANCH   9  11
ENDBRANCH   4   7
TORSDOF 4
ENDMDL
MODEL      205
REMARK 921   NORMALIZED FREE ENERGY PREDICTED BY IDOCK:   -3.42 KCAL/MOL
REMARK 922        TOTAL FREE ENERGY PREDICTED BY IDOCK:   -4.43 KCAL/MOL
REMARK 923 INTER-LIGAND FREE ENERGY PREDICTED BY IDOCK:   -4.08 KCAL/MOL
REMARK 924 INTRA-LIGAND FREE ENERGY PREDICTED BY IDOCK:   -0.35 KCAL/MOL
REMARK 927      BINDING AFFINITY PREDICTED BY RF-SCORE:    0.00 PKD
ROOT
HETATM    1  C   UNL     1     -10.386   5.794  69.078  1.00  0.00    -0.313 C  
HETATM    2  C   UNL     1     -10.049   6.940  68.217  1.00  0.00    -0.167 A  
HETATM    3  C   UNL     1     -10.662   7.555  67.156  1.00  0.00    -0.379 A  
HETATM    4  C   UNL     1      -9.793   8.621  66.805  1.00  0.00    -0.253 A  
HETATM    5  O   UNL     1      -8.878   7.579  68.487  1.00  0.00    -0.128 OA 
HETATM    6  N   UNL     1      -8.709   8.632  67.603  1.00  0.00    -0.135 NA 
ENDROOT
BRANCH   4   7
HETATM    7  C   UNL     1      -9.992   9.610  65.746  1.00  0.00    -0.272 C  
HETATM    8  O   UNL     1      -9.400   9.547  64.670  1.00  0.00    -0.240 OA 
HETATM    9  N   UNL     1     -10.918  10.601  66.067  1.00  0.00     0.027 N  
HETATM   10  H   UNL     1     -11.439  10.545  66.942  1.00  0.00     0.000 HD 
BRANCH   9  11
HETATM   11  N   UNL     1     -11.138  11.683  65.186  1.00  0.00    -0.271 NA 
HETATM   12  H   UNL     1     -12.100  12.014  65.249  1.00  0.00     0.000 HD 
BRANCH  11  13
HETATM   13  C   UNL     1     -10.192  12.782  65.388  1.00  0.00    -0.283 C  
BRANCH  13  14
HETATM   14  C   UNL     1     -10.445  13.501  66.694  1.00  0.00    -0.274 A  
HETATM   15  C   UNL     1      -9.390  13.776  67.575  1.00  0.00    -0.222 A  
HETATM   16  C   UNL     1      -9.626  14.444  68.779  1.00  0.00    -0.177 A  
HETATM   17  C   UNL     1     -10.916  14.847  69.115  1.00  0.00    -0.266 A  
HETATM   18  C   UNL     1     -11.973  14.586  68.246  1.00  0.00    -0.303 A  
HETATM   19  C   UNL     1     -11.740  13.922  67.041  1.00  0.00    -0.426 A  
ENDBRANCH  13  14
ENDBRANCH  11  13
ENDBRANCH   9  11
ENDBRANCH   4   7
TORSDOF 4
ENDMDL
MODEL      206
REMARK 921   NORMALIZED FREE ENERGY PREDICTED BY IDOCK:   -3.34 KCAL/MOL
REMARK 922        TOTAL FREE ENERGY PREDICTED BY IDOCK:   -4.34 KCAL/MOL
REMARK 923 INTER-LIGAND FREE ENERGY PREDICTED BY IDOCK:   -4.20 KCAL/MOL
REMARK 924 INTRA-LIGAND FREE ENERGY PREDICTED BY IDOCK:   -0.14 KCAL/MOL
REMARK 927      BINDING AFFINITY PREDICTED BY RF-SCORE:    0.00 PKD
ROOT
HETATM    1  C   UNL     1     -12.159  15.676  70.756  1.00  0.00    -0.454 C  
HETATM    2  C   UNL     1     -11.085  15.015  69.995  1.00  0.00    -0.263 A  
HETATM    3  C   UNL     1     -10.891  13.745  69.515  1.00  0.00    -0.003 A  
HETATM    4  C   UNL     1      -9.638  13.798  68.852  1.00  0.00     0.063 A  
HETATM    5  O   UNL     1     -10.016  15.786  69.659  1.00  0.00    -0.271 OA 
HETATM    6  N   UNL     1      -9.103  15.029  68.944  1.00  0.00    -0.196 NA 
ENDROOT
BRANCH   4   7
HETATM    7  C   UNL     1      -8.971  12.708  68.138  1.00  0.00    -0.199 C  
HETATM    8  O   UNL     1      -7.747  12.604  68.097  1.00  0.00    -0.122 OA 
HETATM    9  N   UNL     1      -9.849  11.808  67.537  1.00  0.00    -0.184 N  
HETATM   10  H   UNL     1     -10.854  11.903  67.683  1.00  0.00     0.000 HD 
BRANCH   9  11
HETATM   11  N   UNL     1      -9.353  10.765  66.725  1.00  0.00    -0.160 NA 
HETATM   12  H   UNL     1      -9.990   9.969  66.723  1.00  0.00     0.000 HD 
BRANCH  11  13
HETATM   13  C   UNL     1      -9.055  11.199  65.358  1.00  0.00    -0.177 C  
BRANCH  13  14
HETATM   14  C   UNL     1     -10.212  11.965  64.755  1.00  0.00    -0.314 A  
HETATM   15  C   UNL     1     -10.262  13.364  64.838  1.00  0.00    -0.339 A  
HETATM   16  C   UNL     1     -11.329  14.070  64.275  1.00  0.00    -0.277 A  
HETATM   17  C   UNL     1     -12.354  13.388  63.624  1.00  0.00    -0.422 A  
HETATM   18  C   UNL     1     -12.313  11.999  63.529  1.00  0.00    -0.661 A  
HETATM   19  C   UNL     1     -11.247  11.291  64.086  1.00  0.00    -0.222 A  
ENDBRANCH  13  14
ENDBRANCH  11  13
ENDBRANCH   9  11
ENDBRANCH   4   7
TORSDOF 4
ENDMDL
MODEL      207
REMARK 921   NORMALIZED FREE ENERGY PREDICTED BY IDOCK:   -3.34 KCAL/MOL
REMARK 922        TOTAL FREE ENERGY PREDICTED BY IDOCK:   -4.33 KCAL/MOL
REMARK 923 INTER-LIGAND FREE ENERGY PREDICTED BY IDOCK:   -3.97 KCAL/MOL
REMARK 924 INTRA-LIGAND FREE ENERGY PREDICTED BY IDOCK:   -0.36 KCAL/MOL
REMARK 927      BINDING AFFINITY PREDICTED BY RF-SCORE:    0.00 PKD
ROOT
HETATM    1  C   UNL     1     -13.346  11.482  71.966  1.00  0.00    -0.397 C  
HETATM    2  C   UNL     1     -12.506  10.381  71.463  1.00  0.00    -0.404 A  
HETATM    3  C   UNL     1     -12.425   9.038  71.729  1.00  0.00    -0.438 A  
HETATM    4  C   UNL     1     -11.400   8.562  70.872  1.00  0.00    -0.268 A  
HETATM    5  O   UNL     1     -11.583  10.704  70.518  1.00  0.00    -0.315 OA 
HETATM    6  N   UNL     1     -10.883   9.570  70.144  1.00  0.00    -0.242 NA 
ENDROOT
BRANCH   4   7
HETATM    7  C   UNL     1     -10.930   7.183  70.738  1.00  0.00    -0.252 C  
HETATM    8  O   UNL     1     -11.658   6.279  70.331  1.00  0.00    -0.381 OA 
HETATM    9  N   UNL     1      -9.595   7.005  71.095  1.00  0.00    -0.166 N  
HETATM   10  H   UNL     1      -9.022   7.812  71.341  1.00  0.00     0.000 HD 
BRANCH   9  11
HETATM   11  N   UNL     1      -9.031   5.710  71.119  1.00  0.00    -0.138 NA 
HETATM   12  H   UNL     1      -9.752   4.996  71.018  1.00  0.00     0.000 HD 
BRANCH  11  13
HETATM   13  C   UNL     1      -7.975   5.532  70.121  1.00  0.00    -0.090 C  
BRANCH  13  14
HETATM   14  C   UNL     1      -8.368   4.516  69.070  1.00  0.00    -0.086 A  
HETATM   15  C   UNL     1      -9.135   3.395  69.413  1.00  0.00    -0.199 A  
HETATM   16  C   UNL     1      -9.501   2.461  68.440  1.00  0.00    -0.219 A  
HETATM   17  C   UNL     1      -9.106   2.638  67.117  1.00  0.00    -0.181 A  
HETATM   18  C   UNL     1      -8.348   3.751  66.761  1.00  0.00    -0.103 A  
HETATM   19  C   UNL     1      -7.985   4.688  67.729  1.00  0.00    -0.092 A  
ENDBRANCH  13  14
ENDBRANCH  11  13
ENDBRANCH   9  11
ENDBRANCH   4   7
TORSDOF 4
ENDMDL
MODEL      208
REMARK 921   NORMALIZED FREE ENERGY PREDICTED BY IDOCK:   -3.32 KCAL/MOL
REMARK 922        TOTAL FREE ENERGY PREDICTED BY IDOCK:   -4.32 KCAL/MOL
REMARK 923 INTER-LIGAND FREE ENERGY PREDICTED BY IDOCK:   -4.12 KCAL/MOL
REMARK 924 INTRA-LIGAND FREE ENERGY PREDICTED BY IDOCK:   -0.19 KCAL/MOL
REMARK 927      BINDING AFFINITY PREDICTED BY RF-SCORE:    0.00 PKD
ROOT
HETATM    1  C   UNL     1      -7.520  10.708  67.141  1.00  0.00    -0.099 C  
HETATM    2  C   UNL     1      -8.621  11.632  67.462  1.00  0.00    -0.149 A  
HETATM    3  C   UNL     1      -8.953  12.903  67.066  1.00  0.00    -0.225 A  
HETATM    4  C   UNL     1     -10.159  13.192  67.755  1.00  0.00    -0.226 A  
HETATM    5  O   UNL     1      -9.555  11.183  68.343  1.00  0.00    -0.178 OA 
HETATM    6  N   UNL     1     -10.521  12.156  68.534  1.00  0.00    -0.230 NA 
ENDROOT
BRANCH   4   7
HETATM    7  C   UNL     1     -10.954  14.417  67.666  1.00  0.00    -0.286 C  
HETATM    8  O   UNL     1     -11.919  14.519  66.910  1.00  0.00    -0.403 OA 
HETATM    9  N   UNL     1     -10.527  15.430  68.522  1.00  0.00    -0.230 N  
HETATM   10  H   UNL     1      -9.774  15.250  69.187  1.00  0.00     0.000 HD 
BRANCH   9  11
HETATM   11  N   UNL     1     -11.131  16.706  68.473  1.00  0.00    -0.339 NA 
HETATM   12  H   UNL     1     -11.889  16.777  69.151  1.00  0.00     0.000 HD 
BRANCH  11  13
HETATM   13  C   UNL     1     -10.170  17.797  68.645  1.00  0.00    -0.377 C  
BRANCH  13  14
HETATM   14  C   UNL     1      -8.794  17.409  68.152  1.00  0.00    -0.253 A  
HETATM   15  C   UNL     1      -7.840  16.885  69.036  1.00  0.00    -0.184 A  
HETATM   16  C   UNL     1      -6.570  16.524  68.577  1.00  0.00    -0.139 A  
HETATM   17  C   UNL     1      -6.242  16.679  67.233  1.00  0.00    -0.206 A  
HETATM   18  C   UNL     1      -7.182  17.193  66.342  1.00  0.00    -0.325 A  
HETATM   19  C   UNL     1      -8.452  17.551  66.797  1.00  0.00    -0.275 A  
ENDBRANCH  13  14
ENDBRANCH  11  13
ENDBRANCH   9  11
ENDBRANCH   4   7
TORSDOF 4
ENDMDL
MODEL      209
REMARK 921   NORMALIZED FREE ENERGY PREDICTED BY IDOCK:   -3.30 KCAL/MOL
REMARK 922        TOTAL FREE ENERGY PREDICTED BY IDOCK:   -4.29 KCAL/MOL
REMARK 923 INTER-LIGAND FREE ENERGY PREDICTED BY IDOCK:   -4.23 KCAL/MOL
REMARK 924 INTRA-LIGAND FREE ENERGY PREDICTED BY IDOCK:   -0.07 KCAL/MOL
REMARK 927      BINDING AFFINITY PREDICTED BY RF-SCORE:    0.00 PKD
ROOT
HETATM    1  C   UNL     1     -14.407   7.658  71.502  1.00  0.00    -0.589 C  
HETATM    2  C   UNL     1     -13.008   8.108  71.598  1.00  0.00    -0.331 A  
HETATM    3  C   UNL     1     -11.793   7.472  71.590  1.00  0.00    -0.322 A  
HETATM    4  C   UNL     1     -10.839   8.515  71.704  1.00  0.00    -0.286 A  
HETATM    5  O   UNL     1     -12.808   9.448  71.723  1.00  0.00    -0.342 OA 
HETATM    6  N   UNL     1     -11.451   9.711  71.793  1.00  0.00    -0.304 NA 
ENDROOT
BRANCH   4   7
HETATM    7  C   UNL     1      -9.382   8.381  71.716  1.00  0.00    -0.226 C  
HETATM    8  O   UNL     1      -8.652   9.209  72.259  1.00  0.00    -0.284 OA 
HETATM    9  N   UNL     1      -8.916   7.232  71.080  1.00  0.00    -0.148 N  
HETATM   10  H   UNL     1      -9.579   6.542  70.727  1.00  0.00     0.000 HD 
BRANCH   9  11
HETATM   11  N   UNL     1      -7.529   7.020  70.920  1.00  0.00    -0.080 NA 
HETATM   12  H   UNL     1      -7.183   6.342  71.599  1.00  0.00     0.000 HD 
BRANCH  11  13
HETATM   13  C   UNL     1      -7.168   6.626  69.557  1.00  0.00    -0.082 C  
BRANCH  13  14
HETATM   14  C   UNL     1      -8.344   6.743  68.614  1.00  0.00    -0.120 A  
HETATM   15  C   UNL     1      -9.096   5.612  68.266  1.00  0.00    -0.112 A  
HETATM   16  C   UNL     1     -10.185   5.723  67.398  1.00  0.00    -0.243 A  
HETATM   17  C   UNL     1     -10.536   6.963  66.870  1.00  0.00    -0.372 A  
HETATM   18  C   UNL     1      -9.801   8.097  67.213  1.00  0.00    -0.259 A  
HETATM   19  C   UNL     1      -8.716   7.989  68.082  1.00  0.00    -0.126 A  
ENDBRANCH  13  14
ENDBRANCH  11  13
ENDBRANCH   9  11
ENDBRANCH   4   7
TORSDOF 4
ENDMDL
MODEL      210
REMARK 921   NORMALIZED FREE ENERGY PREDICTED BY IDOCK:   -3.30 KCAL/MOL
REMARK 922        TOTAL FREE ENERGY PREDICTED BY IDOCK:   -4.28 KCAL/MOL
REMARK 923 INTER-LIGAND FREE ENERGY PREDICTED BY IDOCK:   -4.00 KCAL/MOL
REMARK 924 INTRA-LIGAND FREE ENERGY PREDICTED BY IDOCK:   -0.28 KCAL/MOL
REMARK 927      BINDING AFFINITY PREDICTED BY RF-SCORE:    0.00 PKD
ROOT
HETATM    1  C   UNL     1      -5.840   8.482  70.094  1.00  0.00    -0.027 C  
HETATM    2  C   UNL     1      -6.583   9.523  69.363  1.00  0.00    -0.044 A  
HETATM    3  C   UNL     1      -6.784  10.867  69.550  1.00  0.00    -0.117 A  
HETATM    4  C   UNL     1      -7.593  11.266  68.454  1.00  0.00    -0.120 A  
HETATM    5  O   UNL     1      -7.235   9.127  68.237  1.00  0.00    -0.076 OA 
HETATM    6  N   UNL     1      -7.874  10.213  67.663  1.00  0.00    -0.098 NA 
ENDROOT
BRANCH   4   7
HETATM    7  C   UNL     1      -8.076  12.615  68.160  1.00  0.00    -0.164 C  
HETATM    8  O   UNL     1      -7.321  13.583  68.095  1.00  0.00    -0.095 OA 
HETATM    9  N   UNL     1      -9.452  12.686  67.946  1.00  0.00    -0.198 N  
HETATM   10  H   UNL     1     -10.008  11.832  67.927  1.00  0.00     0.000 HD 
BRANCH   9  11
HETATM   11  N   UNL     1     -10.078  13.938  67.754  1.00  0.00    -0.237 NA 
HETATM   12  H   UNL     1      -9.731  14.626  68.422  1.00  0.00     0.000 HD 
BRANCH  11  13
HETATM   13  C   UNL     1      -9.955  14.432  66.382  1.00  0.00    -0.294 C  
BRANCH  13  14
HETATM   14  C   UNL     1     -10.788  13.614  65.420  1.00  0.00    -0.302 A  
HETATM   15  C   UNL     1     -10.178  12.878  64.394  1.00  0.00    -0.342 A  
HETATM   16  C   UNL     1     -10.949  12.120  63.510  1.00  0.00    -0.521 A  
HETATM   17  C   UNL     1     -12.335  12.087  63.640  1.00  0.00    -0.648 A  
HETATM   18  C   UNL     1     -12.954  12.809  64.659  1.00  0.00    -0.231 A  
HETATM   19  C   UNL     1     -12.186  13.563  65.546  1.00  0.00    -0.490 A  
ENDBRANCH  13  14
ENDBRANCH  11  13
ENDBRANCH   9  11
ENDBRANCH   4   7
TORSDOF 4
ENDMDL
MODEL      211
REMARK 921   NORMALIZED FREE ENERGY PREDICTED BY IDOCK:   -3.27 KCAL/MOL
REMARK 922        TOTAL FREE ENERGY PREDICTED BY IDOCK:   -4.25 KCAL/MOL
REMARK 923 INTER-LIGAND FREE ENERGY PREDICTED BY IDOCK:   -3.90 KCAL/MOL
REMARK 924 INTRA-LIGAND FREE ENERGY PREDICTED BY IDOCK:   -0.35 KCAL/MOL
REMARK 927      BINDING AFFINITY PREDICTED BY RF-SCORE:    0.00 PKD
ROOT
HETATM    1  C   UNL     1      -7.858   7.444  70.359  1.00  0.00    -0.098 C  
HETATM    2  C   UNL     1      -8.356   8.393  69.349  1.00  0.00    -0.120 A  
HETATM    3  C   UNL     1      -8.347   9.759  69.230  1.00  0.00    -0.142 A  
HETATM    4  C   UNL     1      -8.986  10.017  67.990  1.00  0.00    -0.128 A  
HETATM    5  O   UNL     1      -8.970   7.855  68.260  1.00  0.00    -0.133 OA 
HETATM    6  N   UNL     1      -9.371   8.867  67.405  1.00  0.00    -0.134 NA 
ENDROOT
BRANCH   4   7
HETATM    7  C   UNL     1      -9.214  11.323  67.370  1.00  0.00    -0.162 C  
HETATM    8  O   UNL     1      -8.433  11.806  66.553  1.00  0.00    -0.179 OA 
HETATM    9  N   UNL     1     -10.395  11.941  67.777  1.00  0.00    -0.195 N  
HETATM   10  H   UNL     1     -11.043  11.447  68.390  1.00  0.00     0.000 HD 
BRANCH   9  11
HETATM   11  N   UNL     1     -10.698  13.251  67.344  1.00  0.00    -0.256 NA 
HETATM   12  H   UNL     1     -10.602  13.333  66.332  1.00  0.00     0.000 HD 
BRANCH  11  13
HETATM   13  C   UNL     1     -12.020  13.703  67.782  1.00  0.00    -0.352 C  
BRANCH  13  14
HETATM   14  C   UNL     1     -12.015  14.106  69.241  1.00  0.00    -0.382 A  
HETATM   15  C   UNL     1     -11.302  15.235  69.667  1.00  0.00    -0.304 A  
HETATM   16  C   UNL     1     -11.303  15.608  71.014  1.00  0.00    -0.426 A  
HETATM   17  C   UNL     1     -12.015  14.859  71.947  1.00  0.00    -0.432 A  
HETATM   18  C   UNL     1     -12.732  13.737  71.536  1.00  0.00    -0.432 A  
HETATM   19  C   UNL     1     -12.737  13.365  70.191  1.00  0.00    -0.024 A  
ENDBRANCH  13  14
ENDBRANCH  11  13
ENDBRANCH   9  11
ENDBRANCH   4   7
TORSDOF 4
ENDMDL
MODEL      212
REMARK 921   NORMALIZED FREE ENERGY PREDICTED BY IDOCK:   -3.23 KCAL/MOL
REMARK 922        TOTAL FREE ENERGY PREDICTED BY IDOCK:   -4.20 KCAL/MOL
REMARK 923 INTER-LIGAND FREE ENERGY PREDICTED BY IDOCK:   -3.88 KCAL/MOL
REMARK 924 INTRA-LIGAND FREE ENERGY PREDICTED BY IDOCK:   -0.32 KCAL/MOL
REMARK 927      BINDING AFFINITY PREDICTED BY RF-SCORE:    0.00 PKD
ROOT
HETATM    1  C   UNL     1     -10.487   4.044  65.388  1.00  0.00    -0.034 C  
HETATM    2  C   UNL     1     -10.376   4.989  66.513  1.00  0.00    -0.284 A  
HETATM    3  C   UNL     1     -10.813   6.269  66.737  1.00  0.00    -0.367 A  
HETATM    4  C   UNL     1     -10.371   6.577  68.050  1.00  0.00    -0.187 A  
HETATM    5  O   UNL     1      -9.702   4.550  67.610  1.00  0.00    -0.165 OA 
HETATM    6  N   UNL     1      -9.692   5.541  68.577  1.00  0.00    -0.127 NA 
ENDROOT
BRANCH   4   7
HETATM    7  C   UNL     1     -10.599   7.819  68.789  1.00  0.00    -0.135 C  
HETATM    8  O   UNL     1     -10.213   8.910  68.373  1.00  0.00    -0.188 OA 
HETATM    9  N   UNL     1     -11.301   7.644  69.980  1.00  0.00    -0.452 N  
HETATM   10  H   UNL     1     -11.669   6.725  70.224  1.00  0.00     0.000 HD 
BRANCH   9  11
HETATM   11  N   UNL     1     -11.504   8.737  70.853  1.00  0.00    -0.280 NA 
HETATM   12  H   UNL     1     -12.347   8.605  71.412  1.00  0.00     0.000 HD 
BRANCH  11  13
HETATM   13  C   UNL     1     -10.346   9.005  71.708  1.00  0.00    -0.337 C  
BRANCH  13  14
HETATM   14  C   UNL     1      -9.946   7.781  72.503  1.00  0.00    -0.284 A  
HETATM   15  C   UNL     1     -10.758   7.309  73.544  1.00  0.00    -0.367 A  
HETATM   16  C   UNL     1     -10.389   6.176  74.274  1.00  0.00    -0.291 A  
HETATM   17  C   UNL     1      -9.209   5.503  73.971  1.00  0.00    -0.126 A  
HETATM   18  C   UNL     1      -8.396   5.958  72.935  1.00  0.00    -0.118 A  
HETATM   19  C   UNL     1      -8.763   7.086  72.202  1.00  0.00    -0.133 A  
ENDBRANCH  13  14
ENDBRANCH  11  13
ENDBRANCH   9  11
ENDBRANCH   4   7
TORSDOF 4
ENDMDL
MODEL      213
REMARK 921   NORMALIZED FREE ENERGY PREDICTED BY IDOCK:   -3.20 KCAL/MOL
REMARK 922        TOTAL FREE ENERGY PREDICTED BY IDOCK:   -4.17 KCAL/MOL
REMARK 923 INTER-LIGAND FREE ENERGY PREDICTED BY IDOCK:   -3.76 KCAL/MOL
REMARK 924 INTRA-LIGAND FREE ENERGY PREDICTED BY IDOCK:   -0.41 KCAL/MOL
REMARK 927      BINDING AFFINITY PREDICTED BY RF-SCORE:    0.00 PKD
ROOT
HETATM    1  C   UNL     1      -9.700   4.302  69.160  1.00  0.00    -0.226 C  
HETATM    2  C   UNL     1     -10.270   5.604  69.548  1.00  0.00    -0.250 A  
HETATM    3  C   UNL     1     -10.101   6.892  69.111  1.00  0.00    -0.180 A  
HETATM    4  C   UNL     1     -10.978   7.664  69.916  1.00  0.00    -0.200 A  
HETATM    5  O   UNL     1     -11.178   5.592  70.560  1.00  0.00    -0.216 OA 
HETATM    6  N   UNL     1     -11.624   6.881  70.800  1.00  0.00    -0.330 NA 
ENDROOT
BRANCH   4   7
HETATM    7  C   UNL     1     -11.204   9.108  69.841  1.00  0.00    -0.102 C  
HETATM    8  O   UNL     1     -11.562   9.767  70.816  1.00  0.00    -0.290 OA 
HETATM    9  N   UNL     1     -10.961   9.651  68.581  1.00  0.00    -0.421 N  
HETATM   10  H   UNL     1     -10.581   9.064  67.839  1.00  0.00     0.000 HD 
BRANCH   9  11
HETATM   11  N   UNL     1     -11.237  11.013  68.328  1.00  0.00    -0.253 NA 
HETATM   12  H   UNL     1     -11.776  11.424  69.090  1.00  0.00     0.000 HD 
BRANCH  11  13
HETATM   13  C   UNL     1     -10.030  11.798  68.058  1.00  0.00    -0.188 C  
BRANCH  13  14
HETATM   14  C   UNL     1      -9.322  11.316  66.811  1.00  0.00    -0.191 A  
HETATM   15  C   UNL     1      -9.954  11.379  65.561  1.00  0.00    -0.282 A  
HETATM   16  C   UNL     1      -9.296  10.938  64.410  1.00  0.00    -0.256 A  
HETATM   17  C   UNL     1      -8.001  10.432  64.495  1.00  0.00    -0.093 A  
HETATM   18  C   UNL     1      -7.359  10.369  65.730  1.00  0.00    -0.147 A  
HETATM   19  C   UNL     1      -8.012  10.813  66.880  1.00  0.00    -0.133 A  
ENDBRANCH  13  14
ENDBRANCH  11  13
ENDBRANCH   9  11
ENDBRANCH   4   7
TORSDOF 4
ENDMDL
MODEL      214
REMARK 921   NORMALIZED FREE ENERGY PREDICTED BY IDOCK:   -3.17 KCAL/MOL
REMARK 922        TOTAL FREE ENERGY PREDICTED BY IDOCK:   -4.13 KCAL/MOL
REMARK 923 INTER-LIGAND FREE ENERGY PREDICTED BY IDOCK:   -4.15 KCAL/MOL
REMARK 924 INTRA-LIGAND FREE ENERGY PREDICTED BY IDOCK:    0.02 KCAL/MOL
REMARK 927      BINDING AFFINITY PREDICTED BY RF-SCORE:    0.00 PKD
ROOT
HETATM    1  C   UNL     1     -10.243  16.685  65.659  1.00  0.00    -0.285 C  
HETATM    2  C   UNL     1     -10.339  15.301  66.153  1.00  0.00    -0.302 A  
HETATM    3  C   UNL     1     -11.030  14.691  67.169  1.00  0.00    -0.316 A  
HETATM    4  C   UNL     1     -10.675  13.320  67.074  1.00  0.00    -0.260 A  
HETATM    5  O   UNL     1      -9.603  14.367  65.492  1.00  0.00    -0.233 OA 
HETATM    6  N   UNL     1      -9.806  13.124  66.066  1.00  0.00    -0.279 NA 
ENDROOT
BRANCH   4   7
HETATM    7  C   UNL     1     -11.159  12.224  67.913  1.00  0.00    -0.243 C  
HETATM    8  O   UNL     1     -12.128  11.535  67.597  1.00  0.00    -0.623 OA 
HETATM    9  N   UNL     1     -10.413  12.031  69.074  1.00  0.00    -0.405 N  
HETATM   10  H   UNL     1      -9.568  12.579  69.233  1.00  0.00     0.000 HD 
BRANCH   9  11
HETATM   11  N   UNL     1     -10.822  11.077  70.033  1.00  0.00    -0.463 NA 
HETATM   12  H   UNL     1     -11.807  10.839  69.914  1.00  0.00     0.000 HD 
BRANCH  11  13
HETATM   13  C   UNL     1      -9.988   9.874  70.030  1.00  0.00    -0.254 C  
BRANCH  13  14
HETATM   14  C   UNL     1      -8.710  10.085  69.250  1.00  0.00    -0.182 A  
HETATM   15  C   UNL     1      -7.587  10.661  69.862  1.00  0.00     0.029 A  
HETATM   16  C   UNL     1      -6.405  10.851  69.140  1.00  0.00    -0.058 A  
HETATM   17  C   UNL     1      -6.332  10.468  67.804  1.00  0.00    -0.059 A  
HETATM   18  C   UNL     1      -7.439   9.889  67.185  1.00  0.00    -0.091 A  
HETATM   19  C   UNL     1      -8.618   9.694  67.904  1.00  0.00    -0.122 A  
ENDBRANCH  13  14
ENDBRANCH  11  13
ENDBRANCH   9  11
ENDBRANCH   4   7
TORSDOF 4
ENDMDL
MODEL      215
REMARK 921   NORMALIZED FREE ENERGY PREDICTED BY IDOCK:   -3.17 KCAL/MOL
REMARK 922        TOTAL FREE ENERGY PREDICTED BY IDOCK:   -4.12 KCAL/MOL
REMARK 923 INTER-LIGAND FREE ENERGY PREDICTED BY IDOCK:   -3.80 KCAL/MOL
REMARK 924 INTRA-LIGAND FREE ENERGY PREDICTED BY IDOCK:   -0.32 KCAL/MOL
REMARK 927      BINDING AFFINITY PREDICTED BY RF-SCORE:    0.00 PKD
ROOT
HETATM    1  C   UNL     1     -12.110  14.669  69.235  1.00  0.00    -0.307 C  
HETATM    2  C   UNL     1     -10.769  14.435  68.672  1.00  0.00    -0.253 A  
HETATM    3  C   UNL     1     -10.094  13.326  68.231  1.00  0.00    -0.250 A  
HETATM    4  C   UNL     1      -8.836  13.818  67.796  1.00  0.00    -0.188 A  
HETATM    5  O   UNL     1      -9.972  15.528  68.527  1.00  0.00    -0.202 OA 
HETATM    6  N   UNL     1      -8.757  15.149  67.982  1.00  0.00    -0.162 NA 
ENDROOT
BRANCH   4   7
HETATM    7  C   UNL     1      -7.742  13.045  67.208  1.00  0.00    -0.105 C  
HETATM    8  O   UNL     1      -6.565  13.380  67.327  1.00  0.00    -0.234 OA 
HETATM    9  N   UNL     1      -8.160  11.903  66.528  1.00  0.00    -0.373 N  
HETATM   10  H   UNL     1      -9.144  11.634  66.542  1.00  0.00     0.000 HD 
BRANCH   9  11
HETATM   11  N   UNL     1      -7.227  11.114  65.820  1.00  0.00    -0.367 NA 
HETATM   12  H   UNL     1      -6.370  11.636  65.639  1.00  0.00     0.000 HD 
BRANCH  11  13
HETATM   13  C   UNL     1      -6.935   9.843  66.485  1.00  0.00    -0.090 C  
BRANCH  13  14
HETATM   14  C   UNL     1      -8.175   9.247  67.115  1.00  0.00    -0.117 A  
HETATM   15  C   UNL     1      -9.221   8.766  66.315  1.00  0.00    -0.261 A  
HETATM   16  C   UNL     1     -10.364   8.212  66.900  1.00  0.00    -0.401 A  
HETATM   17  C   UNL     1     -10.472   8.132  68.285  1.00  0.00    -0.210 A  
HETATM   18  C   UNL     1      -9.437   8.601  69.092  1.00  0.00    -0.157 A  
HETATM   19  C   UNL     1      -8.294   9.151  68.511  1.00  0.00    -0.123 A  
ENDBRANCH  13  14
ENDBRANCH  11  13
ENDBRANCH   9  11
ENDBRANCH   4   7
TORSDOF 4
ENDMDL
MODEL      216
REMARK 921   NORMALIZED FREE ENERGY PREDICTED BY IDOCK:   -3.16 KCAL/MOL
REMARK 922        TOTAL FREE ENERGY PREDICTED BY IDOCK:   -4.12 KCAL/MOL
REMARK 923 INTER-LIGAND FREE ENERGY PREDICTED BY IDOCK:   -3.64 KCAL/MOL
REMARK 924 INTRA-LIGAND FREE ENERGY PREDICTED BY IDOCK:   -0.48 KCAL/MOL
REMARK 927      BINDING AFFINITY PREDICTED BY RF-SCORE:    0.00 PKD
ROOT
HETATM    1  C   UNL     1      -9.170   6.056  74.001  1.00  0.00    -0.132 C  
HETATM    2  C   UNL     1      -8.761   7.107  73.054  1.00  0.00    -0.126 A  
HETATM    3  C   UNL     1      -9.337   7.677  71.947  1.00  0.00    -0.181 A  
HETATM    4  C   UNL     1      -8.399   8.651  71.514  1.00  0.00    -0.166 A  
HETATM    5  O   UNL     1      -7.549   7.685  73.273  1.00  0.00    -0.092 OA 
HETATM    6  N   UNL     1      -7.313   8.651  72.310  1.00  0.00    -0.288 NA 
ENDROOT
BRANCH   4   7
HETATM    7  C   UNL     1      -8.537   9.565  70.381  1.00  0.00    -0.206 C  
HETATM    8  O   UNL     1      -7.589   9.855  69.653  1.00  0.00    -0.101 OA 
HETATM    9  N   UNL     1      -9.831  10.051  70.203  1.00  0.00    -0.386 N  
HETATM   10  H   UNL     1     -10.590   9.703  70.788  1.00  0.00     0.000 HD 
BRANCH   9  11
HETATM   11  N   UNL     1     -10.096  11.025  69.214  1.00  0.00    -0.398 NA 
HETATM   12  H   UNL     1      -9.229  11.415  68.844  1.00  0.00     0.000 HD 
BRANCH  11  13
HETATM   13  C   UNL     1     -10.947  10.522  68.134  1.00  0.00    -0.277 C  
BRANCH  13  14
HETATM   14  C   UNL     1     -10.209   9.530  67.261  1.00  0.00    -0.295 A  
HETATM   15  C   UNL     1     -10.557   8.172  67.272  1.00  0.00    -0.344 A  
HETATM   16  C   UNL     1      -9.877   7.259  66.462  1.00  0.00    -0.202 A  
HETATM   17  C   UNL     1      -8.846   7.692  65.633  1.00  0.00    -0.086 A  
HETATM   18  C   UNL     1      -8.494   9.040  65.607  1.00  0.00    -0.163 A  
HETATM   19  C   UNL     1      -9.173   9.955  66.412  1.00  0.00    -0.195 A  
ENDBRANCH  13  14
ENDBRANCH  11  13
ENDBRANCH   9  11
ENDBRANCH   4   7
TORSDOF 4
ENDMDL
MODEL      217
REMARK 921   NORMALIZED FREE ENERGY PREDICTED BY IDOCK:   -3.15 KCAL/MOL
REMARK 922        TOTAL FREE ENERGY PREDICTED BY IDOCK:   -4.10 KCAL/MOL
REMARK 923 INTER-LIGAND FREE ENERGY PREDICTED BY IDOCK:   -3.71 KCAL/MOL
REMARK 924 INTRA-LIGAND FREE ENERGY PREDICTED BY IDOCK:   -0.39 KCAL/MOL
REMARK 927      BINDING AFFINITY PREDICTED BY RF-SCORE:    0.00 PKD
ROOT
HETATM    1  C   UNL     1     -13.330  11.978  71.780  1.00  0.00    -0.338 C  
HETATM    2  C   UNL     1     -12.697  10.701  71.409  1.00  0.00    -0.440 A  
HETATM    3  C   UNL     1     -12.736   9.428  71.918  1.00  0.00    -0.484 A  
HETATM    4  C   UNL     1     -11.898   8.671  71.060  1.00  0.00    -0.265 A  
HETATM    5  O   UNL     1     -11.880  10.721  70.322  1.00  0.00    -0.288 OA 
HETATM    6  N   UNL     1     -11.372   9.453  70.098  1.00  0.00    -0.222 NA 
ENDROOT
BRANCH   4   7
HETATM    7  C   UNL     1     -11.612   7.238  71.144  1.00  0.00    -0.293 C  
HETATM    8  O   UNL     1     -11.722   6.608  72.194  1.00  0.00    -0.288 OA 
HETATM    9  N   UNL     1     -11.229   6.668  69.931  1.00  0.00    -0.345 N  
HETATM   10  H   UNL     1     -11.243   7.228  69.079  1.00  0.00     0.000 HD 
BRANCH   9  11
HETATM   11  N   UNL     1     -10.821   5.317  69.877  1.00  0.00    -0.142 NA 
HETATM   12  H   UNL     1     -11.464   4.763  69.312  1.00  0.00     0.000 HD 
BRANCH  11  13
HETATM   13  C   UNL     1      -9.443   5.157  69.410  1.00  0.00    -0.140 C  
BRANCH  13  14
HETATM   14  C   UNL     1      -8.548   4.602  70.495  1.00  0.00    -0.116 A  
HETATM   15  C   UNL     1      -8.136   5.410  71.564  1.00  0.00    -0.117 A  
HETATM   16  C   UNL     1      -7.313   4.894  72.568  1.00  0.00    -0.088 A  
HETATM   17  C   UNL     1      -6.895   3.567  72.517  1.00  0.00    -0.041 A  
HETATM   18  C   UNL     1      -7.302   2.750  71.464  1.00  0.00    -0.040 A  
HETATM   19  C   UNL     1      -8.127   3.262  70.462  1.00  0.00    -0.064 A  
ENDBRANCH  13  14
ENDBRANCH  11  13
ENDBRANCH   9  11
ENDBRANCH   4   7
TORSDOF 4
ENDMDL
MODEL      218
REMARK 921   NORMALIZED FREE ENERGY PREDICTED BY IDOCK:   -3.10 KCAL/MOL
REMARK 922        TOTAL FREE ENERGY PREDICTED BY IDOCK:   -4.04 KCAL/MOL
REMARK 923 INTER-LIGAND FREE ENERGY PREDICTED BY IDOCK:   -3.80 KCAL/MOL
REMARK 924 INTRA-LIGAND FREE ENERGY PREDICTED BY IDOCK:   -0.24 KCAL/MOL
REMARK 927      BINDING AFFINITY PREDICTED BY RF-SCORE:    0.00 PKD
ROOT
HETATM    1  C   UNL     1     -13.406   9.981  71.921  1.00  0.00    -0.516 C  
HETATM    2  C   UNL     1     -12.125   9.337  71.582  1.00  0.00    -0.379 A  
HETATM    3  C   UNL     1     -11.640   8.058  71.680  1.00  0.00    -0.317 A  
HETATM    4  C   UNL     1     -10.325   8.130  71.152  1.00  0.00    -0.198 A  
HETATM    5  O   UNL     1     -11.166  10.137  71.043  1.00  0.00    -0.339 OA 
HETATM    6  N   UNL     1     -10.033   9.388  70.773  1.00  0.00    -0.284 NA 
ENDROOT
BRANCH   4   7
HETATM    7  C   UNL     1      -9.374   7.029  70.999  1.00  0.00    -0.159 C  
HETATM    8  O   UNL     1      -8.336   6.962  71.657  1.00  0.00    -0.109 OA 
HETATM    9  N   UNL     1      -9.765   6.071  70.065  1.00  0.00    -0.162 N  
HETATM   10  H   UNL     1     -10.679   6.141  69.618  1.00  0.00     0.000 HD 
BRANCH   9  11
HETATM   11  N   UNL     1      -8.900   5.005  69.733  1.00  0.00    -0.097 NA 
HETATM   12  H   UNL     1      -8.230   4.832  70.482  1.00  0.00     0.000 HD 
BRANCH  11  13
HETATM   13  C   UNL     1      -9.618   3.779  69.379  1.00  0.00    -0.149 C  
BRANCH  13  14
HETATM   14  C   UNL     1      -9.498   3.471  67.903  1.00  0.00    -0.220 A  
HETATM   15  C   UNL     1      -9.799   4.448  66.943  1.00  0.00    -0.235 A  
HETATM   16  C   UNL     1      -9.683   4.162  65.580  1.00  0.00    -0.204 A  
HETATM   17  C   UNL     1      -9.266   2.901  65.162  1.00  0.00    -0.145 A  
HETATM   18  C   UNL     1      -8.957   1.923  66.106  1.00  0.00    -0.097 A  
HETATM   19  C   UNL     1      -9.068   2.207  67.467  1.00  0.00    -0.192 A  
ENDBRANCH  13  14
ENDBRANCH  11  13
ENDBRANCH   9  11
ENDBRANCH   4   7
TORSDOF 4
ENDMDL
MODEL      219
REMARK 921   NORMALIZED FREE ENERGY PREDICTED BY IDOCK:   -3.06 KCAL/MOL
REMARK 922        TOTAL FREE ENERGY PREDICTED BY IDOCK:   -3.99 KCAL/MOL
REMARK 923 INTER-LIGAND FREE ENERGY PREDICTED BY IDOCK:   -3.81 KCAL/MOL
REMARK 924 INTRA-LIGAND FREE ENERGY PREDICTED BY IDOCK:   -0.19 KCAL/MOL
REMARK 927      BINDING AFFINITY PREDICTED BY RF-SCORE:    0.00 PKD
ROOT
HETATM    1  C   UNL     1      -5.196  15.253  68.439  1.00  0.00    -0.107 C  
HETATM    2  C   UNL     1      -6.575  14.803  68.185  1.00  0.00    -0.132 A  
HETATM    3  C   UNL     1      -7.135  13.810  67.422  1.00  0.00    -0.093 A  
HETATM    4  C   UNL     1      -8.531  13.923  67.651  1.00  0.00    -0.192 A  
HETATM    5  O   UNL     1      -7.564  15.483  68.826  1.00  0.00    -0.132 OA 
HETATM    6  N   UNL     1      -8.793  14.939  68.493  1.00  0.00    -0.168 NA 
ENDROOT
BRANCH   4   7
HETATM    7  C   UNL     1      -9.587  13.079  67.093  1.00  0.00    -0.230 C  
HETATM    8  O   UNL     1     -10.687  13.528  66.776  1.00  0.00    -0.276 OA 
HETATM    9  N   UNL     1      -9.221  11.742  66.942  1.00  0.00    -0.183 N  
HETATM   10  H   UNL     1      -8.264  11.452  67.142  1.00  0.00     0.000 HD 
BRANCH   9  11
HETATM   11  N   UNL     1     -10.170  10.788  66.514  1.00  0.00    -0.228 NA 
HETATM   12  H   UNL     1     -10.179  10.713  65.497  1.00  0.00     0.000 HD 
BRANCH  11  13
HETATM   13  C   UNL     1      -9.975   9.475  67.133  1.00  0.00    -0.204 C  
BRANCH  13  14
HETATM   14  C   UNL     1     -10.477   9.453  68.560  1.00  0.00    -0.239 A  
HETATM   15  C   UNL     1     -10.140   8.398  69.419  1.00  0.00    -0.198 A  
HETATM   16  C   UNL     1     -10.601   8.383  70.738  1.00  0.00    -0.240 A  
HETATM   17  C   UNL     1     -11.401   9.419  71.212  1.00  0.00    -0.436 A  
HETATM   18  C   UNL     1     -11.739  10.477  70.370  1.00  0.00    -0.434 A  
HETATM   19  C   UNL     1     -11.277  10.497  69.054  1.00  0.00    -0.316 A  
ENDBRANCH  13  14
ENDBRANCH  11  13
ENDBRANCH   9  11
ENDBRANCH   4   7
TORSDOF 4
ENDMDL
MODEL      220
REMARK 921   NORMALIZED FREE ENERGY PREDICTED BY IDOCK:   -3.06 KCAL/MOL
REMARK 922        TOTAL FREE ENERGY PREDICTED BY IDOCK:   -3.99 KCAL/MOL
REMARK 923 INTER-LIGAND FREE ENERGY PREDICTED BY IDOCK:   -3.52 KCAL/MOL
REMARK 924 INTRA-LIGAND FREE ENERGY PREDICTED BY IDOCK:   -0.47 KCAL/MOL
REMARK 927      BINDING AFFINITY PREDICTED BY RF-SCORE:    0.00 PKD
ROOT
HETATM    1  C   UNL     1     -14.411   7.821  71.825  1.00  0.00    -0.594 C  
HETATM    2  C   UNL     1     -13.062   8.286  71.457  1.00  0.00    -0.293 A  
HETATM    3  C   UNL     1     -11.870   7.660  71.199  1.00  0.00    -0.314 A  
HETATM    4  C   UNL     1     -10.970   8.713  70.888  1.00  0.00    -0.253 A  
HETATM    5  O   UNL     1     -12.898   9.630  71.326  1.00  0.00    -0.327 OA 
HETATM    6  N   UNL     1     -11.588   9.906  70.972  1.00  0.00    -0.359 NA 
ENDROOT
BRANCH   4   7
HETATM    7  C   UNL     1      -9.563   8.588  70.509  1.00  0.00    -0.170 C  
HETATM    8  O   UNL     1      -8.666   9.175  71.113  1.00  0.00    -0.214 OA 
HETATM    9  N   UNL     1      -9.344   7.737  69.427  1.00  0.00    -0.153 N  
HETATM   10  H   UNL     1     -10.122   7.213  69.027  1.00  0.00     0.000 HD 
BRANCH   9  11
HETATM   11  N   UNL     1      -8.049   7.599  68.880  1.00  0.00    -0.125 NA 
HETATM   12  H   UNL     1      -7.703   6.647  68.998  1.00  0.00     0.000 HD 
BRANCH  11  13
HETATM   13  C   UNL     1      -7.976   8.013  67.478  1.00  0.00    -0.122 C  
BRANCH  13  14
HETATM   14  C   UNL     1      -7.814   9.511  67.348  1.00  0.00    -0.102 A  
HETATM   15  C   UNL     1      -6.852  10.194  68.105  1.00  0.00    -0.066 A  
HETATM   16  C   UNL     1      -6.702  11.577  67.980  1.00  0.00    -0.059 A  
HETATM   17  C   UNL     1      -7.507  12.292  67.097  1.00  0.00    -0.113 A  
HETATM   18  C   UNL     1      -8.463  11.625  66.333  1.00  0.00    -0.114 A  
HETATM   19  C   UNL     1      -8.613  10.243  66.453  1.00  0.00    -0.138 A  
ENDBRANCH  13  14
ENDBRANCH  11  13
ENDBRANCH   9  11
ENDBRANCH   4   7
TORSDOF 4
ENDMDL
MODEL      221
REMARK 921   NORMALIZED FREE ENERGY PREDICTED BY IDOCK:   -3.05 KCAL/MOL
REMARK 922        TOTAL FREE ENERGY PREDICTED BY IDOCK:   -3.98 KCAL/MOL
REMARK 923 INTER-LIGAND FREE ENERGY PREDICTED BY IDOCK:   -3.63 KCAL/MOL
REMARK 924 INTRA-LIGAND FREE ENERGY PREDICTED BY IDOCK:   -0.36 KCAL/MOL
REMARK 927      BINDING AFFINITY PREDICTED BY RF-SCORE:    0.00 PKD
ROOT
HETATM    1  C   UNL     1     -14.403   7.926  72.032  1.00  0.00    -0.490 C  
HETATM    2  C   UNL     1     -13.009   8.330  71.783  1.00  0.00    -0.344 A  
HETATM    3  C   UNL     1     -11.834   7.650  71.591  1.00  0.00    -0.323 A  
HETATM    4  C   UNL     1     -10.860   8.662  71.387  1.00  0.00    -0.269 A  
HETATM    5  O   UNL     1     -12.766   9.667  71.714  1.00  0.00    -0.361 OA 
HETATM    6  N   UNL     1     -11.421   9.883  71.469  1.00  0.00    -0.333 NA 
ENDROOT
BRANCH   4   7
HETATM    7  C   UNL     1      -9.436   8.475  71.109  1.00  0.00    -0.195 C  
HETATM    8  O   UNL     1      -8.570   9.188  71.612  1.00  0.00    -0.342 OA 
HETATM    9  N   UNL     1      -9.166   7.413  70.248  1.00  0.00    -0.154 N  
HETATM   10  H   UNL     1      -9.923   6.806  69.935  1.00  0.00     0.000 HD 
BRANCH   9  11
HETATM   11  N   UNL     1      -7.846   7.175  69.804  1.00  0.00    -0.115 NA 
HETATM   12  H   UNL     1      -7.194   7.161  70.589  1.00  0.00     0.000 HD 
BRANCH  11  13
HETATM   13  C   UNL     1      -7.726   5.956  69.003  1.00  0.00    -0.091 C  
BRANCH  13  14
HETATM   14  C   UNL     1      -8.193   4.738  69.770  1.00  0.00    -0.068 A  
HETATM   15  C   UNL     1      -7.521   4.323  70.928  1.00  0.00    -0.051 A  
HETATM   16  C   UNL     1      -7.956   3.201  71.638  1.00  0.00    -0.057 A  
HETATM   17  C   UNL     1      -9.066   2.483  71.199  1.00  0.00    -0.179 A  
HETATM   18  C   UNL     1      -9.747   2.888  70.053  1.00  0.00    -0.008 A  
HETATM   19  C   UNL     1      -9.317   4.010  69.345  1.00  0.00    -0.243 A  
ENDBRANCH  13  14
ENDBRANCH  11  13
ENDBRANCH   9  11
ENDBRANCH   4   7
TORSDOF 4
ENDMDL
MODEL      222
REMARK 921   NORMALIZED FREE ENERGY PREDICTED BY IDOCK:   -3.05 KCAL/MOL
REMARK 922        TOTAL FREE ENERGY PREDICTED BY IDOCK:   -3.98 KCAL/MOL
REMARK 923 INTER-LIGAND FREE ENERGY PREDICTED BY IDOCK:   -3.55 KCAL/MOL
REMARK 924 INTRA-LIGAND FREE ENERGY PREDICTED BY IDOCK:   -0.44 KCAL/MOL
REMARK 927      BINDING AFFINITY PREDICTED BY RF-SCORE:    0.00 PKD
ROOT
HETATM    1  C   UNL     1     -14.342   8.280  71.748  1.00  0.00    -0.574 C  
HETATM    2  C   UNL     1     -12.956   8.666  71.432  1.00  0.00    -0.254 A  
HETATM    3  C   UNL     1     -11.797   7.971  71.202  1.00  0.00    -0.307 A  
HETATM    4  C   UNL     1     -10.824   8.971  70.938  1.00  0.00    -0.258 A  
HETATM    5  O   UNL     1     -12.705   9.999  71.329  1.00  0.00    -0.338 OA 
HETATM    6  N   UNL     1     -11.370  10.198  71.022  1.00  0.00    -0.345 NA 
ENDROOT
BRANCH   4   7
HETATM    7  C   UNL     1      -9.415   8.764  70.602  1.00  0.00    -0.197 C  
HETATM    8  O   UNL     1      -8.993   8.871  69.452  1.00  0.00    -0.140 OA 
HETATM    9  N   UNL     1      -8.613   8.458  71.700  1.00  0.00    -0.154 N  
HETATM   10  H   UNL     1      -9.011   8.471  72.639  1.00  0.00     0.000 HD 
BRANCH   9  11
HETATM   11  N   UNL     1      -7.252   8.129  71.518  1.00  0.00    -0.071 NA 
HETATM   12  H   UNL     1      -6.652   8.924  71.737  1.00  0.00     0.000 HD 
BRANCH  11  13
HETATM   13  C   UNL     1      -6.847   6.943  72.275  1.00  0.00    -0.062 C  
BRANCH  13  14
HETATM   14  C   UNL     1      -7.859   5.827  72.143  1.00  0.00    -0.103 A  
HETATM   15  C   UNL     1      -8.099   5.223  70.900  1.00  0.00    -0.107 A  
HETATM   16  C   UNL     1      -9.032   4.190  70.782  1.00  0.00    -0.152 A  
HETATM   17  C   UNL     1      -9.732   3.747  71.901  1.00  0.00    -0.237 A  
HETATM   18  C   UNL     1      -9.499   4.334  73.143  1.00  0.00    -0.133 A  
HETATM   19  C   UNL     1      -8.566   5.363  73.265  1.00  0.00    -0.116 A  
ENDBRANCH  13  14
ENDBRANCH  11  13
ENDBRANCH   9  11
ENDBRANCH   4   7
TORSDOF 4
ENDMDL
MODEL      223
REMARK 921   NORMALIZED FREE ENERGY PREDICTED BY IDOCK:   -3.04 KCAL/MOL
REMARK 922        TOTAL FREE ENERGY PREDICTED BY IDOCK:   -3.97 KCAL/MOL
REMARK 923 INTER-LIGAND FREE ENERGY PREDICTED BY IDOCK:   -3.57 KCAL/MOL
REMARK 924 INTRA-LIGAND FREE ENERGY PREDICTED BY IDOCK:   -0.40 KCAL/MOL
REMARK 927      BINDING AFFINITY PREDICTED BY RF-SCORE:    0.00 PKD
ROOT
HETATM    1  C   UNL     1      -8.440  12.075  67.428  1.00  0.00    -0.170 C  
HETATM    2  C   UNL     1      -8.070  11.248  68.589  1.00  0.00    -0.145 A  
HETATM    3  C   UNL     1      -8.586  10.113  69.161  1.00  0.00    -0.167 A  
HETATM    4  C   UNL     1      -7.724   9.836  70.253  1.00  0.00    -0.172 A  
HETATM    5  O   UNL     1      -6.976  11.644  69.293  1.00  0.00    -0.110 OA 
HETATM    6  N   UNL     1      -6.754  10.766  70.340  1.00  0.00    -0.293 NA 
ENDROOT
BRANCH   4   7
HETATM    7  C   UNL     1      -7.812   8.711  71.184  1.00  0.00    -0.117 C  
HETATM    8  O   UNL     1      -8.199   8.848  72.344  1.00  0.00    -0.384 OA 
HETATM    9  N   UNL     1      -7.439   7.489  70.628  1.00  0.00    -0.076 N  
HETATM   10  H   UNL     1      -7.212   7.430  69.636  1.00  0.00     0.000 HD 
BRANCH   9  11
HETATM   11  N   UNL     1      -7.373   6.331  71.434  1.00  0.00    -0.083 NA 
HETATM   12  H   UNL     1      -7.442   6.570  72.423  1.00  0.00     0.000 HD 
BRANCH  11  13
HETATM   13  C   UNL     1      -8.370   5.324  71.067  1.00  0.00    -0.121 C  
BRANCH  13  14
HETATM   14  C   UNL     1      -9.774   5.887  71.122  1.00  0.00    -0.209 A  
HETATM   15  C   UNL     1     -10.515   6.073  69.946  1.00  0.00    -0.313 A  
HETATM   16  C   UNL     1     -11.812   6.589  70.000  1.00  0.00    -0.284 A  
HETATM   17  C   UNL     1     -12.383   6.921  71.226  1.00  0.00    -0.422 A  
HETATM   18  C   UNL     1     -11.660   6.735  72.403  1.00  0.00    -0.284 A  
HETATM   19  C   UNL     1     -10.366   6.217  72.352  1.00  0.00    -0.219 A  
ENDBRANCH  13  14
ENDBRANCH  11  13
ENDBRANCH   9  11
ENDBRANCH   4   7
TORSDOF 4
ENDMDL
MODEL      224
REMARK 921   NORMALIZED FREE ENERGY PREDICTED BY IDOCK:   -3.03 KCAL/MOL
REMARK 922        TOTAL FREE ENERGY PREDICTED BY IDOCK:   -3.95 KCAL/MOL
REMARK 923 INTER-LIGAND FREE ENERGY PREDICTED BY IDOCK:   -3.68 KCAL/MOL
REMARK 924 INTRA-LIGAND FREE ENERGY PREDICTED BY IDOCK:   -0.27 KCAL/MOL
REMARK 927      BINDING AFFINITY PREDICTED BY RF-SCORE:    0.00 PKD
ROOT
HETATM    1  C   UNL     1      -9.163   8.361  66.028  1.00  0.00    -0.247 C  
HETATM    2  C   UNL     1      -8.209   9.453  66.281  1.00  0.00    -0.111 A  
HETATM    3  C   UNL     1      -8.332  10.768  66.653  1.00  0.00    -0.141 A  
HETATM    4  C   UNL     1      -6.999  11.246  66.734  1.00  0.00    -0.141 A  
HETATM    5  O   UNL     1      -6.890   9.155  66.132  1.00  0.00    -0.082 OA 
HETATM    6  N   UNL     1      -6.125  10.274  66.411  1.00  0.00    -0.068 NA 
ENDROOT
BRANCH   4   7
HETATM    7  C   UNL     1      -6.565  12.589  67.119  1.00  0.00    -0.055 C  
HETATM    8  O   UNL     1      -5.382  12.925  67.108  1.00  0.00    -0.343 OA 
HETATM    9  N   UNL     1      -7.611  13.439  67.476  1.00  0.00    -0.188 N  
HETATM   10  H   UNL     1      -8.576  13.125  67.379  1.00  0.00     0.000 HD 
BRANCH   9  11
HETATM   11  N   UNL     1      -7.340  14.733  67.971  1.00  0.00    -0.119 NA 
HETATM   12  H   UNL     1      -6.405  14.780  68.377  1.00  0.00     0.000 HD 
BRANCH  11  13
HETATM   13  C   UNL     1      -7.526  15.779  66.963  1.00  0.00    -0.207 C  
BRANCH  13  14
HETATM   14  C   UNL     1      -8.421  16.888  67.471  1.00  0.00    -0.204 A  
HETATM   15  C   UNL     1      -7.882  17.972  68.178  1.00  0.00    -0.274 A  
HETATM   16  C   UNL     1      -8.710  18.998  68.642  1.00  0.00    -0.387 A  
HETATM   17  C   UNL     1     -10.081  18.952  68.405  1.00  0.00    -0.449 A  
HETATM   18  C   UNL     1     -10.629  17.883  67.698  1.00  0.00    -0.398 A  
HETATM   19  C   UNL     1      -9.804  16.860  67.230  1.00  0.00    -0.265 A  
ENDBRANCH  13  14
ENDBRANCH  11  13
ENDBRANCH   9  11
ENDBRANCH   4   7
TORSDOF 4
ENDMDL
MODEL      225
REMARK 921   NORMALIZED FREE ENERGY PREDICTED BY IDOCK:   -3.02 KCAL/MOL
REMARK 922        TOTAL FREE ENERGY PREDICTED BY IDOCK:   -3.94 KCAL/MOL
REMARK 923 INTER-LIGAND FREE ENERGY PREDICTED BY IDOCK:   -3.77 KCAL/MOL
REMARK 924 INTRA-LIGAND FREE ENERGY PREDICTED BY IDOCK:   -0.17 KCAL/MOL
REMARK 927      BINDING AFFINITY PREDICTED BY RF-SCORE:    0.00 PKD
ROOT
HETATM    1  C   UNL     1      -9.781   8.775  66.231  1.00  0.00    -0.342 C  
HETATM    2  C   UNL     1      -8.865   9.801  66.757  1.00  0.00    -0.138 A  
HETATM    3  C   UNL     1      -9.030  11.062  67.272  1.00  0.00    -0.138 A  
HETATM    4  C   UNL     1      -7.719  11.490  67.606  1.00  0.00    -0.123 A  
HETATM    5  O   UNL     1      -7.541   9.487  66.765  1.00  0.00    -0.096 OA 
HETATM    6  N   UNL     1      -6.816  10.542  67.293  1.00  0.00    -0.080 NA 
ENDROOT
BRANCH   4   7
HETATM    7  C   UNL     1      -7.335  12.762  68.218  1.00  0.00    -0.117 C  
HETATM    8  O   UNL     1      -6.178  13.177  68.197  1.00  0.00    -0.082 OA 
HETATM    9  N   UNL     1      -8.398  13.451  68.800  1.00  0.00    -0.354 N  
HETATM   10  H   UNL     1      -9.348  13.093  68.706  1.00  0.00     0.000 HD 
BRANCH   9  11
HETATM   11  N   UNL     1      -8.164  14.643  69.521  1.00  0.00    -0.392 NA 
HETATM   12  H   UNL     1      -7.166  14.838  69.589  1.00  0.00     0.000 HD 
BRANCH  11  13
HETATM   13  C   UNL     1      -8.886  15.791  68.970  1.00  0.00    -0.236 C  
BRANCH  13  14
HETATM   14  C   UNL     1      -9.986  15.356  68.027  1.00  0.00    -0.221 A  
HETATM   15  C   UNL     1      -9.821  15.463  66.639  1.00  0.00    -0.269 A  
HETATM   16  C   UNL     1     -10.836  15.056  65.770  1.00  0.00    -0.355 A  
HETATM   17  C   UNL     1     -12.025  14.538  66.277  1.00  0.00    -0.335 A  
HETATM   18  C   UNL     1     -12.201  14.421  67.654  1.00  0.00    -0.200 A  
HETATM   19  C   UNL     1     -11.187  14.822  68.524  1.00  0.00    -0.291 A  
ENDBRANCH  13  14
ENDBRANCH  11  13
ENDBRANCH   9  11
ENDBRANCH   4   7
TORSDOF 4
ENDMDL
MODEL      226
REMARK 921   NORMALIZED FREE ENERGY PREDICTED BY IDOCK:   -2.99 KCAL/MOL
REMARK 922        TOTAL FREE ENERGY PREDICTED BY IDOCK:   -3.91 KCAL/MOL
REMARK 923 INTER-LIGAND FREE ENERGY PREDICTED BY IDOCK:   -3.63 KCAL/MOL
REMARK 924 INTRA-LIGAND FREE ENERGY PREDICTED BY IDOCK:   -0.28 KCAL/MOL
REMARK 927      BINDING AFFINITY PREDICTED BY RF-SCORE:    0.00 PKD
ROOT
HETATM    1  C   UNL     1     -10.282  16.521  68.152  1.00  0.00    -0.271 C  
HETATM    2  C   UNL     1      -9.543  15.249  68.236  1.00  0.00    -0.206 A  
HETATM    3  C   UNL     1      -9.885  13.930  68.085  1.00  0.00    -0.240 A  
HETATM    4  C   UNL     1      -8.673  13.218  68.286  1.00  0.00    -0.168 A  
HETATM    5  O   UNL     1      -8.216  15.336  68.522  1.00  0.00    -0.134 OA 
HETATM    6  N   UNL     1      -7.664  14.066  68.558  1.00  0.00    -0.134 NA 
ENDROOT
BRANCH   4   7
HETATM    7  C   UNL     1      -8.477  11.771  68.209  1.00  0.00    -0.161 C  
HETATM    8  O   UNL     1      -7.434  11.272  67.791  1.00  0.00    -0.090 OA 
HETATM    9  N   UNL     1      -9.565  11.029  68.666  1.00  0.00    -0.190 N  
HETATM   10  H   UNL     1     -10.366  11.505  69.081  1.00  0.00     0.000 HD 
BRANCH   9  11
HETATM   11  N   UNL     1      -9.564   9.621  68.555  1.00  0.00    -0.144 NA 
HETATM   12  H   UNL     1      -9.664   9.183  69.471  1.00  0.00     0.000 HD 
BRANCH  11  13
HETATM   13  C   UNL     1     -10.576   9.123  67.622  1.00  0.00    -0.242 C  
BRANCH  13  14
HETATM   14  C   UNL     1     -10.150   7.820  66.982  1.00  0.00    -0.343 A  
HETATM   15  C   UNL     1      -8.975   7.751  66.219  1.00  0.00    -0.209 A  
HETATM   16  C   UNL     1      -8.581   6.546  65.632  1.00  0.00    -0.132 A  
HETATM   17  C   UNL     1      -9.352   5.399  65.802  1.00  0.00    -0.132 A  
HETATM   18  C   UNL     1     -10.518   5.453  66.563  1.00  0.00    -0.352 A  
HETATM   19  C   UNL     1     -10.912   6.653  67.154  1.00  0.00    -0.478 A  
ENDBRANCH  13  14
ENDBRANCH  11  13
ENDBRANCH   9  11
ENDBRANCH   4   7
TORSDOF 4
ENDMDL
MODEL      227
REMARK 921   NORMALIZED FREE ENERGY PREDICTED BY IDOCK:   -2.96 KCAL/MOL
REMARK 922        TOTAL FREE ENERGY PREDICTED BY IDOCK:   -3.87 KCAL/MOL
REMARK 923 INTER-LIGAND FREE ENERGY PREDICTED BY IDOCK:   -3.71 KCAL/MOL
REMARK 924 INTRA-LIGAND FREE ENERGY PREDICTED BY IDOCK:   -0.16 KCAL/MOL
REMARK 927      BINDING AFFINITY PREDICTED BY RF-SCORE:    0.00 PKD
ROOT
HETATM    1  C   UNL     1     -11.223  16.706  70.517  1.00  0.00     0.054 C  
HETATM    2  C   UNL     1     -10.354  15.921  69.622  1.00  0.00    -0.299 A  
HETATM    3  C   UNL     1     -10.276  14.595  69.284  1.00  0.00    -0.156 A  
HETATM    4  C   UNL     1      -9.212  14.524  68.347  1.00  0.00    -0.196 A  
HETATM    5  O   UNL     1      -9.395  16.611  68.948  1.00  0.00    -0.243 OA 
HETATM    6  N   UNL     1      -8.673  15.741  68.148  1.00  0.00    -0.171 NA 
ENDROOT
BRANCH   4   7
HETATM    7  C   UNL     1      -8.729  13.333  67.649  1.00  0.00    -0.195 C  
HETATM    8  O   UNL     1      -7.541  13.171  67.372  1.00  0.00    -0.155 OA 
HETATM    9  N   UNL     1      -9.729  12.408  67.352  1.00  0.00    -0.191 N  
HETATM   10  H   UNL     1     -10.679  12.563  67.688  1.00  0.00     0.000 HD 
BRANCH   9  11
HETATM   11  N   UNL     1      -9.431  11.258  66.588  1.00  0.00    -0.182 NA 
HETATM   12  H   UNL     1      -8.490  10.921  66.787  1.00  0.00     0.000 HD 
BRANCH  11  13
HETATM   13  C   UNL     1     -10.417  10.190  66.761  1.00  0.00    -0.204 C  
BRANCH  13  14
HETATM   14  C   UNL     1     -10.825  10.039  68.210  1.00  0.00    -0.286 A  
HETATM   15  C   UNL     1     -11.910  10.763  68.725  1.00  0.00    -0.250 A  
HETATM   16  C   UNL     1     -12.288  10.619  70.063  1.00  0.00    -0.341 A  
HETATM   17  C   UNL     1     -11.589   9.751  70.898  1.00  0.00    -0.441 A  
HETATM   18  C   UNL     1     -10.512   9.022  70.398  1.00  0.00    -0.254 A  
HETATM   19  C   UNL     1     -10.135   9.160  69.062  1.00  0.00    -0.199 A  
ENDBRANCH  13  14
ENDBRANCH  11  13
ENDBRANCH   9  11
ENDBRANCH   4   7
TORSDOF 4
ENDMDL
MODEL      228
REMARK 921   NORMALIZED FREE ENERGY PREDICTED BY IDOCK:   -2.88 KCAL/MOL
REMARK 922        TOTAL FREE ENERGY PREDICTED BY IDOCK:   -3.78 KCAL/MOL
REMARK 923 INTER-LIGAND FREE ENERGY PREDICTED BY IDOCK:   -3.37 KCAL/MOL
REMARK 924 INTRA-LIGAND FREE ENERGY PREDICTED BY IDOCK:   -0.41 KCAL/MOL
REMARK 927      BINDING AFFINITY PREDICTED BY RF-SCORE:    0.00 PKD
ROOT
HETATM    1  C   UNL     1     -12.267  13.704  63.561  1.00  0.00    -0.329 C  
HETATM    2  C   UNL     1     -11.408  12.694  64.202  1.00  0.00    -0.383 A  
HETATM    3  C   UNL     1     -11.382  11.323  64.211  1.00  0.00    -0.120 A  
HETATM    4  C   UNL     1     -10.270  10.988  65.026  1.00  0.00    -0.299 A  
HETATM    5  O   UNL     1     -10.387  13.164  64.970  1.00  0.00    -0.317 OA 
HETATM    6  N   UNL     1      -9.671  12.100  65.493  1.00  0.00    -0.218 NA 
ENDROOT
BRANCH   4   7
HETATM    7  C   UNL     1      -9.780   9.647  65.343  1.00  0.00    -0.295 C  
HETATM    8  O   UNL     1      -9.916   9.146  66.458  1.00  0.00    -0.248 OA 
HETATM    9  N   UNL     1      -9.172   9.000  64.269  1.00  0.00    -0.364 N  
HETATM   10  H   UNL     1      -9.169   9.437  63.348  1.00  0.00     0.000 HD 
BRANCH   9  11
HETATM   11  N   UNL     1      -8.557   7.741  64.451  1.00  0.00    -0.367 NA 
HETATM   12  H   UNL     1      -8.674   7.155  63.625  1.00  0.00     0.000 HD 
BRANCH  11  13
HETATM   13  C   UNL     1      -7.145   7.846  64.824  1.00  0.00    -0.071 C  
BRANCH  13  14
HETATM   14  C   UNL     1      -6.903   7.344  66.230  1.00  0.00    -0.061 A  
HETATM   15  C   UNL     1      -5.915   7.928  67.037  1.00  0.00    -0.052 A  
HETATM   16  C   UNL     1      -5.696   7.466  68.337  1.00  0.00    -0.023 A  
HETATM   17  C   UNL     1      -6.460   6.419  68.845  1.00  0.00    -0.043 A  
HETATM   18  C   UNL     1      -7.449   5.833  68.057  1.00  0.00    -0.077 A  
HETATM   19  C   UNL     1      -7.673   6.296  66.760  1.00  0.00    -0.100 A  
ENDBRANCH  13  14
ENDBRANCH  11  13
ENDBRANCH   9  11
ENDBRANCH   4   7
TORSDOF 4
ENDMDL
MODEL      229
REMARK 921   NORMALIZED FREE ENERGY PREDICTED BY IDOCK:   -2.88 KCAL/MOL
REMARK 922        TOTAL FREE ENERGY PREDICTED BY IDOCK:   -3.77 KCAL/MOL
REMARK 923 INTER-LIGAND FREE ENERGY PREDICTED BY IDOCK:   -3.53 KCAL/MOL
REMARK 924 INTRA-LIGAND FREE ENERGY PREDICTED BY IDOCK:   -0.24 KCAL/MOL
REMARK 927      BINDING AFFINITY PREDICTED BY RF-SCORE:    0.00 PKD
ROOT
HETATM    1  C   UNL     1      -9.695   2.411  64.629  1.00  0.00    -0.003 C  
HETATM    2  C   UNL     1      -9.487   3.763  65.174  1.00  0.00    -0.167 A  
HETATM    3  C   UNL     1      -8.632   4.794  64.879  1.00  0.00    -0.145 A  
HETATM    4  C   UNL     1      -8.984   5.825  65.789  1.00  0.00    -0.135 A  
HETATM    5  O   UNL     1     -10.296   4.135  66.202  1.00  0.00    -0.143 OA 
HETATM    6  N   UNL     1      -9.985   5.426  66.595  1.00  0.00    -0.175 NA 
ENDROOT
BRANCH   4   7
HETATM    7  C   UNL     1      -8.392   7.160  65.881  1.00  0.00    -0.141 C  
HETATM    8  O   UNL     1      -7.235   7.390  65.534  1.00  0.00    -0.063 OA 
HETATM    9  N   UNL     1      -9.263   8.129  66.377  1.00  0.00    -0.187 N  
HETATM   10  H   UNL     1     -10.236   7.890  66.564  1.00  0.00     0.000 HD 
BRANCH   9  11
HETATM   11  N   UNL     1      -8.802   9.442  66.622  1.00  0.00    -0.133 NA 
HETATM   12  H   UNL     1      -8.624   9.935  65.747  1.00  0.00     0.000 HD 
BRANCH  11  13
HETATM   13  C   UNL     1      -9.704  10.210  67.482  1.00  0.00    -0.162 C  
BRANCH  13  14
HETATM   14  C   UNL     1     -10.429  11.287  66.707  1.00  0.00    -0.291 A  
HETATM   15  C   UNL     1     -11.022  12.369  67.372  1.00  0.00    -0.296 A  
HETATM   16  C   UNL     1     -11.688  13.365  66.653  1.00  0.00    -0.428 A  
HETATM   17  C   UNL     1     -11.767  13.292  65.264  1.00  0.00    -0.357 A  
HETATM   18  C   UNL     1     -11.177  12.225  64.590  1.00  0.00    -0.363 A  
HETATM   19  C   UNL     1     -10.508  11.231  65.305  1.00  0.00    -0.341 A  
ENDBRANCH  13  14
ENDBRANCH  11  13
ENDBRANCH   9  11
ENDBRANCH   4   7
TORSDOF 4
ENDMDL
MODEL      230
REMARK 921   NORMALIZED FREE ENERGY PREDICTED BY IDOCK:   -2.85 KCAL/MOL
REMARK 922        TOTAL FREE ENERGY PREDICTED BY IDOCK:   -3.74 KCAL/MOL
REMARK 923 INTER-LIGAND FREE ENERGY PREDICTED BY IDOCK:   -3.38 KCAL/MOL
REMARK 924 INTRA-LIGAND FREE ENERGY PREDICTED BY IDOCK:   -0.36 KCAL/MOL
REMARK 927      BINDING AFFINITY PREDICTED BY RF-SCORE:    0.00 PKD
ROOT
HETATM    1  C   UNL     1      -9.066   3.252  62.868  1.00  0.00    -0.092 C  
HETATM    2  C   UNL     1      -8.845   4.262  63.917  1.00  0.00    -0.135 A  
HETATM    3  C   UNL     1      -9.183   4.357  65.243  1.00  0.00    -0.155 A  
HETATM    4  C   UNL     1      -8.639   5.597  65.666  1.00  0.00    -0.150 A  
HETATM    5  O   UNL     1      -8.152   5.374  63.554  1.00  0.00    -0.104 OA 
HETATM    6  N   UNL     1      -8.021   6.218  64.644  1.00  0.00    -0.118 NA 
ENDROOT
BRANCH   4   7
HETATM    7  C   UNL     1      -8.693   6.172  67.010  1.00  0.00    -0.107 C  
HETATM    8  O   UNL     1      -7.719   6.175  67.762  1.00  0.00    -0.095 OA 
HETATM    9  N   UNL     1      -9.930   6.721  67.339  1.00  0.00    -0.137 N  
HETATM   10  H   UNL     1     -10.670   6.764  66.638  1.00  0.00     0.000 HD 
BRANCH   9  11
HETATM   11  N   UNL     1     -10.166   7.219  68.640  1.00  0.00    -0.177 NA 
HETATM   12  H   UNL     1     -10.218   8.237  68.637  1.00  0.00     0.000 HD 
BRANCH  11  13
HETATM   13  C   UNL     1     -11.354   6.636  69.266  1.00  0.00    -0.237 C  
BRANCH  13  14
HETATM   14  C   UNL     1     -11.008   5.909  70.546  1.00  0.00    -0.362 A  
HETATM   15  C   UNL     1     -11.634   6.251  71.753  1.00  0.00    -0.358 A  
HETATM   16  C   UNL     1     -11.315   5.575  72.934  1.00  0.00    -0.348 A  
HETATM   17  C   UNL     1     -10.372   4.551  72.922  1.00  0.00    -0.243 A  
HETATM   18  C   UNL     1      -9.747   4.196  71.728  1.00  0.00    -0.245 A  
HETATM   19  C   UNL     1     -10.066   4.866  70.547  1.00  0.00    -0.312 A  
ENDBRANCH  13  14
ENDBRANCH  11  13
ENDBRANCH   9  11
ENDBRANCH   4   7
TORSDOF 4
ENDMDL
MODEL      231
REMARK 921   NORMALIZED FREE ENERGY PREDICTED BY IDOCK:   -2.85 KCAL/MOL
REMARK 922        TOTAL FREE ENERGY PREDICTED BY IDOCK:   -3.73 KCAL/MOL
REMARK 923 INTER-LIGAND FREE ENERGY PREDICTED BY IDOCK:   -3.50 KCAL/MOL
REMARK 924 INTRA-LIGAND FREE ENERGY PREDICTED BY IDOCK:   -0.23 KCAL/MOL
REMARK 927      BINDING AFFINITY PREDICTED BY RF-SCORE:    0.00 PKD
ROOT
HETATM    1  C   UNL     1      -5.137  17.636  69.166  1.00  0.00    -0.174 C  
HETATM    2  C   UNL     1      -6.464  17.081  68.848  1.00  0.00    -0.189 A  
HETATM    3  C   UNL     1      -7.278  17.115  67.746  1.00  0.00    -0.169 A  
HETATM    4  C   UNL     1      -8.417  16.353  68.115  1.00  0.00    -0.188 A  
HETATM    5  O   UNL     1      -7.071  16.359  69.828  1.00  0.00    -0.108 OA 
HETATM    6  N   UNL     1      -8.297  15.902  69.377  1.00  0.00    -0.231 NA 
ENDROOT
BRANCH   4   7
HETATM    7  C   UNL     1      -9.584  16.052  67.286  1.00  0.00    -0.225 C  
HETATM    8  O   UNL     1     -10.249  16.934  66.744  1.00  0.00    -0.291 OA 
HETATM    9  N   UNL     1      -9.849  14.690  67.159  1.00  0.00    -0.234 N  
HETATM   10  H   UNL     1      -9.207  14.007  67.562  1.00  0.00     0.000 HD 
BRANCH   9  11
HETATM   11  N   UNL     1     -11.004  14.249  66.476  1.00  0.00    -0.311 NA 
HETATM   12  H   UNL     1     -11.334  14.959  65.822  1.00  0.00     0.000 HD 
BRANCH  11  13
HETATM   13  C   UNL     1     -10.810  12.965  65.800  1.00  0.00    -0.269 C  
BRANCH  13  14
HETATM   14  C   UNL     1     -10.110  11.967  66.694  1.00  0.00    -0.225 A  
HETATM   15  C   UNL     1     -10.791  11.361  67.760  1.00  0.00    -0.281 A  
HETATM   16  C   UNL     1     -10.143  10.436  68.582  1.00  0.00    -0.188 A  
HETATM   17  C   UNL     1      -8.811  10.104  68.348  1.00  0.00    -0.123 A  
HETATM   18  C   UNL     1      -8.124  10.693  67.289  1.00  0.00    -0.116 A  
HETATM   19  C   UNL     1      -8.769  11.615  66.464  1.00  0.00    -0.182 A  
ENDBRANCH  13  14
ENDBRANCH  11  13
ENDBRANCH   9  11
ENDBRANCH   4   7
TORSDOF 4
ENDMDL
MODEL      232
REMARK 921   NORMALIZED FREE ENERGY PREDICTED BY IDOCK:   -2.83 KCAL/MOL
REMARK 922        TOTAL FREE ENERGY PREDICTED BY IDOCK:   -3.71 KCAL/MOL
REMARK 923 INTER-LIGAND FREE ENERGY PREDICTED BY IDOCK:   -3.46 KCAL/MOL
REMARK 924 INTRA-LIGAND FREE ENERGY PREDICTED BY IDOCK:   -0.25 KCAL/MOL
REMARK 927      BINDING AFFINITY PREDICTED BY RF-SCORE:    0.00 PKD
ROOT
HETATM    1  C   UNL     1     -14.404   8.448  72.132  1.00  0.00    -0.520 C  
HETATM    2  C   UNL     1     -13.093   8.096  71.560  1.00  0.00    -0.287 A  
HETATM    3  C   UNL     1     -12.422   6.918  71.354  1.00  0.00    -0.413 A  
HETATM    4  C   UNL     1     -11.201   7.301  70.741  1.00  0.00    -0.274 A  
HETATM    5  O   UNL     1     -12.328   9.128  71.114  1.00  0.00    -0.299 OA 
HETATM    6  N   UNL     1     -11.138   8.639  70.602  1.00  0.00    -0.246 NA 
ENDROOT
BRANCH   4   7
HETATM    7  C   UNL     1     -10.127   6.418  70.287  1.00  0.00    -0.181 C  
HETATM    8  O   UNL     1      -9.071   6.297  70.907  1.00  0.00    -0.149 OA 
HETATM    9  N   UNL     1     -10.423   5.728  69.113  1.00  0.00    -0.249 N  
HETATM   10  H   UNL     1     -11.350   5.807  68.696  1.00  0.00     0.000 HD 
BRANCH   9  11
HETATM   11  N   UNL     1      -9.442   4.918  68.496  1.00  0.00    -0.135 NA 
HETATM   12  H   UNL     1      -9.165   4.151  69.108  1.00  0.00     0.000 HD 
BRANCH  11  13
HETATM   13  C   UNL     1      -9.861   4.418  67.185  1.00  0.00    -0.178 C  
BRANCH  13  14
HETATM   14  C   UNL     1      -8.754   4.549  66.162  1.00  0.00    -0.114 A  
HETATM   15  C   UNL     1      -9.027   4.409  64.794  1.00  0.00    -0.149 A  
HETATM   16  C   UNL     1      -8.004   4.535  63.850  1.00  0.00    -0.093 A  
HETATM   17  C   UNL     1      -6.701   4.802  64.262  1.00  0.00    -0.044 A  
HETATM   18  C   UNL     1      -6.417   4.949  65.618  1.00  0.00    -0.040 A  
HETATM   19  C   UNL     1      -7.437   4.829  66.562  1.00  0.00    -0.086 A  
ENDBRANCH  13  14
ENDBRANCH  11  13
ENDBRANCH   9  11
ENDBRANCH   4   7
TORSDOF 4
ENDMDL
MODEL      233
REMARK 921   NORMALIZED FREE ENERGY PREDICTED BY IDOCK:   -2.77 KCAL/MOL
REMARK 922        TOTAL FREE ENERGY PREDICTED BY IDOCK:   -3.63 KCAL/MOL
REMARK 923 INTER-LIGAND FREE ENERGY PREDICTED BY IDOCK:   -3.23 KCAL/MOL
REMARK 924 INTRA-LIGAND FREE ENERGY PREDICTED BY IDOCK:   -0.40 KCAL/MOL
REMARK 927      BINDING AFFINITY PREDICTED BY RF-SCORE:    0.00 PKD
ROOT
HETATM    1  C   UNL     1      -5.787   8.593  72.936  1.00  0.00    -0.080 C  
HETATM    2  C   UNL     1      -7.200   8.592  72.522  1.00  0.00    -0.030 A  
HETATM    3  C   UNL     1      -7.849   8.760  71.325  1.00  0.00    -0.167 A  
HETATM    4  C   UNL     1      -9.225   8.620  71.638  1.00  0.00    -0.256 A  
HETATM    5  O   UNL     1      -8.120   8.377  73.501  1.00  0.00    -0.314 OA 
HETATM    6  N   UNL     1      -9.393   8.397  72.955  1.00  0.00    -0.229 NA 
ENDROOT
BRANCH   4   7
HETATM    7  C   UNL     1     -10.353   8.685  70.709  1.00  0.00    -0.204 C  
HETATM    8  O   UNL     1     -11.218   7.813  70.665  1.00  0.00    -0.265 OA 
HETATM    9  N   UNL     1     -10.356   9.825  69.906  1.00  0.00    -0.236 N  
HETATM   10  H   UNL     1      -9.658  10.553  70.054  1.00  0.00     0.000 HD 
BRANCH   9  11
HETATM   11  N   UNL     1     -11.324   9.976  68.888  1.00  0.00    -0.463 NA 
HETATM   12  H   UNL     1     -12.021  10.673  69.147  1.00  0.00     0.000 HD 
BRANCH  11  13
HETATM   13  C   UNL     1     -10.734  10.285  67.584  1.00  0.00    -0.288 C  
BRANCH  13  14
HETATM   14  C   UNL     1      -9.352   9.685  67.443  1.00  0.00    -0.155 A  
HETATM   15  C   UNL     1      -9.189   8.307  67.242  1.00  0.00    -0.165 A  
HETATM   16  C   UNL     1      -7.912   7.757  67.107  1.00  0.00    -0.117 A  
HETATM   17  C   UNL     1      -6.787   8.575  67.170  1.00  0.00    -0.067 A  
HETATM   18  C   UNL     1      -6.935   9.947  67.363  1.00  0.00    -0.083 A  
HETATM   19  C   UNL     1      -8.209  10.500  67.494  1.00  0.00    -0.114 A  
ENDBRANCH  13  14
ENDBRANCH  11  13
ENDBRANCH   9  11
ENDBRANCH   4   7
TORSDOF 4
ENDMDL
MODEL      234
REMARK 921   NORMALIZED FREE ENERGY PREDICTED BY IDOCK:   -2.75 KCAL/MOL
REMARK 922        TOTAL FREE ENERGY PREDICTED BY IDOCK:   -3.61 KCAL/MOL
REMARK 923 INTER-LIGAND FREE ENERGY PREDICTED BY IDOCK:   -3.32 KCAL/MOL
REMARK 924 INTRA-LIGAND FREE ENERGY PREDICTED BY IDOCK:   -0.29 KCAL/MOL
REMARK 927      BINDING AFFINITY PREDICTED BY RF-SCORE:    0.00 PKD
ROOT
HETATM    1  C   UNL     1     -13.984   8.848  72.804  1.00  0.00    -0.244 C  
HETATM    2  C   UNL     1     -12.770   9.071  72.000  1.00  0.00    -0.398 A  
HETATM    3  C   UNL     1     -11.687   8.299  71.665  1.00  0.00    -0.341 A  
HETATM    4  C   UNL     1     -10.889   9.136  70.842  1.00  0.00    -0.278 A  
HETATM    5  O   UNL     1     -12.635  10.299  71.430  1.00  0.00    -0.361 OA 
HETATM    6  N   UNL     1     -11.457  10.349  70.706  1.00  0.00    -0.343 NA 
ENDROOT
BRANCH   4   7
HETATM    7  C   UNL     1      -9.625   8.788  70.192  1.00  0.00    -0.173 C  
HETATM    8  O   UNL     1      -8.704   9.594  70.076  1.00  0.00    -0.200 OA 
HETATM    9  N   UNL     1      -9.566   7.469  69.744  1.00  0.00    -0.163 N  
HETATM   10  H   UNL     1     -10.332   6.827  69.950  1.00  0.00     0.000 HD 
BRANCH   9  11
HETATM   11  N   UNL     1      -8.451   7.018  69.004  1.00  0.00    -0.128 NA 
HETATM   12  H   UNL     1      -8.204   6.063  69.262  1.00  0.00     0.000 HD 
BRANCH  11  13
HETATM   13  C   UNL     1      -8.643   7.136  67.557  1.00  0.00    -0.122 C  
BRANCH  13  14
HETATM   14  C   UNL     1      -8.249   5.864  66.839  1.00  0.00    -0.105 A  
HETATM   15  C   UNL     1      -8.074   4.668  67.549  1.00  0.00    -0.101 A  
HETATM   16  C   UNL     1      -7.715   3.493  66.882  1.00  0.00    -0.080 A  
HETATM   17  C   UNL     1      -7.529   3.501  65.503  1.00  0.00    -0.077 A  
HETATM   18  C   UNL     1      -7.706   4.681  64.784  1.00  0.00    -0.078 A  
HETATM   19  C   UNL     1      -8.069   5.854  65.446  1.00  0.00    -0.130 A  
ENDBRANCH  13  14
ENDBRANCH  11  13
ENDBRANCH   9  11
ENDBRANCH   4   7
TORSDOF 4
ENDMDL
MODEL      235
REMARK 921   NORMALIZED FREE ENERGY PREDICTED BY IDOCK:   -2.72 KCAL/MOL
REMARK 922        TOTAL FREE ENERGY PREDICTED BY IDOCK:   -3.57 KCAL/MOL
REMARK 923 INTER-LIGAND FREE ENERGY PREDICTED BY IDOCK:   -3.29 KCAL/MOL
REMARK 924 INTRA-LIGAND FREE ENERGY PREDICTED BY IDOCK:   -0.28 KCAL/MOL
REMARK 927      BINDING AFFINITY PREDICTED BY RF-SCORE:    0.00 PKD
ROOT
HETATM    1  C   UNL     1     -13.473  13.016  71.527  1.00  0.00    -0.176 C  
HETATM    2  C   UNL     1     -12.536  12.295  70.648  1.00  0.00    -0.156 A  
HETATM    3  C   UNL     1     -11.989  11.038  70.655  1.00  0.00    -0.464 A  
HETATM    4  C   UNL     1     -11.173  10.993  69.495  1.00  0.00    -0.279 A  
HETATM    5  O   UNL     1     -12.075  12.976  69.564  1.00  0.00    -0.293 OA 
HETATM    6  N   UNL     1     -11.217  12.167  68.838  1.00  0.00    -0.251 NA 
ENDROOT
BRANCH   4   7
HETATM    7  C   UNL     1     -10.382   9.859  69.017  1.00  0.00    -0.209 C  
HETATM    8  O   UNL     1      -9.653   9.939  68.029  1.00  0.00    -0.138 OA 
HETATM    9  N   UNL     1     -10.521   8.708  69.790  1.00  0.00    -0.217 N  
HETATM   10  H   UNL     1     -11.073   8.735  70.647  1.00  0.00     0.000 HD 
BRANCH   9  11
HETATM   11  N   UNL     1      -9.900   7.503  69.391  1.00  0.00    -0.164 NA 
HETATM   12  H   UNL     1      -9.712   7.504  68.389  1.00  0.00     0.000 HD 
BRANCH  11  13
HETATM   13  C   UNL     1      -8.684   7.211  70.152  1.00  0.00    -0.141 C  
BRANCH  13  14
HETATM   14  C   UNL     1      -8.514   5.725  70.379  1.00  0.00    -0.129 A  
HETATM   15  C   UNL     1      -7.238   5.172  70.558  1.00  0.00    -0.061 A  
HETATM   16  C   UNL     1      -7.084   3.800  70.773  1.00  0.00    -0.033 A  
HETATM   17  C   UNL     1      -8.200   2.968  70.812  1.00  0.00    -0.073 A  
HETATM   18  C   UNL     1      -9.474   3.506  70.642  1.00  0.00    -0.243 A  
HETATM   19  C   UNL     1      -9.632   4.876  70.432  1.00  0.00    -0.259 A  
ENDBRANCH  13  14
ENDBRANCH  11  13
ENDBRANCH   9  11
ENDBRANCH   4   7
TORSDOF 4
ENDMDL
MODEL      236
REMARK 921   NORMALIZED FREE ENERGY PREDICTED BY IDOCK:   -2.69 KCAL/MOL
REMARK 922        TOTAL FREE ENERGY PREDICTED BY IDOCK:   -3.53 KCAL/MOL
REMARK 923 INTER-LIGAND FREE ENERGY PREDICTED BY IDOCK:   -3.29 KCAL/MOL
REMARK 924 INTRA-LIGAND FREE ENERGY PREDICTED BY IDOCK:   -0.24 KCAL/MOL
REMARK 927      BINDING AFFINITY PREDICTED BY RF-SCORE:    0.00 PKD
ROOT
HETATM    1  C   UNL     1      -8.257   2.266  62.762  1.00  0.00    -0.069 C  
HETATM    2  C   UNL     1      -8.207   3.582  63.421  1.00  0.00    -0.089 A  
HETATM    3  C   UNL     1      -8.758   4.104  64.563  1.00  0.00    -0.129 A  
HETATM    4  C   UNL     1      -8.284   5.441  64.615  1.00  0.00    -0.133 A  
HETATM    5  O   UNL     1      -7.457   4.540  62.811  1.00  0.00    -0.050 OA 
HETATM    6  N   UNL     1      -7.503   5.709  63.551  1.00  0.00    -0.061 NA 
ENDROOT
BRANCH   4   7
HETATM    7  C   UNL     1      -8.556   6.434  65.654  1.00  0.00    -0.133 C  
HETATM    8  O   UNL     1      -7.815   7.396  65.851  1.00  0.00    -0.094 OA 
HETATM    9  N   UNL     1      -9.726   6.193  66.371  1.00  0.00    -0.273 N  
HETATM   10  H   UNL     1     -10.341   5.427  66.099  1.00  0.00     0.000 HD 
BRANCH   9  11
HETATM   11  N   UNL     1     -10.065   7.008  67.475  1.00  0.00    -0.169 NA 
HETATM   12  H   UNL     1     -10.325   7.945  67.170  1.00  0.00     0.000 HD 
BRANCH  11  13
HETATM   13  C   UNL     1     -11.111   6.421  68.315  1.00  0.00    -0.267 C  
BRANCH  13  14
HETATM   14  C   UNL     1     -11.082   6.990  69.716  1.00  0.00    -0.278 A  
HETATM   15  C   UNL     1     -10.003   7.774  70.147  1.00  0.00    -0.186 A  
HETATM   16  C   UNL     1      -9.981   8.302  71.440  1.00  0.00    -0.250 A  
HETATM   17  C   UNL     1     -11.036   8.054  72.315  1.00  0.00    -0.393 A  
HETATM   18  C   UNL     1     -12.118   7.282  71.898  1.00  0.00    -0.349 A  
HETATM   19  C   UNL     1     -12.144   6.757  70.606  1.00  0.00    -0.371 A  
ENDBRANCH  13  14
ENDBRANCH  11  13
ENDBRANCH   9  11
ENDBRANCH   4   7
TORSDOF 4
ENDMDL
MODEL      237
REMARK 921   NORMALIZED FREE ENERGY PREDICTED BY IDOCK:   -2.63 KCAL/MOL
REMARK 922        TOTAL FREE ENERGY PREDICTED BY IDOCK:   -3.46 KCAL/MOL
REMARK 923 INTER-LIGAND FREE ENERGY PREDICTED BY IDOCK:   -3.05 KCAL/MOL
REMARK 924 INTRA-LIGAND FREE ENERGY PREDICTED BY IDOCK:   -0.41 KCAL/MOL
REMARK 927      BINDING AFFINITY PREDICTED BY RF-SCORE:    0.00 PKD
ROOT
HETATM    1  C   UNL     1      -5.239   9.166  72.946  1.00  0.00    -0.081 C  
HETATM    2  C   UNL     1      -6.269   8.459  72.164  1.00  0.00    -0.066 A  
HETATM    3  C   UNL     1      -6.249   7.416  71.274  1.00  0.00    -0.036 A  
HETATM    4  C   UNL     1      -7.607   7.229  70.907  1.00  0.00    -0.084 A  
HETATM    5  O   UNL     1      -7.551   8.887  72.320  1.00  0.00    -0.344 OA 
HETATM    6  N   UNL     1      -8.395   8.124  71.532  1.00  0.00    -0.115 NA 
ENDROOT
BRANCH   4   7
HETATM    7  C   UNL     1      -8.144   6.220  69.995  1.00  0.00    -0.120 C  
HETATM    8  O   UNL     1      -7.434   5.356  69.481  1.00  0.00    -0.067 OA 
HETATM    9  N   UNL     1      -9.518   6.323  69.785  1.00  0.00    -0.151 N  
HETATM   10  H   UNL     1     -10.062   7.007  70.310  1.00  0.00     0.000 HD 
BRANCH   9  11
HETATM   11  N   UNL     1     -10.160   5.483  68.849  1.00  0.00    -0.180 NA 
HETATM   12  H   UNL     1     -10.704   4.760  69.319  1.00  0.00     0.000 HD 
BRANCH  11  13
HETATM   13  C   UNL     1     -10.989   6.223  67.896  1.00  0.00    -0.327 C  
BRANCH  13  14
HETATM   14  C   UNL     1     -10.151   7.111  67.002  1.00  0.00    -0.308 A  
HETATM   15  C   UNL     1      -8.996   6.613  66.382  1.00  0.00    -0.161 A  
HETATM   16  C   UNL     1      -8.226   7.434  65.553  1.00  0.00    -0.135 A  
HETATM   17  C   UNL     1      -8.601   8.757  65.335  1.00  0.00    -0.203 A  
HETATM   18  C   UNL     1      -9.749   9.263  65.941  1.00  0.00    -0.355 A  
HETATM   19  C   UNL     1     -10.523   8.445  66.765  1.00  0.00    -0.315 A  
ENDBRANCH  13  14
ENDBRANCH  11  13
ENDBRANCH   9  11
ENDBRANCH   4   7
TORSDOF 4
ENDMDL
MODEL      238
REMARK 921   NORMALIZED FREE ENERGY PREDICTED BY IDOCK:   -2.60 KCAL/MOL
REMARK 922        TOTAL FREE ENERGY PREDICTED BY IDOCK:   -3.43 KCAL/MOL
REMARK 923 INTER-LIGAND FREE ENERGY PREDICTED BY IDOCK:   -2.98 KCAL/MOL
REMARK 924 INTRA-LIGAND FREE ENERGY PREDICTED BY IDOCK:   -0.45 KCAL/MOL
REMARK 927      BINDING AFFINITY PREDICTED BY RF-SCORE:    0.00 PKD
ROOT
HETATM    1  C   UNL     1      -5.455   8.695  73.083  1.00  0.00    -0.078 C  
HETATM    2  C   UNL     1      -6.882   8.338  73.157  1.00  0.00    -0.107 A  
HETATM    3  C   UNL     1      -7.746   7.662  72.334  1.00  0.00    -0.113 A  
HETATM    4  C   UNL     1      -8.983   7.664  73.029  1.00  0.00    -0.176 A  
HETATM    5  O   UNL     1      -7.551   8.736  74.273  1.00  0.00    -0.418 OA 
HETATM    6  N   UNL     1      -8.869   8.320  74.198  1.00  0.00     0.007 NA 
ENDROOT
BRANCH   4   7
HETATM    7  C   UNL     1     -10.238   7.048  72.598  1.00  0.00    -0.194 C  
HETATM    8  O   UNL     1     -10.898   6.319  73.336  1.00  0.00    -0.258 OA 
HETATM    9  N   UNL     1     -10.612   7.380  71.297  1.00  0.00    -0.216 N  
HETATM   10  H   UNL     1     -10.065   8.060  70.769  1.00  0.00     0.000 HD 
BRANCH   9  11
HETATM   11  N   UNL     1     -11.745   6.779  70.706  1.00  0.00    -0.367 NA 
HETATM   12  H   UNL     1     -12.509   7.449  70.617  1.00  0.00     0.000 HD 
BRANCH  11  13
HETATM   13  C   UNL     1     -11.448   6.149  69.418  1.00  0.00    -0.186 C  
BRANCH  13  14
HETATM   14  C   UNL     1     -10.127   5.413  69.451  1.00  0.00    -0.304 A  
HETATM   15  C   UNL     1      -9.976   4.253  70.224  1.00  0.00    -0.203 A  
HETATM   16  C   UNL     1      -8.756   3.571  70.249  1.00  0.00    -0.120 A  
HETATM   17  C   UNL     1      -7.677   4.039  69.503  1.00  0.00    -0.053 A  
HETATM   18  C   UNL     1      -7.816   5.188  68.725  1.00  0.00    -0.079 A  
HETATM   19  C   UNL     1      -9.034   5.867  68.695  1.00  0.00    -0.116 A  
ENDBRANCH  13  14
ENDBRANCH  11  13
ENDBRANCH   9  11
ENDBRANCH   4   7
TORSDOF 4
ENDMDL
MODEL      239
REMARK 921   NORMALIZED FREE ENERGY PREDICTED BY IDOCK:   -2.60 KCAL/MOL
REMARK 922        TOTAL FREE ENERGY PREDICTED BY IDOCK:   -3.42 KCAL/MOL
REMARK 923 INTER-LIGAND FREE ENERGY PREDICTED BY IDOCK:   -3.19 KCAL/MOL
REMARK 924 INTRA-LIGAND FREE ENERGY PREDICTED BY IDOCK:   -0.24 KCAL/MOL
REMARK 927      BINDING AFFINITY PREDICTED BY RF-SCORE:    0.00 PKD
ROOT
HETATM    1  C   UNL     1      -6.771   2.115  63.556  1.00  0.00    -0.030 C  
HETATM    2  C   UNL     1      -7.063   3.153  64.559  1.00  0.00    -0.057 A  
HETATM    3  C   UNL     1      -7.718   3.165  65.764  1.00  0.00    -0.084 A  
HETATM    4  C   UNL     1      -7.614   4.506  66.218  1.00  0.00    -0.090 A  
HETATM    5  O   UNL     1      -6.601   4.404  64.291  1.00  0.00    -0.040 OA 
HETATM    6  N   UNL     1      -6.945   5.259  65.324  1.00  0.00    -0.060 NA 
ENDROOT
BRANCH   4   7
HETATM    7  C   UNL     1      -8.125   5.055  67.473  1.00  0.00    -0.099 C  
HETATM    8  O   UNL     1      -8.462   4.337  68.414  1.00  0.00    -0.091 OA 
HETATM    9  N   UNL     1      -8.174   6.447  67.502  1.00  0.00    -0.117 N  
HETATM   10  H   UNL     1      -7.797   6.985  66.721  1.00  0.00     0.000 HD 
BRANCH   9  11
HETATM   11  N   UNL     1      -8.743   7.118  68.607  1.00  0.00    -0.127 NA 
HETATM   12  H   UNL     1      -8.302   8.027  68.749  1.00  0.00     0.000 HD 
BRANCH  11  13
HETATM   13  C   UNL     1     -10.197   7.251  68.504  1.00  0.00    -0.181 C  
BRANCH  13  14
HETATM   14  C   UNL     1     -10.828   7.513  69.854  1.00  0.00    -0.250 A  
HETATM   15  C   UNL     1     -11.575   6.516  70.498  1.00  0.00    -0.455 A  
HETATM   16  C   UNL     1     -12.153   6.759  71.747  1.00  0.00    -0.393 A  
HETATM   17  C   UNL     1     -11.991   7.996  72.365  1.00  0.00    -0.405 A  
HETATM   18  C   UNL     1     -11.246   8.993  71.738  1.00  0.00    -0.448 A  
HETATM   19  C   UNL     1     -10.664   8.753  70.494  1.00  0.00    -0.259 A  
ENDBRANCH  13  14
ENDBRANCH  11  13
ENDBRANCH   9  11
ENDBRANCH   4   7
TORSDOF 4
ENDMDL
MODEL      240
REMARK 921   NORMALIZED FREE ENERGY PREDICTED BY IDOCK:   -2.58 KCAL/MOL
REMARK 922        TOTAL FREE ENERGY PREDICTED BY IDOCK:   -3.40 KCAL/MOL
REMARK 923 INTER-LIGAND FREE ENERGY PREDICTED BY IDOCK:   -3.12 KCAL/MOL
REMARK 924 INTRA-LIGAND FREE ENERGY PREDICTED BY IDOCK:   -0.28 KCAL/MOL
REMARK 927      BINDING AFFINITY PREDICTED BY RF-SCORE:    0.00 PKD
ROOT
HETATM    1  C   UNL     1     -12.333   8.283  72.552  1.00  0.00    -0.335 C  
HETATM    2  C   UNL     1     -11.610   7.737  71.391  1.00  0.00    -0.276 A  
HETATM    3  C   UNL     1     -11.105   6.503  71.069  1.00  0.00    -0.339 A  
HETATM    4  C   UNL     1     -10.540   6.669  69.779  1.00  0.00    -0.228 A  
HETATM    5  O   UNL     1     -11.358   8.601  70.370  1.00  0.00    -0.257 OA 
HETATM    6  N   UNL     1     -10.684   7.940  69.357  1.00  0.00    -0.207 NA 
ENDROOT
BRANCH   4   7
HETATM    7  C   UNL     1      -9.890   5.645  68.961  1.00  0.00    -0.158 C  
HETATM    8  O   UNL     1      -9.953   4.448  69.237  1.00  0.00    -0.183 OA 
HETATM    9  N   UNL     1      -9.221   6.152  67.849  1.00  0.00    -0.117 N  
HETATM   10  H   UNL     1      -9.282   7.146  67.628  1.00  0.00     0.000 HD 
BRANCH   9  11
HETATM   11  N   UNL     1      -8.459   5.295  67.024  1.00  0.00    -0.107 NA 
HETATM   12  H   UNL     1      -8.708   4.319  67.183  1.00  0.00     0.000 HD 
BRANCH  11  13
HETATM   13  C   UNL     1      -8.558   5.636  65.604  1.00  0.00    -0.150 C  
BRANCH  13  14
HETATM   14  C   UNL     1      -8.990   4.447  64.775  1.00  0.00    -0.149 A  
HETATM   15  C   UNL     1      -8.045   3.684  64.073  1.00  0.00    -0.089 A  
HETATM   16  C   UNL     1      -8.447   2.583  63.312  1.00  0.00    -0.085 A  
HETATM   17  C   UNL     1      -9.792   2.231  63.245  1.00  0.00    -0.113 A  
HETATM   18  C   UNL     1     -10.741   2.977  63.943  1.00  0.00    -0.116 A  
HETATM   19  C   UNL     1     -10.343   4.074  64.707  1.00  0.00    -0.212 A  
ENDBRANCH  13  14
ENDBRANCH  11  13
ENDBRANCH   9  11
ENDBRANCH   4   7
TORSDOF 4
ENDMDL
MODEL      241
REMARK 921   NORMALIZED FREE ENERGY PREDICTED BY IDOCK:   -2.52 KCAL/MOL
REMARK 922        TOTAL FREE ENERGY PREDICTED BY IDOCK:   -3.33 KCAL/MOL
REMARK 923 INTER-LIGAND FREE ENERGY PREDICTED BY IDOCK:   -2.97 KCAL/MOL
REMARK 924 INTRA-LIGAND FREE ENERGY PREDICTED BY IDOCK:   -0.36 KCAL/MOL
REMARK 927      BINDING AFFINITY PREDICTED BY RF-SCORE:    0.00 PKD
ROOT
HETATM    1  C   UNL     1      -6.794  15.812  68.655  1.00  0.00    -0.122 C  
HETATM    2  C   UNL     1      -8.051  15.054  68.530  1.00  0.00    -0.148 A  
HETATM    3  C   UNL     1      -8.462  13.998  67.758  1.00  0.00    -0.184 A  
HETATM    4  C   UNL     1      -9.801  13.756  68.161  1.00  0.00    -0.239 A  
HETATM    5  O   UNL     1      -9.074  15.438  69.341  1.00  0.00    -0.248 OA 
HETATM    6  N   UNL     1     -10.176  14.630  69.113  1.00  0.00    -0.221 NA 
ENDROOT
BRANCH   4   7
HETATM    7  C   UNL     1     -10.697  12.712  67.664  1.00  0.00    -0.218 C  
HETATM    8  O   UNL     1     -11.902  12.901  67.509  1.00  0.00    -0.360 OA 
HETATM    9  N   UNL     1     -10.054  11.510  67.371  1.00  0.00    -0.189 N  
HETATM   10  H   UNL     1      -9.039  11.447  67.438  1.00  0.00     0.000 HD 
BRANCH   9  11
HETATM   11  N   UNL     1     -10.804  10.378  66.982  1.00  0.00    -0.240 NA 
HETATM   12  H   UNL     1     -11.803  10.539  67.112  1.00  0.00     0.000 HD 
BRANCH  11  13
HETATM   13  C   UNL     1     -10.517   9.949  65.612  1.00  0.00     0.097 C  
BRANCH  13  14
HETATM   14  C   UNL     1      -9.237   9.146  65.537  1.00  0.00    -0.287 A  
HETATM   15  C   UNL     1      -9.037   8.041  66.377  1.00  0.00    -0.226 A  
HETATM   16  C   UNL     1      -7.856   7.298  66.303  1.00  0.00    -0.106 A  
HETATM   17  C   UNL     1      -6.865   7.649  65.391  1.00  0.00    -0.045 A  
HETATM   18  C   UNL     1      -7.053   8.741  64.546  1.00  0.00    -0.085 A  
HETATM   19  C   UNL     1      -8.232   9.482  64.615  1.00  0.00    -0.146 A  
ENDBRANCH  13  14
ENDBRANCH  11  13
ENDBRANCH   9  11
ENDBRANCH   4   7
TORSDOF 4
ENDMDL
MODEL      242
REMARK 921   NORMALIZED FREE ENERGY PREDICTED BY IDOCK:   -2.47 KCAL/MOL
REMARK 922        TOTAL FREE ENERGY PREDICTED BY IDOCK:   -3.26 KCAL/MOL
REMARK 923 INTER-LIGAND FREE ENERGY PREDICTED BY IDOCK:   -3.11 KCAL/MOL
REMARK 924 INTRA-LIGAND FREE ENERGY PREDICTED BY IDOCK:   -0.15 KCAL/MOL
REMARK 927      BINDING AFFINITY PREDICTED BY RF-SCORE:    0.00 PKD
ROOT
HETATM    1  C   UNL     1     -13.140  11.297  70.336  1.00  0.00     0.166 C  
HETATM    2  C   UNL     1     -12.044  10.723  69.537  1.00  0.00    -0.272 A  
HETATM    3  C   UNL     1     -11.100   9.754  69.762  1.00  0.00    -0.272 A  
HETATM    4  C   UNL     1     -10.358   9.686  68.554  1.00  0.00    -0.205 A  
HETATM    5  O   UNL     1     -11.881  11.221  68.282  1.00  0.00    -0.516 OA 
HETATM    6  N   UNL     1     -10.823  10.578  67.660  1.00  0.00    -0.279 NA 
ENDROOT
BRANCH   4   7
HETATM    7  C   UNL     1      -9.243   8.788  68.253  1.00  0.00    -0.140 C  
HETATM    8  O   UNL     1      -8.104   9.203  68.046  1.00  0.00    -0.104 OA 
HETATM    9  N   UNL     1      -9.593   7.439  68.243  1.00  0.00    -0.149 N  
HETATM   10  H   UNL     1     -10.536   7.156  68.510  1.00  0.00     0.000 HD 
BRANCH   9  11
HETATM   11  N   UNL     1      -8.647   6.461  67.865  1.00  0.00    -0.117 NA 
HETATM   12  H   UNL     1      -8.022   6.817  67.142  1.00  0.00     0.000 HD 
BRANCH  11  13
HETATM   13  C   UNL     1      -7.887   5.935  69.001  1.00  0.00    -0.095 C  
BRANCH  13  14
HETATM   14  C   UNL     1      -8.726   5.894  70.259  1.00  0.00    -0.142 A  
HETATM   15  C   UNL     1      -8.696   6.959  71.171  1.00  0.00    -0.135 A  
HETATM   16  C   UNL     1      -9.475   6.921  72.331  1.00  0.00    -0.153 A  
HETATM   17  C   UNL     1     -10.291   5.823  72.590  1.00  0.00    -0.229 A  
HETATM   18  C   UNL     1     -10.335   4.761  71.689  1.00  0.00    -0.215 A  
HETATM   19  C   UNL     1      -9.562   4.798  70.529  1.00  0.00    -0.258 A  
ENDBRANCH  13  14
ENDBRANCH  11  13
ENDBRANCH   9  11
ENDBRANCH   4   7
TORSDOF 4
ENDMDL
MODEL      243
REMARK 921   NORMALIZED FREE ENERGY PREDICTED BY IDOCK:   -2.42 KCAL/MOL
REMARK 922        TOTAL FREE ENERGY PREDICTED BY IDOCK:   -3.20 KCAL/MOL
REMARK 923 INTER-LIGAND FREE ENERGY PREDICTED BY IDOCK:   -2.90 KCAL/MOL
REMARK 924 INTRA-LIGAND FREE ENERGY PREDICTED BY IDOCK:   -0.30 KCAL/MOL
REMARK 927      BINDING AFFINITY PREDICTED BY RF-SCORE:    0.00 PKD
ROOT
HETATM    1  C   UNL     1     -11.832  12.773  69.317  1.00  0.00    -0.358 C  
HETATM    2  C   UNL     1     -10.918  11.723  68.837  1.00  0.00    -0.239 A  
HETATM    3  C   UNL     1     -10.681  10.420  69.195  1.00  0.00    -0.266 A  
HETATM    4  C   UNL     1      -9.671   9.978  68.302  1.00  0.00    -0.141 A  
HETATM    5  O   UNL     1     -10.098  12.057  67.804  1.00  0.00    -0.187 OA 
HETATM    6  N   UNL     1      -9.311  10.969  67.465  1.00  0.00    -0.158 NA 
ENDROOT
BRANCH   4   7
HETATM    7  C   UNL     1      -9.072   8.645  68.237  1.00  0.00    -0.141 C  
HETATM    8  O   UNL     1      -7.876   8.453  68.447  1.00  0.00    -0.109 OA 
HETATM    9  N   UNL     1      -9.982   7.633  67.937  1.00  0.00    -0.161 N  
HETATM   10  H   UNL     1     -10.976   7.848  67.861  1.00  0.00     0.000 HD 
BRANCH   9  11
HETATM   11  N   UNL     1      -9.532   6.308  67.737  1.00  0.00    -0.119 NA 
HETATM   12  H   UNL     1      -9.475   5.805  68.623  1.00  0.00     0.000 HD 
BRANCH  11  13
HETATM   13  C   UNL     1     -10.346   5.572  66.768  1.00  0.00    -0.269 C  
BRANCH  13  14
HETATM   14  C   UNL     1      -9.500   5.004  65.650  1.00  0.00    -0.153 A  
HETATM   15  C   UNL     1      -9.912   3.859  64.953  1.00  0.00    -0.198 A  
HETATM   16  C   UNL     1      -9.131   3.339  63.918  1.00  0.00    -0.101 A  
HETATM   17  C   UNL     1      -7.933   3.956  63.567  1.00  0.00    -0.087 A  
HETATM   18  C   UNL     1      -7.514   5.097  64.248  1.00  0.00    -0.065 A  
HETATM   19  C   UNL     1      -8.294   5.622  65.279  1.00  0.00    -0.146 A  
ENDBRANCH  13  14
ENDBRANCH  11  13
ENDBRANCH   9  11
ENDBRANCH   4   7
TORSDOF 4
ENDMDL
MODEL      244
REMARK 921   NORMALIZED FREE ENERGY PREDICTED BY IDOCK:   -2.40 KCAL/MOL
REMARK 922        TOTAL FREE ENERGY PREDICTED BY IDOCK:   -3.18 KCAL/MOL
REMARK 923 INTER-LIGAND FREE ENERGY PREDICTED BY IDOCK:   -2.89 KCAL/MOL
REMARK 924 INTRA-LIGAND FREE ENERGY PREDICTED BY IDOCK:   -0.29 KCAL/MOL
REMARK 927      BINDING AFFINITY PREDICTED BY RF-SCORE:    0.00 PKD
ROOT
HETATM    1  C   UNL     1     -12.134  11.991  69.649  1.00  0.00    -0.295 C  
HETATM    2  C   UNL     1     -11.222  11.125  68.881  1.00  0.00    -0.256 A  
HETATM    3  C   UNL     1     -10.749   9.848  69.043  1.00  0.00    -0.244 A  
HETATM    4  C   UNL     1      -9.914   9.627  67.917  1.00  0.00    -0.166 A  
HETATM    5  O   UNL     1     -10.702  11.651  67.739  1.00  0.00    -0.190 OA 
HETATM    6  N   UNL     1      -9.878  10.719  67.131  1.00  0.00    -0.181 NA 
ENDROOT
BRANCH   4   7
HETATM    7  C   UNL     1      -9.180   8.405  67.589  1.00  0.00    -0.134 C  
HETATM    8  O   UNL     1      -7.982   8.414  67.311  1.00  0.00    -0.103 OA 
HETATM    9  N   UNL     1      -9.957   7.249  67.642  1.00  0.00    -0.152 N  
HETATM   10  H   UNL     1     -10.923   7.300  67.965  1.00  0.00     0.000 HD 
BRANCH   9  11
HETATM   11  N   UNL     1      -9.412   6.006  67.249  1.00  0.00    -0.112 NA 
HETATM   12  H   UNL     1      -8.447   5.915  67.565  1.00  0.00     0.000 HD 
BRANCH  11  13
HETATM   13  C   UNL     1     -10.218   4.867  67.690  1.00  0.00    -0.076 C  
BRANCH  13  14
HETATM   14  C   UNL     1      -9.585   4.162  68.870  1.00  0.00    -0.222 A  
HETATM   15  C   UNL     1      -8.584   3.201  68.675  1.00  0.00    -0.123 A  
HETATM   16  C   UNL     1      -7.998   2.555  69.767  1.00  0.00    -0.053 A  
HETATM   17  C   UNL     1      -8.404   2.863  71.062  1.00  0.00    -0.087 A  
HETATM   18  C   UNL     1      -9.394   3.821  71.271  1.00  0.00    -0.215 A  
HETATM   19  C   UNL     1      -9.978   4.470  70.184  1.00  0.00    -0.278 A  
ENDBRANCH  13  14
ENDBRANCH  11  13
ENDBRANCH   9  11
ENDBRANCH   4   7
TORSDOF 4
ENDMDL
MODEL      245
REMARK 921   NORMALIZED FREE ENERGY PREDICTED BY IDOCK:   -2.37 KCAL/MOL
REMARK 922        TOTAL FREE ENERGY PREDICTED BY IDOCK:   -3.14 KCAL/MOL
REMARK 923 INTER-LIGAND FREE ENERGY PREDICTED BY IDOCK:   -3.68 KCAL/MOL
REMARK 924 INTRA-LIGAND FREE ENERGY PREDICTED BY IDOCK:    0.55 KCAL/MOL
REMARK 927      BINDING AFFINITY PREDICTED BY RF-SCORE:    0.00 PKD
ROOT
HETATM    1  C   UNL     1      -5.848   8.560  72.849  1.00  0.00    -0.074 C  
HETATM    2  C   UNL     1      -7.269   8.602  72.461  1.00  0.00     0.036 A  
HETATM    3  C   UNL     1      -7.935   8.844  71.288  1.00  0.00    -0.172 A  
HETATM    4  C   UNL     1      -9.309   8.707  71.618  1.00  0.00    -0.263 A  
HETATM    5  O   UNL     1      -8.174   8.347  73.444  1.00  0.00    -0.312 OA 
HETATM    6  N   UNL     1      -9.456   8.415  72.924  1.00  0.00    -0.245 NA 
ENDROOT
BRANCH   4   7
HETATM    7  C   UNL     1     -10.451   8.839  70.714  1.00  0.00    -0.219 C  
HETATM    8  O   UNL     1     -10.760   7.957  69.915  1.00  0.00    -0.244 OA 
HETATM    9  N   UNL     1     -11.151  10.036  70.861  1.00  0.00    -0.339 N  
HETATM   10  H   UNL     1     -10.895  10.687  71.603  1.00  0.00     0.000 HD 
BRANCH   9  11
HETATM   11  N   UNL     1     -12.214  10.351  69.986  1.00  0.00    -0.472 NA 
HETATM   12  H   UNL     1     -13.115  10.143  70.417  1.00  0.00     0.000 HD 
BRANCH  11  13
HETATM   13  C   UNL     1     -12.168  11.734  69.510  1.00  0.00    -0.169 C  
BRANCH  13  14
HETATM   14  C   UNL     1     -10.816  12.075  68.923  1.00  0.00    -0.252 A  
HETATM   15  C   UNL     1     -10.459  13.409  68.678  1.00  0.00    -0.237 A  
HETATM   16  C   UNL     1      -9.208  13.721  68.140  1.00  0.00    -0.199 A  
HETATM   17  C   UNL     1      -8.301  12.707  67.842  1.00  0.00    -0.172 A  
HETATM   18  C   UNL     1      -8.640  11.378  68.086  1.00  0.00    -0.153 A  
HETATM   19  C   UNL     1      -9.887  11.063  68.628  1.00  0.00    -0.197 A  
ENDBRANCH  13  14
ENDBRANCH  11  13
ENDBRANCH   9  11
ENDBRANCH   4   7
TORSDOF 4
ENDMDL
MODEL      246
REMARK 921   NORMALIZED FREE ENERGY PREDICTED BY IDOCK:   -2.32 KCAL/MOL
REMARK 922        TOTAL FREE ENERGY PREDICTED BY IDOCK:   -3.08 KCAL/MOL
REMARK 923 INTER-LIGAND FREE ENERGY PREDICTED BY IDOCK:   -2.83 KCAL/MOL
REMARK 924 INTRA-LIGAND FREE ENERGY PREDICTED BY IDOCK:   -0.25 KCAL/MOL
REMARK 927      BINDING AFFINITY PREDICTED BY RF-SCORE:    0.00 PKD
ROOT
HETATM    1  C   UNL     1     -12.059  14.491  69.034  1.00  0.00    -0.286 C  
HETATM    2  C   UNL     1     -10.708  14.305  68.479  1.00  0.00    -0.255 A  
HETATM    3  C   UNL     1      -9.987  13.218  68.055  1.00  0.00    -0.233 A  
HETATM    4  C   UNL     1      -8.748  13.755  67.618  1.00  0.00    -0.185 A  
HETATM    5  O   UNL     1      -9.955  15.427  68.323  1.00  0.00    -0.211 OA 
HETATM    6  N   UNL     1      -8.724  15.091  67.787  1.00  0.00    -0.160 NA 
ENDROOT
BRANCH   4   7
HETATM    7  C   UNL     1      -7.621  13.021  67.043  1.00  0.00     0.105 C  
HETATM    8  O   UNL     1      -6.454  13.368  67.218  1.00  0.00    -0.267 OA 
HETATM    9  N   UNL     1      -7.997  11.898  66.307  1.00  0.00    -0.377 N  
HETATM   10  H   UNL     1      -8.976  11.616  66.275  1.00  0.00     0.000 HD 
BRANCH   9  11
HETATM   11  N   UNL     1      -7.026  11.149  65.606  1.00  0.00    -0.367 NA 
HETATM   12  H   UNL     1      -6.104  11.578  65.689  1.00  0.00     0.000 HD 
BRANCH  11  13
HETATM   13  C   UNL     1      -6.989   9.743  66.013  1.00  0.00    -0.099 C  
BRANCH  13  14
HETATM   14  C   UNL     1      -6.871   8.822  64.819  1.00  0.00    -0.073 A  
HETATM   15  C   UNL     1      -5.676   8.748  64.089  1.00  0.00    -0.065 A  
HETATM   16  C   UNL     1      -5.569   7.893  62.989  1.00  0.00    -0.055 A  
HETATM   17  C   UNL     1      -6.650   7.102  62.609  1.00  0.00    -0.053 A  
HETATM   18  C   UNL     1      -7.841   7.161  63.330  1.00  0.00    -0.104 A  
HETATM   19  C   UNL     1      -7.950   8.011  64.431  1.00  0.00    -0.145 A  
ENDBRANCH  13  14
ENDBRANCH  11  13
ENDBRANCH   9  11
ENDBRANCH   4   7
TORSDOF 4
ENDMDL
MODEL      247
REMARK 921   NORMALIZED FREE ENERGY PREDICTED BY IDOCK:   -2.31 KCAL/MOL
REMARK 922        TOTAL FREE ENERGY PREDICTED BY IDOCK:   -3.06 KCAL/MOL
REMARK 923 INTER-LIGAND FREE ENERGY PREDICTED BY IDOCK:   -3.09 KCAL/MOL
REMARK 924 INTRA-LIGAND FREE ENERGY PREDICTED BY IDOCK:    0.03 KCAL/MOL
REMARK 927      BINDING AFFINITY PREDICTED BY RF-SCORE:    0.00 PKD
ROOT
HETATM    1  C   UNL     1      -8.985   9.094  65.758  1.00  0.00    -0.237 C  
HETATM    2  C   UNL     1      -8.183  10.263  66.158  1.00  0.00    -0.138 A  
HETATM    3  C   UNL     1      -8.427  11.379  66.916  1.00  0.00    -0.157 A  
HETATM    4  C   UNL     1      -7.201  12.094  66.909  1.00  0.00     0.000 A  
HETATM    5  O   UNL     1      -6.899  10.301  65.709  1.00  0.00    -0.114 OA 
HETATM    6  N   UNL     1      -6.278  11.448  66.173  1.00  0.00    -0.021 NA 
ENDROOT
BRANCH   4   7
HETATM    7  C   UNL     1      -6.911  13.353  67.595  1.00  0.00    -0.165 C  
HETATM    8  O   UNL     1      -6.050  13.441  68.469  1.00  0.00    -0.074 OA 
HETATM    9  N   UNL     1      -7.682  14.427  67.153  1.00  0.00    -0.339 N  
HETATM   10  H   UNL     1      -8.317  14.306  66.364  1.00  0.00     0.000 HD 
BRANCH   9  11
HETATM   11  N   UNL     1      -7.588  15.683  67.793  1.00  0.00    -0.130 NA 
HETATM   12  H   UNL     1      -7.794  15.601  68.789  1.00  0.00     0.000 HD 
BRANCH  11  13
HETATM   13  C   UNL     1      -6.295  16.335  67.578  1.00  0.00    -0.160 C  
BRANCH  13  14
HETATM   14  C   UNL     1      -6.173  17.608  68.387  1.00  0.00    -0.177 A  
HETATM   15  C   UNL     1      -5.327  17.667  69.503  1.00  0.00    -0.195 A  
HETATM   16  C   UNL     1      -5.213  18.845  70.246  1.00  0.00    -0.215 A  
HETATM   17  C   UNL     1      -5.940  19.975  69.882  1.00  0.00    -0.367 A  
HETATM   18  C   UNL     1      -6.781  19.932  68.771  1.00  0.00    -0.358 A  
HETATM   19  C   UNL     1      -6.893  18.759  68.025  1.00  0.00    -0.244 A  
ENDBRANCH  13  14
ENDBRANCH  11  13
ENDBRANCH   9  11
ENDBRANCH   4   7
TORSDOF 4
ENDMDL
MODEL      248
REMARK 921   NORMALIZED FREE ENERGY PREDICTED BY IDOCK:   -2.31 KCAL/MOL
REMARK 922        TOTAL FREE ENERGY PREDICTED BY IDOCK:   -3.06 KCAL/MOL
REMARK 923 INTER-LIGAND FREE ENERGY PREDICTED BY IDOCK:   -3.61 KCAL/MOL
REMARK 924 INTRA-LIGAND FREE ENERGY PREDICTED BY IDOCK:    0.55 KCAL/MOL
REMARK 927      BINDING AFFINITY PREDICTED BY RF-SCORE:    0.00 PKD
ROOT
HETATM    1  C   UNL     1      -6.286  15.538  68.463  1.00  0.00    -0.098 C  
HETATM    2  C   UNL     1      -7.134  14.376  68.146  1.00  0.00    -0.124 A  
HETATM    3  C   UNL     1      -6.927  13.187  67.496  1.00  0.00    -0.155 A  
HETATM    4  C   UNL     1      -8.176  12.517  67.563  1.00  0.00    -0.175 A  
HETATM    5  O   UNL     1      -8.425  14.433  68.570  1.00  0.00    -0.162 OA 
HETATM    6  N   UNL     1      -9.086  13.272  68.206  1.00  0.00    -0.198 NA 
ENDROOT
BRANCH   4   7
HETATM    7  C   UNL     1      -8.493  11.187  67.042  1.00  0.00    -0.146 C  
HETATM    8  O   UNL     1      -7.620  10.369  66.756  1.00  0.00    -0.104 OA 
HETATM    9  N   UNL     1      -9.860  10.940  66.922  1.00  0.00    -0.184 N  
HETATM   10  H   UNL     1     -10.532  11.629  67.259  1.00  0.00     0.000 HD 
BRANCH   9  11
HETATM   11  N   UNL     1     -10.317   9.740  66.334  1.00  0.00    -0.211 NA 
HETATM   12  H   UNL     1     -10.329   9.813  65.317  1.00  0.00     0.000 HD 
BRANCH  11  13
HETATM   13  C   UNL     1      -9.554   8.568  66.766  1.00  0.00    -0.210 C  
BRANCH  13  14
HETATM   14  C   UNL     1     -10.175   7.917  67.982  1.00  0.00    -0.256 A  
HETATM   15  C   UNL     1     -10.572   6.572  67.947  1.00  0.00    -0.313 A  
HETATM   16  C   UNL     1     -11.142   5.972  69.073  1.00  0.00    -0.377 A  
HETATM   17  C   UNL     1     -11.319   6.705  70.243  1.00  0.00    -0.431 A  
HETATM   18  C   UNL     1     -10.923   8.040  70.293  1.00  0.00    -0.242 A  
HETATM   19  C   UNL     1     -10.350   8.641  69.173  1.00  0.00    -0.227 A  
ENDBRANCH  13  14
ENDBRANCH  11  13
ENDBRANCH   9  11
ENDBRANCH   4   7
TORSDOF 4
ENDMDL
MODEL      249
REMARK 921   NORMALIZED FREE ENERGY PREDICTED BY IDOCK:   -2.24 KCAL/MOL
REMARK 922        TOTAL FREE ENERGY PREDICTED BY IDOCK:   -2.98 KCAL/MOL
REMARK 923 INTER-LIGAND FREE ENERGY PREDICTED BY IDOCK:   -2.64 KCAL/MOL
REMARK 924 INTRA-LIGAND FREE ENERGY PREDICTED BY IDOCK:   -0.33 KCAL/MOL
REMARK 927      BINDING AFFINITY PREDICTED BY RF-SCORE:    0.00 PKD
ROOT
HETATM    1  C   UNL     1     -10.837  16.600  67.894  1.00  0.00    -0.321 C  
HETATM    2  C   UNL     1      -9.565  16.023  68.360  1.00  0.00    -0.206 A  
HETATM    3  C   UNL     1      -9.188  14.798  68.848  1.00  0.00    -0.177 A  
HETATM    4  C   UNL     1      -7.795  14.917  69.088  1.00  0.00    -0.171 A  
HETATM    5  O   UNL     1      -8.477  16.838  68.318  1.00  0.00    -0.206 OA 
HETATM    6  N   UNL     1      -7.364  16.154  68.776  1.00  0.00    -0.172 NA 
ENDROOT
BRANCH   4   7
HETATM    7  C   UNL     1      -6.894  13.880  69.590  1.00  0.00     0.011 C  
HETATM    8  O   UNL     1      -5.898  14.145  70.260  1.00  0.00    -0.122 OA 
HETATM    9  N   UNL     1      -7.283  12.585  69.254  1.00  0.00    -0.319 N  
HETATM   10  H   UNL     1      -8.168  12.428  68.771  1.00  0.00     0.000 HD 
BRANCH   9  11
HETATM   11  N   UNL     1      -6.456  11.486  69.579  1.00  0.00    -0.112 NA 
HETATM   12  H   UNL     1      -5.751  11.750  70.267  1.00  0.00     0.000 HD 
BRANCH  11  13
HETATM   13  C   UNL     1      -7.215  10.317  70.029  1.00  0.00    -0.158 C  
BRANCH  13  14
HETATM   14  C   UNL     1      -7.695   9.483  68.862  1.00  0.00    -0.076 A  
HETATM   15  C   UNL     1      -6.790   8.723  68.108  1.00  0.00    -0.069 A  
HETATM   16  C   UNL     1      -7.237   7.949  67.033  1.00  0.00    -0.090 A  
HETATM   17  C   UNL     1      -8.590   7.926  66.703  1.00  0.00    -0.138 A  
HETATM   18  C   UNL     1      -9.500   8.672  67.448  1.00  0.00    -0.187 A  
HETATM   19  C   UNL     1      -9.058   9.441  68.524  1.00  0.00    -0.131 A  
ENDBRANCH  13  14
ENDBRANCH  11  13
ENDBRANCH   9  11
ENDBRANCH   4   7
TORSDOF 4
ENDMDL
MODEL      250
REMARK 921   NORMALIZED FREE ENERGY PREDICTED BY IDOCK:   -2.15 KCAL/MOL
REMARK 922        TOTAL FREE ENERGY PREDICTED BY IDOCK:   -2.87 KCAL/MOL
REMARK 923 INTER-LIGAND FREE ENERGY PREDICTED BY IDOCK:   -2.55 KCAL/MOL
REMARK 924 INTRA-LIGAND FREE ENERGY PREDICTED BY IDOCK:   -0.32 KCAL/MOL
REMARK 927      BINDING AFFINITY PREDICTED BY RF-SCORE:    0.00 PKD
ROOT
HETATM    1  C   UNL     1      -8.454  12.074  67.431  1.00  0.00    -0.170 C  
HETATM    2  C   UNL     1      -8.176  11.239  68.612  1.00  0.00    -0.146 A  
HETATM    3  C   UNL     1      -8.789  10.155  69.186  1.00  0.00    -0.179 A  
HETATM    4  C   UNL     1      -7.978   9.831  70.303  1.00  0.00    -0.162 A  
HETATM    5  O   UNL     1      -7.072  11.562  69.338  1.00  0.00    -0.105 OA 
HETATM    6  N   UNL     1      -6.943  10.686  70.402  1.00  0.00    -0.251 NA 
ENDROOT
BRANCH   4   7
HETATM    7  C   UNL     1      -8.174   8.730  71.247  1.00  0.00    -0.167 C  
HETATM    8  O   UNL     1      -8.549   8.916  72.403  1.00  0.00    -0.399 OA 
HETATM    9  N   UNL     1      -7.915   7.471  70.706  1.00  0.00    -0.102 N  
HETATM   10  H   UNL     1      -7.692   7.380  69.715  1.00  0.00     0.000 HD 
BRANCH   9  11
HETATM   11  N   UNL     1      -7.959   6.321  71.525  1.00  0.00    -0.105 NA 
HETATM   12  H   UNL     1      -8.919   6.094  71.783  1.00  0.00     0.000 HD 
BRANCH  11  13
HETATM   13  C   UNL     1      -7.292   5.167  70.921  1.00  0.00    -0.073 C  
BRANCH  13  14
HETATM   14  C   UNL     1      -7.887   4.823  69.573  1.00  0.00    -0.066 A  
HETATM   15  C   UNL     1      -7.145   5.007  68.398  1.00  0.00    -0.062 A  
HETATM   16  C   UNL     1      -7.695   4.685  67.154  1.00  0.00    -0.090 A  
HETATM   17  C   UNL     1      -8.988   4.175  67.072  1.00  0.00    -0.137 A  
HETATM   18  C   UNL     1      -9.734   3.981  68.233  1.00  0.00    -0.133 A  
HETATM   19  C   UNL     1      -9.186   4.298  69.476  1.00  0.00    -0.207 A  
ENDBRANCH  13  14
ENDBRANCH  11  13
ENDBRANCH   9  11
ENDBRANCH   4   7
TORSDOF 4
ENDMDL
MODEL      251
REMARK 921   NORMALIZED FREE ENERGY PREDICTED BY IDOCK:   -2.08 KCAL/MOL
REMARK 922        TOTAL FREE ENERGY PREDICTED BY IDOCK:   -2.78 KCAL/MOL
REMARK 923 INTER-LIGAND FREE ENERGY PREDICTED BY IDOCK:   -2.46 KCAL/MOL
REMARK 924 INTRA-LIGAND FREE ENERGY PREDICTED BY IDOCK:   -0.33 KCAL/MOL
REMARK 927      BINDING AFFINITY PREDICTED BY RF-SCORE:    0.00 PKD
ROOT
HETATM    1  C   UNL     1      -7.104   1.639  62.706  1.00  0.00    -0.027 C  
HETATM    2  C   UNL     1      -7.635   2.773  63.481  1.00  0.00    -0.063 A  
HETATM    3  C   UNL     1      -8.716   2.947  64.308  1.00  0.00    -0.095 A  
HETATM    4  C   UNL     1      -8.626   4.296  64.740  1.00  0.00    -0.127 A  
HETATM    5  O   UNL     1      -6.941   3.941  63.404  1.00  0.00    -0.042 OA 
HETATM    6  N   UNL     1      -7.558   4.901  64.188  1.00  0.00    -0.067 NA 
ENDROOT
BRANCH   4   7
HETATM    7  C   UNL     1      -9.525   4.988  65.663  1.00  0.00    -0.141 C  
HETATM    8  O   UNL     1     -10.669   4.596  65.882  1.00  0.00    -0.307 OA 
HETATM    9  N   UNL     1      -8.956   6.106  66.272  1.00  0.00    -0.151 N  
HETATM   10  H   UNL     1      -7.973   6.326  66.113  1.00  0.00     0.000 HD 
BRANCH   9  11
HETATM   11  N   UNL     1      -9.736   6.936  67.107  1.00  0.00    -0.146 NA 
HETATM   12  H   UNL     1     -10.585   6.457  67.407  1.00  0.00     0.000 HD 
BRANCH  11  13
HETATM   13  C   UNL     1      -8.989   7.446  68.259  1.00  0.00    -0.130 C  
BRANCH  13  14
HETATM   14  C   UNL     1      -9.275   6.642  69.508  1.00  0.00    -0.143 A  
HETATM   15  C   UNL     1     -10.460   6.842  70.230  1.00  0.00    -0.227 A  
HETATM   16  C   UNL     1     -10.723   6.095  71.381  1.00  0.00    -0.308 A  
HETATM   17  C   UNL     1      -9.810   5.141  71.821  1.00  0.00    -0.228 A  
HETATM   18  C   UNL     1      -8.631   4.927  71.109  1.00  0.00    -0.131 A  
HETATM   19  C   UNL     1      -8.367   5.669  69.957  1.00  0.00    -0.121 A  
ENDBRANCH  13  14
ENDBRANCH  11  13
ENDBRANCH   9  11
ENDBRANCH   4   7
TORSDOF 4
ENDMDL
MODEL      252
REMARK 921   NORMALIZED FREE ENERGY PREDICTED BY IDOCK:   -2.05 KCAL/MOL
REMARK 922        TOTAL FREE ENERGY PREDICTED BY IDOCK:   -2.75 KCAL/MOL
REMARK 923 INTER-LIGAND FREE ENERGY PREDICTED BY IDOCK:   -2.66 KCAL/MOL
REMARK 924 INTRA-LIGAND FREE ENERGY PREDICTED BY IDOCK:   -0.09 KCAL/MOL
REMARK 927      BINDING AFFINITY PREDICTED BY RF-SCORE:    0.00 PKD
ROOT
HETATM    1  C   UNL     1     -11.097  15.716  68.450  1.00  0.00    -0.326 C  
HETATM    2  C   UNL     1      -9.687  15.426  68.138  1.00  0.00    -0.212 A  
HETATM    3  C   UNL     1      -8.959  14.276  67.970  1.00  0.00    -0.183 A  
HETATM    4  C   UNL     1      -7.646  14.722  67.667  1.00  0.00    -0.174 A  
HETATM    5  O   UNL     1      -8.870  16.500  67.963  1.00  0.00    -0.191 OA 
HETATM    6  N   UNL     1      -7.588  16.067  67.670  1.00  0.00    -0.136 NA 
ENDROOT
BRANCH   4   7
HETATM    7  C   UNL     1      -6.479  13.891  67.370  1.00  0.00     0.105 C  
HETATM    8  O   UNL     1      -5.334  14.246  67.645  1.00  0.00    -0.309 OA 
HETATM    9  N   UNL     1      -6.792  12.672  66.771  1.00  0.00    -0.229 N  
HETATM   10  H   UNL     1      -7.768  12.401  66.651  1.00  0.00     0.000 HD 
BRANCH   9  11
HETATM   11  N   UNL     1      -5.764  11.810  66.331  1.00  0.00    -0.486 NA 
HETATM   12  H   UNL     1      -4.934  12.338  66.063  1.00  0.00     0.000 HD 
BRANCH  11  13
HETATM   13  C   UNL     1      -5.431  10.774  67.311  1.00  0.00    -0.042 C  
BRANCH  13  14
HETATM   14  C   UNL     1      -6.315   9.557  67.155  1.00  0.00    -0.065 A  
HETATM   15  C   UNL     1      -7.711   9.676  67.212  1.00  0.00    -0.091 A  
HETATM   16  C   UNL     1      -8.526   8.550  67.063  1.00  0.00    -0.114 A  
HETATM   17  C   UNL     1      -7.957   7.297  66.855  1.00  0.00    -0.112 A  
HETATM   18  C   UNL     1      -6.571   7.165  66.791  1.00  0.00    -0.055 A  
HETATM   19  C   UNL     1      -5.755   8.287  66.935  1.00  0.00    -0.041 A  
ENDBRANCH  13  14
ENDBRANCH  11  13
ENDBRANCH   9  11
ENDBRANCH   4   7
TORSDOF 4
ENDMDL
MODEL      253
REMARK 921   NORMALIZED FREE ENERGY PREDICTED BY IDOCK:   -2.01 KCAL/MOL
REMARK 922        TOTAL FREE ENERGY PREDICTED BY IDOCK:   -2.70 KCAL/MOL
REMARK 923 INTER-LIGAND FREE ENERGY PREDICTED BY IDOCK:   -2.79 KCAL/MOL
REMARK 924 INTRA-LIGAND FREE ENERGY PREDICTED BY IDOCK:    0.09 KCAL/MOL
REMARK 927      BINDING AFFINITY PREDICTED BY RF-SCORE:    0.00 PKD
ROOT
HETATM    1  C   UNL     1     -12.227  10.855  69.332  1.00  0.00    -0.293 C  
HETATM    2  C   UNL     1     -11.120  10.612  68.391  1.00  0.00    -0.272 A  
HETATM    3  C   UNL     1     -10.382   9.509  68.044  1.00  0.00    -0.260 A  
HETATM    4  C   UNL     1      -9.479   9.977  67.054  1.00  0.00    -0.164 A  
HETATM    5  O   UNL     1     -10.687  11.682  67.672  1.00  0.00    -0.192 OA 
HETATM    6  N   UNL     1      -9.656  11.293  66.834  1.00  0.00    -0.188 NA 
ENDROOT
BRANCH   4   7
HETATM    7  C   UNL     1      -8.481   9.192  66.328  1.00  0.00    -0.124 C  
HETATM    8  O   UNL     1      -7.285   9.478  66.341  1.00  0.00    -0.087 OA 
HETATM    9  N   UNL     1      -9.011   8.096  65.649  1.00  0.00    -0.344 N  
HETATM   10  H   UNL     1      -9.999   7.864  65.751  1.00  0.00     0.000 HD 
BRANCH   9  11
HETATM   11  N   UNL     1      -8.186   7.306  64.819  1.00  0.00    -0.280 NA 
HETATM   12  H   UNL     1      -7.298   7.100  65.276  1.00  0.00     0.000 HD 
BRANCH  11  13
HETATM   13  C   UNL     1      -8.841   6.076  64.370  1.00  0.00     0.381 C  
BRANCH  13  14
HETATM   14  C   UNL     1      -8.978   5.076  65.497  1.00  0.00    -0.151 A  
HETATM   15  C   UNL     1      -9.681   5.407  66.664  1.00  0.00    -0.174 A  
HETATM   16  C   UNL     1      -9.809   4.480  67.702  1.00  0.00    -0.181 A  
HETATM   17  C   UNL     1      -9.240   3.215  67.584  1.00  0.00    -0.237 A  
HETATM   18  C   UNL     1      -8.544   2.870  66.427  1.00  0.00    -0.116 A  
HETATM   19  C   UNL     1      -8.418   3.792  65.388  1.00  0.00    -0.109 A  
ENDBRANCH  13  14
ENDBRANCH  11  13
ENDBRANCH   9  11
ENDBRANCH   4   7
TORSDOF 4
ENDMDL
MODEL      254
REMARK 921   NORMALIZED FREE ENERGY PREDICTED BY IDOCK:   -1.98 KCAL/MOL
REMARK 922        TOTAL FREE ENERGY PREDICTED BY IDOCK:   -2.66 KCAL/MOL
REMARK 923 INTER-LIGAND FREE ENERGY PREDICTED BY IDOCK:   -2.39 KCAL/MOL
REMARK 924 INTRA-LIGAND FREE ENERGY PREDICTED BY IDOCK:   -0.27 KCAL/MOL
REMARK 927      BINDING AFFINITY PREDICTED BY RF-SCORE:    0.00 PKD
ROOT
HETATM    1  C   UNL     1     -10.466  14.037  67.571  1.00  0.00    -0.252 C  
HETATM    2  C   UNL     1      -9.688  12.791  67.683  1.00  0.00    -0.205 A  
HETATM    3  C   UNL     1      -9.829  11.635  68.407  1.00  0.00    -0.202 A  
HETATM    4  C   UNL     1      -8.724  10.831  68.022  1.00  0.00    -0.132 A  
HETATM    5  O   UNL     1      -8.566  12.704  66.919  1.00  0.00    -0.200 OA 
HETATM    6  N   UNL     1      -7.955  11.480  67.128  1.00  0.00    -0.152 NA 
ENDROOT
BRANCH   4   7
HETATM    7  C   UNL     1      -8.414   9.478  68.483  1.00  0.00    -0.119 C  
HETATM    8  O   UNL     1      -7.296   8.982  68.356  1.00  0.00    -0.077 OA 
HETATM    9  N   UNL     1      -9.489   8.828  69.086  1.00  0.00    -0.156 N  
HETATM   10  H   UNL     1     -10.365   9.328  69.239  1.00  0.00     0.000 HD 
BRANCH   9  11
HETATM   11  N   UNL     1      -9.372   7.478  69.486  1.00  0.00    -0.153 NA 
HETATM   12  H   UNL     1      -8.517   7.061  69.118  1.00  0.00     0.000 HD 
BRANCH  11  13
HETATM   13  C   UNL     1      -9.454   7.306  70.938  1.00  0.00    -0.159 C  
BRANCH  13  14
HETATM   14  C   UNL     1      -8.829   6.002  71.379  1.00  0.00    -0.136 A  
HETATM   15  C   UNL     1      -9.386   5.263  72.433  1.00  0.00    -0.157 A  
HETATM   16  C   UNL     1      -8.809   4.056  72.836  1.00  0.00    -0.106 A  
HETATM   17  C   UNL     1      -7.673   3.574  72.192  1.00  0.00    -0.059 A  
HETATM   18  C   UNL     1      -7.112   4.294  71.139  1.00  0.00    -0.036 A  
HETATM   19  C   UNL     1      -7.689   5.498  70.731  1.00  0.00    -0.091 A  
ENDBRANCH  13  14
ENDBRANCH  11  13
ENDBRANCH   9  11
ENDBRANCH   4   7
TORSDOF 4
ENDMDL
MODEL      255
REMARK 921   NORMALIZED FREE ENERGY PREDICTED BY IDOCK:   -1.36 KCAL/MOL
REMARK 922        TOTAL FREE ENERGY PREDICTED BY IDOCK:   -1.89 KCAL/MOL
REMARK 923 INTER-LIGAND FREE ENERGY PREDICTED BY IDOCK:   -1.61 KCAL/MOL
REMARK 924 INTRA-LIGAND FREE ENERGY PREDICTED BY IDOCK:   -0.28 KCAL/MOL
REMARK 927      BINDING AFFINITY PREDICTED BY RF-SCORE:    0.00 PKD
ROOT
HETATM    1  C   UNL     1      -9.108  20.515  71.329  1.00  0.00     2.157 C  
HETATM    2  C   UNL     1      -9.335  20.072  69.943  1.00  0.00     0.748 A  
HETATM    3  C   UNL     1      -8.684  19.217  69.091  1.00  0.00    -0.136 A  
HETATM    4  C   UNL     1      -9.455  19.238  67.900  1.00  0.00    -0.325 A  
HETATM    5  O   UNL     1     -10.422  20.590  69.310  1.00  0.00    -0.030 OA 
HETATM    6  N   UNL     1     -10.502  20.074  68.027  1.00  0.00    -0.365 NA 
ENDROOT
BRANCH   4   7
HETATM    7  C   UNL     1      -9.210  18.474  66.677  1.00  0.00    -0.306 C  
HETATM    8  O   UNL     1      -9.015  19.019  65.592  1.00  0.00    -0.284 OA 
HETATM    9  N   UNL     1      -9.203  17.094  66.867  1.00  0.00    -0.234 N  
HETATM   10  H   UNL     1      -9.284  16.709  67.808  1.00  0.00     0.000 HD 
BRANCH   9  11
HETATM   11  N   UNL     1      -9.083  16.223  65.760  1.00  0.00    -0.441 NA 
HETATM   12  H   UNL     1      -8.259  16.451  65.204  1.00  0.00     0.000 HD 
BRANCH  11  13
HETATM   13  C   UNL     1      -9.081  14.811  66.145  1.00  0.00    -0.126 C  
BRANCH  13  14
HETATM   14  C   UNL     1     -10.371  14.125  65.751  1.00  0.00    -0.338 A  
HETATM   15  C   UNL     1     -10.905  13.099  66.542  1.00  0.00    -0.291 A  
HETATM   16  C   UNL     1     -12.098  12.470  66.178  1.00  0.00    -0.357 A  
HETATM   17  C   UNL     1     -12.771  12.860  65.023  1.00  0.00    -0.474 A  
HETATM   18  C   UNL     1     -12.255  13.884  64.231  1.00  0.00    -0.447 A  
HETATM   19  C   UNL     1     -11.066  14.516  64.594  1.00  0.00    -0.356 A  
ENDBRANCH  13  14
ENDBRANCH  11  13
ENDBRANCH   9  11
ENDBRANCH   4   7
TORSDOF 4
ENDMDL
MODEL      256
REMARK 921   NORMALIZED FREE ENERGY PREDICTED BY IDOCK:    5.06 KCAL/MOL
REMARK 922        TOTAL FREE ENERGY PREDICTED BY IDOCK:    6.03 KCAL/MOL
REMARK 923 INTER-LIGAND FREE ENERGY PREDICTED BY IDOCK:    6.12 KCAL/MOL
REMARK 924 INTRA-LIGAND FREE ENERGY PREDICTED BY IDOCK:   -0.09 KCAL/MOL
REMARK 927      BINDING AFFINITY PREDICTED BY RF-SCORE:    0.00 PKD
ROOT
HETATM    1  C   UNL     1     -11.894  10.951  65.185  1.00  0.00     1.453 C  
HETATM    2  C   UNL     1     -11.985  11.819  66.371  1.00  0.00     0.291 A  
HETATM    3  C   UNL     1     -11.110  12.653  67.019  1.00  0.00    -0.322 A  
HETATM    4  C   UNL     1     -11.861  13.202  68.090  1.00  0.00    -0.348 A  
HETATM    5  O   UNL     1     -13.185  11.848  67.012  1.00  0.00     3.744 OA 
HETATM    6  N   UNL     1     -13.115  12.711  68.092  1.00  0.00     2.295 NA 
ENDROOT
BRANCH   4   7
HETATM    7  C   UNL     1     -11.404  14.178  69.079  1.00  0.00    -0.275 C  
HETATM    8  O   UNL     1     -11.662  14.069  70.277  1.00  0.00    -0.277 OA 
HETATM    9  N   UNL     1     -10.646  15.215  68.539  1.00  0.00    -0.232 N  
HETATM   10  H   UNL     1     -10.395  15.200  67.550  1.00  0.00     0.000 HD 
BRANCH   9  11
HETATM   11  N   UNL     1     -10.223  16.289  69.354  1.00  0.00    -0.260 NA 
HETATM   12  H   UNL     1     -10.972  16.589  69.979  1.00  0.00     0.000 HD 
BRANCH  11  13
HETATM   13  C   UNL     1      -9.004  15.986  70.106  1.00  0.00     0.960 C  
BRANCH  13  14
HETATM   14  C   UNL     1      -7.783  16.001  69.213  1.00  0.00    -0.223 A  
HETATM   15  C   UNL     1      -7.484  14.903  68.394  1.00  0.00    -0.115 A  
HETATM   16  C   UNL     1      -6.358  14.920  67.567  1.00  0.00    -0.071 A  
HETATM   17  C   UNL     1      -5.521  16.033  67.548  1.00  0.00    -0.136 A  
HETATM   18  C   UNL     1      -5.810  17.134  68.352  1.00  0.00    -0.140 A  
HETATM   19  C   UNL     1      -6.935  17.121  69.176  1.00  0.00    -0.224 A  
ENDBRANCH  13  14
ENDBRANCH  11  13
ENDBRANCH   9  11
ENDBRANCH   4   7
TORSDOF 4
ENDMDL
MODEL      257
REMARK 921   NORMALIZED FREE ENERGY PREDICTED BY IDOCK:   17.92 KCAL/MOL
REMARK 922        TOTAL FREE ENERGY PREDICTED BY IDOCK:   21.89 KCAL/MOL
REMARK 923 INTER-LIGAND FREE ENERGY PREDICTED BY IDOCK:   21.53 KCAL/MOL
REMARK 924 INTRA-LIGAND FREE ENERGY PREDICTED BY IDOCK:    0.36 KCAL/MOL
REMARK 927      BINDING AFFINITY PREDICTED BY RF-SCORE:    0.00 PKD
ROOT
HETATM    1  C   UNL     1     -12.143  10.793  65.245  1.00  0.00     2.794 C  
HETATM    2  C   UNL     1     -12.382  11.362  66.582  1.00  0.00     2.154 A  
HETATM    3  C   UNL     1     -11.602  12.024  67.496  1.00  0.00    -0.401 A  
HETATM    4  C   UNL     1     -12.475  12.308  68.577  1.00  0.00     0.753 A  
HETATM    5  O   UNL     1     -13.642  11.239  67.079  1.00  0.00     8.512 OA 
HETATM    6  N   UNL     1     -13.708  11.827  68.331  1.00  0.00     6.532 NA 
ENDROOT
BRANCH   4   7
HETATM    7  C   UNL     1     -12.150  13.028  69.808  1.00  0.00    -0.258 C  
HETATM    8  O   UNL     1     -11.688  12.462  70.797  1.00  0.00     0.023 OA 
HETATM    9  N   UNL     1     -12.395  14.399  69.741  1.00  0.00    -0.452 N  
HETATM   10  H   UNL     1     -12.695  14.819  68.862  1.00  0.00     0.000 HD 
BRANCH   9  11
HETATM   11  N   UNL     1     -12.228  15.209  70.886  1.00  0.00    -0.312 NA 
HETATM   12  H   UNL     1     -12.618  14.757  71.713  1.00  0.00     0.000 HD 
BRANCH  11  13
HETATM   13  C   UNL     1     -10.835  15.598  71.110  1.00  0.00    -0.056 C  
BRANCH  13  14
HETATM   14  C   UNL     1     -10.347  16.555  70.045  1.00  0.00     0.031 A  
HETATM   15  C   UNL     1      -9.529  17.642  70.382  1.00  0.00     2.826 A  
HETATM   16  C   UNL     1      -9.076  18.522  69.396  1.00  0.00     0.333 A  
HETATM   17  C   UNL     1      -9.433  18.325  68.064  1.00  0.00    -0.298 A  
HETATM   18  C   UNL     1     -10.240  17.245  67.714  1.00  0.00    -0.332 A  
HETATM   19  C   UNL     1     -10.691  16.362  68.696  1.00  0.00    -0.317 A  
ENDBRANCH  13  14
ENDBRANCH  11  13
ENDBRANCH   9  11
ENDBRANCH   4   7
TORSDOF 4
ENDMDL
MODEL      258
REMARK 921   NORMALIZED FREE ENERGY PREDICTED BY IDOCK:   43.50 KCAL/MOL
REMARK 922        TOTAL FREE ENERGY PREDICTED BY IDOCK:   53.46 KCAL/MOL
REMARK 923 INTER-LIGAND FREE ENERGY PREDICTED BY IDOCK:   53.60 KCAL/MOL
REMARK 924 INTRA-LIGAND FREE ENERGY PREDICTED BY IDOCK:   -0.14 KCAL/MOL
REMARK 927      BINDING AFFINITY PREDICTED BY RF-SCORE:    0.00 PKD
ROOT
HETATM    1  C   UNL     1     -12.167  10.782  65.249  1.00  0.00     3.299 C  
HETATM    2  C   UNL     1     -12.474  11.259  66.608  1.00  0.00     3.089 A  
HETATM    3  C   UNL     1     -11.739  11.843  67.608  1.00  0.00    -0.346 A  
HETATM    4  C   UNL     1     -12.669  12.063  68.657  1.00  0.00     1.518 A  
HETATM    5  O   UNL     1     -13.761  11.120  67.025  1.00  0.00    10.185 OA 
HETATM    6  N   UNL     1     -13.891  11.619  68.310  1.00  0.00     7.887 NA 
ENDROOT
BRANCH   4   7
HETATM    7  C   UNL     1     -12.405  12.690  69.953  1.00  0.00    -0.057 C  
HETATM    8  O   UNL     1     -12.028  12.045  70.929  1.00  0.00    -0.226 OA 
HETATM    9  N   UNL     1     -12.604  14.069  69.962  1.00  0.00    -0.363 N  
HETATM   10  H   UNL     1     -12.832  14.556  69.095  1.00  0.00     0.000 HD 
BRANCH   9  11
HETATM   11  N   UNL     1     -12.490  14.797  71.167  1.00  0.00    -0.305 NA 
HETATM   12  H   UNL     1     -12.967  14.317  71.930  1.00  0.00     0.000 HD 
BRANCH  11  13
HETATM   13  C   UNL     1     -11.102  15.095  71.523  1.00  0.00    -0.154 C  
BRANCH  13  14
HETATM   14  C   UNL     1     -11.003  16.330  72.392  1.00  0.00     1.290 A  
HETATM   15  C   UNL     1     -10.108  16.375  73.470  1.00  0.00     8.910 A  
HETATM   16  C   UNL     1     -10.015  17.518  74.268  1.00  0.00     9.165 A  
HETATM   17  C   UNL     1     -10.813  18.627  73.998  1.00  0.00     2.792 A  
HETATM   18  C   UNL     1     -11.703  18.597  72.926  1.00  0.00     4.958 A  
HETATM   19  C   UNL     1     -11.795  17.459  72.125  1.00  0.00     1.957 A  
ENDBRANCH  13  14
ENDBRANCH  11  13
ENDBRANCH   9  11
ENDBRANCH   4   7
TORSDOF 4
ENDMDL
