MODEL        1
REMARK 921   NORMALIZED FREE ENERGY PREDICTED BY IDOCK:   -6.99 KCAL/MOL
REMARK 922        TOTAL FREE ENERGY PREDICTED BY IDOCK:  -10.46 KCAL/MOL
REMARK 923 INTER-LIGAND FREE ENERGY PREDICTED BY IDOCK:   -9.45 KCAL/MOL
REMARK 924 INTRA-LIGAND FREE ENERGY PREDICTED BY IDOCK:   -1.02 KCAL/MOL
REMARK 927      BINDING AFFINITY PREDICTED BY RF-SCORE:    0.00 PKD
ROOT
HETATM    1 CL   UNL     1      -9.144   7.203  72.926  1.00  0.00    -0.156 Cl 
HETATM    2  C   UNL     1     -10.055   8.307  71.973  1.00  0.00    -0.261 A  
HETATM    3  C   UNL     1     -11.427   8.432  72.181  1.00  0.00    -0.442 A  
HETATM    4  C   UNL     1     -12.161   9.364  71.442  1.00  0.00    -0.356 A  
HETATM    5 CL   UNL     1     -13.860   9.465  71.749  1.00  0.00    -0.382 Cl 
HETATM    6  C   UNL     1     -11.528  10.186  70.496  1.00  0.00    -0.417 A  
HETATM    7  C   UNL     1     -10.145  10.011  70.283  1.00  0.00    -0.228 A  
HETATM    8  C   UNL     1      -9.412   9.082  71.017  1.00  0.00    -0.342 A  
ENDROOT
BRANCH   6   9
HETATM    9  C   UNL     1     -12.263  11.293  69.750  1.00  0.00    -0.275 C  
BRANCH   9  10
HETATM   10  C   UNL     1     -11.793  12.700  70.195  1.00  0.00    -0.249 C  
BRANCH  10  11
HETATM   11  N   UNL     1     -12.753  13.474  70.961  1.00  0.00    -0.340 NA 
HETATM   12  C   UNL     1     -13.121  14.771  70.725  1.00  0.00    -0.336 A  
HETATM   13  C   UNL     1     -13.506  13.029  72.012  1.00  0.00    -0.492 A  
HETATM   14  N   UNL     1     -14.220  13.996  72.541  1.00  0.00    -0.648 NA 
HETATM   15  C   UNL     1     -13.989  15.086  71.743  1.00  0.00    -0.501 A  
ENDBRANCH  10  11
ENDBRANCH   9  10
BRANCH   9  16
HETATM   16  O   UNL     1     -12.114  11.167  68.326  1.00  0.00    -0.620 OA 
BRANCH  16  17
HETATM   17  C   UNL     1     -11.336  12.216  67.744  1.00  0.00    -0.307 C  
BRANCH  17  18
HETATM   18  C   UNL     1     -11.191  11.949  66.269  1.00  0.00    -0.392 A  
HETATM   19  C   UNL     1     -10.311  10.974  65.765  1.00  0.00    -0.257 A  
HETATM   20 CL   UNL     1      -9.289  10.022  66.787  1.00  0.00    -0.183 Cl 
HETATM   21  C   UNL     1     -11.003  11.441  63.490  1.00  0.00    -0.406 A  
HETATM   22  C   UNL     1     -10.222  10.723  64.390  1.00  0.00    -0.432 A  
HETATM   23  C   UNL     1     -11.858  12.431  63.966  1.00  0.00    -0.521 A  
HETATM   24  C   UNL     1     -11.947  12.687  65.337  1.00  0.00    -0.446 A  
HETATM   25 CL   UNL     1     -13.035  13.942  65.830  1.00  0.00    -0.456 Cl 
ENDBRANCH  17  18
ENDBRANCH  16  17
ENDBRANCH   9  16
ENDBRANCH   6   9
TORSDOF 6
ENDMDL
MODEL        2
REMARK 921   NORMALIZED FREE ENERGY PREDICTED BY IDOCK:   -6.68 KCAL/MOL
REMARK 922        TOTAL FREE ENERGY PREDICTED BY IDOCK:  -10.04 KCAL/MOL
REMARK 923 INTER-LIGAND FREE ENERGY PREDICTED BY IDOCK:   -8.92 KCAL/MOL
REMARK 924 INTRA-LIGAND FREE ENERGY PREDICTED BY IDOCK:   -1.11 KCAL/MOL
REMARK 927      BINDING AFFINITY PREDICTED BY RF-SCORE:    0.00 PKD
ROOT
HETATM    1 CL   UNL     1     -13.238  13.793  72.695  1.00  0.00    -0.596 Cl 
HETATM    2  C   UNL     1     -12.625  14.040  71.108  1.00  0.00    -0.371 A  
HETATM    3  C   UNL     1     -12.232  12.946  70.339  1.00  0.00    -0.381 A  
HETATM    4  C   UNL     1     -11.780  13.140  69.031  1.00  0.00    -0.321 A  
HETATM    5 CL   UNL     1     -11.306  11.740  68.135  1.00  0.00    -0.319 Cl 
HETATM    6  C   UNL     1     -11.725  14.430  68.477  1.00  0.00    -0.370 A  
HETATM    7  C   UNL     1     -12.095  15.520  69.291  1.00  0.00    -0.284 A  
HETATM    8  C   UNL     1     -12.545  15.328  70.596  1.00  0.00    -0.471 A  
ENDROOT
BRANCH   6   9
HETATM    9  C   UNL     1     -11.349  14.680  67.022  1.00  0.00    -0.355 C  
BRANCH   9  10
HETATM   10  C   UNL     1     -12.418  14.128  66.046  1.00  0.00    -0.425 C  
BRANCH  10  11
HETATM   11  N   UNL     1     -11.925  13.254  64.997  1.00  0.00    -0.351 NA 
HETATM   12  C   UNL     1     -10.625  13.138  64.584  1.00  0.00    -0.392 A  
HETATM   13  C   UNL     1     -12.655  12.347  64.281  1.00  0.00    -0.401 A  
HETATM   14  N   UNL     1     -11.931  11.767  63.352  1.00  0.00    -0.431 NA 
HETATM   15  C   UNL     1     -10.663  12.252  63.534  1.00  0.00    -0.451 A  
ENDBRANCH  10  11
ENDBRANCH   9  10
BRANCH   9  16
HETATM   16  O   UNL     1     -11.137  16.077  66.758  1.00  0.00    -0.190 OA 
BRANCH  16  17
HETATM   17  C   UNL     1      -9.857  16.358  66.187  1.00  0.00    -0.338 C  
BRANCH  17  18
HETATM   18  C   UNL     1      -9.160  17.381  67.043  1.00  0.00    -0.251 A  
HETATM   19  C   UNL     1      -8.196  17.026  68.004  1.00  0.00    -0.206 A  
HETATM   20 CL   UNL     1      -7.754  15.382  68.317  1.00  0.00    -0.113 Cl 
HETATM   21  C   UNL     1      -7.830  19.350  68.583  1.00  0.00    -0.399 A  
HETATM   22  C   UNL     1      -7.537  18.002  68.763  1.00  0.00    -0.277 A  
HETATM   23  C   UNL     1      -8.802  19.721  67.659  1.00  0.00    -0.393 A  
HETATM   24  C   UNL     1      -9.463  18.750  66.902  1.00  0.00    -0.310 A  
HETATM   25 CL   UNL     1     -10.660  19.311  65.782  1.00  0.00    -0.529 Cl 
ENDBRANCH  17  18
ENDBRANCH  16  17
ENDBRANCH   9  16
ENDBRANCH   6   9
TORSDOF 6
ENDMDL
MODEL        3
REMARK 921   NORMALIZED FREE ENERGY PREDICTED BY IDOCK:   -6.66 KCAL/MOL
REMARK 922        TOTAL FREE ENERGY PREDICTED BY IDOCK:  -10.02 KCAL/MOL
REMARK 923 INTER-LIGAND FREE ENERGY PREDICTED BY IDOCK:   -8.82 KCAL/MOL
REMARK 924 INTRA-LIGAND FREE ENERGY PREDICTED BY IDOCK:   -1.20 KCAL/MOL
REMARK 927      BINDING AFFINITY PREDICTED BY RF-SCORE:    0.00 PKD
ROOT
HETATM    1 CL   UNL     1     -13.802  13.996  72.110  1.00  0.00    -0.576 Cl 
HETATM    2  C   UNL     1     -12.694  14.252  70.820  1.00  0.00    -0.350 A  
HETATM    3  C   UNL     1     -12.155  13.160  70.143  1.00  0.00    -0.392 A  
HETATM    4  C   UNL     1     -11.293  13.367  69.062  1.00  0.00    -0.287 A  
HETATM    5 CL   UNL     1     -10.660  11.968  68.269  1.00  0.00    -0.218 Cl 
HETATM    6  C   UNL     1     -10.969  14.668  68.645  1.00  0.00    -0.266 A  
HETATM    7  C   UNL     1     -11.501  15.753  69.372  1.00  0.00    -0.357 A  
HETATM    8  C   UNL     1     -12.360  15.548  70.450  1.00  0.00    -0.451 A  
ENDROOT
BRANCH   6   9
HETATM    9  C   UNL     1     -10.127  14.943  67.404  1.00  0.00    -0.228 C  
BRANCH   9  10
HETATM   10  C   UNL     1     -11.005  15.284  66.174  1.00  0.00    -0.307 C  
BRANCH  10  11
HETATM   11  N   UNL     1     -11.514  14.148  65.427  1.00  0.00    -0.317 NA 
HETATM   12  C   UNL     1     -10.792  13.337  64.595  1.00  0.00    -0.382 A  
HETATM   13  C   UNL     1     -12.786  13.648  65.471  1.00  0.00    -0.466 A  
HETATM   14  N   UNL     1     -12.949  12.663  64.618  1.00  0.00    -0.844 NA 
HETATM   15  C   UNL     1     -11.710  12.460  64.068  1.00  0.00    -0.420 A  
ENDBRANCH  10  11
ENDBRANCH   9  10
BRANCH   9  16
HETATM   16  O   UNL     1      -9.183  16.004  67.626  1.00  0.00    -0.203 OA 
BRANCH  16  17
HETATM   17  C   UNL     1      -8.761  16.648  66.421  1.00  0.00    -0.310 C  
BRANCH  17  18
HETATM   18  C   UNL     1      -8.288  18.037  66.755  1.00  0.00    -0.271 A  
HETATM   19  C   UNL     1      -9.178  19.079  67.073  1.00  0.00    -0.299 A  
HETATM   20 CL   UNL     1     -10.896  18.870  67.072  1.00  0.00    -0.460 Cl 
HETATM   21  C   UNL     1      -7.342  20.617  67.440  1.00  0.00    -0.384 A  
HETATM   22  C   UNL     1      -8.707  20.353  67.414  1.00  0.00    -0.415 A  
HETATM   23  C   UNL     1      -6.445  19.608  67.099  1.00  0.00    -0.209 A  
HETATM   24  C   UNL     1      -6.911  18.337  66.755  1.00  0.00    -0.193 A  
HETATM   25 CL   UNL     1      -5.717  17.151  66.341  1.00  0.00    -0.213 Cl 
ENDBRANCH  17  18
ENDBRANCH  16  17
ENDBRANCH   9  16
ENDBRANCH   6   9
TORSDOF 6
ENDMDL
MODEL        4
REMARK 921   NORMALIZED FREE ENERGY PREDICTED BY IDOCK:   -6.66 KCAL/MOL
REMARK 922        TOTAL FREE ENERGY PREDICTED BY IDOCK:  -10.01 KCAL/MOL
REMARK 923 INTER-LIGAND FREE ENERGY PREDICTED BY IDOCK:   -8.88 KCAL/MOL
REMARK 924 INTRA-LIGAND FREE ENERGY PREDICTED BY IDOCK:   -1.13 KCAL/MOL
REMARK 927      BINDING AFFINITY PREDICTED BY RF-SCORE:    0.00 PKD
ROOT
HETATM    1 CL   UNL     1      -8.447  20.605  67.221  1.00  0.00    -0.371 Cl 
HETATM    2  C   UNL     1      -9.055  19.074  67.713  1.00  0.00    -0.292 A  
HETATM    3  C   UNL     1      -8.187  18.126  68.254  1.00  0.00    -0.300 A  
HETATM    4  C   UNL     1      -8.687  16.899  68.701  1.00  0.00    -0.267 A  
HETATM    5 CL   UNL     1      -7.556  15.770  69.358  1.00  0.00    -0.224 Cl 
HETATM    6  C   UNL     1     -10.060  16.613  68.618  1.00  0.00    -0.270 A  
HETATM    7  C   UNL     1     -10.907  17.577  68.034  1.00  0.00    -0.260 A  
HETATM    8  C   UNL     1     -10.410  18.800  67.587  1.00  0.00    -0.476 A  
ENDROOT
BRANCH   6   9
HETATM    9  C   UNL     1     -10.666  15.340  69.195  1.00  0.00    -0.251 C  
BRANCH   9  10
HETATM   10  C   UNL     1     -12.170  15.514  69.525  1.00  0.00    -0.236 C  
BRANCH  10  11
HETATM   11  N   UNL     1     -12.499  15.622  70.935  1.00  0.00    -0.437 NA 
HETATM   12  C   UNL     1     -11.701  16.147  71.914  1.00  0.00    -0.491 A  
HETATM   13  C   UNL     1     -13.684  15.280  71.523  1.00  0.00    -0.520 A  
HETATM   14  N   UNL     1     -13.637  15.424  72.828  1.00  0.00    -0.512 NA 
HETATM   15  C   UNL     1     -12.405  15.967  73.081  1.00  0.00    -0.531 A  
ENDBRANCH  10  11
ENDBRANCH   9  10
BRANCH   9  16
HETATM   16  O   UNL     1     -10.498  14.220  68.309  1.00  0.00    -0.235 OA 
BRANCH  16  17
HETATM   17  C   UNL     1     -11.663  13.931  67.533  1.00  0.00    -0.380 C  
BRANCH  17  18
HETATM   18  C   UNL     1     -11.261  13.092  66.351  1.00  0.00    -0.332 A  
HETATM   19  C   UNL     1     -11.116  11.695  66.434  1.00  0.00    -0.291 A  
HETATM   20 CL   UNL     1     -11.350  10.821  67.909  1.00  0.00    -0.384 Cl 
HETATM   21  C   UNL     1     -10.563  11.552  64.079  1.00  0.00    -0.437 A  
HETATM   22  C   UNL     1     -10.774  10.935  65.308  1.00  0.00    -0.194 A  
HETATM   23  C   UNL     1     -10.671  12.936  63.982  1.00  0.00    -0.429 A  
HETATM   24  C   UNL     1     -11.009  13.698  65.103  1.00  0.00    -0.330 A  
HETATM   25 CL   UNL     1     -11.114  15.413  64.882  1.00  0.00    -0.433 Cl 
ENDBRANCH  17  18
ENDBRANCH  16  17
ENDBRANCH   9  16
ENDBRANCH   6   9
TORSDOF 6
ENDMDL
MODEL        5
REMARK 921   NORMALIZED FREE ENERGY PREDICTED BY IDOCK:   -6.64 KCAL/MOL
REMARK 922        TOTAL FREE ENERGY PREDICTED BY IDOCK:   -9.99 KCAL/MOL
REMARK 923 INTER-LIGAND FREE ENERGY PREDICTED BY IDOCK:   -8.85 KCAL/MOL
REMARK 924 INTRA-LIGAND FREE ENERGY PREDICTED BY IDOCK:   -1.15 KCAL/MOL
REMARK 927      BINDING AFFINITY PREDICTED BY RF-SCORE:    0.00 PKD
ROOT
HETATM    1 CL   UNL     1      -8.322  20.521  67.036  1.00  0.00    -0.344 Cl 
HETATM    2  C   UNL     1      -8.957  19.018  67.578  1.00  0.00    -0.292 A  
HETATM    3  C   UNL     1      -8.117  18.094  68.196  1.00  0.00    -0.289 A  
HETATM    4  C   UNL     1      -8.641  16.893  68.682  1.00  0.00    -0.267 A  
HETATM    5 CL   UNL     1      -7.543  15.791  69.436  1.00  0.00    -0.224 Cl 
HETATM    6  C   UNL     1     -10.011  16.608  68.561  1.00  0.00    -0.261 A  
HETATM    7  C   UNL     1     -10.829  17.547  67.899  1.00  0.00    -0.255 A  
HETATM    8  C   UNL     1     -10.309  18.744  67.413  1.00  0.00    -0.472 A  
ENDROOT
BRANCH   6   9
HETATM    9  C   UNL     1     -10.647  15.367  69.175  1.00  0.00    -0.248 C  
BRANCH   9  10
HETATM   10  C   UNL     1     -12.159  15.566  69.447  1.00  0.00    -0.277 C  
BRANCH  10  11
HETATM   11  N   UNL     1     -12.543  15.655  70.844  1.00  0.00    -0.454 NA 
HETATM   12  C   UNL     1     -13.680  15.142  71.405  1.00  0.00    -0.495 A  
HETATM   13  C   UNL     1     -11.811  16.208  71.857  1.00  0.00    -0.525 A  
HETATM   14  N   UNL     1     -12.471  16.202  72.992  1.00  0.00    -0.480 NA 
HETATM   15  C   UNL     1     -13.638  15.536  72.721  1.00  0.00    -0.561 A  
ENDBRANCH  10  11
ENDBRANCH   9  10
BRANCH   9  16
HETATM   16  O   UNL     1     -10.459  14.207  68.347  1.00  0.00    -0.240 OA 
BRANCH  16  17
HETATM   17  C   UNL     1     -11.621  13.855  67.592  1.00  0.00    -0.348 C  
BRANCH  17  18
HETATM   18  C   UNL     1     -11.192  13.079  66.376  1.00  0.00    -0.332 A  
HETATM   19  C   UNL     1     -11.019  13.686  65.119  1.00  0.00    -0.330 A  
HETATM   20 CL   UNL     1     -11.320  15.368  64.847  1.00  0.00    -0.389 Cl 
HETATM   21  C   UNL     1     -10.320  11.585  64.135  1.00  0.00    -0.386 A  
HETATM   22  C   UNL     1     -10.585  12.945  64.013  1.00  0.00    -0.418 A  
HETATM   23  C   UNL     1     -10.515  10.958  65.363  1.00  0.00    -0.291 A  
HETATM   24  C   UNL     1     -10.951  11.694  66.468  1.00  0.00    -0.299 A  
HETATM   25 CL   UNL     1     -11.167  10.823  67.951  1.00  0.00    -0.369 Cl 
ENDBRANCH  17  18
ENDBRANCH  16  17
ENDBRANCH   9  16
ENDBRANCH   6   9
TORSDOF 6
ENDMDL
MODEL        6
REMARK 921   NORMALIZED FREE ENERGY PREDICTED BY IDOCK:   -6.56 KCAL/MOL
REMARK 922        TOTAL FREE ENERGY PREDICTED BY IDOCK:   -9.88 KCAL/MOL
REMARK 923 INTER-LIGAND FREE ENERGY PREDICTED BY IDOCK:   -9.19 KCAL/MOL
REMARK 924 INTRA-LIGAND FREE ENERGY PREDICTED BY IDOCK:   -0.68 KCAL/MOL
REMARK 927      BINDING AFFINITY PREDICTED BY RF-SCORE:    0.00 PKD
ROOT
HETATM    1 CL   UNL     1     -12.592  15.627  74.439  1.00  0.00    -0.730 Cl 
HETATM    2  C   UNL     1     -12.469  15.084  72.812  1.00  0.00    -0.377 A  
HETATM    3  C   UNL     1     -11.430  15.544  72.006  1.00  0.00    -0.515 A  
HETATM    4  C   UNL     1     -11.299  15.066  70.698  1.00  0.00    -0.271 A  
HETATM    5 CL   UNL     1      -9.990  15.680  69.753  1.00  0.00    -0.287 Cl 
HETATM    6  C   UNL     1     -12.202  14.118  70.190  1.00  0.00    -0.415 A  
HETATM    7  C   UNL     1     -13.263  13.698  71.018  1.00  0.00    -0.190 A  
HETATM    8  C   UNL     1     -13.396  14.174  72.320  1.00  0.00    -0.555 A  
ENDROOT
BRANCH   6   9
HETATM    9  C   UNL     1     -12.033  13.483  68.815  1.00  0.00    -0.339 C  
BRANCH   9  10
HETATM   10  C   UNL     1     -11.787  14.545  67.714  1.00  0.00    -0.357 C  
BRANCH  10  11
HETATM   11  N   UNL     1     -11.726  14.042  66.353  1.00  0.00    -0.372 NA 
HETATM   12  C   UNL     1     -10.605  13.947  65.575  1.00  0.00    -0.311 A  
HETATM   13  C   UNL     1     -12.761  13.517  65.632  1.00  0.00    -0.421 A  
HETATM   14  N   UNL     1     -12.397  13.226  64.404  1.00  0.00    -0.555 NA 
HETATM   15  C   UNL     1     -11.053  13.488  64.360  1.00  0.00    -0.380 A  
ENDBRANCH  10  11
ENDBRANCH   9  10
BRANCH   9  16
HETATM   16  O   UNL     1     -10.964  12.522  68.799  1.00  0.00    -0.240 OA 
BRANCH  16  17
HETATM   17  C   UNL     1     -11.416  11.174  68.651  1.00  0.00    -0.298 C  
BRANCH  17  18
HETATM   18  C   UNL     1     -10.775  10.329  69.720  1.00  0.00    -0.328 A  
HETATM   19  C   UNL     1     -11.488   9.867  70.841  1.00  0.00    -0.376 A  
HETATM   20 CL   UNL     1     -13.151  10.257  71.114  1.00  0.00    -0.475 Cl 
HETATM   21  C   UNL     1      -9.538   8.690  71.669  1.00  0.00    -0.344 A  
HETATM   22  C   UNL     1     -10.874   9.054  71.802  1.00  0.00    -0.437 A  
HETATM   23  C   UNL     1      -8.807   9.162  70.582  1.00  0.00    -0.278 A  
HETATM   24  C   UNL     1      -9.415   9.976  69.623  1.00  0.00    -0.223 A  
HETATM   25 CL   UNL     1      -8.420  10.516  68.311  1.00  0.00    -0.119 Cl 
ENDBRANCH  17  18
ENDBRANCH  16  17
ENDBRANCH   9  16
ENDBRANCH   6   9
TORSDOF 6
ENDMDL
MODEL        7
REMARK 921   NORMALIZED FREE ENERGY PREDICTED BY IDOCK:   -6.55 KCAL/MOL
REMARK 922        TOTAL FREE ENERGY PREDICTED BY IDOCK:   -9.87 KCAL/MOL
REMARK 923 INTER-LIGAND FREE ENERGY PREDICTED BY IDOCK:   -8.80 KCAL/MOL
REMARK 924 INTRA-LIGAND FREE ENERGY PREDICTED BY IDOCK:   -1.07 KCAL/MOL
REMARK 927      BINDING AFFINITY PREDICTED BY RF-SCORE:    0.00 PKD
ROOT
HETATM    1 CL   UNL     1     -12.393  10.308  71.675  1.00  0.00    -0.477 Cl 
HETATM    2  C   UNL     1     -12.284  11.593  70.537  1.00  0.00    -0.361 A  
HETATM    3  C   UNL     1     -12.511  12.904  70.951  1.00  0.00    -0.383 A  
HETATM    4  C   UNL     1     -12.374  13.955  70.039  1.00  0.00    -0.316 A  
HETATM    5 CL   UNL     1     -12.671  15.556  70.619  1.00  0.00    -0.497 Cl 
HETATM    6  C   UNL     1     -12.002  13.704  68.709  1.00  0.00    -0.394 A  
HETATM    7  C   UNL     1     -11.815  12.365  68.311  1.00  0.00    -0.364 A  
HETATM    8  C   UNL     1     -11.952  11.316  69.218  1.00  0.00    -0.411 A  
ENDROOT
BRANCH   6   9
HETATM    9  C   UNL     1     -11.730  14.823  67.710  1.00  0.00    -0.343 C  
BRANCH   9  10
HETATM   10  C   UNL     1     -10.357  15.497  67.957  1.00  0.00    -0.247 C  
BRANCH  10  11
HETATM   11  N   UNL     1     -10.348  16.948  67.909  1.00  0.00    -0.318 NA 
HETATM   12  C   UNL     1     -10.087  17.791  68.955  1.00  0.00    -0.350 A  
HETATM   13  C   UNL     1     -10.534  17.728  66.802  1.00  0.00    -0.300 A  
HETATM   14  N   UNL     1     -10.545  19.006  67.106  1.00  0.00    -0.443 NA 
HETATM   15  C   UNL     1     -10.264  19.055  68.446  1.00  0.00    -0.377 A  
ENDBRANCH  10  11
ENDBRANCH   9  10
BRANCH   9  16
HETATM   16  O   UNL     1     -11.795  14.354  66.353  1.00  0.00    -0.384 OA 
BRANCH  16  17
HETATM   17  C   UNL     1     -10.523  14.332  65.700  1.00  0.00    -0.324 C  
BRANCH  17  18
HETATM   18  C   UNL     1     -10.206  12.914  65.308  1.00  0.00    -0.294 A  
HETATM   19  C   UNL     1      -9.240  12.145  65.984  1.00  0.00    -0.118 A  
HETATM   20 CL   UNL     1      -8.304  12.771  67.298  1.00  0.00    -0.185 Cl 
HETATM   21  C   UNL     1      -9.692  10.228  64.572  1.00  0.00    -0.395 A  
HETATM   22  C   UNL     1      -8.990  10.816  65.620  1.00  0.00    -0.205 A  
HETATM   23  C   UNL     1     -10.630  10.980  63.871  1.00  0.00    -0.382 A  
HETATM   24  C   UNL     1     -10.880  12.308  64.230  1.00  0.00    -0.348 A  
HETATM   25 CL   UNL     1     -12.062  13.162  63.294  1.00  0.00    -0.589 Cl 
ENDBRANCH  17  18
ENDBRANCH  16  17
ENDBRANCH   9  16
ENDBRANCH   6   9
TORSDOF 6
ENDMDL
MODEL        8
REMARK 921   NORMALIZED FREE ENERGY PREDICTED BY IDOCK:   -6.54 KCAL/MOL
REMARK 922        TOTAL FREE ENERGY PREDICTED BY IDOCK:   -9.85 KCAL/MOL
REMARK 923 INTER-LIGAND FREE ENERGY PREDICTED BY IDOCK:   -9.08 KCAL/MOL
REMARK 924 INTRA-LIGAND FREE ENERGY PREDICTED BY IDOCK:   -0.78 KCAL/MOL
REMARK 927      BINDING AFFINITY PREDICTED BY RF-SCORE:    0.00 PKD
ROOT
HETATM    1 CL   UNL     1      -5.995  19.465  69.382  1.00  0.00    -0.279 Cl 
HETATM    2  C   UNL     1      -7.261  18.465  68.787  1.00  0.00    -0.284 A  
HETATM    3  C   UNL     1      -8.360  19.043  68.154  1.00  0.00    -0.347 A  
HETATM    4  C   UNL     1      -9.366  18.229  67.625  1.00  0.00    -0.267 A  
HETATM    5 CL   UNL     1     -10.701  19.012  66.856  1.00  0.00    -0.510 Cl 
HETATM    6  C   UNL     1      -9.277  16.831  67.718  1.00  0.00    -0.222 A  
HETATM    7  C   UNL     1      -8.172  16.277  68.395  1.00  0.00    -0.185 A  
HETATM    8  C   UNL     1      -7.168  17.086  68.924  1.00  0.00    -0.239 A  
ENDROOT
BRANCH   6   9
HETATM    9  C   UNL     1     -10.289  15.902  67.058  1.00  0.00    -0.297 C  
BRANCH   9  10
HETATM   10  C   UNL     1      -9.845  15.481  65.635  1.00  0.00    -0.342 C  
BRANCH  10  11
HETATM   11  N   UNL     1     -10.789  14.662  64.895  1.00  0.00    -0.411 NA 
HETATM   12  C   UNL     1     -10.632  13.343  64.567  1.00  0.00    -0.425 A  
HETATM   13  C   UNL     1     -12.024  15.041  64.451  1.00  0.00    -0.353 A  
HETATM   14  N   UNL     1     -12.598  14.094  63.746  1.00  0.00    -0.788 NA 
HETATM   15  C   UNL     1     -11.739  13.029  63.815  1.00  0.00    -0.485 A  
ENDBRANCH  10  11
ENDBRANCH   9  10
BRANCH   9  16
HETATM   16  O   UNL     1     -10.530  14.726  67.851  1.00  0.00    -0.242 OA 
BRANCH  16  17
HETATM   17  C   UNL     1     -11.910  14.358  67.913  1.00  0.00    -0.349 C  
BRANCH  17  18
HETATM   18  C   UNL     1     -12.113  13.441  69.089  1.00  0.00    -0.306 A  
HETATM   19  C   UNL     1     -12.525  13.914  70.349  1.00  0.00    -0.334 A  
HETATM   20 CL   UNL     1     -12.799  15.592  70.670  1.00  0.00    -0.499 Cl 
HETATM   21  C   UNL     1     -12.542  11.666  71.253  1.00  0.00    -0.425 A  
HETATM   22  C   UNL     1     -12.740  13.033  71.416  1.00  0.00    -0.375 A  
HETATM   23  C   UNL     1     -12.104  11.181  70.024  1.00  0.00    -0.437 A  
HETATM   24  C   UNL     1     -11.886  12.057  68.957  1.00  0.00    -0.315 A  
HETATM   25 CL   UNL     1     -11.338  11.357  67.470  1.00  0.00    -0.359 Cl 
ENDBRANCH  17  18
ENDBRANCH  16  17
ENDBRANCH   9  16
ENDBRANCH   6   9
TORSDOF 6
ENDMDL
MODEL        9
REMARK 921   NORMALIZED FREE ENERGY PREDICTED BY IDOCK:   -6.52 KCAL/MOL
REMARK 922        TOTAL FREE ENERGY PREDICTED BY IDOCK:   -9.82 KCAL/MOL
REMARK 923 INTER-LIGAND FREE ENERGY PREDICTED BY IDOCK:   -8.91 KCAL/MOL
REMARK 924 INTRA-LIGAND FREE ENERGY PREDICTED BY IDOCK:   -0.90 KCAL/MOL
REMARK 927      BINDING AFFINITY PREDICTED BY RF-SCORE:    0.00 PKD
ROOT
HETATM    1 CL   UNL     1     -13.137  10.045  72.186  1.00  0.00    -0.519 Cl 
HETATM    2  C   UNL     1     -12.752  11.396  71.194  1.00  0.00    -0.377 A  
HETATM    3  C   UNL     1     -13.065  12.683  71.626  1.00  0.00    -0.421 A  
HETATM    4  C   UNL     1     -12.708  13.786  70.844  1.00  0.00    -0.323 A  
HETATM    5 CL   UNL     1     -13.128  15.354  71.438  1.00  0.00    -0.516 Cl 
HETATM    6  C   UNL     1     -12.028  13.610  69.628  1.00  0.00    -0.402 A  
HETATM    7  C   UNL     1     -11.757  12.294  69.201  1.00  0.00    -0.377 A  
HETATM    8  C   UNL     1     -12.113  11.194  69.978  1.00  0.00    -0.437 A  
ENDROOT
BRANCH   6   9
HETATM    9  C   UNL     1     -11.519  14.783  68.799  1.00  0.00    -0.301 C  
BRANCH   9  10
HETATM   10  C   UNL     1     -10.018  15.066  69.059  1.00  0.00    -0.246 C  
BRANCH  10  11
HETATM   11  N   UNL     1      -9.593  16.441  68.872  1.00  0.00    -0.243 NA 
HETATM   12  C   UNL     1      -8.324  16.864  68.579  1.00  0.00    -0.257 A  
HETATM   13  C   UNL     1     -10.390  17.551  68.891  1.00  0.00    -0.338 A  
HETATM   14  N   UNL     1      -9.689  18.654  68.767  1.00  0.00    -0.373 NA 
HETATM   15  C   UNL     1      -8.400  18.236  68.570  1.00  0.00    -0.310 A  
ENDBRANCH  10  11
ENDBRANCH   9  10
BRANCH   9  16
HETATM   16  O   UNL     1     -11.728  14.573  67.392  1.00  0.00    -0.372 OA 
BRANCH  16  17
HETATM   17  C   UNL     1     -10.513  14.514  66.641  1.00  0.00    -0.274 C  
BRANCH  17  18
HETATM   18  C   UNL     1     -10.621  13.401  65.633  1.00  0.00    -0.286 A  
HETATM   19  C   UNL     1     -11.420  13.506  64.480  1.00  0.00    -0.381 A  
HETATM   20 CL   UNL     1     -12.379  14.904  64.135  1.00  0.00    -0.393 Cl 
HETATM   21  C   UNL     1     -10.738  11.303  63.736  1.00  0.00    -0.448 A  
HETATM   22  C   UNL     1     -11.474  12.467  63.542  1.00  0.00    -0.570 A  
HETATM   23  C   UNL     1      -9.965  11.166  64.886  1.00  0.00    -0.331 A  
HETATM   24  C   UNL     1      -9.911  12.199  65.826  1.00  0.00    -0.249 A  
HETATM   25 CL   UNL     1      -8.925  11.932  67.225  1.00  0.00    -0.171 Cl 
ENDBRANCH  17  18
ENDBRANCH  16  17
ENDBRANCH   9  16
ENDBRANCH   6   9
TORSDOF 6
ENDMDL
MODEL       10
REMARK 921   NORMALIZED FREE ENERGY PREDICTED BY IDOCK:   -6.51 KCAL/MOL
REMARK 922        TOTAL FREE ENERGY PREDICTED BY IDOCK:   -9.81 KCAL/MOL
REMARK 923 INTER-LIGAND FREE ENERGY PREDICTED BY IDOCK:   -8.80 KCAL/MOL
REMARK 924 INTRA-LIGAND FREE ENERGY PREDICTED BY IDOCK:   -1.01 KCAL/MOL
REMARK 927      BINDING AFFINITY PREDICTED BY RF-SCORE:    0.00 PKD
ROOT
HETATM    1 CL   UNL     1     -13.239  10.879  72.074  1.00  0.00    -0.563 Cl 
HETATM    2  C   UNL     1     -12.580  11.802  70.781  1.00  0.00    -0.253 A  
HETATM    3  C   UNL     1     -12.014  11.153  69.686  1.00  0.00    -0.429 A  
HETATM    4  C   UNL     1     -11.523  11.900  68.611  1.00  0.00    -0.294 A  
HETATM    5 CL   UNL     1     -10.832  11.032  67.286  1.00  0.00    -0.311 Cl 
HETATM    6  C   UNL     1     -11.600  13.302  68.620  1.00  0.00    -0.362 A  
HETATM    7  C   UNL     1     -12.145  13.932  69.758  1.00  0.00    -0.404 A  
HETATM    8  C   UNL     1     -12.635  13.189  70.830  1.00  0.00    -0.377 A  
ENDROOT
BRANCH   6   9
HETATM    9  C   UNL     1     -11.184  14.152  67.426  1.00  0.00    -0.318 C  
BRANCH   9  10
HETATM   10  C   UNL     1     -12.223  14.087  66.279  1.00  0.00    -0.462 C  
BRANCH  10  11
HETATM   11  N   UNL     1     -11.837  13.303  65.120  1.00  0.00    -0.331 NA 
HETATM   12  C   UNL     1     -12.643  12.455  64.411  1.00  0.00    -0.399 A  
HETATM   13  C   UNL     1     -10.622  13.319  64.493  1.00  0.00    -0.419 A  
HETATM   14  N   UNL     1     -10.566  12.436  63.523  1.00  0.00    -0.440 NA 
HETATM   15  C   UNL     1     -11.822  11.894  63.461  1.00  0.00    -0.460 A  
ENDBRANCH  10  11
ENDBRANCH   9  10
BRANCH   9  16
HETATM   16  O   UNL     1     -10.968  15.525  67.797  1.00  0.00    -0.301 OA 
BRANCH  16  17
HETATM   17  C   UNL     1     -10.285  16.282  66.795  1.00  0.00    -0.280 C  
BRANCH  17  18
HETATM   18  C   UNL     1      -9.226  17.119  67.460  1.00  0.00    -0.233 A  
HETATM   19  C   UNL     1      -9.414  18.484  67.744  1.00  0.00    -0.289 A  
HETATM   20 CL   UNL     1     -10.861  19.333  67.322  1.00  0.00    -0.586 Cl 
HETATM   21  C   UNL     1      -7.224  18.633  68.771  1.00  0.00    -0.330 A  
HETATM   22  C   UNL     1      -8.423  19.230  68.395  1.00  0.00    -0.386 A  
HETATM   23  C   UNL     1      -7.006  17.291  68.472  1.00  0.00    -0.209 A  
HETATM   24  C   UNL     1      -7.990  16.545  67.819  1.00  0.00    -0.160 A  
HETATM   25 CL   UNL     1      -7.622  14.884  67.487  1.00  0.00    -0.200 Cl 
ENDBRANCH  17  18
ENDBRANCH  16  17
ENDBRANCH   9  16
ENDBRANCH   6   9
TORSDOF 6
ENDMDL
MODEL       11
REMARK 921   NORMALIZED FREE ENERGY PREDICTED BY IDOCK:   -6.50 KCAL/MOL
REMARK 922        TOTAL FREE ENERGY PREDICTED BY IDOCK:   -9.80 KCAL/MOL
REMARK 923 INTER-LIGAND FREE ENERGY PREDICTED BY IDOCK:   -9.43 KCAL/MOL
REMARK 924 INTRA-LIGAND FREE ENERGY PREDICTED BY IDOCK:   -0.37 KCAL/MOL
REMARK 927      BINDING AFFINITY PREDICTED BY RF-SCORE:    0.00 PKD
ROOT
HETATM    1 CL   UNL     1     -13.900  16.108  73.285  1.00  0.00    -0.403 Cl 
HETATM    2  C   UNL     1     -13.222  14.951  72.208  1.00  0.00    -0.374 A  
HETATM    3  C   UNL     1     -13.460  13.593  72.411  1.00  0.00    -0.685 A  
HETATM    4  C   UNL     1     -12.951  12.655  71.508  1.00  0.00    -0.282 A  
HETATM    5 CL   UNL     1     -13.282  10.987  71.822  1.00  0.00    -0.541 Cl 
HETATM    6  C   UNL     1     -12.207  13.067  70.391  1.00  0.00    -0.386 A  
HETATM    7  C   UNL     1     -11.952  14.444  70.232  1.00  0.00    -0.388 A  
HETATM    8  C   UNL     1     -12.457  15.381  71.131  1.00  0.00    -0.463 A  
ENDROOT
BRANCH   6   9
HETATM    9  C   UNL     1     -11.730  12.092  69.321  1.00  0.00    -0.330 C  
BRANCH   9  10
HETATM   10  C   UNL     1     -10.918  12.804  68.211  1.00  0.00    -0.252 C  
BRANCH  10  11
HETATM   11  N   UNL     1     -11.606  12.992  66.946  1.00  0.00    -0.346 NA 
HETATM   12  C   UNL     1     -11.621  12.117  65.895  1.00  0.00    -0.364 A  
HETATM   13  C   UNL     1     -12.410  14.043  66.605  1.00  0.00    -0.371 A  
HETATM   14  N   UNL     1     -12.818  13.956  65.360  1.00  0.00    -0.722 NA 
HETATM   15  C   UNL     1     -12.334  12.757  64.909  1.00  0.00    -0.490 A  
ENDBRANCH  10  11
ENDBRANCH   9  10
BRANCH   9  16
HETATM   16  O   UNL     1     -10.943  11.028  69.882  1.00  0.00    -0.239 OA 
BRANCH  16  17
HETATM   17  C   UNL     1     -10.018  10.457  68.952  1.00  0.00    -0.199 C  
BRANCH  17  18
HETATM   18  C   UNL     1     -10.324   8.991  68.804  1.00  0.00    -0.236 A  
HETATM   19  C   UNL     1     -10.608   8.167  69.908  1.00  0.00    -0.239 A  
HETATM   20 CL   UNL     1     -10.594   8.753  71.536  1.00  0.00    -0.351 Cl 
HETATM   21  C   UNL     1     -10.956   6.252  68.464  1.00  0.00    -0.421 A  
HETATM   22  C   UNL     1     -10.923   6.813  69.737  1.00  0.00    -0.345 A  
HETATM   23  C   UNL     1     -10.648   7.043  67.361  1.00  0.00    -0.372 A  
HETATM   24  C   UNL     1     -10.330   8.393  67.528  1.00  0.00    -0.265 A  
HETATM   25 CL   UNL     1      -9.957   9.292  66.094  1.00  0.00    -0.360 Cl 
ENDBRANCH  17  18
ENDBRANCH  16  17
ENDBRANCH   9  16
ENDBRANCH   6   9
TORSDOF 6
ENDMDL
MODEL       12
REMARK 921   NORMALIZED FREE ENERGY PREDICTED BY IDOCK:   -6.48 KCAL/MOL
REMARK 922        TOTAL FREE ENERGY PREDICTED BY IDOCK:   -9.78 KCAL/MOL
REMARK 923 INTER-LIGAND FREE ENERGY PREDICTED BY IDOCK:   -8.58 KCAL/MOL
REMARK 924 INTRA-LIGAND FREE ENERGY PREDICTED BY IDOCK:   -1.20 KCAL/MOL
REMARK 927      BINDING AFFINITY PREDICTED BY RF-SCORE:    0.00 PKD
ROOT
HETATM    1 CL   UNL     1      -9.859   9.468  65.671  1.00  0.00    -0.376 Cl 
HETATM    2  C   UNL     1     -10.371  10.929  66.420  1.00  0.00    -0.251 A  
HETATM    3  C   UNL     1     -11.228  11.792  65.741  1.00  0.00    -0.337 A  
HETATM    4  C   UNL     1     -11.685  12.955  66.368  1.00  0.00    -0.395 A  
HETATM    5 CL   UNL     1     -12.745  13.982  65.467  1.00  0.00    -0.554 Cl 
HETATM    6  C   UNL     1     -11.294  13.261  67.681  1.00  0.00    -0.328 A  
HETATM    7  C   UNL     1     -10.398  12.387  68.329  1.00  0.00    -0.232 A  
HETATM    8  C   UNL     1      -9.941  11.227  67.707  1.00  0.00    -0.193 A  
ENDROOT
BRANCH   6   9
HETATM    9  C   UNL     1     -11.855  14.455  68.445  1.00  0.00    -0.319 C  
BRANCH   9  10
HETATM   10  C   UNL     1     -11.514  14.387  69.954  1.00  0.00    -0.260 C  
BRANCH  10  11
HETATM   11  N   UNL     1     -12.650  14.380  70.859  1.00  0.00    -0.330 NA 
HETATM   12  C   UNL     1     -13.506  15.421  71.091  1.00  0.00    -0.493 A  
HETATM   13  C   UNL     1     -13.103  13.318  71.589  1.00  0.00    -0.363 A  
HETATM   14  N   UNL     1     -14.103  13.657  72.370  1.00  0.00    -0.713 NA 
HETATM   15  C   UNL     1     -14.364  14.967  72.065  1.00  0.00    -0.573 A  
ENDBRANCH  10  11
ENDBRANCH   9  10
BRANCH   9  16
HETATM   16  O   UNL     1     -11.386  15.701  67.904  1.00  0.00    -0.344 OA 
BRANCH  16  17
HETATM   17  C   UNL     1     -10.414  16.347  68.731  1.00  0.00    -0.300 C  
BRANCH  17  18
HETATM   18  C   UNL     1      -9.329  16.909  67.852  1.00  0.00    -0.238 A  
HETATM   19  C   UNL     1      -9.459  18.147  67.195  1.00  0.00    -0.264 A  
HETATM   20 CL   UNL     1     -10.889  19.115  67.307  1.00  0.00    -0.567 Cl 
HETATM   21  C   UNL     1      -7.232  17.952  66.260  1.00  0.00    -0.324 A  
HETATM   22  C   UNL     1      -8.419  18.662  66.411  1.00  0.00    -0.286 A  
HETATM   23  C   UNL     1      -7.095  16.712  66.876  1.00  0.00    -0.264 A  
HETATM   24  C   UNL     1      -8.131  16.193  67.657  1.00  0.00    -0.147 A  
HETATM   25 CL   UNL     1      -7.866  14.640  68.378  1.00  0.00    -0.124 Cl 
ENDBRANCH  17  18
ENDBRANCH  16  17
ENDBRANCH   9  16
ENDBRANCH   6   9
TORSDOF 6
ENDMDL
MODEL       13
REMARK 921   NORMALIZED FREE ENERGY PREDICTED BY IDOCK:   -6.46 KCAL/MOL
REMARK 922        TOTAL FREE ENERGY PREDICTED BY IDOCK:   -9.74 KCAL/MOL
REMARK 923 INTER-LIGAND FREE ENERGY PREDICTED BY IDOCK:   -8.70 KCAL/MOL
REMARK 924 INTRA-LIGAND FREE ENERGY PREDICTED BY IDOCK:   -1.04 KCAL/MOL
REMARK 927      BINDING AFFINITY PREDICTED BY RF-SCORE:    0.00 PKD
ROOT
HETATM    1 CL   UNL     1     -13.169  10.854  72.062  1.00  0.00    -0.563 Cl 
HETATM    2  C   UNL     1     -12.491  11.809  70.803  1.00  0.00    -0.312 A  
HETATM    3  C   UNL     1     -11.833  11.190  69.743  1.00  0.00    -0.422 A  
HETATM    4  C   UNL     1     -11.324  11.961  68.693  1.00  0.00    -0.276 A  
HETATM    5 CL   UNL     1     -10.518  11.128  67.411  1.00  0.00    -0.244 Cl 
HETATM    6  C   UNL     1     -11.475  13.357  68.693  1.00  0.00    -0.345 A  
HETATM    7  C   UNL     1     -12.113  13.958  69.797  1.00  0.00    -0.404 A  
HETATM    8  C   UNL     1     -12.621  13.191  70.844  1.00  0.00    -0.377 A  
ENDROOT
BRANCH   6   9
HETATM    9  C   UNL     1     -11.040  14.226  67.519  1.00  0.00    -0.298 C  
BRANCH   9  10
HETATM   10  C   UNL     1     -12.046  14.158  66.344  1.00  0.00    -0.451 C  
BRANCH  10  11
HETATM   11  N   UNL     1     -11.625  13.374  65.197  1.00  0.00    -0.301 NA 
HETATM   12  C   UNL     1     -12.394  12.481  64.501  1.00  0.00    -0.467 A  
HETATM   13  C   UNL     1     -10.413  13.435  64.569  1.00  0.00    -0.413 A  
HETATM   14  N   UNL     1     -10.317  12.541  63.612  1.00  0.00    -0.407 NA 
HETATM   15  C   UNL     1     -11.549  11.943  63.559  1.00  0.00    -0.441 A  
ENDBRANCH  10  11
ENDBRANCH   9  10
BRANCH   9  16
HETATM   16  O   UNL     1     -10.856  15.597  67.911  1.00  0.00    -0.288 OA 
BRANCH  16  17
HETATM   17  C   UNL     1     -10.232  16.396  66.903  1.00  0.00    -0.290 C  
BRANCH  17  18
HETATM   18  C   UNL     1      -9.188  17.265  67.551  1.00  0.00    -0.227 A  
HETATM   19  C   UNL     1      -7.923  16.773  67.921  1.00  0.00    -0.177 A  
HETATM   20 CL   UNL     1      -7.466  15.119  67.699  1.00  0.00    -0.180 Cl 
HETATM   21  C   UNL     1      -7.237  18.959  68.710  1.00  0.00    -0.351 A  
HETATM   22  C   UNL     1      -6.959  17.613  68.491  1.00  0.00    -0.231 A  
HETATM   23  C   UNL     1      -8.493  19.459  68.379  1.00  0.00    -0.389 A  
HETATM   24  C   UNL     1      -9.459  18.623  67.813  1.00  0.00    -0.300 A  
HETATM   25 CL   UNL     1     -10.993  19.338  67.442  1.00  0.00    -0.545 Cl 
ENDBRANCH  17  18
ENDBRANCH  16  17
ENDBRANCH   9  16
ENDBRANCH   6   9
TORSDOF 6
ENDMDL
MODEL       14
REMARK 921   NORMALIZED FREE ENERGY PREDICTED BY IDOCK:   -6.39 KCAL/MOL
REMARK 922        TOTAL FREE ENERGY PREDICTED BY IDOCK:   -9.65 KCAL/MOL
REMARK 923 INTER-LIGAND FREE ENERGY PREDICTED BY IDOCK:   -8.47 KCAL/MOL
REMARK 924 INTRA-LIGAND FREE ENERGY PREDICTED BY IDOCK:   -1.18 KCAL/MOL
REMARK 927      BINDING AFFINITY PREDICTED BY RF-SCORE:    0.00 PKD
ROOT
HETATM    1 CL   UNL     1      -9.995   9.534  66.361  1.00  0.00    -0.323 Cl 
HETATM    2  C   UNL     1     -10.414  11.116  66.891  1.00  0.00    -0.246 A  
HETATM    3  C   UNL     1     -11.302  11.884  66.141  1.00  0.00    -0.383 A  
HETATM    4  C   UNL     1     -11.682  13.150  66.595  1.00  0.00    -0.375 A  
HETATM    5 CL   UNL     1     -12.786  14.050  65.616  1.00  0.00    -0.555 Cl 
HETATM    6  C   UNL     1     -11.183  13.656  67.807  1.00  0.00    -0.310 A  
HETATM    7  C   UNL     1     -10.258  12.870  68.525  1.00  0.00    -0.210 A  
HETATM    8  C   UNL     1      -9.877  11.608  68.073  1.00  0.00    -0.193 A  
ENDROOT
BRANCH   6   9
HETATM    9  C   UNL     1     -11.655  14.978  68.398  1.00  0.00    -0.331 C  
BRANCH   9  10
HETATM   10  C   UNL     1     -11.391  15.057  69.923  1.00  0.00    -0.278 C  
BRANCH  10  11
HETATM   11  N   UNL     1     -12.479  14.615  70.776  1.00  0.00    -0.318 NA 
HETATM   12  C   UNL     1     -13.553  15.365  71.171  1.00  0.00    -0.462 A  
HETATM   13  C   UNL     1     -12.659  13.359  71.283  1.00  0.00    -0.322 A  
HETATM   14  N   UNL     1     -13.698  13.303  72.083  1.00  0.00    -0.534 NA 
HETATM   15  C   UNL     1     -14.265  14.549  72.018  1.00  0.00    -0.544 A  
ENDBRANCH  10  11
ENDBRANCH   9  10
BRANCH   9  16
HETATM   16  O   UNL     1     -11.039  16.103  67.748  1.00  0.00    -0.323 OA 
BRANCH  16  17
HETATM   17  C   UNL     1     -10.048  16.749  68.551  1.00  0.00    -0.281 C  
BRANCH  17  18
HETATM   18  C   UNL     1      -9.083  17.465  67.645  1.00  0.00    -0.234 A  
HETATM   19  C   UNL     1      -8.060  16.791  66.953  1.00  0.00    -0.211 A  
HETATM   20 CL   UNL     1      -7.794  15.088  67.109  1.00  0.00    -0.239 Cl 
HETATM   21  C   UNL     1      -7.333  18.849  65.902  1.00  0.00    -0.260 A  
HETATM   22  C   UNL     1      -7.198  17.478  66.089  1.00  0.00    -0.343 A  
HETATM   23  C   UNL     1      -8.319  19.540  66.600  1.00  0.00    -0.340 A  
HETATM   24  C   UNL     1      -9.179  18.859  67.465  1.00  0.00    -0.290 A  
HETATM   25 CL   UNL     1     -10.370  19.808  68.293  1.00  0.00    -0.561 Cl 
ENDBRANCH  17  18
ENDBRANCH  16  17
ENDBRANCH   9  16
ENDBRANCH   6   9
TORSDOF 6
ENDMDL
MODEL       15
REMARK 921   NORMALIZED FREE ENERGY PREDICTED BY IDOCK:   -6.39 KCAL/MOL
REMARK 922        TOTAL FREE ENERGY PREDICTED BY IDOCK:   -9.64 KCAL/MOL
REMARK 923 INTER-LIGAND FREE ENERGY PREDICTED BY IDOCK:   -9.28 KCAL/MOL
REMARK 924 INTRA-LIGAND FREE ENERGY PREDICTED BY IDOCK:   -0.36 KCAL/MOL
REMARK 927      BINDING AFFINITY PREDICTED BY RF-SCORE:    0.00 PKD
ROOT
HETATM    1 CL   UNL     1     -10.976   6.851  73.159  1.00  0.00    -0.309 Cl 
HETATM    2  C   UNL     1     -11.292   8.225  72.175  1.00  0.00    -0.352 A  
HETATM    3  C   UNL     1     -10.285   8.739  71.360  1.00  0.00    -0.350 A  
HETATM    4  C   UNL     1     -10.554   9.825  70.522  1.00  0.00    -0.312 A  
HETATM    5 CL   UNL     1      -9.259  10.413  69.539  1.00  0.00    -0.186 Cl 
HETATM    6  C   UNL     1     -11.834  10.401  70.487  1.00  0.00    -0.430 A  
HETATM    7  C   UNL     1     -12.822   9.882  71.349  1.00  0.00    -0.505 A  
HETATM    8  C   UNL     1     -12.556   8.801  72.185  1.00  0.00    -0.463 A  
ENDROOT
BRANCH   6   9
HETATM    9  C   UNL     1     -12.205  11.510  69.509  1.00  0.00    -0.221 C  
BRANCH   9  10
HETATM   10  C   UNL     1     -11.602  12.874  69.926  1.00  0.00    -0.176 C  
BRANCH  10  11
HETATM   11  N   UNL     1     -12.481  13.749  70.680  1.00  0.00    -0.357 NA 
HETATM   12  C   UNL     1     -13.245  13.395  71.759  1.00  0.00    -0.407 A  
HETATM   13  C   UNL     1     -12.655  15.091  70.490  1.00  0.00    -0.369 A  
HETATM   14  N   UNL     1     -13.579  15.579  71.285  1.00  0.00    -0.540 NA 
HETATM   15  C   UNL     1     -13.951  14.529  72.083  1.00  0.00    -0.501 A  
ENDBRANCH  10  11
ENDBRANCH   9  10
BRANCH   9  16
HETATM   16  O   UNL     1     -11.795  11.196  68.167  1.00  0.00    -0.559 OA 
BRANCH  16  17
HETATM   17  C   UNL     1     -11.041  12.241  67.547  1.00  0.00    -0.275 C  
BRANCH  17  18
HETATM   18  C   UNL     1     -11.132  12.081  66.053  1.00  0.00    -0.364 A  
HETATM   19  C   UNL     1     -11.976  12.880  65.261  1.00  0.00    -0.419 A  
HETATM   20 CL   UNL     1     -13.013  14.091  65.933  1.00  0.00    -0.391 Cl 
HETATM   21  C   UNL     1     -11.218  11.782  63.239  1.00  0.00    -0.357 A  
HETATM   22  C   UNL     1     -12.014  12.732  63.869  1.00  0.00    -0.554 A  
HETATM   23  C   UNL     1     -10.398  10.960  64.007  1.00  0.00    -0.417 A  
HETATM   24  C   UNL     1     -10.360  11.102  65.396  1.00  0.00    -0.271 A  
HETATM   25 CL   UNL     1      -9.312  10.029  66.264  1.00  0.00    -0.199 Cl 
ENDBRANCH  17  18
ENDBRANCH  16  17
ENDBRANCH   9  16
ENDBRANCH   6   9
TORSDOF 6
ENDMDL
MODEL       16
REMARK 921   NORMALIZED FREE ENERGY PREDICTED BY IDOCK:   -6.38 KCAL/MOL
REMARK 922        TOTAL FREE ENERGY PREDICTED BY IDOCK:   -9.64 KCAL/MOL
REMARK 923 INTER-LIGAND FREE ENERGY PREDICTED BY IDOCK:   -8.37 KCAL/MOL
REMARK 924 INTRA-LIGAND FREE ENERGY PREDICTED BY IDOCK:   -1.26 KCAL/MOL
REMARK 927      BINDING AFFINITY PREDICTED BY RF-SCORE:    0.00 PKD
ROOT
HETATM    1 CL   UNL     1     -11.659  11.919  64.074  1.00  0.00    -0.470 Cl 
HETATM    2  C   UNL     1     -11.302  13.082  65.289  1.00  0.00    -0.295 A  
HETATM    3  C   UNL     1     -10.003  13.194  65.780  1.00  0.00    -0.260 A  
HETATM    4  C   UNL     1      -9.701  14.173  66.732  1.00  0.00    -0.277 A  
HETATM    5 CL   UNL     1      -8.070  14.255  67.300  1.00  0.00    -0.210 Cl 
HETATM    6  C   UNL     1     -10.693  15.052  67.194  1.00  0.00    -0.303 A  
HETATM    7  C   UNL     1     -12.006  14.891  66.705  1.00  0.00    -0.106 A  
HETATM    8  C   UNL     1     -12.310  13.916  65.758  1.00  0.00    -0.518 A  
ENDROOT
BRANCH   6   9
HETATM    9  C   UNL     1     -10.387  16.205  68.143  1.00  0.00    -0.269 C  
BRANCH   9  10
HETATM   10  C   UNL     1     -10.616  17.582  67.471  1.00  0.00    -0.333 C  
BRANCH  10  11
HETATM   11  N   UNL     1      -9.544  18.548  67.630  1.00  0.00    -0.281 NA 
HETATM   12  C   UNL     1      -8.553  18.510  68.574  1.00  0.00    -0.324 A  
HETATM   13  C   UNL     1      -9.295  19.629  66.831  1.00  0.00    -0.355 A  
HETATM   14  N   UNL     1      -8.299  20.351  67.289  1.00  0.00    -0.347 NA 
HETATM   15  C   UNL     1      -7.828  19.660  68.374  1.00  0.00    -0.327 A  
ENDBRANCH  10  11
ENDBRANCH   9  10
BRANCH   9  16
HETATM   16  O   UNL     1     -11.167  16.125  69.348  1.00  0.00    -0.313 OA 
BRANCH  16  17
HETATM   17  C   UNL     1     -10.579  15.292  70.349  1.00  0.00    -0.197 C  
BRANCH  17  18
HETATM   18  C   UNL     1     -11.677  14.570  71.083  1.00  0.00    -0.292 A  
HETATM   19  C   UNL     1     -12.317  15.120  72.209  1.00  0.00    -0.363 A  
HETATM   20 CL   UNL     1     -11.875  16.656  72.874  1.00  0.00    -0.490 Cl 
HETATM   21  C   UNL     1     -13.782  13.199  72.390  1.00  0.00    -0.640 A  
HETATM   22  C   UNL     1     -13.360  14.441  72.852  1.00  0.00    -0.575 A  
HETATM   23  C   UNL     1     -13.142  12.623  71.296  1.00  0.00    -0.233 A  
HETATM   24  C   UNL     1     -12.099  13.296  70.654  1.00  0.00    -0.280 A  
HETATM   25 CL   UNL     1     -11.363  12.494  69.306  1.00  0.00    -0.317 Cl 
ENDBRANCH  17  18
ENDBRANCH  16  17
ENDBRANCH   9  16
ENDBRANCH   6   9
TORSDOF 6
ENDMDL
MODEL       17
REMARK 921   NORMALIZED FREE ENERGY PREDICTED BY IDOCK:   -6.35 KCAL/MOL
REMARK 922        TOTAL FREE ENERGY PREDICTED BY IDOCK:   -9.59 KCAL/MOL
REMARK 923 INTER-LIGAND FREE ENERGY PREDICTED BY IDOCK:   -8.57 KCAL/MOL
REMARK 924 INTRA-LIGAND FREE ENERGY PREDICTED BY IDOCK:   -1.03 KCAL/MOL
REMARK 927      BINDING AFFINITY PREDICTED BY RF-SCORE:    0.00 PKD
ROOT
HETATM    1 CL   UNL     1     -11.907   8.466  72.337  1.00  0.00    -0.453 Cl 
HETATM    2  C   UNL     1     -11.508   9.614  71.121  1.00  0.00    -0.384 A  
HETATM    3  C   UNL     1     -10.410   9.391  70.292  1.00  0.00    -0.293 A  
HETATM    4  C   UNL     1     -10.114  10.299  69.270  1.00  0.00    -0.227 A  
HETATM    5 CL   UNL     1      -8.737   9.962  68.281  1.00  0.00    -0.118 Cl 
HETATM    6  C   UNL     1     -10.917  11.432  69.065  1.00  0.00    -0.288 A  
HETATM    7  C   UNL     1     -12.000  11.649  69.942  1.00  0.00    -0.414 A  
HETATM    8  C   UNL     1     -12.296  10.746  70.961  1.00  0.00    -0.509 A  
ENDROOT
BRANCH   6   9
HETATM    9  C   UNL     1     -10.702  12.386  67.896  1.00  0.00    -0.220 C  
BRANCH   9  10
HETATM   10  C   UNL     1     -11.905  12.386  66.920  1.00  0.00    -0.307 C  
BRANCH  10  11
HETATM   11  N   UNL     1     -11.574  12.322  65.508  1.00  0.00    -0.368 NA 
HETATM   12  C   UNL     1     -10.386  11.903  64.974  1.00  0.00    -0.289 A  
HETATM   13  C   UNL     1     -12.406  12.608  64.462  1.00  0.00    -0.464 A  
HETATM   14  N   UNL     1     -11.780  12.530  63.310  1.00  0.00    -0.457 NA 
HETATM   15  C   UNL     1     -10.521  12.088  63.618  1.00  0.00    -0.454 A  
ENDBRANCH  10  11
ENDBRANCH   9  10
BRANCH   9  16
HETATM   16  O   UNL     1     -10.450  13.729  68.343  1.00  0.00    -0.240 OA 
BRANCH  16  17
HETATM   17  C   UNL     1     -11.490  14.646  67.996  1.00  0.00    -0.324 C  
BRANCH  17  18
HETATM   18  C   UNL     1     -10.900  16.026  67.884  1.00  0.00    -0.333 A  
HETATM   19  C   UNL     1     -10.488  16.571  66.654  1.00  0.00    -0.266 A  
HETATM   20 CL   UNL     1     -10.587  15.692  65.167  1.00  0.00    -0.443 Cl 
HETATM   21  C   UNL     1      -9.855  18.653  67.720  1.00  0.00    -0.357 A  
HETATM   22  C   UNL     1      -9.975  17.871  66.575  1.00  0.00    -0.357 A  
HETATM   23  C   UNL     1     -10.228  18.122  68.952  1.00  0.00    -0.304 A  
HETATM   24  C   UNL     1     -10.738  16.824  69.035  1.00  0.00    -0.331 A  
HETATM   25 CL   UNL     1     -11.169  16.252  70.613  1.00  0.00    -0.369 Cl 
ENDBRANCH  17  18
ENDBRANCH  16  17
ENDBRANCH   9  16
ENDBRANCH   6   9
TORSDOF 6
ENDMDL
MODEL       18
REMARK 921   NORMALIZED FREE ENERGY PREDICTED BY IDOCK:   -6.30 KCAL/MOL
REMARK 922        TOTAL FREE ENERGY PREDICTED BY IDOCK:   -9.52 KCAL/MOL
REMARK 923 INTER-LIGAND FREE ENERGY PREDICTED BY IDOCK:   -8.71 KCAL/MOL
REMARK 924 INTRA-LIGAND FREE ENERGY PREDICTED BY IDOCK:   -0.81 KCAL/MOL
REMARK 927      BINDING AFFINITY PREDICTED BY RF-SCORE:    0.00 PKD
ROOT
HETATM    1 CL   UNL     1     -12.617  11.864  63.279  1.00  0.00    -0.635 Cl 
HETATM    2  C   UNL     1     -12.056  12.865  64.560  1.00  0.00    -0.413 A  
HETATM    3  C   UNL     1     -11.794  14.212  64.322  1.00  0.00    -0.420 A  
HETATM    4  C   UNL     1     -11.385  15.039  65.373  1.00  0.00    -0.328 A  
HETATM    5 CL   UNL     1     -11.075  16.700  65.007  1.00  0.00    -0.234 Cl 
HETATM    6  C   UNL     1     -11.243  14.526  66.672  1.00  0.00    -0.346 A  
HETATM    7  C   UNL     1     -11.481  13.151  66.875  1.00  0.00    -0.384 A  
HETATM    8  C   UNL     1     -11.887  12.326  65.829  1.00  0.00    -0.417 A  
ENDROOT
BRANCH   6   9
HETATM    9  C   UNL     1     -10.912  15.410  67.869  1.00  0.00    -0.310 C  
BRANCH   9  10
HETATM   10  C   UNL     1     -10.734  14.583  69.167  1.00  0.00    -0.252 C  
BRANCH  10  11
HETATM   11  N   UNL     1     -11.831  14.650  70.115  1.00  0.00    -0.289 NA 
HETATM   12  C   UNL     1     -12.335  13.609  70.845  1.00  0.00    -0.371 A  
HETATM   13  C   UNL     1     -12.512  15.773  70.494  1.00  0.00    -0.332 A  
HETATM   14  N   UNL     1     -13.501  15.487  71.309  1.00  0.00    -0.513 NA 
HETATM   15  C   UNL     1     -13.398  14.140  71.536  1.00  0.00    -0.351 A  
ENDBRANCH  10  11
ENDBRANCH   9  10
BRANCH   9  16
HETATM   16  O   UNL     1      -9.732  16.199  67.639  1.00  0.00    -0.229 OA 
BRANCH  16  17
HETATM   17  C   UNL     1      -9.346  16.982  68.771  1.00  0.00    -0.257 C  
BRANCH  17  18
HETATM   18  C   UNL     1      -8.609  18.202  68.286  1.00  0.00    -0.298 A  
HETATM   19  C   UNL     1      -7.218  18.349  68.436  1.00  0.00    -0.268 A  
HETATM   20 CL   UNL     1      -6.235  17.163  69.224  1.00  0.00    -0.211 Cl 
HETATM   21  C   UNL     1      -7.261  20.487  67.297  1.00  0.00    -0.367 A  
HETATM   22  C   UNL     1      -6.553  19.479  67.943  1.00  0.00    -0.260 A  
HETATM   23  C   UNL     1      -8.643  20.375  67.165  1.00  0.00    -0.402 A  
HETATM   24  C   UNL     1      -9.309  19.251  67.658  1.00  0.00    -0.307 A  
HETATM   25 CL   UNL     1     -11.029  19.206  67.449  1.00  0.00    -0.516 Cl 
ENDBRANCH  17  18
ENDBRANCH  16  17
ENDBRANCH   9  16
ENDBRANCH   6   9
TORSDOF 6
ENDMDL
MODEL       19
REMARK 921   NORMALIZED FREE ENERGY PREDICTED BY IDOCK:   -6.29 KCAL/MOL
REMARK 922        TOTAL FREE ENERGY PREDICTED BY IDOCK:   -9.52 KCAL/MOL
REMARK 923 INTER-LIGAND FREE ENERGY PREDICTED BY IDOCK:   -9.04 KCAL/MOL
REMARK 924 INTRA-LIGAND FREE ENERGY PREDICTED BY IDOCK:   -0.48 KCAL/MOL
REMARK 927      BINDING AFFINITY PREDICTED BY RF-SCORE:    0.00 PKD
ROOT
HETATM    1 CL   UNL     1     -12.550  16.140  74.424  1.00  0.00    -0.635 Cl 
HETATM    2  C   UNL     1     -12.464  15.492  72.833  1.00  0.00    -0.424 A  
HETATM    3  C   UNL     1     -11.466  15.925  71.963  1.00  0.00    -0.422 A  
HETATM    4  C   UNL     1     -11.364  15.363  70.686  1.00  0.00    -0.332 A  
HETATM    5 CL   UNL     1     -10.104  15.948  69.657  1.00  0.00    -0.275 Cl 
HETATM    6  C   UNL     1     -12.254  14.359  70.273  1.00  0.00    -0.397 A  
HETATM    7  C   UNL     1     -13.276  13.968  71.163  1.00  0.00    -0.337 A  
HETATM    8  C   UNL     1     -13.380  14.527  72.435  1.00  0.00    -0.526 A  
ENDROOT
BRANCH   6   9
HETATM    9  C   UNL     1     -12.112  13.639  68.938  1.00  0.00    -0.300 C  
BRANCH   9  10
HETATM   10  C   UNL     1     -11.667  14.599  67.807  1.00  0.00    -0.359 C  
BRANCH  10  11
HETATM   11  N   UNL     1     -11.422  13.983  66.515  1.00  0.00    -0.342 NA 
HETATM   12  C   UNL     1     -10.201  13.783  65.932  1.00  0.00    -0.313 A  
HETATM   13  C   UNL     1     -12.359  13.438  65.682  1.00  0.00    -0.470 A  
HETATM   14  N   UNL     1     -11.825  13.033  64.552  1.00  0.00    -0.356 NA 
HETATM   15  C   UNL     1     -10.480  13.242  64.700  1.00  0.00    -0.402 A  
ENDBRANCH  10  11
ENDBRANCH   9  10
BRANCH   9  16
HETATM   16  O   UNL     1     -11.190  12.539  69.021  1.00  0.00    -0.252 OA 
BRANCH  16  17
HETATM   17  C   UNL     1     -11.828  11.260  68.977  1.00  0.00    -0.352 C  
BRANCH  17  18
HETATM   18  C   UNL     1     -11.054  10.304  69.844  1.00  0.00    -0.362 A  
HETATM   19  C   UNL     1      -9.805   9.784  69.461  1.00  0.00    -0.214 A  
HETATM   20 CL   UNL     1      -9.062  10.165  67.945  1.00  0.00    -0.131 Cl 
HETATM   21  C   UNL     1      -9.610   8.557  71.542  1.00  0.00    -0.297 A  
HETATM   22  C   UNL     1      -9.091   8.922  70.304  1.00  0.00    -0.201 A  
HETATM   23  C   UNL     1     -10.859   9.036  71.927  1.00  0.00    -0.413 A  
HETATM   24  C   UNL     1     -11.575   9.893  71.088  1.00  0.00    -0.389 A  
HETATM   25 CL   UNL     1     -13.122  10.431  71.654  1.00  0.00    -0.535 Cl 
ENDBRANCH  17  18
ENDBRANCH  16  17
ENDBRANCH   9  16
ENDBRANCH   6   9
TORSDOF 6
ENDMDL
MODEL       20
REMARK 921   NORMALIZED FREE ENERGY PREDICTED BY IDOCK:   -6.27 KCAL/MOL
REMARK 922        TOTAL FREE ENERGY PREDICTED BY IDOCK:   -9.49 KCAL/MOL
REMARK 923 INTER-LIGAND FREE ENERGY PREDICTED BY IDOCK:   -8.59 KCAL/MOL
REMARK 924 INTRA-LIGAND FREE ENERGY PREDICTED BY IDOCK:   -0.90 KCAL/MOL
REMARK 927      BINDING AFFINITY PREDICTED BY RF-SCORE:    0.00 PKD
ROOT
HETATM    1 CL   UNL     1      -7.431  21.064  67.095  1.00  0.00    -0.345 Cl 
HETATM    2  C   UNL     1      -8.531  19.761  67.317  1.00  0.00    -0.317 A  
HETATM    3  C   UNL     1      -9.225  19.247  66.223  1.00  0.00    -0.362 A  
HETATM    4  C   UNL     1     -10.082  18.156  66.393  1.00  0.00    -0.389 A  
HETATM    5 CL   UNL     1     -10.914  17.570  64.995  1.00  0.00     0.095 Cl 
HETATM    6  C   UNL     1     -10.246  17.564  67.656  1.00  0.00    -0.343 A  
HETATM    7  C   UNL     1      -9.558  18.129  68.750  1.00  0.00    -0.304 A  
HETATM    8  C   UNL     1      -8.704  19.217  68.583  1.00  0.00    -0.394 A  
ENDROOT
BRANCH   6   9
HETATM    9  C   UNL     1     -11.078  16.305  67.868  1.00  0.00    -0.270 C  
BRANCH   9  10
HETATM   10  C   UNL     1     -10.328  15.032  67.406  1.00  0.00    -0.238 C  
BRANCH  10  11
HETATM   11  N   UNL     1     -10.908  14.334  66.272  1.00  0.00    -0.305 NA 
HETATM   12  C   UNL     1     -12.240  14.108  66.056  1.00  0.00    -0.443 A  
HETATM   13  C   UNL     1     -10.236  13.836  65.191  1.00  0.00    -0.345 A  
HETATM   14  N   UNL     1     -11.038  13.190  64.377  1.00  0.00    -0.362 NA 
HETATM   15  C   UNL     1     -12.291  13.357  64.905  1.00  0.00    -0.412 A  
ENDBRANCH  10  11
ENDBRANCH   9  10
BRANCH   9  16
HETATM   16  O   UNL     1     -11.475  16.154  69.242  1.00  0.00    -0.334 OA 
BRANCH  16  17
HETATM   17  C   UNL     1     -10.772  15.112  69.923  1.00  0.00    -0.257 C  
BRANCH  17  18
HETATM   18  C   UNL     1     -11.750  14.342  70.770  1.00  0.00    -0.296 A  
HETATM   19  C   UNL     1     -12.199  13.056  70.419  1.00  0.00    -0.310 A  
HETATM   20 CL   UNL     1     -11.700  12.259  68.966  1.00  0.00    -0.355 Cl 
HETATM   21  C   UNL     1     -13.541  12.911  72.431  1.00  0.00    -0.577 A  
HETATM   22  C   UNL     1     -13.083  12.349  71.244  1.00  0.00    -0.218 A  
HETATM   23  C   UNL     1     -13.133  14.195  72.782  1.00  0.00    -0.573 A  
HETATM   24  C   UNL     1     -12.253  14.904  71.960  1.00  0.00    -0.358 A  
HETATM   25 CL   UNL     1     -11.808  16.496  72.480  1.00  0.00    -0.576 Cl 
ENDBRANCH  17  18
ENDBRANCH  16  17
ENDBRANCH   9  16
ENDBRANCH   6   9
TORSDOF 6
ENDMDL
MODEL       21
REMARK 921   NORMALIZED FREE ENERGY PREDICTED BY IDOCK:   -6.26 KCAL/MOL
REMARK 922        TOTAL FREE ENERGY PREDICTED BY IDOCK:   -9.47 KCAL/MOL
REMARK 923 INTER-LIGAND FREE ENERGY PREDICTED BY IDOCK:   -8.42 KCAL/MOL
REMARK 924 INTRA-LIGAND FREE ENERGY PREDICTED BY IDOCK:   -1.05 KCAL/MOL
REMARK 927      BINDING AFFINITY PREDICTED BY RF-SCORE:    0.00 PKD
ROOT
HETATM    1 CL   UNL     1      -8.422  19.315  68.703  1.00  0.00    -0.400 Cl 
HETATM    2  C   UNL     1      -9.070  17.751  68.400  1.00  0.00    -0.278 A  
HETATM    3  C   UNL     1     -10.206  17.328  69.085  1.00  0.00    -0.283 A  
HETATM    4  C   UNL     1     -10.764  16.077  68.804  1.00  0.00    -0.282 A  
HETATM    5 CL   UNL     1     -12.172  15.614  69.692  1.00  0.00    -0.334 Cl 
HETATM    6  C   UNL     1     -10.193  15.242  67.829  1.00  0.00    -0.237 A  
HETATM    7  C   UNL     1      -9.023  15.683  67.178  1.00  0.00    -0.232 A  
HETATM    8  C   UNL     1      -8.465  16.929  67.457  1.00  0.00    -0.204 A  
ENDROOT
BRANCH   6   9
HETATM    9  C   UNL     1     -10.829  13.923  67.408  1.00  0.00    -0.285 C  
BRANCH   9  10
HETATM   10  C   UNL     1     -10.211  13.376  66.096  1.00  0.00    -0.301 C  
BRANCH  10  11
HETATM   11  N   UNL     1     -11.148  13.112  65.019  1.00  0.00    -0.293 NA 
HETATM   12  C   UNL     1     -11.468  11.884  64.508  1.00  0.00    -0.294 A  
HETATM   13  C   UNL     1     -11.922  14.032  64.368  1.00  0.00    -0.454 A  
HETATM   14  N   UNL     1     -12.605  13.485  63.389  1.00  0.00    -0.761 NA 
HETATM   15  C   UNL     1     -12.331  12.145  63.470  1.00  0.00    -0.574 A  
ENDBRANCH  10  11
ENDBRANCH   9  10
BRANCH   9  16
HETATM   16  O   UNL     1     -10.721  12.926  68.438  1.00  0.00    -0.240 OA 
BRANCH  16  17
HETATM   17  C   UNL     1     -11.878  12.092  68.542  1.00  0.00    -0.311 C  
BRANCH  17  18
HETATM   18  C   UNL     1     -11.543  10.907  69.408  1.00  0.00    -0.387 A  
HETATM   19  C   UNL     1     -10.776   9.825  68.939  1.00  0.00    -0.217 A  
HETATM   20 CL   UNL     1     -10.180   9.739  67.317  1.00  0.00    -0.271 Cl 
HETATM   21  C   UNL     1     -10.887   8.733  71.099  1.00  0.00    -0.335 A  
HETATM   22  C   UNL     1     -10.450   8.753  69.779  1.00  0.00    -0.222 A  
HETATM   23  C   UNL     1     -11.673   9.779  71.574  1.00  0.00    -0.450 A  
HETATM   24  C   UNL     1     -12.003  10.849  70.739  1.00  0.00    -0.346 A  
HETATM   25 CL   UNL     1     -12.990  12.100  71.421  1.00  0.00    -0.426 Cl 
ENDBRANCH  17  18
ENDBRANCH  16  17
ENDBRANCH   9  16
ENDBRANCH   6   9
TORSDOF 6
ENDMDL
MODEL       22
REMARK 921   NORMALIZED FREE ENERGY PREDICTED BY IDOCK:   -6.22 KCAL/MOL
REMARK 922        TOTAL FREE ENERGY PREDICTED BY IDOCK:   -9.42 KCAL/MOL
REMARK 923 INTER-LIGAND FREE ENERGY PREDICTED BY IDOCK:   -8.50 KCAL/MOL
REMARK 924 INTRA-LIGAND FREE ENERGY PREDICTED BY IDOCK:   -0.92 KCAL/MOL
REMARK 927      BINDING AFFINITY PREDICTED BY RF-SCORE:    0.00 PKD
ROOT
HETATM    1 CL   UNL     1     -12.744  11.871  63.443  1.00  0.00    -0.655 Cl 
HETATM    2  C   UNL     1     -11.971  12.645  64.769  1.00  0.00    -0.402 A  
HETATM    3  C   UNL     1     -10.700  12.233  65.166  1.00  0.00    -0.330 A  
HETATM    4  C   UNL     1     -10.049  12.894  66.212  1.00  0.00    -0.276 A  
HETATM    5 CL   UNL     1      -8.476  12.330  66.655  1.00  0.00    -0.113 Cl 
HETATM    6  C   UNL     1     -10.660  13.977  66.865  1.00  0.00    -0.280 A  
HETATM    7  C   UNL     1     -11.960  14.347  66.464  1.00  0.00    -0.406 A  
HETATM    8  C   UNL     1     -12.611  13.690  65.423  1.00  0.00    -0.533 A  
ENDROOT
BRANCH   6   9
HETATM    9  C   UNL     1      -9.945  14.799  67.930  1.00  0.00    -0.213 C  
BRANCH   9  10
HETATM   10  C   UNL     1      -9.147  15.975  67.314  1.00  0.00    -0.204 C  
BRANCH  10  11
HETATM   11  N   UNL     1      -9.618  17.306  67.655  1.00  0.00    -0.252 NA 
HETATM   12  C   UNL     1      -9.182  18.076  68.698  1.00  0.00    -0.267 A  
HETATM   13  C   UNL     1     -10.532  18.049  66.962  1.00  0.00    -0.351 A  
HETATM   14  N   UNL     1     -10.803  19.179  67.575  1.00  0.00    -0.459 NA 
HETATM   15  C   UNL     1      -9.963  19.206  68.657  1.00  0.00    -0.419 A  
ENDBRANCH  10  11
ENDBRANCH   9  10
BRANCH   9  16
HETATM   16  O   UNL     1     -10.862  15.307  68.915  1.00  0.00    -0.229 OA 
BRANCH  16  17
HETATM   17  C   UNL     1     -10.483  14.992  70.257  1.00  0.00    -0.031 C  
BRANCH  17  18
HETATM   18  C   UNL     1     -11.677  14.422  70.975  1.00  0.00    -0.256 A  
HETATM   19  C   UNL     1     -12.226  13.170  70.644  1.00  0.00    -0.321 A  
HETATM   20 CL   UNL     1     -11.605  12.189  69.361  1.00  0.00    -0.362 Cl 
HETATM   21  C   UNL     1     -13.884  13.367  72.400  1.00  0.00    -0.665 A  
HETATM   22  C   UNL     1     -13.316  12.648  71.353  1.00  0.00    -0.087 A  
HETATM   23  C   UNL     1     -13.375  14.621  72.723  1.00  0.00    -0.593 A  
HETATM   24  C   UNL     1     -12.290  15.146  72.017  1.00  0.00    -0.356 A  
HETATM   25 CL   UNL     1     -11.733  16.716  72.491  1.00  0.00    -0.437 Cl 
ENDBRANCH  17  18
ENDBRANCH  16  17
ENDBRANCH   9  16
ENDBRANCH   6   9
TORSDOF 6
ENDMDL
MODEL       23
REMARK 921   NORMALIZED FREE ENERGY PREDICTED BY IDOCK:   -6.20 KCAL/MOL
REMARK 922        TOTAL FREE ENERGY PREDICTED BY IDOCK:   -9.40 KCAL/MOL
REMARK 923 INTER-LIGAND FREE ENERGY PREDICTED BY IDOCK:   -8.22 KCAL/MOL
REMARK 924 INTRA-LIGAND FREE ENERGY PREDICTED BY IDOCK:   -1.18 KCAL/MOL
REMARK 927      BINDING AFFINITY PREDICTED BY RF-SCORE:    0.00 PKD
ROOT
HETATM    1 CL   UNL     1     -10.129  19.712  66.012  1.00  0.00    -0.544 Cl 
HETATM    2  C   UNL     1     -10.267  18.197  66.814  1.00  0.00    -0.372 A  
HETATM    3  C   UNL     1     -10.466  18.159  68.192  1.00  0.00    -0.365 A  
HETATM    4  C   UNL     1     -10.628  16.930  68.839  1.00  0.00    -0.353 A  
HETATM    5 CL   UNL     1     -10.869  16.956  70.551  1.00  0.00     0.152 Cl 
HETATM    6  C   UNL     1     -10.599  15.729  68.111  1.00  0.00    -0.275 A  
HETATM    7  C   UNL     1     -10.360  15.798  66.723  1.00  0.00    -0.293 A  
HETATM    8  C   UNL     1     -10.198  17.021  66.077  1.00  0.00    -0.337 A  
ENDROOT
BRANCH   6   9
HETATM    9  C   UNL     1     -10.884  14.377  68.753  1.00  0.00    -0.251 C  
BRANCH   9  10
HETATM   10  C   UNL     1     -12.401  14.142  68.958  1.00  0.00    -0.110 C  
BRANCH  10  11
HETATM   11  N   UNL     1     -12.863  14.158  70.334  1.00  0.00    -0.275 NA 
HETATM   12  C   UNL     1     -12.655  13.181  71.269  1.00  0.00    -0.290 A  
HETATM   13  C   UNL     1     -13.531  15.175  70.958  1.00  0.00    -0.431 A  
HETATM   14  N   UNL     1     -13.878  14.848  72.182  1.00  0.00    -0.424 NA 
HETATM   15  C   UNL     1     -13.334  13.607  72.386  1.00  0.00    -0.540 A  
ENDBRANCH  10  11
ENDBRANCH   9  10
BRANCH   9  16
HETATM   16  O   UNL     1     -10.333  13.295  67.983  1.00  0.00    -0.229 OA 
BRANCH  16  17
HETATM   17  C   UNL     1     -11.318  12.362  67.531  1.00  0.00    -0.315 C  
BRANCH  17  18
HETATM   18  C   UNL     1     -11.041  12.029  66.089  1.00  0.00    -0.367 A  
HETATM   19  C   UNL     1     -10.064  11.092  65.708  1.00  0.00    -0.252 A  
HETATM   20 CL   UNL     1      -9.066  10.266  66.857  1.00  0.00    -0.156 Cl 
HETATM   21  C   UNL     1     -10.604  11.391  63.366  1.00  0.00    -0.435 A  
HETATM   22  C   UNL     1      -9.852  10.775  64.360  1.00  0.00    -0.374 A  
HETATM   23  C   UNL     1     -11.556  12.344  63.719  1.00  0.00    -0.553 A  
HETATM   24  C   UNL     1     -11.768  12.664  65.062  1.00  0.00    -0.359 A  
HETATM   25 CL   UNL     1     -12.969  13.866  65.400  1.00  0.00    -0.468 Cl 
ENDBRANCH  17  18
ENDBRANCH  16  17
ENDBRANCH   9  16
ENDBRANCH   6   9
TORSDOF 6
ENDMDL
MODEL       24
REMARK 921   NORMALIZED FREE ENERGY PREDICTED BY IDOCK:   -6.20 KCAL/MOL
REMARK 922        TOTAL FREE ENERGY PREDICTED BY IDOCK:   -9.39 KCAL/MOL
REMARK 923 INTER-LIGAND FREE ENERGY PREDICTED BY IDOCK:   -8.59 KCAL/MOL
REMARK 924 INTRA-LIGAND FREE ENERGY PREDICTED BY IDOCK:   -0.80 KCAL/MOL
REMARK 927      BINDING AFFINITY PREDICTED BY RF-SCORE:    0.00 PKD
ROOT
HETATM    1 CL   UNL     1     -13.826  14.224  72.807  1.00  0.00    -0.467 Cl 
HETATM    2  C   UNL     1     -12.788  14.550  71.475  1.00  0.00    -0.336 A  
HETATM    3  C   UNL     1     -12.776  13.690  70.380  1.00  0.00    -0.210 A  
HETATM    4  C   UNL     1     -11.970  13.981  69.275  1.00  0.00    -0.353 A  
HETATM    5 CL   UNL     1     -12.002  12.870  67.951  1.00  0.00    -0.379 Cl 
HETATM    6  C   UNL     1     -11.175  15.138  69.254  1.00  0.00    -0.287 A  
HETATM    7  C   UNL     1     -11.181  15.970  70.392  1.00  0.00    -0.401 A  
HETATM    8  C   UNL     1     -11.983  15.682  71.494  1.00  0.00    -0.482 A  
ENDROOT
BRANCH   6   9
HETATM    9  C   UNL     1     -10.370  15.555  68.029  1.00  0.00    -0.247 C  
BRANCH   9  10
HETATM   10  C   UNL     1      -9.393  16.715  68.347  1.00  0.00    -0.224 C  
BRANCH  10  11
HETATM   11  N   UNL     1      -9.602  17.941  67.597  1.00  0.00    -0.266 NA 
HETATM   12  C   UNL     1     -10.338  19.021  68.000  1.00  0.00    -0.394 A  
HETATM   13  C   UNL     1      -9.052  18.259  66.387  1.00  0.00    -0.249 A  
HETATM   14  N   UNL     1      -9.502  19.408  65.937  1.00  0.00    -0.413 NA 
HETATM   15  C   UNL     1     -10.302  19.893  66.938  1.00  0.00    -0.468 A  
ENDBRANCH  10  11
ENDBRANCH   9  10
BRANCH   9  16
HETATM   16  O   UNL     1      -9.635  14.452  67.473  1.00  0.00    -0.209 OA 
BRANCH  16  17
HETATM   17  C   UNL     1      -9.319  14.622  66.089  1.00  0.00    -0.230 C  
BRANCH  17  18
HETATM   18  C   UNL     1     -10.224  13.738  65.274  1.00  0.00    -0.355 A  
HETATM   19  C   UNL     1     -11.271  14.253  64.488  1.00  0.00    -0.322 A  
HETATM   20 CL   UNL     1     -11.638  15.942  64.416  1.00  0.00    -0.340 Cl 
HETATM   21  C   UNL     1     -11.857  12.035  63.709  1.00  0.00    -0.581 A  
HETATM   22  C   UNL     1     -12.076  13.409  63.712  1.00  0.00    -0.516 A  
HETATM   23  C   UNL     1     -10.846  11.501  64.503  1.00  0.00    -0.390 A  
HETATM   24  C   UNL     1     -10.044  12.340  65.280  1.00  0.00    -0.271 A  
HETATM   25 CL   UNL     1      -8.816  11.581  66.238  1.00  0.00    -0.196 Cl 
ENDBRANCH  17  18
ENDBRANCH  16  17
ENDBRANCH   9  16
ENDBRANCH   6   9
TORSDOF 6
ENDMDL
MODEL       25
REMARK 921   NORMALIZED FREE ENERGY PREDICTED BY IDOCK:   -6.19 KCAL/MOL
REMARK 922        TOTAL FREE ENERGY PREDICTED BY IDOCK:   -9.38 KCAL/MOL
REMARK 923 INTER-LIGAND FREE ENERGY PREDICTED BY IDOCK:   -8.34 KCAL/MOL
REMARK 924 INTRA-LIGAND FREE ENERGY PREDICTED BY IDOCK:   -1.04 KCAL/MOL
REMARK 927      BINDING AFFINITY PREDICTED BY RF-SCORE:    0.00 PKD
ROOT
HETATM    1 CL   UNL     1     -11.432   8.353  72.512  1.00  0.00    -0.447 Cl 
HETATM    2  C   UNL     1     -11.178   9.484  71.243  1.00  0.00    -0.382 A  
HETATM    3  C   UNL     1     -10.015   9.417  70.478  1.00  0.00    -0.328 A  
HETATM    4  C   UNL     1      -9.829  10.305  69.414  1.00  0.00    -0.227 A  
HETATM    5 CL   UNL     1      -8.363  10.167  68.508  1.00  0.00    -0.112 Cl 
HETATM    6  C   UNL     1     -10.808  11.262  69.101  1.00  0.00    -0.269 A  
HETATM    7  C   UNL     1     -11.958  11.329  69.916  1.00  0.00    -0.440 A  
HETATM    8  C   UNL     1     -12.144  10.446  70.977  1.00  0.00    -0.488 A  
ENDROOT
BRANCH   6   9
HETATM    9  C   UNL     1     -10.703  12.172  67.884  1.00  0.00    -0.207 C  
BRANCH   9  10
HETATM   10  C   UNL     1     -12.020  12.202  67.069  1.00  0.00    -0.083 C  
BRANCH  10  11
HETATM   11  N   UNL     1     -11.872  12.121  65.627  1.00  0.00    -0.475 NA 
HETATM   12  C   UNL     1     -10.821  11.563  64.951  1.00  0.00    -0.283 A  
HETATM   13  C   UNL     1     -12.780  12.527  64.690  1.00  0.00    -0.349 A  
HETATM   14  N   UNL     1     -12.314  12.389  63.470  1.00  0.00    -0.632 NA 
HETATM   15  C   UNL     1     -11.093  11.786  63.622  1.00  0.00    -0.439 A  
ENDBRANCH  10  11
ENDBRANCH   9  10
BRANCH   9  16
HETATM   16  O   UNL     1     -10.338  13.513  68.251  1.00  0.00    -0.239 OA 
BRANCH  16  17
HETATM   17  C   UNL     1     -11.416  14.446  68.136  1.00  0.00    -0.310 C  
BRANCH  17  18
HETATM   18  C   UNL     1     -10.844  15.832  68.003  1.00  0.00    -0.309 A  
HETATM   19  C   UNL     1     -10.693  16.692  69.106  1.00  0.00    -0.342 A  
HETATM   20 CL   UNL     1     -11.185  16.251  70.706  1.00  0.00    -0.358 Cl 
HETATM   21  C   UNL     1      -9.703  18.406  67.709  1.00  0.00    -0.316 A  
HETATM   22  C   UNL     1     -10.126  17.964  68.958  1.00  0.00    -0.292 A  
HETATM   23  C   UNL     1      -9.872  17.582  66.599  1.00  0.00    -0.308 A  
HETATM   24  C   UNL     1     -10.440  16.314  66.742  1.00  0.00    -0.287 A  
HETATM   25 CL   UNL     1     -10.611  15.366  65.302  1.00  0.00    -0.418 Cl 
ENDBRANCH  17  18
ENDBRANCH  16  17
ENDBRANCH   9  16
ENDBRANCH   6   9
TORSDOF 6
ENDMDL
MODEL       26
REMARK 921   NORMALIZED FREE ENERGY PREDICTED BY IDOCK:   -6.18 KCAL/MOL
REMARK 922        TOTAL FREE ENERGY PREDICTED BY IDOCK:   -9.36 KCAL/MOL
REMARK 923 INTER-LIGAND FREE ENERGY PREDICTED BY IDOCK:   -8.29 KCAL/MOL
REMARK 924 INTRA-LIGAND FREE ENERGY PREDICTED BY IDOCK:   -1.07 KCAL/MOL
REMARK 927      BINDING AFFINITY PREDICTED BY RF-SCORE:    0.00 PKD
ROOT
HETATM    1 CL   UNL     1      -8.509  20.249  66.974  1.00  0.00    -0.390 Cl 
HETATM    2  C   UNL     1      -9.128  18.771  67.597  1.00  0.00    -0.282 A  
HETATM    3  C   UNL     1      -8.264  17.857  68.198  1.00  0.00    -0.269 A  
HETATM    4  C   UNL     1      -8.772  16.677  68.749  1.00  0.00    -0.260 A  
HETATM    5 CL   UNL     1      -7.645  15.588  69.477  1.00  0.00    -0.219 Cl 
HETATM    6  C   UNL     1     -10.149  16.405  68.711  1.00  0.00    -0.247 A  
HETATM    7  C   UNL     1     -10.993  17.331  68.065  1.00  0.00    -0.194 A  
HETATM    8  C   UNL     1     -10.489  18.507  67.514  1.00  0.00    -0.453 A  
ENDROOT
BRANCH   6   9
HETATM    9  C   UNL     1     -10.762  15.190  69.398  1.00  0.00    -0.265 C  
BRANCH   9  10
HETATM   10  C   UNL     1     -12.275  15.383  69.671  1.00  0.00    -0.282 C  
BRANCH  10  11
HETATM   11  N   UNL     1     -12.640  15.633  71.054  1.00  0.00    -0.452 NA 
HETATM   12  C   UNL     1     -13.886  15.491  71.600  1.00  0.00    -0.456 A  
HETATM   13  C   UNL     1     -11.796  15.991  72.068  1.00  0.00    -0.533 A  
HETATM   14  N   UNL     1     -12.449  16.219  73.184  1.00  0.00    -0.481 NA 
HETATM   15  C   UNL     1     -13.753  15.907  72.904  1.00  0.00    -0.511 A  
ENDBRANCH  10  11
ENDBRANCH   9  10
BRANCH   9  16
HETATM   16  O   UNL     1     -10.565  13.989  68.633  1.00  0.00    -0.246 OA 
BRANCH  16  17
HETATM   17  C   UNL     1     -11.751  13.203  68.495  1.00  0.00    -0.352 C  
BRANCH  17  18
HETATM   18  C   UNL     1     -11.422  11.771  68.821  1.00  0.00    -0.350 A  
HETATM   19  C   UNL     1     -10.688  10.951  67.945  1.00  0.00    -0.231 A  
HETATM   20 CL   UNL     1     -10.129  11.500  66.402  1.00  0.00    -0.241 Cl 
HETATM   21  C   UNL     1     -10.775   9.102  69.508  1.00  0.00    -0.226 A  
HETATM   22  C   UNL     1     -10.366   9.632  68.289  1.00  0.00    -0.240 A  
HETATM   23  C   UNL     1     -11.529   9.886  70.376  1.00  0.00    -0.372 A  
HETATM   24  C   UNL     1     -11.854  11.202  70.035  1.00  0.00    -0.361 A  
HETATM   25 CL   UNL     1     -12.800  12.096  71.179  1.00  0.00    -0.379 Cl 
ENDBRANCH  17  18
ENDBRANCH  16  17
ENDBRANCH   9  16
ENDBRANCH   6   9
TORSDOF 6
ENDMDL
MODEL       27
REMARK 921   NORMALIZED FREE ENERGY PREDICTED BY IDOCK:   -6.18 KCAL/MOL
REMARK 922        TOTAL FREE ENERGY PREDICTED BY IDOCK:   -9.36 KCAL/MOL
REMARK 923 INTER-LIGAND FREE ENERGY PREDICTED BY IDOCK:   -8.53 KCAL/MOL
REMARK 924 INTRA-LIGAND FREE ENERGY PREDICTED BY IDOCK:   -0.83 KCAL/MOL
REMARK 927      BINDING AFFINITY PREDICTED BY RF-SCORE:    0.00 PKD
ROOT
HETATM    1 CL   UNL     1      -8.601  19.687  68.360  1.00  0.00    -0.377 Cl 
HETATM    2  C   UNL     1      -9.218  18.111  68.055  1.00  0.00    -0.279 A  
HETATM    3  C   UNL     1     -10.269  17.618  68.825  1.00  0.00    -0.373 A  
HETATM    4  C   UNL     1     -10.806  16.357  68.546  1.00  0.00    -0.339 A  
HETATM    5 CL   UNL     1     -12.107  15.806  69.542  1.00  0.00    -0.330 Cl 
HETATM    6  C   UNL     1     -10.299  15.582  67.490  1.00  0.00    -0.271 A  
HETATM    7  C   UNL     1      -9.212  16.092  66.752  1.00  0.00    -0.255 A  
HETATM    8  C   UNL     1      -8.676  17.348  67.028  1.00  0.00    -0.249 A  
ENDROOT
BRANCH   6   9
HETATM    9  C   UNL     1     -10.924  14.255  67.076  1.00  0.00    -0.303 C  
BRANCH   9  10
HETATM   10  C   UNL     1     -10.291  13.698  65.777  1.00  0.00    -0.298 C  
BRANCH  10  11
HETATM   11  N   UNL     1     -11.200  13.018  64.872  1.00  0.00    -0.294 NA 
HETATM   12  C   UNL     1     -10.847  12.263  63.787  1.00  0.00    -0.442 A  
HETATM   13  C   UNL     1     -12.561  12.959  64.977  1.00  0.00    -0.472 A  
HETATM   14  N   UNL     1     -13.099  12.334  63.955  1.00  0.00    -0.761 NA 
HETATM   15  C   UNL     1     -12.038  11.893  63.209  1.00  0.00    -0.357 A  
ENDBRANCH  10  11
ENDBRANCH   9  10
BRANCH   9  16
HETATM   16  O   UNL     1     -10.822  13.270  68.119  1.00  0.00    -0.237 OA 
BRANCH  16  17
HETATM   17  C   UNL     1     -11.982  12.441  68.230  1.00  0.00    -0.214 C  
BRANCH  17  18
HETATM   18  C   UNL     1     -11.630  11.224  69.043  1.00  0.00    -0.386 A  
HETATM   19  C   UNL     1     -11.984  11.098  70.398  1.00  0.00    -0.378 A  
HETATM   20 CL   UNL     1     -12.819  12.341  71.263  1.00  0.00    -0.406 Cl 
HETATM   21  C   UNL     1     -11.000   8.886  70.510  1.00  0.00    -0.280 A  
HETATM   22  C   UNL     1     -11.673   9.939  71.121  1.00  0.00    -0.478 A  
HETATM   23  C   UNL     1     -10.614   9.003  69.177  1.00  0.00    -0.219 A  
HETATM   24  C   UNL     1     -10.919  10.159  68.454  1.00  0.00    -0.244 A  
HETATM   25 CL   UNL     1     -10.392  10.212  66.805  1.00  0.00    -0.289 Cl 
ENDBRANCH  17  18
ENDBRANCH  16  17
ENDBRANCH   9  16
ENDBRANCH   6   9
TORSDOF 6
ENDMDL
MODEL       28
REMARK 921   NORMALIZED FREE ENERGY PREDICTED BY IDOCK:   -6.17 KCAL/MOL
REMARK 922        TOTAL FREE ENERGY PREDICTED BY IDOCK:   -9.36 KCAL/MOL
REMARK 923 INTER-LIGAND FREE ENERGY PREDICTED BY IDOCK:   -8.48 KCAL/MOL
REMARK 924 INTRA-LIGAND FREE ENERGY PREDICTED BY IDOCK:   -0.87 KCAL/MOL
REMARK 927      BINDING AFFINITY PREDICTED BY RF-SCORE:    0.00 PKD
ROOT
HETATM    1 CL   UNL     1     -13.227  11.816  71.955  1.00  0.00    -0.569 Cl 
HETATM    2  C   UNL     1     -12.399  12.406  70.568  1.00  0.00    -0.262 A  
HETATM    3  C   UNL     1     -12.286  13.779  70.363  1.00  0.00    -0.433 A  
HETATM    4  C   UNL     1     -11.570  14.262  69.263  1.00  0.00    -0.306 A  
HETATM    5 CL   UNL     1     -11.471  15.976  69.067  1.00  0.00    -0.364 Cl 
HETATM    6  C   UNL     1     -10.956  13.375  68.364  1.00  0.00    -0.291 A  
HETATM    7  C   UNL     1     -11.118  11.991  68.579  1.00  0.00    -0.289 A  
HETATM    8  C   UNL     1     -11.832  11.508  69.674  1.00  0.00    -0.421 A  
ENDROOT
BRANCH   6   9
HETATM    9  C   UNL     1     -10.072  13.853  67.218  1.00  0.00    -0.242 C  
BRANCH   9  10
HETATM   10  C   UNL     1     -10.900  14.500  66.080  1.00  0.00    -0.317 C  
BRANCH  10  11
HETATM   11  N   UNL     1     -11.457  13.583  65.103  1.00  0.00    -0.296 NA 
HETATM   12  C   UNL     1     -10.765  12.933  64.117  1.00  0.00    -0.415 A  
HETATM   13  C   UNL     1     -12.753  13.155  65.033  1.00  0.00    -0.392 A  
HETATM   14  N   UNL     1     -12.954  12.388  63.985  1.00  0.00    -0.765 NA 
HETATM   15  C   UNL     1     -11.720  12.242  63.409  1.00  0.00    -0.457 A  
ENDBRANCH  10  11
ENDBRANCH   9  10
BRANCH   9  16
HETATM   16  O   UNL     1      -9.071  14.781  67.669  1.00  0.00    -0.178 OA 
BRANCH  16  17
HETATM   17  C   UNL     1      -8.686  15.729  66.669  1.00  0.00    -0.288 C  
BRANCH  17  18
HETATM   18  C   UNL     1      -8.452  17.061  67.330  1.00  0.00    -0.208 A  
HETATM   19  C   UNL     1      -9.287  18.170  67.103  1.00  0.00    -0.263 A  
HETATM   20 CL   UNL     1     -10.633  18.116  66.017  1.00  0.00    -0.360 Cl 
HETATM   21  C   UNL     1      -8.006  19.526  68.649  1.00  0.00    -0.381 A  
HETATM   22  C   UNL     1      -9.066  19.387  67.759  1.00  0.00    -0.373 A  
HETATM   23  C   UNL     1      -7.149  18.450  68.865  1.00  0.00    -0.292 A  
HETATM   24  C   UNL     1      -7.365  17.235  68.210  1.00  0.00    -0.214 A  
HETATM   25 CL   UNL     1      -6.242  15.957  68.540  1.00  0.00    -0.105 Cl 
ENDBRANCH  17  18
ENDBRANCH  16  17
ENDBRANCH   9  16
ENDBRANCH   6   9
TORSDOF 6
ENDMDL
MODEL       29
REMARK 921   NORMALIZED FREE ENERGY PREDICTED BY IDOCK:   -6.16 KCAL/MOL
REMARK 922        TOTAL FREE ENERGY PREDICTED BY IDOCK:   -9.34 KCAL/MOL
REMARK 923 INTER-LIGAND FREE ENERGY PREDICTED BY IDOCK:   -8.65 KCAL/MOL
REMARK 924 INTRA-LIGAND FREE ENERGY PREDICTED BY IDOCK:   -0.68 KCAL/MOL
REMARK 927      BINDING AFFINITY PREDICTED BY RF-SCORE:    0.00 PKD
ROOT
HETATM    1 CL   UNL     1     -13.153  13.222  72.138  1.00  0.00    -0.492 Cl 
HETATM    2  C   UNL     1     -12.312  13.626  70.694  1.00  0.00    -0.368 A  
HETATM    3  C   UNL     1     -11.898  14.939  70.477  1.00  0.00    -0.358 A  
HETATM    4  C   UNL     1     -11.170  15.259  69.327  1.00  0.00    -0.284 A  
HETATM    5 CL   UNL     1     -10.691  16.907  69.121  1.00  0.00    -0.325 Cl 
HETATM    6  C   UNL     1     -10.844  14.268  68.388  1.00  0.00    -0.263 A  
HETATM    7  C   UNL     1     -11.308  12.956  68.616  1.00  0.00    -0.327 A  
HETATM    8  C   UNL     1     -12.033  12.635  69.762  1.00  0.00    -0.365 A  
ENDROOT
BRANCH   6   9
HETATM    9  C   UNL     1      -9.958  14.545  67.179  1.00  0.00    -0.252 C  
BRANCH   9  10
HETATM   10  C   UNL     1     -10.787  14.943  65.933  1.00  0.00    -0.334 C  
BRANCH  10  11
HETATM   11  N   UNL     1     -11.429  13.850  65.226  1.00  0.00    -0.307 NA 
HETATM   12  C   UNL     1     -10.810  12.930  64.425  1.00  0.00    -0.380 A  
HETATM   13  C   UNL     1     -12.751  13.507  65.283  1.00  0.00    -0.427 A  
HETATM   14  N   UNL     1     -13.031  12.519  64.465  1.00  0.00    -0.823 NA 
HETATM   15  C   UNL     1     -11.826  12.150  63.927  1.00  0.00    -0.466 A  
ENDBRANCH  10  11
ENDBRANCH   9  10
BRANCH   9  16
HETATM   16  O   UNL     1      -8.987  15.569  67.455  1.00  0.00    -0.184 OA 
BRANCH  16  17
HETATM   17  C   UNL     1      -8.584  16.295  66.290  1.00  0.00    -0.339 C  
BRANCH  17  18
HETATM   18  C   UNL     1      -8.167  17.681  66.705  1.00  0.00    -0.291 A  
HETATM   19  C   UNL     1      -6.916  17.946  67.291  1.00  0.00    -0.186 A  
HETATM   20 CL   UNL     1      -5.760  16.701  67.623  1.00  0.00    -0.147 Cl 
HETATM   21  C   UNL     1      -7.406  20.316  67.408  1.00  0.00    -0.343 A  
HETATM   22  C   UNL     1      -6.540  19.250  67.635  1.00  0.00    -0.228 A  
HETATM   23  C   UNL     1      -8.661  20.071  66.857  1.00  0.00    -0.402 A  
HETATM   24  C   UNL     1      -9.040  18.771  66.515  1.00  0.00    -0.323 A  
HETATM   25 CL   UNL     1     -10.623  18.569  65.841  1.00  0.00    -0.439 Cl 
ENDBRANCH  17  18
ENDBRANCH  16  17
ENDBRANCH   9  16
ENDBRANCH   6   9
TORSDOF 6
ENDMDL
MODEL       30
REMARK 921   NORMALIZED FREE ENERGY PREDICTED BY IDOCK:   -6.15 KCAL/MOL
REMARK 922        TOTAL FREE ENERGY PREDICTED BY IDOCK:   -9.33 KCAL/MOL
REMARK 923 INTER-LIGAND FREE ENERGY PREDICTED BY IDOCK:   -8.11 KCAL/MOL
REMARK 924 INTRA-LIGAND FREE ENERGY PREDICTED BY IDOCK:   -1.22 KCAL/MOL
REMARK 927      BINDING AFFINITY PREDICTED BY RF-SCORE:    0.00 PKD
ROOT
HETATM    1 CL   UNL     1     -10.163  12.726  64.126  1.00  0.00    -0.388 Cl 
HETATM    2  C   UNL     1     -10.577  12.692  65.795  1.00  0.00    -0.272 A  
HETATM    3  C   UNL     1      -9.972  13.587  66.676  1.00  0.00    -0.282 A  
HETATM    4  C   UNL     1     -10.343  13.594  68.024  1.00  0.00    -0.250 A  
HETATM    5 CL   UNL     1      -9.552  14.728  69.062  1.00  0.00    -0.205 Cl 
HETATM    6  C   UNL     1     -11.327  12.713  68.501  1.00  0.00    -0.333 A  
HETATM    7  C   UNL     1     -11.894  11.795  67.593  1.00  0.00    -0.241 A  
HETATM    8  C   UNL     1     -11.526  11.785  66.249  1.00  0.00    -0.296 A  
ENDROOT
BRANCH   6   9
HETATM    9  C   UNL     1     -11.845  12.762  69.933  1.00  0.00    -0.301 C  
BRANCH   9  10
HETATM   10  C   UNL     1     -12.725  14.010  70.187  1.00  0.00    -0.150 C  
BRANCH  10  11
HETATM   11  N   UNL     1     -12.559  14.648  71.481  1.00  0.00    -0.324 NA 
HETATM   12  C   UNL     1     -13.099  14.227  72.666  1.00  0.00    -0.478 A  
HETATM   13  C   UNL     1     -11.786  15.740  71.758  1.00  0.00    -0.467 A  
HETATM   14  N   UNL     1     -11.912  16.119  73.009  1.00  0.00    -0.496 NA 
HETATM   15  C   UNL     1     -12.727  15.179  73.584  1.00  0.00    -0.546 A  
ENDBRANCH  10  11
ENDBRANCH   9  10
BRANCH   9  16
HETATM   16  O   UNL     1     -12.586  11.577  70.273  1.00  0.00    -0.210 OA 
BRANCH  16  17
HETATM   17  C   UNL     1     -12.069  10.895  71.418  1.00  0.00    -0.138 C  
BRANCH  17  18
HETATM   18  C   UNL     1     -11.878   9.443  71.070  1.00  0.00    -0.396 A  
HETATM   19  C   UNL     1     -10.761   8.982  70.351  1.00  0.00    -0.227 A  
HETATM   20 CL   UNL     1      -9.525  10.044  69.769  1.00  0.00    -0.248 Cl 
HETATM   21  C   UNL     1     -11.537   6.691  70.497  1.00  0.00    -0.448 A  
HETATM   22  C   UNL     1     -10.593   7.620  70.072  1.00  0.00    -0.240 A  
HETATM   23  C   UNL     1     -12.666   7.130  71.184  1.00  0.00    -0.363 A  
HETATM   24  C   UNL     1     -12.838   8.488  71.461  1.00  0.00    -0.311 A  
HETATM   25 CL   UNL     1     -14.278   8.935  72.316  1.00  0.00    -0.499 Cl 
ENDBRANCH  17  18
ENDBRANCH  16  17
ENDBRANCH   9  16
ENDBRANCH   6   9
TORSDOF 6
ENDMDL
MODEL       31
REMARK 921   NORMALIZED FREE ENERGY PREDICTED BY IDOCK:   -6.15 KCAL/MOL
REMARK 922        TOTAL FREE ENERGY PREDICTED BY IDOCK:   -9.33 KCAL/MOL
REMARK 923 INTER-LIGAND FREE ENERGY PREDICTED BY IDOCK:   -8.56 KCAL/MOL
REMARK 924 INTRA-LIGAND FREE ENERGY PREDICTED BY IDOCK:   -0.77 KCAL/MOL
REMARK 927      BINDING AFFINITY PREDICTED BY RF-SCORE:    0.00 PKD
ROOT
HETATM    1 CL   UNL     1     -10.933  12.590  63.272  1.00  0.00    -0.387 Cl 
HETATM    2  C   UNL     1     -11.029  12.924  64.956  1.00  0.00    -0.297 A  
HETATM    3  C   UNL     1      -9.954  12.612  65.786  1.00  0.00    -0.266 A  
HETATM    4  C   UNL     1     -10.010  12.928  67.147  1.00  0.00    -0.240 A  
HETATM    5 CL   UNL     1      -8.643  12.510  68.119  1.00  0.00    -0.184 Cl 
HETATM    6  C   UNL     1     -11.138  13.566  67.687  1.00  0.00    -0.290 A  
HETATM    7  C   UNL     1     -12.224  13.837  66.830  1.00  0.00    -0.440 A  
HETATM    8  C   UNL     1     -12.171  13.522  65.474  1.00  0.00    -0.490 A  
ENDROOT
BRANCH   6   9
HETATM    9  C   UNL     1     -11.198  14.032  69.137  1.00  0.00    -0.269 C  
BRANCH   9  10
HETATM   10  C   UNL     1     -12.242  15.160  69.339  1.00  0.00    -0.202 C  
BRANCH  10  11
HETATM   11  N   UNL     1     -12.573  15.474  70.717  1.00  0.00    -0.438 NA 
HETATM   12  C   UNL     1     -11.745  16.060  71.635  1.00  0.00    -0.506 A  
HETATM   13  C   UNL     1     -13.786  15.301  71.323  1.00  0.00    -0.490 A  
HETATM   14  N   UNL     1     -13.738  15.609  72.599  1.00  0.00    -0.569 NA 
HETATM   15  C   UNL     1     -12.470  16.086  72.802  1.00  0.00    -0.487 A  
ENDBRANCH  10  11
ENDBRANCH   9  10
BRANCH   9  16
HETATM   16  O   UNL     1     -11.488  12.947  70.034  1.00  0.00    -0.162 OA 
BRANCH  16  17
HETATM   17  C   UNL     1     -12.141  11.845  69.398  1.00  0.00    -0.216 C  
BRANCH  17  18
HETATM   18  C   UNL     1     -12.046  10.643  70.298  1.00  0.00    -0.423 A  
HETATM   19  C   UNL     1     -12.697  10.582  71.544  1.00  0.00    -0.452 A  
HETATM   20 CL   UNL     1     -13.632  11.896  72.171  1.00  0.00    -0.371 Cl 
HETATM   21  C   UNL     1     -11.887   8.330  71.925  1.00  0.00    -0.380 A  
HETATM   22  C   UNL     1     -12.619   9.436  72.345  1.00  0.00    -0.307 A  
HETATM   23  C   UNL     1     -11.210   8.381  70.709  1.00  0.00    -0.290 A  
HETATM   24  C   UNL     1     -11.283   9.524  69.909  1.00  0.00    -0.178 A  
HETATM   25 CL   UNL     1     -10.402   9.491  68.417  1.00  0.00    -0.225 Cl 
ENDBRANCH  17  18
ENDBRANCH  16  17
ENDBRANCH   9  16
ENDBRANCH   6   9
TORSDOF 6
ENDMDL
MODEL       32
REMARK 921   NORMALIZED FREE ENERGY PREDICTED BY IDOCK:   -6.15 KCAL/MOL
REMARK 922        TOTAL FREE ENERGY PREDICTED BY IDOCK:   -9.32 KCAL/MOL
REMARK 923 INTER-LIGAND FREE ENERGY PREDICTED BY IDOCK:   -8.29 KCAL/MOL
REMARK 924 INTRA-LIGAND FREE ENERGY PREDICTED BY IDOCK:   -1.03 KCAL/MOL
REMARK 927      BINDING AFFINITY PREDICTED BY RF-SCORE:    0.00 PKD
ROOT
HETATM    1 CL   UNL     1      -8.348  20.160  67.347  1.00  0.00    -0.375 Cl 
HETATM    2  C   UNL     1      -9.006  18.664  67.882  1.00  0.00    -0.287 A  
HETATM    3  C   UNL     1      -8.171  17.704  68.449  1.00  0.00    -0.289 A  
HETATM    4  C   UNL     1      -8.711  16.508  68.930  1.00  0.00    -0.247 A  
HETATM    5 CL   UNL     1      -7.618  15.360  69.620  1.00  0.00    -0.201 Cl 
HETATM    6  C   UNL     1     -10.092  16.265  68.854  1.00  0.00    -0.251 A  
HETATM    7  C   UNL     1     -10.907  17.239  68.242  1.00  0.00    -0.287 A  
HETATM    8  C   UNL     1     -10.370  18.432  67.761  1.00  0.00    -0.428 A  
ENDROOT
BRANCH   6   9
HETATM    9  C   UNL     1     -10.740  15.029  69.466  1.00  0.00    -0.256 C  
BRANCH   9  10
HETATM   10  C   UNL     1     -12.266  15.213  69.661  1.00  0.00    -0.257 C  
BRANCH  10  11
HETATM   11  N   UNL     1     -12.702  15.481  71.019  1.00  0.00    -0.444 NA 
HETATM   12  C   UNL     1     -11.926  15.965  72.037  1.00  0.00    -0.513 A  
HETATM   13  C   UNL     1     -13.973  15.360  71.507  1.00  0.00    -0.501 A  
HETATM   14  N   UNL     1     -14.023  15.602  72.796  1.00  0.00    -0.549 NA 
HETATM   15  C   UNL     1     -12.751  15.984  73.136  1.00  0.00    -0.515 A  
ENDBRANCH  10  11
ENDBRANCH   9  10
BRANCH   9  16
HETATM   16  O   UNL     1     -10.498  13.853  68.675  1.00  0.00    -0.241 OA 
BRANCH  16  17
HETATM   17  C   UNL     1     -11.663  13.044  68.492  1.00  0.00    -0.342 C  
BRANCH  17  18
HETATM   18  C   UNL     1     -11.328  11.624  68.862  1.00  0.00    -0.328 A  
HETATM   19  C   UNL     1     -11.787  11.028  70.051  1.00  0.00    -0.355 A  
HETATM   20 CL   UNL     1     -12.745  11.883  71.212  1.00  0.00    -0.456 Cl 
HETATM   21  C   UNL     1     -10.722   8.928  69.481  1.00  0.00    -0.206 A  
HETATM   22  C   UNL     1     -11.489   9.694  70.353  1.00  0.00    -0.325 A  
HETATM   23  C   UNL     1     -10.232   9.507  68.314  1.00  0.00    -0.225 A  
HETATM   24  C   UNL     1     -10.525  10.839  68.010  1.00  0.00    -0.194 A  
HETATM   25 CL   UNL     1      -9.865  11.470  66.538  1.00  0.00    -0.221 Cl 
ENDBRANCH  17  18
ENDBRANCH  16  17
ENDBRANCH   9  16
ENDBRANCH   6   9
TORSDOF 6
ENDMDL
MODEL       33
REMARK 921   NORMALIZED FREE ENERGY PREDICTED BY IDOCK:   -6.13 KCAL/MOL
REMARK 922        TOTAL FREE ENERGY PREDICTED BY IDOCK:   -9.29 KCAL/MOL
REMARK 923 INTER-LIGAND FREE ENERGY PREDICTED BY IDOCK:   -8.55 KCAL/MOL
REMARK 924 INTRA-LIGAND FREE ENERGY PREDICTED BY IDOCK:   -0.74 KCAL/MOL
REMARK 927      BINDING AFFINITY PREDICTED BY RF-SCORE:    0.00 PKD
ROOT
HETATM    1 CL   UNL     1     -11.258  11.371  63.557  1.00  0.00    -0.425 Cl 
HETATM    2  C   UNL     1     -11.477  12.282  64.998  1.00  0.00    -0.336 A  
HETATM    3  C   UNL     1     -10.610  12.097  66.073  1.00  0.00    -0.292 A  
HETATM    4  C   UNL     1     -10.755  12.872  67.227  1.00  0.00    -0.245 A  
HETATM    5 CL   UNL     1      -9.646  12.590  68.522  1.00  0.00    -0.161 Cl 
HETATM    6  C   UNL     1     -11.766  13.844  67.314  1.00  0.00    -0.418 A  
HETATM    7  C   UNL     1     -12.651  13.982  66.225  1.00  0.00    -0.352 A  
HETATM    8  C   UNL     1     -12.507  13.211  65.074  1.00  0.00    -0.516 A  
ENDROOT
BRANCH   6   9
HETATM    9  C   UNL     1     -11.893  14.789  68.503  1.00  0.00    -0.306 C  
BRANCH   9  10
HETATM   10  C   UNL     1     -12.040  14.020  69.839  1.00  0.00    -0.345 C  
BRANCH  10  11
HETATM   11  N   UNL     1     -12.481  14.808  70.976  1.00  0.00    -0.306 NA 
HETATM   12  C   UNL     1     -11.680  15.525  71.822  1.00  0.00    -0.432 A  
HETATM   13  C   UNL     1     -13.772  15.024  71.366  1.00  0.00    -0.473 A  
HETATM   14  N   UNL     1     -13.833  15.716  72.480  1.00  0.00    -0.566 NA 
HETATM   15  C   UNL     1     -12.533  16.036  72.772  1.00  0.00    -0.487 A  
ENDBRANCH  10  11
ENDBRANCH   9  10
BRANCH   9  16
HETATM   16  O   UNL     1     -10.775  15.689  68.590  1.00  0.00    -0.238 OA 
BRANCH  16  17
HETATM   17  C   UNL     1     -10.962  16.896  67.847  1.00  0.00    -0.251 C  
BRANCH  17  18
HETATM   18  C   UNL     1      -9.611  17.479  67.525  1.00  0.00    -0.265 A  
HETATM   19  C   UNL     1      -9.107  18.616  68.181  1.00  0.00    -0.313 A  
HETATM   20 CL   UNL     1     -10.005  19.471  69.388  1.00  0.00    -0.371 Cl 
HETATM   21  C   UNL     1      -7.038  18.496  66.926  1.00  0.00    -0.220 A  
HETATM   22  C   UNL     1      -7.832  19.116  67.885  1.00  0.00    -0.318 A  
HETATM   23  C   UNL     1      -7.530  17.387  66.243  1.00  0.00    -0.354 A  
HETATM   24  C   UNL     1      -8.803  16.888  66.533  1.00  0.00    -0.271 A  
HETATM   25 CL   UNL     1      -9.327  15.508  65.627  1.00  0.00    -0.289 Cl 
ENDBRANCH  17  18
ENDBRANCH  16  17
ENDBRANCH   9  16
ENDBRANCH   6   9
TORSDOF 6
ENDMDL
MODEL       34
REMARK 921   NORMALIZED FREE ENERGY PREDICTED BY IDOCK:   -6.12 KCAL/MOL
REMARK 922        TOTAL FREE ENERGY PREDICTED BY IDOCK:   -9.28 KCAL/MOL
REMARK 923 INTER-LIGAND FREE ENERGY PREDICTED BY IDOCK:   -8.15 KCAL/MOL
REMARK 924 INTRA-LIGAND FREE ENERGY PREDICTED BY IDOCK:   -1.13 KCAL/MOL
REMARK 927      BINDING AFFINITY PREDICTED BY RF-SCORE:    0.00 PKD
ROOT
HETATM    1 CL   UNL     1      -9.652  10.293  62.675  1.00  0.00    -0.312 Cl 
HETATM    2  C   UNL     1     -10.237  11.003  64.128  1.00  0.00    -0.357 A  
HETATM    3  C   UNL     1     -11.278  11.928  64.076  1.00  0.00    -0.470 A  
HETATM    4  C   UNL     1     -11.789  12.468  65.260  1.00  0.00    -0.413 A  
HETATM    5 CL   UNL     1     -13.079  13.611  65.123  1.00  0.00    -0.268 Cl 
HETATM    6  C   UNL     1     -11.268  12.083  66.506  1.00  0.00    -0.387 A  
HETATM    7  C   UNL     1     -10.190  11.174  66.524  1.00  0.00    -0.275 A  
HETATM    8  C   UNL     1      -9.680  10.634  65.345  1.00  0.00    -0.306 A  
ENDROOT
BRANCH   6   9
HETATM    9  C   UNL     1     -11.866  12.557  67.825  1.00  0.00    -0.313 C  
BRANCH   9  10
HETATM   10  C   UNL     1     -11.202  11.866  69.042  1.00  0.00    -0.258 C  
BRANCH  10  11
HETATM   11  N   UNL     1     -12.022  11.767  70.236  1.00  0.00    -0.354 NA 
HETATM   12  C   UNL     1     -12.410  10.611  70.858  1.00  0.00    -0.401 A  
HETATM   13  C   UNL     1     -12.497  12.805  70.987  1.00  0.00    -0.277 A  
HETATM   14  N   UNL     1     -13.273  12.385  71.960  1.00  0.00    -0.469 NA 
HETATM   15  C   UNL     1     -13.223  11.018  71.889  1.00  0.00    -0.398 A  
ENDBRANCH  10  11
ENDBRANCH   9  10
BRANCH   9  16
HETATM   16  O   UNL     1     -11.766  13.984  67.973  1.00  0.00    -0.319 OA 
BRANCH  16  17
HETATM   17  C   UNL     1     -10.435  14.435  68.235  1.00  0.00    -0.245 C  
BRANCH  17  18
HETATM   18  C   UNL     1     -10.375  15.922  68.009  1.00  0.00    -0.262 A  
HETATM   19  C   UNL     1     -10.598  16.849  69.043  1.00  0.00    -0.338 A  
HETATM   20 CL   UNL     1     -10.997  16.368  70.656  1.00  0.00    -0.210 Cl 
HETATM   21  C   UNL     1     -10.187  18.708  67.544  1.00  0.00    -0.425 A  
HETATM   22  C   UNL     1     -10.501  18.227  68.811  1.00  0.00    -0.115 A  
HETATM   23  C   UNL     1      -9.993  17.809  66.500  1.00  0.00    -0.346 A  
HETATM   24  C   UNL     1     -10.091  16.433  66.727  1.00  0.00    -0.285 A  
HETATM   25 CL   UNL     1      -9.838  15.395  65.363  1.00  0.00    -0.350 Cl 
ENDBRANCH  17  18
ENDBRANCH  16  17
ENDBRANCH   9  16
ENDBRANCH   6   9
TORSDOF 6
ENDMDL
MODEL       35
REMARK 921   NORMALIZED FREE ENERGY PREDICTED BY IDOCK:   -6.11 KCAL/MOL
REMARK 922        TOTAL FREE ENERGY PREDICTED BY IDOCK:   -9.27 KCAL/MOL
REMARK 923 INTER-LIGAND FREE ENERGY PREDICTED BY IDOCK:   -8.51 KCAL/MOL
REMARK 924 INTRA-LIGAND FREE ENERGY PREDICTED BY IDOCK:   -0.76 KCAL/MOL
REMARK 927      BINDING AFFINITY PREDICTED BY RF-SCORE:    0.00 PKD
ROOT
HETATM    1 CL   UNL     1      -7.834  17.166  65.940  1.00  0.00    -0.178 Cl 
HETATM    2  C   UNL     1      -8.878  15.827  66.217  1.00  0.00    -0.343 A  
HETATM    3  C   UNL     1     -10.067  15.717  65.500  1.00  0.00    -0.395 A  
HETATM    4  C   UNL     1     -10.893  14.604  65.687  1.00  0.00    -0.331 A  
HETATM    5 CL   UNL     1     -12.354  14.532  64.766  1.00  0.00    -0.442 Cl 
HETATM    6  C   UNL     1     -10.532  13.590  66.588  1.00  0.00    -0.274 A  
HETATM    7  C   UNL     1      -9.341  13.747  67.326  1.00  0.00    -0.239 A  
HETATM    8  C   UNL     1      -8.517  14.855  67.141  1.00  0.00    -0.244 A  
ENDROOT
BRANCH   6   9
HETATM    9  C   UNL     1     -11.341  12.307  66.742  1.00  0.00    -0.339 C  
BRANCH   9  10
HETATM   10  C   UNL     1     -10.437  11.049  66.725  1.00  0.00    -0.251 C  
BRANCH  10  11
HETATM   11  N   UNL     1      -9.814  10.736  65.451  1.00  0.00    -0.243 NA 
HETATM   12  C   UNL     1     -10.387  10.868  64.216  1.00  0.00    -0.368 A  
HETATM   13  C   UNL     1      -8.529  10.315  65.254  1.00  0.00    -0.163 A  
HETATM   14  N   UNL     1      -8.297  10.042  63.991  1.00  0.00    -0.160 NA 
HETATM   15  C   UNL     1      -9.449  10.386  63.335  1.00  0.00    -0.315 A  
ENDBRANCH  10  11
ENDBRANCH   9  10
BRANCH   9  16
HETATM   16  O   UNL     1     -12.127  12.314  67.946  1.00  0.00    -0.466 OA 
BRANCH  16  17
HETATM   17  C   UNL     1     -11.347  12.482  69.132  1.00  0.00    -0.274 C  
BRANCH  17  18
HETATM   18  C   UNL     1     -12.223  13.063  70.209  1.00  0.00    -0.368 A  
HETATM   19  C   UNL     1     -12.550  14.430  70.256  1.00  0.00    -0.323 A  
HETATM   20 CL   UNL     1     -11.945  15.573  69.105  1.00  0.00    -0.357 Cl 
HETATM   21  C   UNL     1     -13.928  14.094  72.220  1.00  0.00    -0.646 A  
HETATM   22  C   UNL     1     -13.396  14.937  71.250  1.00  0.00    -0.490 A  
HETATM   23  C   UNL     1     -13.593  12.743  72.209  1.00  0.00    -0.563 A  
HETATM   24  C   UNL     1     -12.747  12.234  71.221  1.00  0.00    -0.251 A  
HETATM   25 CL   UNL     1     -12.385  10.542  71.296  1.00  0.00    -0.486 Cl 
ENDBRANCH  17  18
ENDBRANCH  16  17
ENDBRANCH   9  16
ENDBRANCH   6   9
TORSDOF 6
ENDMDL
MODEL       36
REMARK 921   NORMALIZED FREE ENERGY PREDICTED BY IDOCK:   -6.11 KCAL/MOL
REMARK 922        TOTAL FREE ENERGY PREDICTED BY IDOCK:   -9.26 KCAL/MOL
REMARK 923 INTER-LIGAND FREE ENERGY PREDICTED BY IDOCK:   -8.56 KCAL/MOL
REMARK 924 INTRA-LIGAND FREE ENERGY PREDICTED BY IDOCK:   -0.71 KCAL/MOL
REMARK 927      BINDING AFFINITY PREDICTED BY RF-SCORE:    0.00 PKD
ROOT
HETATM    1 CL   UNL     1     -12.750  16.282  73.986  1.00  0.00    -0.614 Cl 
HETATM    2  C   UNL     1     -12.421  15.344  72.582  1.00  0.00    -0.386 A  
HETATM    3  C   UNL     1     -11.379  15.712  71.733  1.00  0.00    -0.436 A  
HETATM    4  C   UNL     1     -11.078  14.923  70.618  1.00  0.00    -0.133 A  
HETATM    5 CL   UNL     1      -9.775  15.438  69.606  1.00  0.00    -0.269 Cl 
HETATM    6  C   UNL     1     -11.811  13.756  70.348  1.00  0.00    -0.323 A  
HETATM    7  C   UNL     1     -12.882  13.430  71.206  1.00  0.00    -0.407 A  
HETATM    8  C   UNL     1     -13.185  14.215  72.316  1.00  0.00    -0.540 A  
ENDROOT
BRANCH   6   9
HETATM    9  C   UNL     1     -11.448  12.806  69.214  1.00  0.00    -0.289 C  
BRANCH   9  10
HETATM   10  C   UNL     1     -12.097  11.412  69.398  1.00  0.00    -0.291 C  
BRANCH  10  11
HETATM   11  N   UNL     1     -11.339  10.462  70.192  1.00  0.00    -0.300 NA 
HETATM   12  C   UNL     1     -11.772   9.824  71.322  1.00  0.00    -0.394 A  
HETATM   13  C   UNL     1     -10.087   9.987  69.919  1.00  0.00    -0.246 A  
HETATM   14  N   UNL     1      -9.648   9.200  70.874  1.00  0.00    -0.262 NA 
HETATM   15  C   UNL     1     -10.693   9.090  71.753  1.00  0.00    -0.367 A  
ENDBRANCH  10  11
ENDBRANCH   9  10
BRANCH   9  16
HETATM   16  O   UNL     1     -11.819  13.340  67.932  1.00  0.00    -0.337 OA 
BRANCH  16  17
HETATM   17  C   UNL     1     -10.696  13.694  67.120  1.00  0.00    -0.277 C  
BRANCH  17  18
HETATM   18  C   UNL     1     -10.789  12.948  65.816  1.00  0.00    -0.292 A  
HETATM   19  C   UNL     1     -11.569  13.409  64.740  1.00  0.00    -0.339 A  
HETATM   20 CL   UNL     1     -12.522  14.850  64.830  1.00  0.00    -0.255 Cl 
HETATM   21  C   UNL     1     -10.877  11.541  63.361  1.00  0.00    -0.423 A  
HETATM   22  C   UNL     1     -11.609  12.712  63.525  1.00  0.00    -0.584 A  
HETATM   23  C   UNL     1     -10.122  11.051  64.423  1.00  0.00    -0.393 A  
HETATM   24  C   UNL     1     -10.083  11.742  65.637  1.00  0.00    -0.243 A  
HETATM   25 CL   UNL     1      -9.119  11.050  66.900  1.00  0.00    -0.159 Cl 
ENDBRANCH  17  18
ENDBRANCH  16  17
ENDBRANCH   9  16
ENDBRANCH   6   9
TORSDOF 6
ENDMDL
MODEL       37
REMARK 921   NORMALIZED FREE ENERGY PREDICTED BY IDOCK:   -6.10 KCAL/MOL
REMARK 922        TOTAL FREE ENERGY PREDICTED BY IDOCK:   -9.25 KCAL/MOL
REMARK 923 INTER-LIGAND FREE ENERGY PREDICTED BY IDOCK:   -9.08 KCAL/MOL
REMARK 924 INTRA-LIGAND FREE ENERGY PREDICTED BY IDOCK:   -0.18 KCAL/MOL
REMARK 927      BINDING AFFINITY PREDICTED BY RF-SCORE:    0.00 PKD
ROOT
HETATM    1 CL   UNL     1     -13.690  16.037  73.318  1.00  0.00    -0.543 Cl 
HETATM    2  C   UNL     1     -13.146  14.816  72.236  1.00  0.00    -0.356 A  
HETATM    3  C   UNL     1     -12.155  15.112  71.301  1.00  0.00    -0.399 A  
HETATM    4  C   UNL     1     -11.676  14.108  70.454  1.00  0.00    -0.243 A  
HETATM    5 CL   UNL     1     -10.449  14.544  69.318  1.00  0.00    -0.220 Cl 
HETATM    6  C   UNL     1     -12.178  12.799  70.540  1.00  0.00    -0.389 A  
HETATM    7  C   UNL     1     -13.205  12.540  71.470  1.00  0.00    -0.298 A  
HETATM    8  C   UNL     1     -13.685  13.539  72.315  1.00  0.00    -0.700 A  
ENDROOT
BRANCH   6   9
HETATM    9  C   UNL     1     -11.608  11.649  69.719  1.00  0.00    -0.315 C  
BRANCH   9  10
HETATM   10  C   UNL     1     -12.134  10.276  70.205  1.00  0.00    -0.202 C  
BRANCH  10  11
HETATM   11  N   UNL     1     -11.194   9.472  70.965  1.00  0.00    -0.330 NA 
HETATM   12  C   UNL     1     -11.487   8.697  72.053  1.00  0.00    -0.367 A  
HETATM   13  C   UNL     1      -9.866   9.295  70.692  1.00  0.00    -0.270 A  
HETATM   14  N   UNL     1      -9.274   8.573  71.615  1.00  0.00    -0.212 NA 
HETATM   15  C   UNL     1     -10.277   8.192  72.467  1.00  0.00    -0.313 A  
ENDBRANCH  10  11
ENDBRANCH   9  10
BRANCH   9  16
HETATM   16  O   UNL     1     -11.893  11.802  68.318  1.00  0.00    -0.413 OA 
BRANCH  16  17
HETATM   17  C   UNL     1     -10.723  11.780  67.496  1.00  0.00    -0.221 C  
BRANCH  17  18
HETATM   18  C   UNL     1     -11.114  12.142  66.089  1.00  0.00    -0.354 A  
HETATM   19  C   UNL     1     -10.802  11.324  64.987  1.00  0.00    -0.216 A  
HETATM   20 CL   UNL     1      -9.910   9.850  65.144  1.00  0.00    -0.383 Cl 
HETATM   21  C   UNL     1     -11.929  12.838  63.468  1.00  0.00    -0.633 A  
HETATM   22  C   UNL     1     -11.209  11.669  63.692  1.00  0.00    -0.497 A  
HETATM   23  C   UNL     1     -12.222  13.677  64.540  1.00  0.00    -0.444 A  
HETATM   24  C   UNL     1     -11.814  13.338  65.833  1.00  0.00    -0.393 A  
HETATM   25 CL   UNL     1     -12.222  14.448  67.098  1.00  0.00    -0.366 Cl 
ENDBRANCH  17  18
ENDBRANCH  16  17
ENDBRANCH   9  16
ENDBRANCH   6   9
TORSDOF 6
ENDMDL
MODEL       38
REMARK 921   NORMALIZED FREE ENERGY PREDICTED BY IDOCK:   -6.09 KCAL/MOL
REMARK 922        TOTAL FREE ENERGY PREDICTED BY IDOCK:   -9.24 KCAL/MOL
REMARK 923 INTER-LIGAND FREE ENERGY PREDICTED BY IDOCK:   -8.59 KCAL/MOL
REMARK 924 INTRA-LIGAND FREE ENERGY PREDICTED BY IDOCK:   -0.65 KCAL/MOL
REMARK 927      BINDING AFFINITY PREDICTED BY RF-SCORE:    0.00 PKD
ROOT
HETATM    1 CL   UNL     1     -10.228  12.117  63.439  1.00  0.00    -0.449 Cl 
HETATM    2  C   UNL     1     -10.731  13.009  64.821  1.00  0.00    -0.352 A  
HETATM    3  C   UNL     1     -11.143  12.333  65.968  1.00  0.00    -0.347 A  
HETATM    4  C   UNL     1     -11.504  13.055  67.109  1.00  0.00    -0.331 A  
HETATM    5 CL   UNL     1     -12.007  12.155  68.496  1.00  0.00    -0.347 Cl 
HETATM    6  C   UNL     1     -11.450  14.459  67.115  1.00  0.00    -0.379 A  
HETATM    7  C   UNL     1     -11.064  15.115  65.928  1.00  0.00    -0.319 A  
HETATM    8  C   UNL     1     -10.704  14.397  64.790  1.00  0.00    -0.423 A  
ENDROOT
BRANCH   6   9
HETATM    9  C   UNL     1     -11.724  15.283  68.367  1.00  0.00    -0.321 C  
BRANCH   9  10
HETATM   10  C   UNL     1     -11.097  14.641  69.630  1.00  0.00    -0.253 C  
BRANCH  10  11
HETATM   11  N   UNL     1     -11.869  14.770  70.853  1.00  0.00    -0.308 NA 
HETATM   12  C   UNL     1     -11.773  15.783  71.768  1.00  0.00    -0.478 A  
HETATM   13  C   UNL     1     -12.869  13.941  71.277  1.00  0.00    -0.360 A  
HETATM   14  N   UNL     1     -13.315  14.286  72.463  1.00  0.00    -0.463 NA 
HETATM   15  C   UNL     1     -12.639  15.435  72.777  1.00  0.00    -0.400 A  
ENDBRANCH  10  11
ENDBRANCH   9  10
BRANCH   9  16
HETATM   16  O   UNL     1     -11.248  16.633  68.231  1.00  0.00    -0.349 OA 
BRANCH  16  17
HETATM   17  C   UNL     1      -9.964  16.843  68.824  1.00  0.00    -0.276 C  
BRANCH  17  18
HETATM   18  C   UNL     1      -9.079  17.540  67.825  1.00  0.00    -0.249 A  
HETATM   19  C   UNL     1      -8.121  16.852  67.060  1.00  0.00    -0.198 A  
HETATM   20 CL   UNL     1      -7.845  15.151  67.223  1.00  0.00    -0.224 Cl 
HETATM   21  C   UNL     1      -7.485  18.890  65.914  1.00  0.00    -0.242 A  
HETATM   22  C   UNL     1      -7.336  17.521  66.113  1.00  0.00    -0.347 A  
HETATM   23  C   UNL     1      -8.406  19.596  66.683  1.00  0.00    -0.349 A  
HETATM   24  C   UNL     1      -9.189  18.932  67.630  1.00  0.00    -0.286 A  
HETATM   25 CL   UNL     1     -10.303  19.898  68.540  1.00  0.00    -0.542 Cl 
ENDBRANCH  17  18
ENDBRANCH  16  17
ENDBRANCH   9  16
ENDBRANCH   6   9
TORSDOF 6
ENDMDL
MODEL       39
REMARK 921   NORMALIZED FREE ENERGY PREDICTED BY IDOCK:   -6.08 KCAL/MOL
REMARK 922        TOTAL FREE ENERGY PREDICTED BY IDOCK:   -9.23 KCAL/MOL
REMARK 923 INTER-LIGAND FREE ENERGY PREDICTED BY IDOCK:   -8.32 KCAL/MOL
REMARK 924 INTRA-LIGAND FREE ENERGY PREDICTED BY IDOCK:   -0.91 KCAL/MOL
REMARK 927      BINDING AFFINITY PREDICTED BY RF-SCORE:    0.00 PKD
ROOT
HETATM    1 CL   UNL     1      -7.775   7.339  66.883  1.00  0.00    -0.107 Cl 
HETATM    2  C   UNL     1      -8.702   8.777  67.063  1.00  0.00    -0.123 A  
HETATM    3  C   UNL     1      -8.062  10.015  67.085  1.00  0.00    -0.117 A  
HETATM    4  C   UNL     1      -8.817  11.187  67.181  1.00  0.00    -0.143 A  
HETATM    5 CL   UNL     1      -7.959  12.688  67.205  1.00  0.00    -0.178 Cl 
HETATM    6  C   UNL     1     -10.218  11.132  67.248  1.00  0.00    -0.227 A  
HETATM    7  C   UNL     1     -10.835   9.864  67.260  1.00  0.00    -0.268 A  
HETATM    8  C   UNL     1     -10.084   8.694  67.165  1.00  0.00    -0.329 A  
ENDROOT
BRANCH   6   9
HETATM    9  C   UNL     1     -11.088  12.384  67.239  1.00  0.00    -0.281 C  
BRANCH   9  10
HETATM   10  C   UNL     1     -11.837  12.557  65.894  1.00  0.00    -0.430 C  
BRANCH  10  11
HETATM   11  N   UNL     1     -11.689  13.849  65.250  1.00  0.00    -0.327 NA 
HETATM   12  C   UNL     1     -10.769  14.811  65.568  1.00  0.00    -0.357 A  
HETATM   13  C   UNL     1     -12.394  14.309  64.173  1.00  0.00    -0.327 A  
HETATM   14  N   UNL     1     -12.077  15.549  63.879  1.00  0.00    -0.479 NA 
HETATM   15  C   UNL     1     -11.062  15.870  64.742  1.00  0.00    -0.384 A  
ENDBRANCH  10  11
ENDBRANCH   9  10
BRANCH   9  16
HETATM   16  O   UNL     1     -12.037  12.382  68.318  1.00  0.00    -0.313 OA 
BRANCH  16  17
HETATM   17  C   UNL     1     -11.429  12.500  69.607  1.00  0.00    -0.185 C  
BRANCH  17  18
HETATM   18  C   UNL     1     -12.366  13.251  70.516  1.00  0.00    -0.389 A  
HETATM   19  C   UNL     1     -13.056  12.623  71.569  1.00  0.00    -0.278 A  
HETATM   20 CL   UNL     1     -12.921  10.929  71.892  1.00  0.00    -0.557 Cl 
HETATM   21  C   UNL     1     -14.067  14.721  72.237  1.00  0.00    -0.587 A  
HETATM   22  C   UNL     1     -13.894  13.354  72.421  1.00  0.00    -0.665 A  
HETATM   23  C   UNL     1     -13.418  15.356  71.181  1.00  0.00    -0.565 A  
HETATM   24  C   UNL     1     -12.583  14.630  70.328  1.00  0.00    -0.318 A  
HETATM   25 CL   UNL     1     -11.824  15.509  69.042  1.00  0.00    -0.383 Cl 
ENDBRANCH  17  18
ENDBRANCH  16  17
ENDBRANCH   9  16
ENDBRANCH   6   9
TORSDOF 6
ENDMDL
MODEL       40
REMARK 921   NORMALIZED FREE ENERGY PREDICTED BY IDOCK:   -6.03 KCAL/MOL
REMARK 922        TOTAL FREE ENERGY PREDICTED BY IDOCK:   -9.17 KCAL/MOL
REMARK 923 INTER-LIGAND FREE ENERGY PREDICTED BY IDOCK:   -8.10 KCAL/MOL
REMARK 924 INTRA-LIGAND FREE ENERGY PREDICTED BY IDOCK:   -1.07 KCAL/MOL
REMARK 927      BINDING AFFINITY PREDICTED BY RF-SCORE:    0.00 PKD
ROOT
HETATM    1 CL   UNL     1     -12.700  11.734  63.406  1.00  0.00    -0.588 Cl 
HETATM    2  C   UNL     1     -11.995  12.722  64.624  1.00  0.00    -0.396 A  
HETATM    3  C   UNL     1     -11.726  14.063  64.358  1.00  0.00    -0.415 A  
HETATM    4  C   UNL     1     -11.200  14.880  65.362  1.00  0.00    -0.359 A  
HETATM    5 CL   UNL     1     -10.888  16.533  64.963  1.00  0.00    -0.336 Cl 
HETATM    6  C   UNL     1     -10.944  14.365  66.644  1.00  0.00    -0.318 A  
HETATM    7  C   UNL     1     -11.193  12.996  66.872  1.00  0.00    -0.331 A  
HETATM    8  C   UNL     1     -11.717  12.179  65.872  1.00  0.00    -0.393 A  
ENDROOT
BRANCH   6   9
HETATM    9  C   UNL     1     -10.479  15.241  67.800  1.00  0.00    -0.253 C  
BRANCH   9  10
HETATM   10  C   UNL     1     -10.492  14.476  69.147  1.00  0.00    -0.216 C  
BRANCH  10  11
HETATM   11  N   UNL     1     -11.478  14.921  70.116  1.00  0.00    -0.266 NA 
HETATM   12  C   UNL     1     -11.322  15.934  71.022  1.00  0.00    -0.389 A  
HETATM   13  C   UNL     1     -12.754  14.452  70.254  1.00  0.00    -0.263 A  
HETATM   14  N   UNL     1     -13.366  15.005  71.276  1.00  0.00    -0.406 NA 
HETATM   15  C   UNL     1     -12.482  15.933  71.760  1.00  0.00    -0.452 A  
ENDBRANCH  10  11
ENDBRANCH   9  10
BRANCH   9  16
HETATM   16  O   UNL     1      -9.165  15.777  67.568  1.00  0.00    -0.201 OA 
BRANCH  16  17
HETATM   17  C   UNL     1      -8.898  16.966  68.317  1.00  0.00    -0.228 C  
BRANCH  17  18
HETATM   18  C   UNL     1      -8.438  18.041  67.369  1.00  0.00    -0.240 A  
HETATM   19  C   UNL     1      -9.239  19.151  67.045  1.00  0.00    -0.296 A  
HETATM   20 CL   UNL     1     -10.837  19.363  67.675  1.00  0.00    -0.533 Cl 
HETATM   21  C   UNL     1      -7.500  20.068  65.629  1.00  0.00    -0.275 A  
HETATM   22  C   UNL     1      -8.772  20.154  66.187  1.00  0.00    -0.244 A  
HETATM   23  C   UNL     1      -6.703  18.963  65.912  1.00  0.00    -0.290 A  
HETATM   24  C   UNL     1      -7.167  17.958  66.765  1.00  0.00    -0.203 A  
HETATM   25 CL   UNL     1      -6.104  16.621  67.052  1.00  0.00    -0.204 Cl 
ENDBRANCH  17  18
ENDBRANCH  16  17
ENDBRANCH   9  16
ENDBRANCH   6   9
TORSDOF 6
ENDMDL
MODEL       41
REMARK 921   NORMALIZED FREE ENERGY PREDICTED BY IDOCK:   -6.03 KCAL/MOL
REMARK 922        TOTAL FREE ENERGY PREDICTED BY IDOCK:   -9.16 KCAL/MOL
REMARK 923 INTER-LIGAND FREE ENERGY PREDICTED BY IDOCK:   -8.04 KCAL/MOL
REMARK 924 INTRA-LIGAND FREE ENERGY PREDICTED BY IDOCK:   -1.12 KCAL/MOL
REMARK 927      BINDING AFFINITY PREDICTED BY RF-SCORE:    0.00 PKD
ROOT
HETATM    1 CL   UNL     1     -10.206  12.715  63.861  1.00  0.00    -0.402 Cl 
HETATM    2  C   UNL     1     -10.585  12.663  65.537  1.00  0.00    -0.276 A  
HETATM    3  C   UNL     1     -10.119  13.666  66.384  1.00  0.00    -0.295 A  
HETATM    4  C   UNL     1     -10.468  13.652  67.738  1.00  0.00    -0.240 A  
HETATM    5 CL   UNL     1      -9.853  14.926  68.732  1.00  0.00    -0.220 Cl 
HETATM    6  C   UNL     1     -11.292  12.639  68.254  1.00  0.00    -0.337 A  
HETATM    7  C   UNL     1     -11.719  11.619  67.380  1.00  0.00    -0.278 A  
HETATM    8  C   UNL     1     -11.372  11.630  66.031  1.00  0.00    -0.261 A  
ENDROOT
BRANCH   6   9
HETATM    9  C   UNL     1     -11.792  12.645  69.694  1.00  0.00    -0.311 C  
BRANCH   9  10
HETATM   10  C   UNL     1     -12.746  13.834  69.970  1.00  0.00    -0.022 C  
BRANCH  10  11
HETATM   11  N   UNL     1     -12.679  14.402  71.304  1.00  0.00    -0.323 NA 
HETATM   12  C   UNL     1     -11.694  15.221  71.787  1.00  0.00    -0.418 A  
HETATM   13  C   UNL     1     -13.613  14.273  72.293  1.00  0.00    -0.478 A  
HETATM   14  N   UNL     1     -13.219  14.840  73.410  1.00  0.00    -0.551 NA 
HETATM   15  C   UNL     1     -12.024  15.436  73.103  1.00  0.00    -0.447 A  
ENDBRANCH  10  11
ENDBRANCH   9  10
BRANCH   9  16
HETATM   16  O   UNL     1     -12.451  11.414  70.034  1.00  0.00    -0.235 OA 
BRANCH  16  17
HETATM   17  C   UNL     1     -11.939  10.808  71.224  1.00  0.00    -0.186 C  
BRANCH  17  18
HETATM   18  C   UNL     1     -11.822   9.324  70.998  1.00  0.00    -0.376 A  
HETATM   19  C   UNL     1     -12.775   8.412  71.486  1.00  0.00    -0.308 A  
HETATM   20 CL   UNL     1     -14.145   8.906  72.420  1.00  0.00    -0.518 Cl 
HETATM   21  C   UNL     1     -11.587   6.549  70.491  1.00  0.00    -0.455 A  
HETATM   22  C   UNL     1     -12.658   7.040  71.231  1.00  0.00    -0.418 A  
HETATM   23  C   UNL     1     -10.617   7.431  70.025  1.00  0.00    -0.241 A  
HETATM   24  C   UNL     1     -10.728   8.801  70.280  1.00  0.00    -0.227 A  
HETATM   25 CL   UNL     1      -9.468   9.817  69.663  1.00  0.00    -0.220 Cl 
ENDBRANCH  17  18
ENDBRANCH  16  17
ENDBRANCH   9  16
ENDBRANCH   6   9
TORSDOF 6
ENDMDL
MODEL       42
REMARK 921   NORMALIZED FREE ENERGY PREDICTED BY IDOCK:   -6.02 KCAL/MOL
REMARK 922        TOTAL FREE ENERGY PREDICTED BY IDOCK:   -9.16 KCAL/MOL
REMARK 923 INTER-LIGAND FREE ENERGY PREDICTED BY IDOCK:   -8.29 KCAL/MOL
REMARK 924 INTRA-LIGAND FREE ENERGY PREDICTED BY IDOCK:   -0.86 KCAL/MOL
REMARK 927      BINDING AFFINITY PREDICTED BY RF-SCORE:    0.00 PKD
ROOT
HETATM    1 CL   UNL     1     -10.426   7.064  72.383  1.00  0.00    -0.223 Cl 
HETATM    2  C   UNL     1     -10.490   8.472  71.398  1.00  0.00    -0.237 A  
HETATM    3  C   UNL     1      -9.318   8.987  70.849  1.00  0.00    -0.326 A  
HETATM    4  C   UNL     1      -9.374  10.102  70.008  1.00  0.00    -0.013 A  
HETATM    5 CL   UNL     1      -7.882  10.689  69.363  1.00  0.00    -0.146 Cl 
HETATM    6  C   UNL     1     -10.604  10.707  69.703  1.00  0.00    -0.260 A  
HETATM    7  C   UNL     1     -11.769  10.186  70.303  1.00  0.00    -0.361 A  
HETATM    8  C   UNL     1     -11.715   9.075  71.142  1.00  0.00    -0.366 A  
ENDROOT
BRANCH   6   9
HETATM    9  C   UNL     1     -10.728  11.851  68.704  1.00  0.00    -0.235 C  
BRANCH   9  10
HETATM   10  C   UNL     1     -11.900  11.631  67.716  1.00  0.00    -0.176 C  
BRANCH  10  11
HETATM   11  N   UNL     1     -11.703  12.151  66.375  1.00  0.00    -0.560 NA 
HETATM   12  C   UNL     1     -12.342  13.227  65.822  1.00  0.00    -0.447 A  
HETATM   13  C   UNL     1     -10.802  11.702  65.451  1.00  0.00    -0.280 A  
HETATM   14  N   UNL     1     -10.926  12.333  64.306  1.00  0.00    -0.317 NA 
HETATM   15  C   UNL     1     -11.882  13.288  64.528  1.00  0.00    -0.387 A  
ENDBRANCH  10  11
ENDBRANCH   9  10
BRANCH   9  16
HETATM   16  O   UNL     1     -10.889  13.119  69.362  1.00  0.00    -0.084 OA 
BRANCH  16  17
HETATM   17  C   UNL     1     -12.257  13.481  69.566  1.00  0.00    -0.236 C  
BRANCH  17  18
HETATM   18  C   UNL     1     -12.351  14.342  70.797  1.00  0.00    -0.427 A  
HETATM   19  C   UNL     1     -12.940  13.886  71.991  1.00  0.00    -0.349 A  
HETATM   20 CL   UNL     1     -13.643  12.312  72.141  1.00  0.00    -0.493 Cl 
HETATM   21  C   UNL     1     -12.444  15.979  73.105  1.00  0.00    -0.633 A  
HETATM   22  C   UNL     1     -12.982  14.697  73.132  1.00  0.00    -0.605 A  
HETATM   23  C   UNL     1     -11.884  16.461  71.925  1.00  0.00    -0.433 A  
HETATM   24  C   UNL     1     -11.843  15.656  70.784  1.00  0.00    -0.384 A  
HETATM   25 CL   UNL     1     -11.130  16.347  69.364  1.00  0.00    -0.318 Cl 
ENDBRANCH  17  18
ENDBRANCH  16  17
ENDBRANCH   9  16
ENDBRANCH   6   9
TORSDOF 6
ENDMDL
MODEL       43
REMARK 921   NORMALIZED FREE ENERGY PREDICTED BY IDOCK:   -6.02 KCAL/MOL
REMARK 922        TOTAL FREE ENERGY PREDICTED BY IDOCK:   -9.15 KCAL/MOL
REMARK 923 INTER-LIGAND FREE ENERGY PREDICTED BY IDOCK:   -7.94 KCAL/MOL
REMARK 924 INTRA-LIGAND FREE ENERGY PREDICTED BY IDOCK:   -1.22 KCAL/MOL
REMARK 927      BINDING AFFINITY PREDICTED BY RF-SCORE:    0.00 PKD
ROOT
HETATM    1 CL   UNL     1      -9.756  10.153  63.886  1.00  0.00    -0.323 Cl 
HETATM    2  C   UNL     1     -10.076  11.603  64.754  1.00  0.00    -0.260 A  
HETATM    3  C   UNL     1     -10.970  12.537  64.236  1.00  0.00    -0.401 A  
HETATM    4  C   UNL     1     -11.270  13.692  64.963  1.00  0.00    -0.321 A  
HETATM    5 CL   UNL     1     -12.386  14.810  64.260  1.00  0.00    -0.472 Cl 
HETATM    6  C   UNL     1     -10.683  13.920  66.219  1.00  0.00    -0.285 A  
HETATM    7  C   UNL     1      -9.755  12.974  66.700  1.00  0.00    -0.256 A  
HETATM    8  C   UNL     1      -9.454  11.822  65.977  1.00  0.00    -0.245 A  
ENDROOT
BRANCH   6   9
HETATM    9  C   UNL     1     -11.065  15.105  67.098  1.00  0.00    -0.335 C  
BRANCH   9  10
HETATM   10  C   UNL     1     -10.571  14.926  68.555  1.00  0.00    -0.245 C  
BRANCH  10  11
HETATM   11  N   UNL     1     -11.605  14.707  69.550  1.00  0.00    -0.292 NA 
HETATM   12  C   UNL     1     -12.354  15.673  70.165  1.00  0.00    -0.336 A  
HETATM   13  C   UNL     1     -12.057  13.500  70.003  1.00  0.00    -0.341 A  
HETATM   14  N   UNL     1     -12.944  13.643  70.962  1.00  0.00    -0.270 NA 
HETATM   15  C   UNL     1     -13.138  14.995  71.068  1.00  0.00    -0.422 A  
ENDBRANCH  10  11
ENDBRANCH   9  10
BRANCH   9  16
HETATM   16  O   UNL     1     -10.560  16.344  66.571  1.00  0.00    -0.301 OA 
BRANCH  16  17
HETATM   17  C   UNL     1      -9.869  17.132  67.542  1.00  0.00    -0.266 C  
BRANCH  17  18
HETATM   18  C   UNL     1      -8.698  17.803  66.875  1.00  0.00    -0.262 A  
HETATM   19  C   UNL     1      -7.492  17.126  66.614  1.00  0.00    -0.258 A  
HETATM   20 CL   UNL     1      -7.232  15.477  67.070  1.00  0.00    -0.195 Cl 
HETATM   21  C   UNL     1      -6.547  19.092  65.559  1.00  0.00    -0.308 A  
HETATM   22  C   UNL     1      -6.431  17.765  65.960  1.00  0.00    -0.294 A  
HETATM   23  C   UNL     1      -7.721  19.789  65.835  1.00  0.00    -0.328 A  
HETATM   24  C   UNL     1      -8.780  19.156  66.489  1.00  0.00    -0.337 A  
HETATM   25 CL   UNL     1     -10.195  20.108  66.791  1.00  0.00    -0.582 Cl 
ENDBRANCH  17  18
ENDBRANCH  16  17
ENDBRANCH   9  16
ENDBRANCH   6   9
TORSDOF 6
ENDMDL
MODEL       44
REMARK 921   NORMALIZED FREE ENERGY PREDICTED BY IDOCK:   -6.02 KCAL/MOL
REMARK 922        TOTAL FREE ENERGY PREDICTED BY IDOCK:   -9.15 KCAL/MOL
REMARK 923 INTER-LIGAND FREE ENERGY PREDICTED BY IDOCK:   -8.27 KCAL/MOL
REMARK 924 INTRA-LIGAND FREE ENERGY PREDICTED BY IDOCK:   -0.88 KCAL/MOL
REMARK 927      BINDING AFFINITY PREDICTED BY RF-SCORE:    0.00 PKD
ROOT
HETATM    1 CL   UNL     1      -8.166  17.234  65.992  1.00  0.00    -0.244 Cl 
HETATM    2  C   UNL     1      -9.072  15.791  66.225  1.00  0.00    -0.338 A  
HETATM    3  C   UNL     1     -10.368  15.700  65.723  1.00  0.00    -0.386 A  
HETATM    4  C   UNL     1     -11.089  14.511  65.867  1.00  0.00    -0.327 A  
HETATM    5 CL   UNL     1     -12.692  14.466  65.222  1.00  0.00    -0.363 Cl 
HETATM    6  C   UNL     1     -10.516  13.401  66.509  1.00  0.00    -0.283 A  
HETATM    7  C   UNL     1      -9.216  13.536  67.039  1.00  0.00    -0.248 A  
HETATM    8  C   UNL     1      -8.497  14.720  66.897  1.00  0.00    -0.230 A  
ENDROOT
BRANCH   6   9
HETATM    9  C   UNL     1     -11.218  12.050  66.590  1.00  0.00    -0.327 C  
BRANCH   9  10
HETATM   10  C   UNL     1     -10.222  10.872  66.449  1.00  0.00    -0.238 C  
BRANCH  10  11
HETATM   11  N   UNL     1      -9.789  10.570  65.096  1.00  0.00    -0.273 NA 
HETATM   12  C   UNL     1     -10.385  10.997  63.941  1.00  0.00    -0.372 A  
HETATM   13  C   UNL     1      -8.678   9.860  64.736  1.00  0.00    -0.189 A  
HETATM   14  N   UNL     1      -8.609   9.695  63.435  1.00  0.00    -0.193 NA 
HETATM   15  C   UNL     1      -9.668  10.402  62.930  1.00  0.00    -0.223 A  
ENDBRANCH  10  11
ENDBRANCH   9  10
BRANCH   9  16
HETATM   16  O   UNL     1     -11.957  11.906  67.814  1.00  0.00    -0.559 OA 
BRANCH  16  17
HETATM   17  C   UNL     1     -11.142  12.013  68.985  1.00  0.00    -0.239 C  
BRANCH  17  18
HETATM   18  C   UNL     1     -12.014  12.408  70.146  1.00  0.00    -0.376 A  
HETATM   19  C   UNL     1     -12.573  11.462  71.024  1.00  0.00    -0.386 A  
HETATM   20 CL   UNL     1     -12.341   9.758  70.827  1.00  0.00    -0.342 Cl 
HETATM   21  C   UNL     1     -13.595  13.210  72.354  1.00  0.00    -0.667 A  
HETATM   22  C   UNL     1     -13.352  11.861  72.117  1.00  0.00    -0.361 A  
HETATM   23  C   UNL     1     -13.077  14.162  71.480  1.00  0.00    -0.424 A  
HETATM   24  C   UNL     1     -12.302  13.767  70.387  1.00  0.00    -0.353 A  
HETATM   25 CL   UNL     1     -11.706  15.025  69.355  1.00  0.00    -0.329 Cl 
ENDBRANCH  17  18
ENDBRANCH  16  17
ENDBRANCH   9  16
ENDBRANCH   6   9
TORSDOF 6
ENDMDL
MODEL       45
REMARK 921   NORMALIZED FREE ENERGY PREDICTED BY IDOCK:   -6.01 KCAL/MOL
REMARK 922        TOTAL FREE ENERGY PREDICTED BY IDOCK:   -9.13 KCAL/MOL
REMARK 923 INTER-LIGAND FREE ENERGY PREDICTED BY IDOCK:   -8.07 KCAL/MOL
REMARK 924 INTRA-LIGAND FREE ENERGY PREDICTED BY IDOCK:   -1.06 KCAL/MOL
REMARK 927      BINDING AFFINITY PREDICTED BY RF-SCORE:    0.00 PKD
ROOT
HETATM    1 CL   UNL     1      -9.776  10.228  62.844  1.00  0.00    -0.286 Cl 
HETATM    2  C   UNL     1      -9.850  11.367  64.130  1.00  0.00    -0.268 A  
HETATM    3  C   UNL     1      -9.112  11.148  65.291  1.00  0.00    -0.183 A  
HETATM    4  C   UNL     1      -9.132  12.097  66.318  1.00  0.00    -0.141 A  
HETATM    5 CL   UNL     1      -8.196  11.762  67.731  1.00  0.00    -0.136 Cl 
HETATM    6  C   UNL     1      -9.884  13.276  66.188  1.00  0.00    -0.286 A  
HETATM    7  C   UNL     1     -10.649  13.452  65.016  1.00  0.00    -0.370 A  
HETATM    8  C   UNL     1     -10.631  12.507  63.993  1.00  0.00    -0.451 A  
ENDROOT
BRANCH   6   9
HETATM    9  C   UNL     1      -9.846  14.389  67.228  1.00  0.00    -0.247 C  
BRANCH   9  10
HETATM   10  C   UNL     1     -10.623  15.645  66.759  1.00  0.00    -0.307 C  
BRANCH  10  11
HETATM   11  N   UNL     1     -10.066  16.922  67.169  1.00  0.00    -0.280 NA 
HETATM   12  C   UNL     1      -9.282  17.147  68.267  1.00  0.00    -0.262 A  
HETATM   13  C   UNL     1     -10.172  18.109  66.501  1.00  0.00    -0.391 A  
HETATM   14  N   UNL     1      -9.625  19.095  67.174  1.00  0.00    -0.312 NA 
HETATM   15  C   UNL     1      -9.065  18.505  68.276  1.00  0.00    -0.317 A  
ENDBRANCH  10  11
ENDBRANCH   9  10
BRANCH   9  16
HETATM   16  O   UNL     1     -10.365  13.952  68.496  1.00  0.00    -0.236 OA 
BRANCH  16  17
HETATM   17  C   UNL     1     -11.793  13.996  68.569  1.00  0.00    -0.364 C  
BRANCH  17  18
HETATM   18  C   UNL     1     -12.241  13.180  69.752  1.00  0.00    -0.266 A  
HETATM   19  C   UNL     1     -12.146  11.776  69.777  1.00  0.00    -0.269 A  
HETATM   20 CL   UNL     1     -11.542  10.859  68.439  1.00  0.00    -0.374 Cl 
HETATM   21  C   UNL     1     -13.039  11.697  72.028  1.00  0.00    -0.433 A  
HETATM   22  C   UNL     1     -12.538  11.046  70.905  1.00  0.00    -0.488 A  
HETATM   23  C   UNL     1     -13.170  13.083  72.012  1.00  0.00    -0.543 A  
HETATM   24  C   UNL     1     -12.782  13.815  70.887  1.00  0.00    -0.323 A  
HETATM   25 CL   UNL     1     -12.989  15.533  70.963  1.00  0.00    -0.534 Cl 
ENDBRANCH  17  18
ENDBRANCH  16  17
ENDBRANCH   9  16
ENDBRANCH   6   9
TORSDOF 6
ENDMDL
MODEL       46
REMARK 921   NORMALIZED FREE ENERGY PREDICTED BY IDOCK:   -6.00 KCAL/MOL
REMARK 922        TOTAL FREE ENERGY PREDICTED BY IDOCK:   -9.13 KCAL/MOL
REMARK 923 INTER-LIGAND FREE ENERGY PREDICTED BY IDOCK:   -8.22 KCAL/MOL
REMARK 924 INTRA-LIGAND FREE ENERGY PREDICTED BY IDOCK:   -0.90 KCAL/MOL
REMARK 927      BINDING AFFINITY PREDICTED BY RF-SCORE:    0.00 PKD
ROOT
HETATM    1 CL   UNL     1      -9.278  11.391  62.772  1.00  0.00    -0.375 Cl 
HETATM    2  C   UNL     1      -9.954  11.106  64.327  1.00  0.00    -0.306 A  
HETATM    3  C   UNL     1      -9.846   9.844  64.908  1.00  0.00    -0.282 A  
HETATM    4  C   UNL     1     -10.350   9.623  66.193  1.00  0.00    -0.132 A  
HETATM    5 CL   UNL     1     -10.184   8.034  66.853  1.00  0.00    -0.363 Cl 
HETATM    6  C   UNL     1     -10.961  10.665  66.910  1.00  0.00    -0.228 A  
HETATM    7  C   UNL     1     -11.088  11.921  66.282  1.00  0.00    -0.364 A  
HETATM    8  C   UNL     1     -10.587  12.142  65.001  1.00  0.00    -0.330 A  
ENDROOT
BRANCH   6   9
HETATM    9  C   UNL     1     -11.423  10.503  68.354  1.00  0.00    -0.214 C  
BRANCH   9  10
HETATM   10  C   UNL     1     -10.242  10.194  69.307  1.00  0.00    -0.223 C  
BRANCH  10  11
HETATM   11  N   UNL     1     -10.505   9.208  70.340  1.00  0.00    -0.207 NA 
HETATM   12  C   UNL     1     -11.410   8.184  70.269  1.00  0.00    -0.132 A  
HETATM   13  C   UNL     1      -9.857   9.089  71.537  1.00  0.00    -0.310 A  
HETATM   14  N   UNL     1     -10.384   8.145  72.282  1.00  0.00    -0.265 NA 
HETATM   15  C   UNL     1     -11.352   7.573  71.499  1.00  0.00    -0.255 A  
ENDBRANCH  10  11
ENDBRANCH   9  10
BRANCH   9  16
HETATM   16  O   UNL     1     -12.123  11.668  68.823  1.00  0.00    -0.402 OA 
BRANCH  16  17
HETATM   17  C   UNL     1     -11.360  12.456  69.740  1.00  0.00    -0.053 C  
BRANCH  17  18
HETATM   18  C   UNL     1     -12.307  13.256  70.593  1.00  0.00    -0.416 A  
HETATM   19  C   UNL     1     -13.036  12.682  71.651  1.00  0.00    -0.299 A  
HETATM   20 CL   UNL     1     -12.939  10.999  72.042  1.00  0.00    -0.507 Cl 
HETATM   21  C   UNL     1     -14.028  14.821  72.209  1.00  0.00    -0.598 A  
HETATM   22  C   UNL     1     -13.884  13.458  72.450  1.00  0.00    -0.665 A  
HETATM   23  C   UNL     1     -13.340  15.403  71.149  1.00  0.00    -0.580 A  
HETATM   24  C   UNL     1     -12.495  14.631  70.347  1.00  0.00    -0.352 A  
HETATM   25 CL   UNL     1     -11.686  15.447  69.049  1.00  0.00    -0.366 Cl 
ENDBRANCH  17  18
ENDBRANCH  16  17
ENDBRANCH   9  16
ENDBRANCH   6   9
TORSDOF 6
ENDMDL
MODEL       47
REMARK 921   NORMALIZED FREE ENERGY PREDICTED BY IDOCK:   -5.99 KCAL/MOL
REMARK 922        TOTAL FREE ENERGY PREDICTED BY IDOCK:   -9.11 KCAL/MOL
REMARK 923 INTER-LIGAND FREE ENERGY PREDICTED BY IDOCK:   -8.21 KCAL/MOL
REMARK 924 INTRA-LIGAND FREE ENERGY PREDICTED BY IDOCK:   -0.90 KCAL/MOL
REMARK 927      BINDING AFFINITY PREDICTED BY RF-SCORE:    0.00 PKD
ROOT
HETATM    1 CL   UNL     1      -9.392   6.634  69.665  1.00  0.00    -0.144 Cl 
HETATM    2  C   UNL     1      -9.715   8.274  69.264  1.00  0.00    -0.177 A  
HETATM    3  C   UNL     1      -8.865   8.954  68.393  1.00  0.00    -0.134 A  
HETATM    4  C   UNL     1      -9.154  10.272  68.026  1.00  0.00    -0.132 A  
HETATM    5 CL   UNL     1      -8.057  11.055  66.944  1.00  0.00    -0.136 Cl 
HETATM    6  C   UNL     1     -10.298  10.918  68.521  1.00  0.00    -0.203 A  
HETATM    7  C   UNL     1     -11.118  10.217  69.428  1.00  0.00    -0.299 A  
HETATM    8  C   UNL     1     -10.832   8.904  69.796  1.00  0.00    -0.207 A  
ENDROOT
BRANCH   6   9
HETATM    9  C   UNL     1     -10.714  12.310  68.061  1.00  0.00    -0.218 C  
BRANCH   9  10
HETATM   10  C   UNL     1     -12.030  12.280  67.244  1.00  0.00    -0.131 C  
BRANCH  10  11
HETATM   11  N   UNL     1     -12.025  13.045  66.010  1.00  0.00    -0.421 NA 
HETATM   12  C   UNL     1     -11.593  14.334  65.858  1.00  0.00    -0.358 A  
HETATM   13  C   UNL     1     -12.390  12.596  64.772  1.00  0.00    -0.489 A  
HETATM   14  N   UNL     1     -12.348  13.555  63.876  1.00  0.00    -0.690 NA 
HETATM   15  C   UNL     1     -11.849  14.643  64.544  1.00  0.00    -0.431 A  
ENDBRANCH  10  11
ENDBRANCH   9  10
BRANCH   9  16
HETATM   16  O   UNL     1     -10.859  13.216  69.168  1.00  0.00    -0.200 OA 
BRANCH  16  17
HETATM   17  C   UNL     1     -12.216  13.591  69.419  1.00  0.00    -0.228 C  
BRANCH  17  18
HETATM   18  C   UNL     1     -12.278  14.335  70.726  1.00  0.00    -0.423 A  
HETATM   19  C   UNL     1     -11.802  15.651  70.865  1.00  0.00    -0.388 A  
HETATM   20 CL   UNL     1     -11.068  16.519  69.560  1.00  0.00    -0.294 Cl 
HETATM   21  C   UNL     1     -12.478  15.714  73.190  1.00  0.00    -0.588 A  
HETATM   22  C   UNL     1     -11.905  16.332  72.084  1.00  0.00    -0.585 A  
HETATM   23  C   UNL     1     -12.928  14.401  73.083  1.00  0.00    -0.517 A  
HETATM   24  C   UNL     1     -12.825  13.718  71.868  1.00  0.00    -0.309 A  
HETATM   25 CL   UNL     1     -13.408  12.087  71.836  1.00  0.00    -0.508 Cl 
ENDBRANCH  17  18
ENDBRANCH  16  17
ENDBRANCH   9  16
ENDBRANCH   6   9
TORSDOF 6
ENDMDL
MODEL       48
REMARK 921   NORMALIZED FREE ENERGY PREDICTED BY IDOCK:   -5.96 KCAL/MOL
REMARK 922        TOTAL FREE ENERGY PREDICTED BY IDOCK:   -9.07 KCAL/MOL
REMARK 923 INTER-LIGAND FREE ENERGY PREDICTED BY IDOCK:   -7.97 KCAL/MOL
REMARK 924 INTRA-LIGAND FREE ENERGY PREDICTED BY IDOCK:   -1.09 KCAL/MOL
REMARK 927      BINDING AFFINITY PREDICTED BY RF-SCORE:    0.00 PKD
ROOT
HETATM    1 CL   UNL     1     -10.099  19.595  65.979  1.00  0.00    -0.544 Cl 
HETATM    2  C   UNL     1     -10.203  18.057  66.740  1.00  0.00    -0.364 A  
HETATM    3  C   UNL     1     -10.406  17.978  68.117  1.00  0.00    -0.398 A  
HETATM    4  C   UNL     1     -10.541  16.729  68.731  1.00  0.00    -0.348 A  
HETATM    5 CL   UNL     1     -10.788  16.705  70.441  1.00  0.00    -0.134 Cl 
HETATM    6  C   UNL     1     -10.482  15.549  67.972  1.00  0.00    -0.259 A  
HETATM    7  C   UNL     1     -10.240  15.659  66.587  1.00  0.00    -0.283 A  
HETATM    8  C   UNL     1     -10.105  16.903  65.974  1.00  0.00    -0.336 A  
ENDROOT
BRANCH   6   9
HETATM    9  C   UNL     1     -10.737  14.174  68.577  1.00  0.00    -0.254 C  
BRANCH   9  10
HETATM   10  C   UNL     1     -12.246  13.919  68.817  1.00  0.00    -0.197 C  
BRANCH  10  11
HETATM   11  N   UNL     1     -12.630  13.648  70.191  1.00  0.00    -0.215 NA 
HETATM   12  C   UNL     1     -12.436  12.476  70.870  1.00  0.00    -0.269 A  
HETATM   13  C   UNL     1     -13.195  14.531  71.068  1.00  0.00    -0.354 A  
HETATM   14  N   UNL     1     -13.495  13.955  72.210  1.00  0.00    -0.477 NA 
HETATM   15  C   UNL     1     -13.023  12.674  72.097  1.00  0.00    -0.228 A  
ENDBRANCH  10  11
ENDBRANCH   9  10
BRANCH   9  16
HETATM   16  O   UNL     1     -10.200  13.122  67.757  1.00  0.00    -0.223 OA 
BRANCH  16  17
HETATM   17  C   UNL     1     -11.187  12.187  67.316  1.00  0.00    -0.306 C  
BRANCH  17  18
HETATM   18  C   UNL     1     -10.866  11.774  65.905  1.00  0.00    -0.339 A  
HETATM   19  C   UNL     1     -11.381  12.456  64.786  1.00  0.00    -0.315 A  
HETATM   20 CL   UNL     1     -12.457  13.803  64.930  1.00  0.00    -0.429 Cl 
HETATM   21  C   UNL     1     -10.179  10.996  63.270  1.00  0.00    -0.360 A  
HETATM   22  C   UNL     1     -11.037  12.071  63.484  1.00  0.00    -0.519 A  
HETATM   23  C   UNL     1      -9.684  10.289  64.362  1.00  0.00    -0.381 A  
HETATM   24  C   UNL     1     -10.027  10.669  65.663  1.00  0.00    -0.268 A  
HETATM   25 CL   UNL     1      -9.363   9.724  66.954  1.00  0.00    -0.173 Cl 
ENDBRANCH  17  18
ENDBRANCH  16  17
ENDBRANCH   9  16
ENDBRANCH   6   9
TORSDOF 6
ENDMDL
MODEL       49
REMARK 921   NORMALIZED FREE ENERGY PREDICTED BY IDOCK:   -5.94 KCAL/MOL
REMARK 922        TOTAL FREE ENERGY PREDICTED BY IDOCK:   -9.04 KCAL/MOL
REMARK 923 INTER-LIGAND FREE ENERGY PREDICTED BY IDOCK:   -8.09 KCAL/MOL
REMARK 924 INTRA-LIGAND FREE ENERGY PREDICTED BY IDOCK:   -0.95 KCAL/MOL
REMARK 927      BINDING AFFINITY PREDICTED BY RF-SCORE:    0.00 PKD
ROOT
HETATM    1 CL   UNL     1      -9.203   9.629  63.094  1.00  0.00    -0.234 Cl 
HETATM    2  C   UNL     1      -9.890  10.498  64.409  1.00  0.00    -0.341 A  
HETATM    3  C   UNL     1     -10.931  11.395  64.178  1.00  0.00    -0.411 A  
HETATM    4  C   UNL     1     -11.525  12.065  65.252  1.00  0.00    -0.302 A  
HETATM    5 CL   UNL     1     -12.809  13.165  64.893  1.00  0.00    -0.416 Cl 
HETATM    6  C   UNL     1     -11.087  11.838  66.567  1.00  0.00    -0.364 A  
HETATM    7  C   UNL     1     -10.008  10.952  66.766  1.00  0.00    -0.245 A  
HETATM    8  C   UNL     1      -9.415  10.284  65.697  1.00  0.00    -0.274 A  
ENDROOT
BRANCH   6   9
HETATM    9  C   UNL     1     -11.776  12.457  67.777  1.00  0.00    -0.350 C  
BRANCH   9  10
HETATM   10  C   UNL     1     -11.181  11.938  69.110  1.00  0.00    -0.255 C  
BRANCH  10  11
HETATM   11  N   UNL     1     -12.031  12.077  70.278  1.00  0.00    -0.345 NA 
HETATM   12  C   UNL     1     -12.533  13.247  70.779  1.00  0.00    -0.324 A  
HETATM   13  C   UNL     1     -12.532  11.064  71.047  1.00  0.00    -0.409 A  
HETATM   14  N   UNL     1     -13.202  11.524  72.078  1.00  0.00    -0.462 NA 
HETATM   15  C   UNL     1     -13.211  12.885  71.919  1.00  0.00    -0.423 A  
ENDBRANCH  10  11
ENDBRANCH   9  10
BRANCH   9  16
HETATM   16  O   UNL     1     -11.711  13.893  67.751  1.00  0.00    -0.325 OA 
BRANCH  16  17
HETATM   17  C   UNL     1     -10.388  14.403  67.933  1.00  0.00    -0.232 C  
BRANCH  17  18
HETATM   18  C   UNL     1     -10.350  15.830  67.456  1.00  0.00    -0.280 A  
HETATM   19  C   UNL     1     -10.161  16.165  66.103  1.00  0.00    -0.336 A  
HETATM   20 CL   UNL     1      -9.917  14.973  64.873  1.00  0.00    -0.220 Cl 
HETATM   21  C   UNL     1     -10.352  18.529  66.600  1.00  0.00    -0.442 A  
HETATM   22  C   UNL     1     -10.166  17.501  65.682  1.00  0.00    -0.093 A  
HETATM   23  C   UNL     1     -10.511  18.220  67.948  1.00  0.00    -0.408 A  
HETATM   24  C   UNL     1     -10.504  16.889  68.373  1.00  0.00    -0.355 A  
HETATM   25 CL   UNL     1     -10.704  16.608  70.070  1.00  0.00    -0.245 Cl 
ENDBRANCH  17  18
ENDBRANCH  16  17
ENDBRANCH   9  16
ENDBRANCH   6   9
TORSDOF 6
ENDMDL
MODEL       50
REMARK 921   NORMALIZED FREE ENERGY PREDICTED BY IDOCK:   -5.91 KCAL/MOL
REMARK 922        TOTAL FREE ENERGY PREDICTED BY IDOCK:   -9.00 KCAL/MOL
REMARK 923 INTER-LIGAND FREE ENERGY PREDICTED BY IDOCK:   -8.03 KCAL/MOL
REMARK 924 INTRA-LIGAND FREE ENERGY PREDICTED BY IDOCK:   -0.97 KCAL/MOL
REMARK 927      BINDING AFFINITY PREDICTED BY RF-SCORE:    0.00 PKD
ROOT
HETATM    1 CL   UNL     1      -5.964  20.526  68.855  1.00  0.00    -0.361 Cl 
HETATM    2  C   UNL     1      -7.207  19.364  68.608  1.00  0.00    -0.339 A  
HETATM    3  C   UNL     1      -8.421  19.758  68.047  1.00  0.00    -0.338 A  
HETATM    4  C   UNL     1      -9.415  18.806  67.799  1.00  0.00    -0.301 A  
HETATM    5 CL   UNL     1     -10.896  19.363  67.104  1.00  0.00    -0.592 Cl 
HETATM    6  C   UNL     1      -9.200  17.452  68.103  1.00  0.00    -0.270 A  
HETATM    7  C   UNL     1      -7.976  17.090  68.702  1.00  0.00    -0.258 A  
HETATM    8  C   UNL     1      -6.985  18.037  68.951  1.00  0.00    -0.263 A  
ENDROOT
BRANCH   6   9
HETATM    9  C   UNL     1     -10.206  16.364  67.747  1.00  0.00    -0.274 C  
BRANCH   9  10
HETATM   10  C   UNL     1     -11.533  16.524  68.530  1.00  0.00    -0.133 C  
BRANCH  10  11
HETATM   11  N   UNL     1     -11.878  15.430  69.419  1.00  0.00    -0.341 NA 
HETATM   12  C   UNL     1     -12.169  15.531  70.752  1.00  0.00    -0.403 A  
HETATM   13  C   UNL     1     -12.035  14.117  69.073  1.00  0.00    -0.340 A  
HETATM   14  N   UNL     1     -12.270  13.364  70.122  1.00  0.00    -0.332 NA 
HETATM   15  C   UNL     1     -12.358  14.237  71.174  1.00  0.00    -0.368 A  
ENDBRANCH  10  11
ENDBRANCH   9  10
BRANCH   9  16
HETATM   16  O   UNL     1     -10.484  16.336  66.336  1.00  0.00    -0.303 OA 
BRANCH  16  17
HETATM   17  C   UNL     1      -9.663  15.413  65.615  1.00  0.00    -0.331 C  
BRANCH  17  18
HETATM   18  C   UNL     1     -10.143  14.015  65.901  1.00  0.00    -0.336 A  
HETATM   19  C   UNL     1      -9.411  13.117  66.698  1.00  0.00    -0.260 A  
HETATM   20 CL   UNL     1      -7.878  13.522  67.391  1.00  0.00    -0.171 Cl 
HETATM   21  C   UNL     1     -11.122  11.418  66.459  1.00  0.00    -0.312 A  
HETATM   22  C   UNL     1      -9.900  11.834  66.976  1.00  0.00    -0.213 A  
HETATM   23  C   UNL     1     -11.848  12.280  65.643  1.00  0.00    -0.423 A  
HETATM   24  C   UNL     1     -11.363  13.560  65.361  1.00  0.00    -0.289 A  
HETATM   25 CL   UNL     1     -12.337  14.557  64.331  1.00  0.00    -0.482 Cl 
ENDBRANCH  17  18
ENDBRANCH  16  17
ENDBRANCH   9  16
ENDBRANCH   6   9
TORSDOF 6
ENDMDL
MODEL       51
REMARK 921   NORMALIZED FREE ENERGY PREDICTED BY IDOCK:   -5.91 KCAL/MOL
REMARK 922        TOTAL FREE ENERGY PREDICTED BY IDOCK:   -9.00 KCAL/MOL
REMARK 923 INTER-LIGAND FREE ENERGY PREDICTED BY IDOCK:   -7.55 KCAL/MOL
REMARK 924 INTRA-LIGAND FREE ENERGY PREDICTED BY IDOCK:   -1.45 KCAL/MOL
REMARK 927      BINDING AFFINITY PREDICTED BY RF-SCORE:    0.00 PKD
ROOT
HETATM    1 CL   UNL     1      -9.738  20.775  67.777  1.00  0.00    -0.394 Cl 
HETATM    2  C   UNL     1      -9.763  19.087  67.447  1.00  0.00    -0.315 A  
HETATM    3  C   UNL     1     -10.612  18.253  68.170  1.00  0.00    -0.304 A  
HETATM    4  C   UNL     1     -10.671  16.889  67.869  1.00  0.00    -0.344 A  
HETATM    5 CL   UNL     1     -11.744  15.911  68.808  1.00  0.00    -0.394 Cl 
HETATM    6  C   UNL     1      -9.886  16.350  66.837  1.00  0.00    -0.266 A  
HETATM    7  C   UNL     1      -9.010  17.213  66.146  1.00  0.00    -0.217 A  
HETATM    8  C   UNL     1      -8.950  18.572  66.445  1.00  0.00    -0.276 A  
ENDROOT
BRANCH   6   9
HETATM    9  C   UNL     1     -10.000  14.895  66.397  1.00  0.00    -0.275 C  
BRANCH   9  10
HETATM   10  C   UNL     1     -10.290  14.770  64.881  1.00  0.00    -0.332 C  
BRANCH  10  11
HETATM   11  N   UNL     1     -11.082  13.621  64.481  1.00  0.00    -0.379 NA 
HETATM   12  C   UNL     1     -10.620  12.499  63.849  1.00  0.00    -0.440 A  
HETATM   13  C   UNL     1     -12.414  13.426  64.721  1.00  0.00    -0.365 A  
HETATM   14  N   UNL     1     -12.850  12.321  64.161  1.00  0.00    -0.700 NA 
HETATM   15  C   UNL     1     -11.738  11.735  63.617  1.00  0.00    -0.415 A  
ENDBRANCH  10  11
ENDBRANCH   9  10
BRANCH   9  16
HETATM   16  O   UNL     1      -8.816  14.146  66.720  1.00  0.00    -0.228 OA 
BRANCH  16  17
HETATM   17  C   UNL     1      -8.983  13.278  67.843  1.00  0.00    -0.199 C  
BRANCH  17  18
HETATM   18  C   UNL     1      -9.220  11.879  67.342  1.00  0.00    -0.177 A  
HETATM   19  C   UNL     1      -8.185  11.084  66.815  1.00  0.00    -0.149 A  
HETATM   20 CL   UNL     1      -6.559  11.654  66.660  1.00  0.00    -0.092 Cl 
HETATM   21  C   UNL     1      -9.705   9.229  66.471  1.00  0.00    -0.305 A  
HETATM   22  C   UNL     1      -8.428   9.773  66.387  1.00  0.00    -0.128 A  
HETATM   23  C   UNL     1     -10.749  10.009  66.961  1.00  0.00    -0.248 A  
HETATM   24  C   UNL     1     -10.512  11.318  67.385  1.00  0.00    -0.212 A  
HETATM   25 CL   UNL     1     -11.876  12.209  67.974  1.00  0.00    -0.396 Cl 
ENDBRANCH  17  18
ENDBRANCH  16  17
ENDBRANCH   9  16
ENDBRANCH   6   9
TORSDOF 6
ENDMDL
MODEL       52
REMARK 921   NORMALIZED FREE ENERGY PREDICTED BY IDOCK:   -5.86 KCAL/MOL
REMARK 922        TOTAL FREE ENERGY PREDICTED BY IDOCK:   -8.94 KCAL/MOL
REMARK 923 INTER-LIGAND FREE ENERGY PREDICTED BY IDOCK:   -8.46 KCAL/MOL
REMARK 924 INTRA-LIGAND FREE ENERGY PREDICTED BY IDOCK:   -0.47 KCAL/MOL
REMARK 927      BINDING AFFINITY PREDICTED BY RF-SCORE:    0.00 PKD
ROOT
HETATM    1 CL   UNL     1      -8.415  20.072  67.475  1.00  0.00    -0.378 Cl 
HETATM    2  C   UNL     1      -9.429  18.688  67.363  1.00  0.00    -0.297 A  
HETATM    3  C   UNL     1      -9.769  18.178  66.111  1.00  0.00    -0.217 A  
HETATM    4  C   UNL     1     -10.551  17.024  66.018  1.00  0.00    -0.206 A  
HETATM    5 CL   UNL     1     -10.937  16.447  64.435  1.00  0.00    -0.101 Cl 
HETATM    6  C   UNL     1     -10.995  16.365  67.177  1.00  0.00    -0.082 A  
HETATM    7  C   UNL     1     -10.665  16.925  68.428  1.00  0.00    -0.368 A  
HETATM    8  C   UNL     1      -9.886  18.076  68.523  1.00  0.00    -0.383 A  
ENDROOT
BRANCH   6   9
HETATM    9  C   UNL     1     -11.752  15.043  67.127  1.00  0.00    -0.215 C  
BRANCH   9  10
HETATM   10  C   UNL     1     -10.881  13.899  66.552  1.00  0.00    -0.295 C  
BRANCH  10  11
HETATM   11  N   UNL     1     -11.382  13.270  65.343  1.00  0.00    -0.293 NA 
HETATM   12  C   UNL     1     -10.662  13.005  64.211  1.00  0.00    -0.407 A  
HETATM   13  C   UNL     1     -12.640  12.774  65.144  1.00  0.00    -0.444 A  
HETATM   14  N   UNL     1     -12.801  12.340  63.915  1.00  0.00    -0.756 NA 
HETATM   15  C   UNL     1     -11.572  12.477  63.326  1.00  0.00    -0.371 A  
ENDBRANCH  10  11
ENDBRANCH   9  10
BRANCH   9  16
HETATM   16  O   UNL     1     -12.245  14.663  68.423  1.00  0.00    -0.231 OA 
BRANCH  16  17
HETATM   17  C   UNL     1     -11.331  13.848  69.160  1.00  0.00    -0.286 C  
BRANCH  17  18
HETATM   18  C   UNL     1     -12.075  13.186  70.289  1.00  0.00    -0.399 A  
HETATM   19  C   UNL     1     -12.721  13.923  71.299  1.00  0.00    -0.367 A  
HETATM   20 CL   UNL     1     -12.686  15.652  71.356  1.00  0.00    -0.502 Cl 
HETATM   21  C   UNL     1     -13.516  11.893  72.355  1.00  0.00     0.028 A  
HETATM   22  C   UNL     1     -13.435  13.281  72.317  1.00  0.00    -0.679 A  
HETATM   23  C   UNL     1     -12.859  11.144  71.383  1.00  0.00    -0.544 A  
HETATM   24  C   UNL     1     -12.143  11.781  70.366  1.00  0.00    -0.352 A  
HETATM   25 CL   UNL     1     -11.356  10.762  69.207  1.00  0.00    -0.318 Cl 
ENDBRANCH  17  18
ENDBRANCH  16  17
ENDBRANCH   9  16
ENDBRANCH   6   9
TORSDOF 6
ENDMDL
MODEL       53
REMARK 921   NORMALIZED FREE ENERGY PREDICTED BY IDOCK:   -5.85 KCAL/MOL
REMARK 922        TOTAL FREE ENERGY PREDICTED BY IDOCK:   -8.92 KCAL/MOL
REMARK 923 INTER-LIGAND FREE ENERGY PREDICTED BY IDOCK:   -8.57 KCAL/MOL
REMARK 924 INTRA-LIGAND FREE ENERGY PREDICTED BY IDOCK:   -0.36 KCAL/MOL
REMARK 927      BINDING AFFINITY PREDICTED BY RF-SCORE:    0.00 PKD
ROOT
HETATM    1 CL   UNL     1      -9.274  11.248  62.581  1.00  0.00    -0.376 Cl 
HETATM    2  C   UNL     1      -9.860  11.120  64.193  1.00  0.00    -0.291 A  
HETATM    3  C   UNL     1     -10.728  12.089  64.694  1.00  0.00    -0.355 A  
HETATM    4  C   UNL     1     -11.245  11.959  65.986  1.00  0.00    -0.324 A  
HETATM    5 CL   UNL     1     -12.313  13.198  66.545  1.00  0.00    -0.347 Cl 
HETATM    6  C   UNL     1     -10.904  10.856  66.786  1.00  0.00    -0.283 A  
HETATM    7  C   UNL     1      -9.997   9.911  66.265  1.00  0.00    -0.322 A  
HETATM    8  C   UNL     1      -9.480  10.039  64.977  1.00  0.00    -0.339 A  
ENDROOT
BRANCH   6   9
HETATM    9  C   UNL     1     -11.530  10.614  68.154  1.00  0.00    -0.228 C  
BRANCH   9  10
HETATM   10  C   UNL     1     -10.511  10.023  69.159  1.00  0.00    -0.219 C  
BRANCH  10  11
HETATM   11  N   UNL     1     -10.762   8.658  69.585  1.00  0.00    -0.224 NA 
HETATM   12  C   UNL     1     -11.399   8.272  70.733  1.00  0.00    -0.266 A  
HETATM   13  C   UNL     1     -10.465   7.519  68.889  1.00  0.00    -0.203 A  
HETATM   14  N   UNL     1     -10.747   6.440  69.582  1.00  0.00    -0.250 NA 
HETATM   15  C   UNL     1     -11.332   6.899  70.732  1.00  0.00    -0.310 A  
ENDBRANCH  10  11
ENDBRANCH   9  10
BRANCH   9  16
HETATM   16  O   UNL     1     -12.099  11.816  68.701  1.00  0.00    -0.406 OA 
BRANCH  16  17
HETATM   17  C   UNL     1     -11.350  12.349  69.796  1.00  0.00    -0.053 C  
BRANCH  17  18
HETATM   18  C   UNL     1     -12.231  13.294  70.569  1.00  0.00    -0.416 A  
HETATM   19  C   UNL     1     -12.276  14.673  70.296  1.00  0.00    -0.331 A  
HETATM   20 CL   UNL     1     -11.299  15.414  69.075  1.00  0.00    -0.298 Cl 
HETATM   21  C   UNL     1     -13.953  15.017  72.011  1.00  0.00    -0.605 A  
HETATM   22  C   UNL     1     -13.131  15.523  71.009  1.00  0.00    -0.551 A  
HETATM   23  C   UNL     1     -13.901  13.661  72.318  1.00  0.00    -0.689 A  
HETATM   24  C   UNL     1     -13.047  12.810  71.611  1.00  0.00    -0.331 A  
HETATM   25 CL   UNL     1     -13.050  11.139  72.070  1.00  0.00    -0.554 Cl 
ENDBRANCH  17  18
ENDBRANCH  16  17
ENDBRANCH   9  16
ENDBRANCH   6   9
TORSDOF 6
ENDMDL
MODEL       54
REMARK 921   NORMALIZED FREE ENERGY PREDICTED BY IDOCK:   -5.84 KCAL/MOL
REMARK 922        TOTAL FREE ENERGY PREDICTED BY IDOCK:   -8.90 KCAL/MOL
REMARK 923 INTER-LIGAND FREE ENERGY PREDICTED BY IDOCK:   -7.78 KCAL/MOL
REMARK 924 INTRA-LIGAND FREE ENERGY PREDICTED BY IDOCK:   -1.12 KCAL/MOL
REMARK 927      BINDING AFFINITY PREDICTED BY RF-SCORE:    0.00 PKD
ROOT
HETATM    1 CL   UNL     1      -9.394   8.215  65.986  1.00  0.00    -0.219 Cl 
HETATM    2  C   UNL     1      -9.614   9.919  66.047  1.00  0.00    -0.225 A  
HETATM    3  C   UNL     1     -10.233  10.576  64.986  1.00  0.00    -0.365 A  
HETATM    4  C   UNL     1     -10.458  11.954  65.056  1.00  0.00    -0.289 A  
HETATM    5 CL   UNL     1     -11.229  12.705  63.703  1.00  0.00    -0.509 Cl 
HETATM    6  C   UNL     1     -10.070  12.686  66.190  1.00  0.00    -0.268 A  
HETATM    7  C   UNL     1      -9.413  11.999  67.232  1.00  0.00    -0.181 A  
HETATM    8  C   UNL     1      -9.188  10.626  67.164  1.00  0.00    -0.161 A  
ENDROOT
BRANCH   6   9
HETATM    9  C   UNL     1     -10.395  14.165  66.360  1.00  0.00    -0.287 C  
BRANCH   9  10
HETATM   10  C   UNL     1     -11.807  14.381  66.959  1.00  0.00    -0.412 C  
BRANCH  10  11
HETATM   11  N   UNL     1     -11.860  14.584  68.396  1.00  0.00    -0.328 NA 
HETATM   12  C   UNL     1     -11.869  15.789  69.043  1.00  0.00    -0.355 A  
HETATM   13  C   UNL     1     -11.974  13.614  69.352  1.00  0.00    -0.342 A  
HETATM   14  N   UNL     1     -11.915  14.117  70.563  1.00  0.00    -0.319 NA 
HETATM   15  C   UNL     1     -11.852  15.474  70.381  1.00  0.00    -0.351 A  
ENDBRANCH  10  11
ENDBRANCH   9  10
BRANCH   9  16
HETATM   16  O   UNL     1      -9.421  14.834  67.179  1.00  0.00    -0.214 OA 
BRANCH  16  17
HETATM   17  C   UNL     1      -8.719  15.871  66.490  1.00  0.00    -0.315 C  
BRANCH  17  18
HETATM   18  C   UNL     1      -9.177  17.202  67.024  1.00  0.00    -0.251 A  
HETATM   19  C   UNL     1      -8.612  17.787  68.171  1.00  0.00    -0.262 A  
HETATM   20 CL   UNL     1      -7.369  17.016  69.095  1.00  0.00    -0.225 Cl 
HETATM   21  C   UNL     1     -10.032  19.738  67.948  1.00  0.00    -0.539 A  
HETATM   22  C   UNL     1      -9.035  19.043  68.625  1.00  0.00    -0.402 A  
HETATM   23  C   UNL     1     -10.626  19.163  66.828  1.00  0.00    -0.528 A  
HETATM   24  C   UNL     1     -10.209  17.909  66.374  1.00  0.00    -0.372 A  
HETATM   25 CL   UNL     1     -11.012  17.276  64.976  1.00  0.00    -0.063 Cl 
ENDBRANCH  17  18
ENDBRANCH  16  17
ENDBRANCH   9  16
ENDBRANCH   6   9
TORSDOF 6
ENDMDL
MODEL       55
REMARK 921   NORMALIZED FREE ENERGY PREDICTED BY IDOCK:   -5.83 KCAL/MOL
REMARK 922        TOTAL FREE ENERGY PREDICTED BY IDOCK:   -8.89 KCAL/MOL
REMARK 923 INTER-LIGAND FREE ENERGY PREDICTED BY IDOCK:   -7.77 KCAL/MOL
REMARK 924 INTRA-LIGAND FREE ENERGY PREDICTED BY IDOCK:   -1.12 KCAL/MOL
REMARK 927      BINDING AFFINITY PREDICTED BY RF-SCORE:    0.00 PKD
ROOT
HETATM    1 CL   UNL     1     -12.141   8.555  72.513  1.00  0.00    -0.441 Cl 
HETATM    2  C   UNL     1     -11.673   9.662  71.283  1.00  0.00    -0.382 A  
HETATM    3  C   UNL     1     -10.488   9.454  70.580  1.00  0.00    -0.335 A  
HETATM    4  C   UNL     1     -10.130  10.324  69.546  1.00  0.00    -0.235 A  
HETATM    5 CL   UNL     1      -8.647  10.010  68.716  1.00  0.00    -0.125 Cl 
HETATM    6  C   UNL     1     -10.959  11.405  69.202  1.00  0.00    -0.289 A  
HETATM    7  C   UNL     1     -12.133  11.610  69.955  1.00  0.00    -0.373 A  
HETATM    8  C   UNL     1     -12.491  10.744  70.986  1.00  0.00    -0.522 A  
ENDROOT
BRANCH   6   9
HETATM    9  C   UNL     1     -10.669  12.311  68.011  1.00  0.00    -0.218 C  
BRANCH   9  10
HETATM   10  C   UNL     1     -11.956  12.654  67.219  1.00  0.00    -0.253 C  
BRANCH  10  11
HETATM   11  N   UNL     1     -11.849  12.573  65.774  1.00  0.00    -0.430 NA 
HETATM   12  C   UNL     1     -10.863  11.937  65.070  1.00  0.00    -0.300 A  
HETATM   13  C   UNL     1     -12.744  13.059  64.862  1.00  0.00    -0.390 A  
HETATM   14  N   UNL     1     -12.319  12.894  63.630  1.00  0.00    -0.678 NA 
HETATM   15  C   UNL     1     -11.148  12.193  63.749  1.00  0.00    -0.436 A  
ENDBRANCH  10  11
ENDBRANCH   9  10
BRANCH   9  16
HETATM   16  O   UNL     1     -10.016  13.527  68.412  1.00  0.00    -0.232 OA 
BRANCH  16  17
HETATM   17  C   UNL     1      -8.848  13.824  67.643  1.00  0.00    -0.189 C  
BRANCH  17  18
HETATM   18  C   UNL     1      -8.625  15.312  67.658  1.00  0.00    -0.178 A  
HETATM   19  C   UNL     1      -9.197  16.168  66.700  1.00  0.00    -0.246 A  
HETATM   20 CL   UNL     1     -10.177  15.587  65.398  1.00  0.00    -0.402 Cl 
HETATM   21  C   UNL     1      -8.225  18.113  67.770  1.00  0.00    -0.245 A  
HETATM   22  C   UNL     1      -9.000  17.554  66.759  1.00  0.00    -0.272 A  
HETATM   23  C   UNL     1      -7.624  17.280  68.710  1.00  0.00    -0.256 A  
HETATM   24  C   UNL     1      -7.816  15.897  68.652  1.00  0.00    -0.164 A  
HETATM   25 CL   UNL     1      -7.022  14.946  69.864  1.00  0.00    -0.178 Cl 
ENDBRANCH  17  18
ENDBRANCH  16  17
ENDBRANCH   9  16
ENDBRANCH   6   9
TORSDOF 6
ENDMDL
MODEL       56
REMARK 921   NORMALIZED FREE ENERGY PREDICTED BY IDOCK:   -5.82 KCAL/MOL
REMARK 922        TOTAL FREE ENERGY PREDICTED BY IDOCK:   -8.88 KCAL/MOL
REMARK 923 INTER-LIGAND FREE ENERGY PREDICTED BY IDOCK:   -7.80 KCAL/MOL
REMARK 924 INTRA-LIGAND FREE ENERGY PREDICTED BY IDOCK:   -1.08 KCAL/MOL
REMARK 927      BINDING AFFINITY PREDICTED BY RF-SCORE:    0.00 PKD
ROOT
HETATM    1 CL   UNL     1     -10.106  11.114  62.996  1.00  0.00    -0.339 Cl 
HETATM    2  C   UNL     1     -10.347  11.606  64.627  1.00  0.00    -0.292 A  
HETATM    3  C   UNL     1      -9.380  11.315  65.587  1.00  0.00    -0.245 A  
HETATM    4  C   UNL     1      -9.550  11.757  66.902  1.00  0.00    -0.193 A  
HETATM    5 CL   UNL     1      -8.314  11.358  68.043  1.00  0.00    -0.136 Cl 
HETATM    6  C   UNL     1     -10.684  12.501  67.266  1.00  0.00    -0.259 A  
HETATM    7  C   UNL     1     -11.662  12.750  66.280  1.00  0.00    -0.460 A  
HETATM    8  C   UNL     1     -11.494  12.309  64.969  1.00  0.00    -0.386 A  
ENDROOT
BRANCH   6   9
HETATM    9  C   UNL     1     -10.858  13.101  68.656  1.00  0.00    -0.259 C  
BRANCH   9  10
HETATM   10  C   UNL     1     -12.083  14.047  68.729  1.00  0.00    -0.303 C  
BRANCH  10  11
HETATM   11  N   UNL     1     -12.239  14.784  69.970  1.00  0.00    -0.326 NA 
HETATM   12  C   UNL     1     -13.268  14.657  70.862  1.00  0.00    -0.337 A  
HETATM   13  C   UNL     1     -11.359  15.686  70.498  1.00  0.00    -0.367 A  
HETATM   14  N   UNL     1     -11.829  16.238  71.593  1.00  0.00    -0.472 NA 
HETATM   15  C   UNL     1     -13.018  15.601  71.830  1.00  0.00    -0.465 A  
ENDBRANCH  10  11
ENDBRANCH   9  10
BRANCH   9  16
HETATM   16  O   UNL     1     -10.979  12.083  69.665  1.00  0.00    -0.078 OA 
BRANCH  16  17
HETATM   17  C   UNL     1     -11.984  11.110  69.369  1.00  0.00    -0.349 C  
BRANCH  17  18
HETATM   18  C   UNL     1     -11.846   9.964  70.335  1.00  0.00    -0.310 A  
HETATM   19  C   UNL     1     -11.121   8.799  70.022  1.00  0.00    -0.162 A  
HETATM   20 CL   UNL     1     -10.357   8.561  68.487  1.00  0.00    -0.231 Cl 
HETATM   21  C   UNL     1     -11.562   7.864  72.213  1.00  0.00    -0.406 A  
HETATM   22  C   UNL     1     -10.980   7.763  70.954  1.00  0.00    -0.260 A  
HETATM   23  C   UNL     1     -12.309   8.995  72.532  1.00  0.00    -0.276 A  
HETATM   24  C   UNL     1     -12.455  10.029  71.604  1.00  0.00    -0.418 A  
HETATM   25 CL   UNL     1     -13.406  11.392  72.093  1.00  0.00    -0.469 Cl 
ENDBRANCH  17  18
ENDBRANCH  16  17
ENDBRANCH   9  16
ENDBRANCH   6   9
TORSDOF 6
ENDMDL
MODEL       57
REMARK 921   NORMALIZED FREE ENERGY PREDICTED BY IDOCK:   -5.82 KCAL/MOL
REMARK 922        TOTAL FREE ENERGY PREDICTED BY IDOCK:   -8.87 KCAL/MOL
REMARK 923 INTER-LIGAND FREE ENERGY PREDICTED BY IDOCK:   -7.95 KCAL/MOL
REMARK 924 INTRA-LIGAND FREE ENERGY PREDICTED BY IDOCK:   -0.92 KCAL/MOL
REMARK 927      BINDING AFFINITY PREDICTED BY RF-SCORE:    0.00 PKD
ROOT
HETATM    1 CL   UNL     1      -9.918  19.690  67.930  1.00  0.00    -0.495 Cl 
HETATM    2  C   UNL     1      -9.959  17.976  67.793  1.00  0.00    -0.326 A  
HETATM    3  C   UNL     1     -10.498  17.212  68.825  1.00  0.00    -0.351 A  
HETATM    4  C   UNL     1     -10.578  15.822  68.695  1.00  0.00    -0.250 A  
HETATM    5 CL   UNL     1     -11.257  14.935  70.014  1.00  0.00    -0.288 Cl 
HETATM    6  C   UNL     1     -10.126  15.186  67.527  1.00  0.00    -0.232 A  
HETATM    7  C   UNL     1      -9.552  15.983  66.515  1.00  0.00    -0.283 A  
HETATM    8  C   UNL     1      -9.471  17.367  66.643  1.00  0.00    -0.285 A  
ENDROOT
BRANCH   6   9
HETATM    9  C   UNL     1     -10.297  13.690  67.292  1.00  0.00    -0.249 C  
BRANCH   9  10
HETATM   10  C   UNL     1      -9.954  13.291  65.835  1.00  0.00    -0.272 C  
BRANCH  10  11
HETATM   11  N   UNL     1     -11.074  12.861  65.018  1.00  0.00    -0.285 NA 
HETATM   12  C   UNL     1     -11.022  12.493  63.701  1.00  0.00    -0.456 A  
HETATM   13  C   UNL     1     -12.365  12.685  65.432  1.00  0.00    -0.436 A  
HETATM   14  N   UNL     1     -13.155  12.365  64.433  1.00  0.00    -0.811 NA 
HETATM   15  C   UNL     1     -12.326  12.240  63.350  1.00  0.00    -0.517 A  
ENDBRANCH  10  11
ENDBRANCH   9  10
BRANCH   9  16
HETATM   16  O   UNL     1      -9.498  12.913  68.201  1.00  0.00    -0.210 OA 
BRANCH  16  17
HETATM   17  C   UNL     1      -9.366  11.544  67.810  1.00  0.00    -0.168 C  
BRANCH  17  18
HETATM   18  C   UNL     1      -9.526  10.676  69.029  1.00  0.00    -0.202 A  
HETATM   19  C   UNL     1      -8.442   9.999  69.618  1.00  0.00    -0.180 A  
HETATM   20 CL   UNL     1      -6.838  10.071  68.974  1.00  0.00    -0.053 Cl 
HETATM   21  C   UNL     1      -9.870   9.107  71.361  1.00  0.00    -0.354 A  
HETATM   22  C   UNL     1      -8.615   9.226  70.773  1.00  0.00    -0.254 A  
HETATM   23  C   UNL     1     -10.961   9.744  70.777  1.00  0.00    -0.406 A  
HETATM   24  C   UNL     1     -10.794  10.514  69.623  1.00  0.00    -0.274 A  
HETATM   25 CL   UNL     1     -12.213  11.263  68.969  1.00  0.00    -0.314 Cl 
ENDBRANCH  17  18
ENDBRANCH  16  17
ENDBRANCH   9  16
ENDBRANCH   6   9
TORSDOF 6
ENDMDL
MODEL       58
REMARK 921   NORMALIZED FREE ENERGY PREDICTED BY IDOCK:   -5.80 KCAL/MOL
REMARK 922        TOTAL FREE ENERGY PREDICTED BY IDOCK:   -8.86 KCAL/MOL
REMARK 923 INTER-LIGAND FREE ENERGY PREDICTED BY IDOCK:   -7.81 KCAL/MOL
REMARK 924 INTRA-LIGAND FREE ENERGY PREDICTED BY IDOCK:   -1.05 KCAL/MOL
REMARK 927      BINDING AFFINITY PREDICTED BY RF-SCORE:    0.00 PKD
ROOT
HETATM    1 CL   UNL     1      -9.309  10.262  62.471  1.00  0.00    -0.316 Cl 
HETATM    2  C   UNL     1      -9.851  10.757  64.026  1.00  0.00    -0.332 A  
HETATM    3  C   UNL     1      -9.058  10.513  65.145  1.00  0.00    -0.227 A  
HETATM    4  C   UNL     1      -9.474  10.959  66.403  1.00  0.00    -0.187 A  
HETATM    5 CL   UNL     1      -8.443  10.622  67.749  1.00  0.00    -0.115 Cl 
HETATM    6  C   UNL     1     -10.683  11.658  66.551  1.00  0.00    -0.313 A  
HETATM    7  C   UNL     1     -11.481  11.858  65.406  1.00  0.00    -0.310 A  
HETATM    8  C   UNL     1     -11.068  11.414  64.151  1.00  0.00    -0.382 A  
ENDROOT
BRANCH   6   9
HETATM    9  C   UNL     1     -11.121  12.262  67.880  1.00  0.00    -0.243 C  
BRANCH   9  10
HETATM   10  C   UNL     1     -12.016  13.511  67.680  1.00  0.00    -0.336 C  
BRANCH  10  11
HETATM   11  N   UNL     1     -11.814  14.590  68.630  1.00  0.00    -0.327 NA 
HETATM   12  C   UNL     1     -11.144  15.760  68.396  1.00  0.00    -0.341 A  
HETATM   13  C   UNL     1     -12.310  14.660  69.902  1.00  0.00    -0.294 A  
HETATM   14  N   UNL     1     -11.882  15.730  70.531  1.00  0.00    -0.356 NA 
HETATM   15  C   UNL     1     -11.156  16.424  69.599  1.00  0.00    -0.306 A  
ENDBRANCH  10  11
ENDBRANCH   9  10
BRANCH   9  16
HETATM   16  O   UNL     1     -11.815  11.304  68.698  1.00  0.00    -0.382 OA 
BRANCH  16  17
HETATM   17  C   UNL     1     -11.146  11.023  69.930  1.00  0.00    -0.205 C  
BRANCH  17  18
HETATM   18  C   UNL     1     -11.926   9.971  70.674  1.00  0.00    -0.401 A  
HETATM   19  C   UNL     1     -12.944  10.296  71.588  1.00  0.00    -0.465 A  
HETATM   20 CL   UNL     1     -13.367  11.930  71.970  1.00  0.00    -0.545 Cl 
HETATM   21  C   UNL     1     -13.406   7.953  71.998  1.00  0.00    -0.251 A  
HETATM   22  C   UNL     1     -13.677   9.296  72.240  1.00  0.00    -0.527 A  
HETATM   23  C   UNL     1     -12.382   7.610  71.120  1.00  0.00    -0.293 A  
HETATM   24  C   UNL     1     -11.647   8.605  70.470  1.00  0.00    -0.139 A  
HETATM   25 CL   UNL     1     -10.390   8.077  69.400  1.00  0.00    -0.215 Cl 
ENDBRANCH  17  18
ENDBRANCH  16  17
ENDBRANCH   9  16
ENDBRANCH   6   9
TORSDOF 6
ENDMDL
MODEL       59
REMARK 921   NORMALIZED FREE ENERGY PREDICTED BY IDOCK:   -5.77 KCAL/MOL
REMARK 922        TOTAL FREE ENERGY PREDICTED BY IDOCK:   -8.82 KCAL/MOL
REMARK 923 INTER-LIGAND FREE ENERGY PREDICTED BY IDOCK:   -8.85 KCAL/MOL
REMARK 924 INTRA-LIGAND FREE ENERGY PREDICTED BY IDOCK:    0.03 KCAL/MOL
REMARK 927      BINDING AFFINITY PREDICTED BY RF-SCORE:    0.00 PKD
ROOT
HETATM    1 CL   UNL     1      -7.472  21.056  67.170  1.00  0.00    -0.345 Cl 
HETATM    2  C   UNL     1      -8.371  19.620  66.875  1.00  0.00    -0.301 A  
HETATM    3  C   UNL     1      -7.748  18.379  66.982  1.00  0.00    -0.234 A  
HETATM    4  C   UNL     1      -8.489  17.209  66.793  1.00  0.00    -0.235 A  
HETATM    5 CL   UNL     1      -7.652  15.703  66.938  1.00  0.00    -0.239 Cl 
HETATM    6  C   UNL     1      -9.861  17.270  66.502  1.00  0.00    -0.306 A  
HETATM    7  C   UNL     1     -10.456  18.541  66.365  1.00  0.00    -0.443 A  
HETATM    8  C   UNL     1      -9.719  19.708  66.553  1.00  0.00    -0.498 A  
ENDROOT
BRANCH   6   9
HETATM    9  C   UNL     1     -10.732  16.024  66.400  1.00  0.00    -0.232 C  
BRANCH   9  10
HETATM   10  C   UNL     1     -10.003  14.867  65.673  1.00  0.00    -0.358 C  
BRANCH  10  11
HETATM   11  N   UNL     1     -10.829  14.046  64.805  1.00  0.00    -0.404 NA 
HETATM   12  C   UNL     1     -10.449  12.887  64.185  1.00  0.00    -0.406 A  
HETATM   13  C   UNL     1     -12.147  14.247  64.505  1.00  0.00    -0.480 A  
HETATM   14  N   UNL     1     -12.584  13.373  63.629  1.00  0.00    -0.727 NA 
HETATM   15  C   UNL     1     -11.533  12.518  63.425  1.00  0.00    -0.452 A  
ENDBRANCH  10  11
ENDBRANCH   9  10
BRANCH   9  16
HETATM   16  O   UNL     1     -11.173  15.574  67.693  1.00  0.00    -0.323 OA 
BRANCH  16  17
HETATM   17  C   UNL     1     -10.360  14.530  68.236  1.00  0.00    -0.236 C  
BRANCH  17  18
HETATM   18  C   UNL     1     -11.213  13.669  69.128  1.00  0.00    -0.309 A  
HETATM   19  C   UNL     1     -11.473  12.316  68.842  1.00  0.00    -0.304 A  
HETATM   20 CL   UNL     1     -10.869  11.531  67.424  1.00  0.00    -0.275 Cl 
HETATM   21  C   UNL     1     -12.771  12.075  70.874  1.00  0.00    -0.291 A  
HETATM   22  C   UNL     1     -12.241  11.529  69.709  1.00  0.00    -0.310 A  
HETATM   23  C   UNL     1     -12.552  13.420  71.160  1.00  0.00    -0.430 A  
HETATM   24  C   UNL     1     -11.788  14.209  70.296  1.00  0.00    -0.303 A  
HETATM   25 CL   UNL     1     -11.575  15.871  70.736  1.00  0.00    -0.405 Cl 
ENDBRANCH  17  18
ENDBRANCH  16  17
ENDBRANCH   9  16
ENDBRANCH   6   9
TORSDOF 6
ENDMDL
MODEL       60
REMARK 921   NORMALIZED FREE ENERGY PREDICTED BY IDOCK:   -5.77 KCAL/MOL
REMARK 922        TOTAL FREE ENERGY PREDICTED BY IDOCK:   -8.81 KCAL/MOL
REMARK 923 INTER-LIGAND FREE ENERGY PREDICTED BY IDOCK:   -7.63 KCAL/MOL
REMARK 924 INTRA-LIGAND FREE ENERGY PREDICTED BY IDOCK:   -1.18 KCAL/MOL
REMARK 927      BINDING AFFINITY PREDICTED BY RF-SCORE:    0.00 PKD
ROOT
HETATM    1 CL   UNL     1      -8.003  17.195  65.768  1.00  0.00     0.010 Cl 
HETATM    2  C   UNL     1      -8.857  15.814  66.334  1.00  0.00    -0.336 A  
HETATM    3  C   UNL     1     -10.125  15.531  65.831  1.00  0.00    -0.374 A  
HETATM    4  C   UNL     1     -10.800  14.382  66.252  1.00  0.00    -0.313 A  
HETATM    5 CL   UNL     1     -12.371  14.092  65.590  1.00  0.00    -0.470 Cl 
HETATM    6  C   UNL     1     -10.210  13.503  67.174  1.00  0.00    -0.247 A  
HETATM    7  C   UNL     1      -8.941  13.835  67.692  1.00  0.00    -0.194 A  
HETATM    8  C   UNL     1      -8.267  14.980  67.274  1.00  0.00    -0.236 A  
ENDROOT
BRANCH   6   9
HETATM    9  C   UNL     1     -10.857  12.182  67.576  1.00  0.00    -0.243 C  
BRANCH   9  10
HETATM   10  C   UNL     1      -9.814  11.164  68.101  1.00  0.00    -0.180 C  
BRANCH  10  11
HETATM   11  N   UNL     1     -10.153   9.764  67.922  1.00  0.00    -0.164 NA 
HETATM   12  C   UNL     1     -10.364   8.849  68.917  1.00  0.00    -0.212 A  
HETATM   13  C   UNL     1     -10.385   9.126  66.736  1.00  0.00    -0.238 A  
HETATM   14  N   UNL     1     -10.591   7.841  66.908  1.00  0.00    -0.338 NA 
HETATM   15  C   UNL     1     -10.582   7.658  68.266  1.00  0.00    -0.124 A  
ENDBRANCH  10  11
ENDBRANCH   9  10
BRANCH   9  16
HETATM   16  O   UNL     1     -11.882  12.370  68.567  1.00  0.00    -0.314 OA 
BRANCH  16  17
HETATM   17  C   UNL     1     -11.367  12.517  69.893  1.00  0.00     0.023 C  
BRANCH  17  18
HETATM   18  C   UNL     1     -12.349  13.317  70.706  1.00  0.00    -0.425 A  
HETATM   19  C   UNL     1     -12.501  14.706  70.548  1.00  0.00    -0.347 A  
HETATM   20 CL   UNL     1     -11.548  15.627  69.435  1.00  0.00    -0.351 Cl 
HETATM   21  C   UNL     1     -14.257  14.764  72.217  1.00  0.00    -0.562 A  
HETATM   22  C   UNL     1     -13.447  15.419  71.295  1.00  0.00    -0.598 A  
HETATM   23  C   UNL     1     -14.102  13.394  72.410  1.00  0.00    -0.517 A  
HETATM   24  C   UNL     1     -13.157  12.680  71.670  1.00  0.00    -0.323 A  
HETATM   25 CL   UNL     1     -13.037  10.981  71.986  1.00  0.00    -0.564 Cl 
ENDBRANCH  17  18
ENDBRANCH  16  17
ENDBRANCH   9  16
ENDBRANCH   6   9
TORSDOF 6
ENDMDL
MODEL       61
REMARK 921   NORMALIZED FREE ENERGY PREDICTED BY IDOCK:   -5.76 KCAL/MOL
REMARK 922        TOTAL FREE ENERGY PREDICTED BY IDOCK:   -8.80 KCAL/MOL
REMARK 923 INTER-LIGAND FREE ENERGY PREDICTED BY IDOCK:   -7.80 KCAL/MOL
REMARK 924 INTRA-LIGAND FREE ENERGY PREDICTED BY IDOCK:   -1.00 KCAL/MOL
REMARK 927      BINDING AFFINITY PREDICTED BY RF-SCORE:    0.00 PKD
ROOT
HETATM    1 CL   UNL     1      -9.476   7.885  66.210  1.00  0.00    -0.243 Cl 
HETATM    2  C   UNL     1      -9.711   9.586  66.317  1.00  0.00    -0.245 A  
HETATM    3  C   UNL     1      -9.940  10.327  65.160  1.00  0.00    -0.395 A  
HETATM    4  C   UNL     1     -10.181  11.701  65.249  1.00  0.00    -0.272 A  
HETATM    5 CL   UNL     1     -10.456  12.559  63.774  1.00  0.00    -0.451 Cl 
HETATM    6  C   UNL     1     -10.201  12.344  66.497  1.00  0.00    -0.244 A  
HETATM    7  C   UNL     1      -9.930  11.574  67.647  1.00  0.00    -0.199 A  
HETATM    8  C   UNL     1      -9.689  10.205  67.560  1.00  0.00    -0.190 A  
ENDROOT
BRANCH   6   9
HETATM    9  C   UNL     1     -10.571  13.814  66.654  1.00  0.00    -0.274 C  
BRANCH   9  10
HETATM   10  C   UNL     1     -11.979  13.993  67.274  1.00  0.00    -0.413 C  
BRANCH  10  11
HETATM   11  N   UNL     1     -12.008  14.358  68.679  1.00  0.00    -0.320 NA 
HETATM   12  C   UNL     1     -12.024  13.494  69.740  1.00  0.00    -0.340 A  
HETATM   13  C   UNL     1     -11.962  15.624  69.193  1.00  0.00    -0.310 A  
HETATM   14  N   UNL     1     -12.087  15.621  70.501  1.00  0.00    -0.379 NA 
HETATM   15  C   UNL     1     -12.123  14.297  70.851  1.00  0.00    -0.347 A  
ENDBRANCH  10  11
ENDBRANCH   9  10
BRANCH   9  16
HETATM   16  O   UNL     1      -9.605  14.525  67.448  1.00  0.00    -0.206 OA 
BRANCH  16  17
HETATM   17  C   UNL     1      -8.817  15.447  66.690  1.00  0.00    -0.295 C  
BRANCH  17  18
HETATM   18  C   UNL     1      -9.257  16.847  67.025  1.00  0.00    -0.246 A  
HETATM   19  C   UNL     1     -10.244  17.523  66.286  1.00  0.00    -0.355 A  
HETATM   20 CL   UNL     1     -11.015  16.823  64.903  1.00  0.00    -0.244 Cl 
HETATM   21  C   UNL     1     -10.093  19.456  67.738  1.00  0.00    -0.508 A  
HETATM   22  C   UNL     1     -10.658  18.812  66.642  1.00  0.00    -0.446 A  
HETATM   23  C   UNL     1      -9.092  18.817  68.465  1.00  0.00    -0.377 A  
HETATM   24  C   UNL     1      -8.675  17.532  68.111  1.00  0.00    -0.262 A  
HETATM   25 CL   UNL     1      -7.421  16.823  69.074  1.00  0.00    -0.237 Cl 
ENDBRANCH  17  18
ENDBRANCH  16  17
ENDBRANCH   9  16
ENDBRANCH   6   9
TORSDOF 6
ENDMDL
MODEL       62
REMARK 921   NORMALIZED FREE ENERGY PREDICTED BY IDOCK:   -5.76 KCAL/MOL
REMARK 922        TOTAL FREE ENERGY PREDICTED BY IDOCK:   -8.80 KCAL/MOL
REMARK 923 INTER-LIGAND FREE ENERGY PREDICTED BY IDOCK:   -8.37 KCAL/MOL
REMARK 924 INTRA-LIGAND FREE ENERGY PREDICTED BY IDOCK:   -0.43 KCAL/MOL
REMARK 927      BINDING AFFINITY PREDICTED BY RF-SCORE:    0.00 PKD
ROOT
HETATM    1 CL   UNL     1      -5.577  18.308  68.726  1.00  0.00    -0.190 Cl 
HETATM    2  C   UNL     1      -7.074  17.464  68.771  1.00  0.00    -0.246 A  
HETATM    3  C   UNL     1      -8.223  18.065  68.260  1.00  0.00    -0.298 A  
HETATM    4  C   UNL     1      -9.431  17.362  68.250  1.00  0.00    -0.290 A  
HETATM    5 CL   UNL     1     -10.817  18.168  67.602  1.00  0.00    -0.353 Cl 
HETATM    6  C   UNL     1      -9.499  16.050  68.745  1.00  0.00    -0.227 A  
HETATM    7  C   UNL     1      -8.329  15.482  69.289  1.00  0.00    -0.257 A  
HETATM    8  C   UNL     1      -7.124  16.181  69.300  1.00  0.00    -0.220 A  
ENDROOT
BRANCH   6   9
HETATM    9  C   UNL     1     -10.764  15.205  68.651  1.00  0.00    -0.239 C  
BRANCH   9  10
HETATM   10  C   UNL     1     -11.954  15.859  69.397  1.00  0.00    -0.256 C  
BRANCH  10  11
HETATM   11  N   UNL     1     -12.594  15.038  70.408  1.00  0.00    -0.355 NA 
HETATM   12  C   UNL     1     -13.522  15.456  71.322  1.00  0.00    -0.519 A  
HETATM   13  C   UNL     1     -12.432  13.693  70.588  1.00  0.00    -0.347 A  
HETATM   14  N   UNL     1     -13.090  13.261  71.639  1.00  0.00    -0.384 NA 
HETATM   15  C   UNL     1     -13.775  14.353  72.102  1.00  0.00    -0.463 A  
ENDBRANCH  10  11
ENDBRANCH   9  10
BRANCH   9  16
HETATM   16  O   UNL     1     -11.137  14.953  67.285  1.00  0.00    -0.317 OA 
BRANCH  16  17
HETATM   17  C   UNL     1     -12.046  13.860  67.138  1.00  0.00    -0.387 C  
BRANCH  17  18
HETATM   18  C   UNL     1     -11.596  13.007  65.983  1.00  0.00    -0.409 A  
HETATM   19  C   UNL     1     -11.621  13.468  64.654  1.00  0.00    -0.368 A  
HETATM   20 CL   UNL     1     -12.206  15.039  64.223  1.00  0.00    -0.433 Cl 
HETATM   21  C   UNL     1     -10.676  11.387  63.851  1.00  0.00    -0.462 A  
HETATM   22  C   UNL     1     -11.162  12.666  63.601  1.00  0.00    -0.525 A  
HETATM   23  C   UNL     1     -10.671  10.900  65.155  1.00  0.00    -0.209 A  
HETATM   24  C   UNL     1     -11.130  11.696  66.207  1.00  0.00    -0.290 A  
HETATM   25 CL   UNL     1     -11.088  10.999  67.793  1.00  0.00    -0.327 Cl 
ENDBRANCH  17  18
ENDBRANCH  16  17
ENDBRANCH   9  16
ENDBRANCH   6   9
TORSDOF 6
ENDMDL
MODEL       63
REMARK 921   NORMALIZED FREE ENERGY PREDICTED BY IDOCK:   -5.70 KCAL/MOL
REMARK 922        TOTAL FREE ENERGY PREDICTED BY IDOCK:   -8.72 KCAL/MOL
REMARK 923 INTER-LIGAND FREE ENERGY PREDICTED BY IDOCK:   -8.04 KCAL/MOL
REMARK 924 INTRA-LIGAND FREE ENERGY PREDICTED BY IDOCK:   -0.68 KCAL/MOL
REMARK 927      BINDING AFFINITY PREDICTED BY RF-SCORE:    0.00 PKD
ROOT
HETATM    1 CL   UNL     1     -13.622  15.773  73.177  1.00  0.00    -0.639 Cl 
HETATM    2  C   UNL     1     -12.859  15.161  71.764  1.00  0.00    -0.355 A  
HETATM    3  C   UNL     1     -12.401  16.042  70.786  1.00  0.00    -0.199 A  
HETATM    4  C   UNL     1     -11.736  15.549  69.660  1.00  0.00    -0.357 A  
HETATM    5 CL   UNL     1     -11.197  16.698  68.486  1.00  0.00    -0.309 Cl 
HETATM    6  C   UNL     1     -11.517  14.171  69.505  1.00  0.00    -0.334 A  
HETATM    7  C   UNL     1     -12.023  13.301  70.493  1.00  0.00    -0.319 A  
HETATM    8  C   UNL     1     -12.687  13.790  71.616  1.00  0.00    -0.409 A  
ENDROOT
BRANCH   6   9
HETATM    9  C   UNL     1     -10.699  13.597  68.354  1.00  0.00    -0.258 C  
BRANCH   9  10
HETATM   10  C   UNL     1      -9.206  13.998  68.450  1.00  0.00    -0.196 C  
BRANCH  10  11
HETATM   11  N   UNL     1      -8.768  15.026  67.523  1.00  0.00    -0.175 NA 
HETATM   12  C   UNL     1      -7.737  15.905  67.717  1.00  0.00    -0.141 A  
HETATM   13  C   UNL     1      -9.262  15.258  66.270  1.00  0.00    -0.315 A  
HETATM   14  N   UNL     1      -8.705  16.311  65.717  1.00  0.00    -0.343 NA 
HETATM   15  C   UNL     1      -7.751  16.720  66.611  1.00  0.00    -0.273 A  
ENDBRANCH  10  11
ENDBRANCH   9  10
BRANCH   9  16
HETATM   16  O   UNL     1     -10.805  12.164  68.287  1.00  0.00    -0.204 OA 
BRANCH  16  17
HETATM   17  C   UNL     1     -11.854  11.714  67.426  1.00  0.00    -0.091 C  
BRANCH  17  18
HETATM   18  C   UNL     1     -11.367  11.768  66.003  1.00  0.00    -0.335 A  
HETATM   19  C   UNL     1     -11.753  12.788  65.113  1.00  0.00    -0.360 A  
HETATM   20 CL   UNL     1     -12.850  14.048  65.561  1.00  0.00    -0.534 Cl 
HETATM   21  C   UNL     1     -10.370  11.859  63.354  1.00  0.00    -0.481 A  
HETATM   22  C   UNL     1     -11.256  12.832  63.805  1.00  0.00    -0.496 A  
HETATM   23  C   UNL     1      -9.999  10.824  64.208  1.00  0.00    -0.403 A  
HETATM   24  C   UNL     1     -10.495  10.775  65.513  1.00  0.00    -0.194 A  
HETATM   25 CL   UNL     1      -9.978   9.446  66.497  1.00  0.00    -0.318 Cl 
ENDBRANCH  17  18
ENDBRANCH  16  17
ENDBRANCH   9  16
ENDBRANCH   6   9
TORSDOF 6
ENDMDL
MODEL       64
REMARK 921   NORMALIZED FREE ENERGY PREDICTED BY IDOCK:   -5.66 KCAL/MOL
REMARK 922        TOTAL FREE ENERGY PREDICTED BY IDOCK:   -8.67 KCAL/MOL
REMARK 923 INTER-LIGAND FREE ENERGY PREDICTED BY IDOCK:   -7.68 KCAL/MOL
REMARK 924 INTRA-LIGAND FREE ENERGY PREDICTED BY IDOCK:   -0.98 KCAL/MOL
REMARK 927      BINDING AFFINITY PREDICTED BY RF-SCORE:    0.00 PKD
ROOT
HETATM    1 CL   UNL     1     -11.322  15.846  64.375  1.00  0.00    -0.383 Cl 
HETATM    2  C   UNL     1     -11.349  15.024  65.885  1.00  0.00    -0.273 A  
HETATM    3  C   UNL     1     -10.518  15.450  66.920  1.00  0.00    -0.295 A  
HETATM    4  C   UNL     1     -10.574  14.815  68.164  1.00  0.00    -0.241 A  
HETATM    5 CL   UNL     1      -9.515  15.392  69.402  1.00  0.00    -0.262 Cl 
HETATM    6  C   UNL     1     -11.466  13.753  68.386  1.00  0.00    -0.351 A  
HETATM    7  C   UNL     1     -12.268  13.322  67.310  1.00  0.00    -0.258 A  
HETATM    8  C   UNL     1     -12.213  13.953  66.069  1.00  0.00    -0.495 A  
ENDROOT
BRANCH   6   9
HETATM    9  C   UNL     1     -11.644  13.107  69.755  1.00  0.00    -0.221 C  
BRANCH   9  10
HETATM   10  C   UNL     1     -12.986  13.511  70.415  1.00  0.00     0.112 C  
BRANCH  10  11
HETATM   11  N   UNL     1     -12.897  14.509  71.466  1.00  0.00    -0.317 NA 
HETATM   12  C   UNL     1     -11.758  15.135  71.894  1.00  0.00    -0.415 A  
HETATM   13  C   UNL     1     -13.938  15.047  72.169  1.00  0.00    -0.507 A  
HETATM   14  N   UNL     1     -13.519  15.867  73.105  1.00  0.00    -0.597 NA 
HETATM   15  C   UNL     1     -12.161  15.931  72.940  1.00  0.00    -0.506 A  
ENDBRANCH  10  11
ENDBRANCH   9  10
BRANCH   9  16
HETATM   16  O   UNL     1     -11.560  11.673  69.682  1.00  0.00    -0.290 OA 
BRANCH  16  17
HETATM   17  C   UNL     1     -10.290  11.203  69.225  1.00  0.00    -0.120 C  
BRANCH  17  18
HETATM   18  C   UNL     1     -10.423   9.755  68.834  1.00  0.00    -0.233 A  
HETATM   19  C   UNL     1     -10.483   8.722  69.786  1.00  0.00    -0.219 A  
HETATM   20 CL   UNL     1     -10.371   9.015  71.488  1.00  0.00    -0.389 Cl 
HETATM   21  C   UNL     1     -10.738   7.054  68.047  1.00  0.00    -0.252 A  
HETATM   22  C   UNL     1     -10.642   7.386  69.394  1.00  0.00    -0.231 A  
HETATM   23  C   UNL     1     -10.650   8.058  67.087  1.00  0.00    -0.367 A  
HETATM   24  C   UNL     1     -10.489   9.391  67.474  1.00  0.00    -0.280 A  
HETATM   25 CL   UNL     1     -10.386  10.567  66.206  1.00  0.00    -0.291 Cl 
ENDBRANCH  17  18
ENDBRANCH  16  17
ENDBRANCH   9  16
ENDBRANCH   6   9
TORSDOF 6
ENDMDL
MODEL       65
REMARK 921   NORMALIZED FREE ENERGY PREDICTED BY IDOCK:   -5.61 KCAL/MOL
REMARK 922        TOTAL FREE ENERGY PREDICTED BY IDOCK:   -8.59 KCAL/MOL
REMARK 923 INTER-LIGAND FREE ENERGY PREDICTED BY IDOCK:   -7.37 KCAL/MOL
REMARK 924 INTRA-LIGAND FREE ENERGY PREDICTED BY IDOCK:   -1.22 KCAL/MOL
REMARK 927      BINDING AFFINITY PREDICTED BY RF-SCORE:    0.00 PKD
ROOT
HETATM    1 CL   UNL     1      -9.537   4.071  66.158  1.00  0.00    -0.195 Cl 
HETATM    2  C   UNL     1      -9.613   5.757  66.487  1.00  0.00    -0.156 A  
HETATM    3  C   UNL     1      -8.473   6.544  66.335  1.00  0.00    -0.124 A  
HETATM    4  C   UNL     1      -8.545   7.923  66.554  1.00  0.00    -0.142 A  
HETATM    5 CL   UNL     1      -7.093   8.838  66.350  1.00  0.00    -0.082 Cl 
HETATM    6  C   UNL     1      -9.759   8.527  66.918  1.00  0.00    -0.286 A  
HETATM    7  C   UNL     1     -10.887   7.700  67.099  1.00  0.00    -0.258 A  
HETATM    8  C   UNL     1     -10.817   6.326  66.882  1.00  0.00    -0.428 A  
ENDROOT
BRANCH   6   9
HETATM    9  C   UNL     1      -9.913  10.037  67.055  1.00  0.00    -0.205 C  
BRANCH   9  10
HETATM   10  C   UNL     1     -10.363  10.696  65.727  1.00  0.00    -0.219 C  
BRANCH  10  11
HETATM   11  N   UNL     1     -10.830  12.066  65.828  1.00  0.00    -0.277 NA 
HETATM   12  C   UNL     1     -10.069  13.159  66.143  1.00  0.00    -0.291 A  
HETATM   13  C   UNL     1     -12.092  12.519  65.565  1.00  0.00    -0.419 A  
HETATM   14  N   UNL     1     -12.213  13.800  65.827  1.00  0.00    -0.431 NA 
HETATM   15  C   UNL     1     -10.956  14.209  66.186  1.00  0.00    -0.309 A  
ENDBRANCH  10  11
ENDBRANCH   9  10
BRANCH   9  16
HETATM   16  O   UNL     1     -10.837  10.387  68.099  1.00  0.00    -0.224 OA 
BRANCH  16  17
HETATM   17  C   UNL     1     -10.235  10.442  69.394  1.00  0.00    -0.234 C  
BRANCH  17  18
HETATM   18  C   UNL     1     -11.281  10.121  70.428  1.00  0.00    -0.402 A  
HETATM   19  C   UNL     1     -12.206  11.077  70.884  1.00  0.00    -0.367 A  
HETATM   20 CL   UNL     1     -12.203  12.716  70.328  1.00  0.00    -0.385 Cl 
HETATM   21  C   UNL     1     -13.270   9.447  72.327  1.00  0.00    -0.528 A  
HETATM   22  C   UNL     1     -13.191  10.740  71.821  1.00  0.00    -0.523 A  
HETATM   23  C   UNL     1     -12.345   8.493  71.912  1.00  0.00    -0.407 A  
HETATM   24  C   UNL     1     -11.359   8.826  70.980  1.00  0.00    -0.278 A  
HETATM   25 CL   UNL     1     -10.251   7.572  70.530  1.00  0.00    -0.199 Cl 
ENDBRANCH  17  18
ENDBRANCH  16  17
ENDBRANCH   9  16
ENDBRANCH   6   9
TORSDOF 6
ENDMDL
MODEL       66
REMARK 921   NORMALIZED FREE ENERGY PREDICTED BY IDOCK:   -5.60 KCAL/MOL
REMARK 922        TOTAL FREE ENERGY PREDICTED BY IDOCK:   -8.58 KCAL/MOL
REMARK 923 INTER-LIGAND FREE ENERGY PREDICTED BY IDOCK:   -7.56 KCAL/MOL
REMARK 924 INTRA-LIGAND FREE ENERGY PREDICTED BY IDOCK:   -1.01 KCAL/MOL
REMARK 927      BINDING AFFINITY PREDICTED BY RF-SCORE:    0.00 PKD
ROOT
HETATM    1 CL   UNL     1     -12.507  11.990  70.714  1.00  0.00    -0.419 Cl 
HETATM    2  C   UNL     1     -11.710  12.814  69.432  1.00  0.00    -0.319 A  
HETATM    3  C   UNL     1     -10.697  12.173  68.722  1.00  0.00    -0.252 A  
HETATM    4  C   UNL     1     -10.082  12.822  67.648  1.00  0.00    -0.220 A  
HETATM    5 CL   UNL     1      -8.831  11.970  66.812  1.00  0.00    -0.196 Cl 
HETATM    6  C   UNL     1     -10.480  14.115  67.270  1.00  0.00    -0.272 A  
HETATM    7  C   UNL     1     -11.483  14.751  68.030  1.00  0.00    -0.351 A  
HETATM    8  C   UNL     1     -12.096  14.106  69.102  1.00  0.00    -0.362 A  
ENDROOT
BRANCH   6   9
HETATM    9  C   UNL     1      -9.920  14.816  66.038  1.00  0.00    -0.313 C  
BRANCH   9  10
HETATM   10  C   UNL     1     -10.984  14.964  64.923  1.00  0.00    -0.408 C  
BRANCH  10  11
HETATM   11  N   UNL     1     -11.555  13.725  64.426  1.00  0.00    -0.393 NA 
HETATM   12  C   UNL     1     -10.875  12.711  63.808  1.00  0.00    -0.426 A  
HETATM   13  C   UNL     1     -12.855  13.321  64.543  1.00  0.00    -0.053 A  
HETATM   14  N   UNL     1     -13.069  12.186  63.919  1.00  0.00    -0.729 NA 
HETATM   15  C   UNL     1     -11.839  11.796  63.459  1.00  0.00    -0.378 A  
ENDBRANCH  10  11
ENDBRANCH   9  10
BRANCH   9  16
HETATM   16  O   UNL     1      -9.382  16.110  66.360  1.00  0.00    -0.250 OA 
BRANCH  16  17
HETATM   17  C   UNL     1      -8.210  16.050  67.176  1.00  0.00    -0.195 C  
BRANCH  17  18
HETATM   18  C   UNL     1      -7.826  17.449  67.575  1.00  0.00    -0.209 A  
HETATM   19  C   UNL     1      -8.660  18.263  68.363  1.00  0.00    -0.299 A  
HETATM   20 CL   UNL     1     -10.216  17.744  68.914  1.00  0.00    -0.374 Cl 
HETATM   21  C   UNL     1      -7.027  20.053  68.351  1.00  0.00    -0.330 A  
HETATM   22  C   UNL     1      -8.261  19.549  68.748  1.00  0.00    -0.348 A  
HETATM   23  C   UNL     1      -6.199  19.276  67.545  1.00  0.00    -0.205 A  
HETATM   24  C   UNL     1      -6.595  17.994  67.156  1.00  0.00    -0.180 A  
HETATM   25 CL   UNL     1      -5.498  17.108  66.149  1.00  0.00    -0.085 Cl 
ENDBRANCH  17  18
ENDBRANCH  16  17
ENDBRANCH   9  16
ENDBRANCH   6   9
TORSDOF 6
ENDMDL
MODEL       67
REMARK 921   NORMALIZED FREE ENERGY PREDICTED BY IDOCK:   -5.58 KCAL/MOL
REMARK 922        TOTAL FREE ENERGY PREDICTED BY IDOCK:   -8.56 KCAL/MOL
REMARK 923 INTER-LIGAND FREE ENERGY PREDICTED BY IDOCK:   -7.65 KCAL/MOL
REMARK 924 INTRA-LIGAND FREE ENERGY PREDICTED BY IDOCK:   -0.91 KCAL/MOL
REMARK 927      BINDING AFFINITY PREDICTED BY RF-SCORE:    0.00 PKD
ROOT
HETATM    1 CL   UNL     1      -7.664   6.370  67.284  1.00  0.00    -0.099 Cl 
HETATM    2  C   UNL     1      -8.488   7.879  67.279  1.00  0.00    -0.121 A  
HETATM    3  C   UNL     1      -7.766   9.063  67.411  1.00  0.00    -0.092 A  
HETATM    4  C   UNL     1      -8.428  10.293  67.357  1.00  0.00    -0.125 A  
HETATM    5 CL   UNL     1      -7.471  11.722  67.530  1.00  0.00    -0.122 Cl 
HETATM    6  C   UNL     1      -9.818  10.348  67.163  1.00  0.00    -0.221 A  
HETATM    7  C   UNL     1     -10.526   9.133  67.069  1.00  0.00    -0.311 A  
HETATM    8  C   UNL     1      -9.868   7.906  67.123  1.00  0.00    -0.273 A  
ENDROOT
BRANCH   6   9
HETATM    9  C   UNL     1     -10.567  11.664  66.983  1.00  0.00    -0.237 C  
BRANCH   9  10
HETATM   10  C   UNL     1     -11.318  11.721  65.630  1.00  0.00    -0.233 C  
BRANCH  10  11
HETATM   11  N   UNL     1     -11.545  13.049  65.089  1.00  0.00    -0.312 NA 
HETATM   12  C   UNL     1     -10.884  14.192  65.447  1.00  0.00    -0.337 A  
HETATM   13  C   UNL     1     -12.409  13.383  64.084  1.00  0.00    -0.333 A  
HETATM   14  N   UNL     1     -12.438  14.680  63.881  1.00  0.00    -0.792 NA 
HETATM   15  C   UNL     1     -11.488  15.193  64.725  1.00  0.00    -0.383 A  
ENDBRANCH  10  11
ENDBRANCH   9  10
BRANCH   9  16
HETATM   16  O   UNL     1     -11.495  11.899  68.056  1.00  0.00    -0.275 OA 
BRANCH  16  17
HETATM   17  C   UNL     1     -10.995  12.798  69.050  1.00  0.00    -0.193 C  
BRANCH  17  18
HETATM   18  C   UNL     1     -11.976  12.851  70.190  1.00  0.00    -0.373 A  
HETATM   19  C   UNL     1     -12.599  14.047  70.592  1.00  0.00    -0.344 A  
HETATM   20 CL   UNL     1     -12.266  15.569  69.840  1.00  0.00    -0.379 Cl 
HETATM   21  C   UNL     1     -13.863  12.884  72.301  1.00  0.00    -0.464 A  
HETATM   22  C   UNL     1     -13.534  14.060  71.634  1.00  0.00    -0.438 A  
HETATM   23  C   UNL     1     -13.237  11.695  71.939  1.00  0.00    -0.475 A  
HETATM   24  C   UNL     1     -12.301  11.678  70.902  1.00  0.00    -0.336 A  
HETATM   25 CL   UNL     1     -11.572  10.151  70.529  1.00  0.00    -0.380 Cl 
ENDBRANCH  17  18
ENDBRANCH  16  17
ENDBRANCH   9  16
ENDBRANCH   6   9
TORSDOF 6
ENDMDL
MODEL       68
REMARK 921   NORMALIZED FREE ENERGY PREDICTED BY IDOCK:   -5.58 KCAL/MOL
REMARK 922        TOTAL FREE ENERGY PREDICTED BY IDOCK:   -8.55 KCAL/MOL
REMARK 923 INTER-LIGAND FREE ENERGY PREDICTED BY IDOCK:   -7.40 KCAL/MOL
REMARK 924 INTRA-LIGAND FREE ENERGY PREDICTED BY IDOCK:   -1.15 KCAL/MOL
REMARK 927      BINDING AFFINITY PREDICTED BY RF-SCORE:    0.00 PKD
ROOT
HETATM    1 CL   UNL     1     -12.396  13.266  63.211  1.00  0.00    -0.477 Cl 
HETATM    2  C   UNL     1     -11.657  12.344  64.460  1.00  0.00    -0.348 A  
HETATM    3  C   UNL     1     -10.758  11.331  64.134  1.00  0.00    -0.436 A  
HETATM    4  C   UNL     1     -10.118  10.614  65.149  1.00  0.00    -0.307 A  
HETATM    5 CL   UNL     1      -9.016   9.370  64.674  1.00  0.00    -0.246 Cl 
HETATM    6  C   UNL     1     -10.368  10.908  66.500  1.00  0.00    -0.299 A  
HETATM    7  C   UNL     1     -11.310  11.914  66.798  1.00  0.00    -0.393 A  
HETATM    8  C   UNL     1     -11.949  12.629  65.788  1.00  0.00    -0.503 A  
ENDROOT
BRANCH   6   9
HETATM    9  C   UNL     1      -9.612  10.233  67.638  1.00  0.00    -0.152 C  
BRANCH   9  10
HETATM   10  C   UNL     1      -8.827  11.256  68.497  1.00  0.00    -0.159 C  
BRANCH  10  11
HETATM   11  N   UNL     1      -7.446  11.480  68.108  1.00  0.00    -0.095 NA 
HETATM   12  C   UNL     1      -6.395  10.633  68.328  1.00  0.00    -0.054 A  
HETATM   13  C   UNL     1      -6.962  12.544  67.399  1.00  0.00    -0.147 A  
HETATM   14  N   UNL     1      -5.655  12.491  67.278  1.00  0.00    -0.281 NA 
HETATM   15  C   UNL     1      -5.293  11.301  67.852  1.00  0.00    -0.043 A  
ENDBRANCH  10  11
ENDBRANCH   9  10
BRANCH   9  16
HETATM   16  O   UNL     1     -10.490   9.472  68.484  1.00  0.00    -0.204 OA 
BRANCH  16  17
HETATM   17  C   UNL     1     -10.154   9.557  69.871  1.00  0.00    -0.232 C  
BRANCH  17  18
HETATM   18  C   UNL     1     -11.391   9.288  70.686  1.00  0.00    -0.330 A  
HETATM   19  C   UNL     1     -11.718   8.002  71.154  1.00  0.00    -0.284 A  
HETATM   20 CL   UNL     1     -10.751   6.610  70.805  1.00  0.00    -0.266 Cl 
HETATM   21  C   UNL     1     -13.696   8.846  72.268  1.00  0.00    -0.527 A  
HETATM   22  C   UNL     1     -12.857   7.787  71.939  1.00  0.00    -0.317 A  
HETATM   23  C   UNL     1     -13.408  10.121  71.790  1.00  0.00    -0.485 A  
HETATM   24  C   UNL     1     -12.274  10.339  71.004  1.00  0.00    -0.384 A  
HETATM   25 CL   UNL     1     -12.003  11.959  70.452  1.00  0.00    -0.433 Cl 
ENDBRANCH  17  18
ENDBRANCH  16  17
ENDBRANCH   9  16
ENDBRANCH   6   9
TORSDOF 6
ENDMDL
MODEL       69
REMARK 921   NORMALIZED FREE ENERGY PREDICTED BY IDOCK:   -5.56 KCAL/MOL
REMARK 922        TOTAL FREE ENERGY PREDICTED BY IDOCK:   -8.53 KCAL/MOL
REMARK 923 INTER-LIGAND FREE ENERGY PREDICTED BY IDOCK:   -7.38 KCAL/MOL
REMARK 924 INTRA-LIGAND FREE ENERGY PREDICTED BY IDOCK:   -1.15 KCAL/MOL
REMARK 927      BINDING AFFINITY PREDICTED BY RF-SCORE:    0.00 PKD
ROOT
HETATM    1 CL   UNL     1     -12.470  15.459  63.999  1.00  0.00    -0.076 Cl 
HETATM    2  C   UNL     1     -11.952  14.008  64.763  1.00  0.00    -0.417 A  
HETATM    3  C   UNL     1     -11.293  13.031  64.019  1.00  0.00    -0.458 A  
HETATM    4  C   UNL     1     -10.828  11.873  64.649  1.00  0.00    -0.311 A  
HETATM    5 CL   UNL     1     -10.021  10.702  63.666  1.00  0.00    -0.386 Cl 
HETATM    6  C   UNL     1     -11.011  11.685  66.028  1.00  0.00    -0.338 A  
HETATM    7  C   UNL     1     -11.713  12.675  66.747  1.00  0.00    -0.460 A  
HETATM    8  C   UNL     1     -12.178  13.829  66.122  1.00  0.00    -0.499 A  
ENDROOT
BRANCH   6   9
HETATM    9  C   UNL     1     -10.422  10.496  66.778  1.00  0.00    -0.242 C  
BRANCH   9  10
HETATM   10  C   UNL     1      -8.974  10.771  67.253  1.00  0.00    -0.140 C  
BRANCH  10  11
HETATM   11  N   UNL     1      -7.919  10.262  66.394  1.00  0.00    -0.117 NA 
HETATM   12  C   UNL     1      -6.812  10.950  65.977  1.00  0.00    -0.072 A  
HETATM   13  C   UNL     1      -7.811   8.992  65.903  1.00  0.00    -0.102 A  
HETATM   14  N   UNL     1      -6.784   8.871  65.093  1.00  0.00    -0.071 NA 
HETATM   15  C   UNL     1      -6.154  10.087  65.134  1.00  0.00    -0.107 A  
ENDBRANCH  10  11
ENDBRANCH   9  10
BRANCH   9  16
HETATM   16  O   UNL     1     -11.232  10.122  67.905  1.00  0.00    -0.282 OA 
BRANCH  16  17
HETATM   17  C   UNL     1     -10.520  10.143  69.145  1.00  0.00    -0.222 C  
BRANCH  17  18
HETATM   18  C   UNL     1     -11.491   9.875  70.264  1.00  0.00    -0.349 A  
HETATM   19  C   UNL     1     -12.268  10.893  70.846  1.00  0.00    -0.381 A  
HETATM   20 CL   UNL     1     -12.152  12.548  70.357  1.00  0.00    -0.429 Cl 
HETATM   21  C   UNL     1     -13.349   9.305  72.323  1.00  0.00    -0.547 A  
HETATM   22  C   UNL     1     -13.189  10.608  71.862  1.00  0.00    -0.528 A  
HETATM   23  C   UNL     1     -12.568   8.288  71.782  1.00  0.00    -0.364 A  
HETATM   24  C   UNL     1     -11.646   8.569  70.770  1.00  0.00    -0.231 A  
HETATM   25 CL   UNL     1     -10.718   7.236  70.165  1.00  0.00    -0.251 Cl 
ENDBRANCH  17  18
ENDBRANCH  16  17
ENDBRANCH   9  16
ENDBRANCH   6   9
TORSDOF 6
ENDMDL
MODEL       70
REMARK 921   NORMALIZED FREE ENERGY PREDICTED BY IDOCK:   -5.46 KCAL/MOL
REMARK 922        TOTAL FREE ENERGY PREDICTED BY IDOCK:   -8.39 KCAL/MOL
REMARK 923 INTER-LIGAND FREE ENERGY PREDICTED BY IDOCK:   -7.69 KCAL/MOL
REMARK 924 INTRA-LIGAND FREE ENERGY PREDICTED BY IDOCK:   -0.70 KCAL/MOL
REMARK 927      BINDING AFFINITY PREDICTED BY RF-SCORE:    0.00 PKD
ROOT
HETATM    1 CL   UNL     1      -7.231   8.523  63.578  1.00  0.00    -0.093 Cl 
HETATM    2  C   UNL     1      -8.420   9.061  64.697  1.00  0.00    -0.177 A  
HETATM    3  C   UNL     1      -8.968   8.162  65.610  1.00  0.00    -0.128 A  
HETATM    4  C   UNL     1      -9.898   8.608  66.554  1.00  0.00    -0.278 A  
HETATM    5 CL   UNL     1     -10.539   7.440  67.655  1.00  0.00    -0.310 Cl 
HETATM    6  C   UNL     1     -10.283   9.958  66.596  1.00  0.00    -0.293 A  
HETATM    7  C   UNL     1      -9.738  10.836  65.637  1.00  0.00    -0.287 A  
HETATM    8  C   UNL     1      -8.811  10.393  64.695  1.00  0.00    -0.216 A  
ENDROOT
BRANCH   6   9
HETATM    9  C   UNL     1     -11.204  10.513  67.676  1.00  0.00    -0.265 C  
BRANCH   9  10
HETATM   10  C   UNL     1     -10.415  10.984  68.923  1.00  0.00    -0.204 C  
BRANCH  10  11
HETATM   11  N   UNL     1     -10.562  10.163  70.112  1.00  0.00    -0.285 NA 
HETATM   12  C   UNL     1     -11.709   9.986  70.837  1.00  0.00    -0.374 A  
HETATM   13  C   UNL     1      -9.602   9.373  70.680  1.00  0.00    -0.268 A  
HETATM   14  N   UNL     1     -10.027   8.819  71.792  1.00  0.00    -0.301 NA 
HETATM   15  C   UNL     1     -11.341   9.193  71.897  1.00  0.00    -0.346 A  
ENDBRANCH  10  11
ENDBRANCH   9  10
BRANCH   9  16
HETATM   16  O   UNL     1     -12.011  11.596  67.184  1.00  0.00    -0.614 OA 
BRANCH  16  17
HETATM   17  C   UNL     1     -11.862  12.801  67.938  1.00  0.00    -0.339 C  
BRANCH  17  18
HETATM   18  C   UNL     1     -11.444  13.906  67.005  1.00  0.00    -0.367 A  
HETATM   19  C   UNL     1     -11.811  13.923  65.647  1.00  0.00    -0.371 A  
HETATM   20 CL   UNL     1     -12.741  12.659  64.918  1.00  0.00    -0.549 Cl 
HETATM   21  C   UNL     1     -10.686  16.042  65.308  1.00  0.00    -0.417 A  
HETATM   22  C   UNL     1     -11.437  14.982  64.810  1.00  0.00    -0.403 A  
HETATM   23  C   UNL     1     -10.286  16.030  66.641  1.00  0.00    -0.299 A  
HETATM   24  C   UNL     1     -10.655  14.974  67.478  1.00  0.00    -0.265 A  
HETATM   25 CL   UNL     1     -10.105  15.048  69.120  1.00  0.00    -0.240 Cl 
ENDBRANCH  17  18
ENDBRANCH  16  17
ENDBRANCH   9  16
ENDBRANCH   6   9
TORSDOF 6
ENDMDL
MODEL       71
REMARK 921   NORMALIZED FREE ENERGY PREDICTED BY IDOCK:   -5.45 KCAL/MOL
REMARK 922        TOTAL FREE ENERGY PREDICTED BY IDOCK:   -8.38 KCAL/MOL
REMARK 923 INTER-LIGAND FREE ENERGY PREDICTED BY IDOCK:   -7.30 KCAL/MOL
REMARK 924 INTRA-LIGAND FREE ENERGY PREDICTED BY IDOCK:   -1.07 KCAL/MOL
REMARK 927      BINDING AFFINITY PREDICTED BY RF-SCORE:    0.00 PKD
ROOT
HETATM    1 CL   UNL     1     -10.122  20.369  67.414  1.00  0.00    -0.542 Cl 
HETATM    2  C   UNL     1      -9.938  18.662  67.508  1.00  0.00    -0.338 A  
HETATM    3  C   UNL     1     -10.349  17.862  66.444  1.00  0.00    -0.365 A  
HETATM    4  C   UNL     1     -10.154  16.478  66.497  1.00  0.00    -0.299 A  
HETATM    5 CL   UNL     1     -10.690  15.546  65.143  1.00  0.00    -0.435 Cl 
HETATM    6  C   UNL     1      -9.539  15.885  67.611  1.00  0.00    -0.221 A  
HETATM    7  C   UNL     1      -9.167  16.716  68.687  1.00  0.00    -0.248 A  
HETATM    8  C   UNL     1      -9.361  18.095  68.637  1.00  0.00    -0.309 A  
ENDROOT
BRANCH   6   9
HETATM    9  C   UNL     1      -9.203  14.399  67.665  1.00  0.00    -0.196 C  
BRANCH   9  10
HETATM   10  C   UNL     1      -7.674  14.155  67.725  1.00  0.00    -0.168 C  
BRANCH  10  11
HETATM   11  N   UNL     1      -7.252  12.769  67.624  1.00  0.00    -0.127 NA 
HETATM   12  C   UNL     1      -7.980  11.737  67.098  1.00  0.00    -0.166 A  
HETATM   13  C   UNL     1      -6.033  12.261  67.975  1.00  0.00    -0.067 A  
HETATM   14  N   UNL     1      -5.993  10.956  67.835  1.00  0.00    -0.046 NA 
HETATM   15  C   UNL     1      -7.202  10.620  67.286  1.00  0.00    -0.091 A  
ENDBRANCH  10  11
ENDBRANCH   9  10
BRANCH   9  16
HETATM   16  O   UNL     1      -9.835  13.749  68.780  1.00  0.00    -0.190 OA 
BRANCH  16  17
HETATM   17  C   UNL     1     -11.154  13.279  68.488  1.00  0.00    -0.265 C  
BRANCH  17  18
HETATM   18  C   UNL     1     -11.865  12.999  69.785  1.00  0.00    -0.381 A  
HETATM   19  C   UNL     1     -12.420  14.023  70.574  1.00  0.00    -0.359 A  
HETATM   20 CL   UNL     1     -12.304  15.696  70.147  1.00  0.00    -0.407 Cl 
HETATM   21  C   UNL     1     -13.249  12.413  72.185  1.00  0.00    -0.491 A  
HETATM   22  C   UNL     1     -13.107  13.730  71.759  1.00  0.00    -0.463 A  
HETATM   23  C   UNL     1     -12.681  11.388  71.434  1.00  0.00    -0.489 A  
HETATM   24  C   UNL     1     -11.992  11.676  70.253  1.00  0.00    -0.358 A  
HETATM   25 CL   UNL     1     -11.317  10.332  69.393  1.00  0.00    -0.285 Cl 
ENDBRANCH  17  18
ENDBRANCH  16  17
ENDBRANCH   9  16
ENDBRANCH   6   9
TORSDOF 6
ENDMDL
MODEL       72
REMARK 921   NORMALIZED FREE ENERGY PREDICTED BY IDOCK:   -5.45 KCAL/MOL
REMARK 922        TOTAL FREE ENERGY PREDICTED BY IDOCK:   -8.38 KCAL/MOL
REMARK 923 INTER-LIGAND FREE ENERGY PREDICTED BY IDOCK:   -7.03 KCAL/MOL
REMARK 924 INTRA-LIGAND FREE ENERGY PREDICTED BY IDOCK:   -1.35 KCAL/MOL
REMARK 927      BINDING AFFINITY PREDICTED BY RF-SCORE:    0.00 PKD
ROOT
HETATM    1 CL   UNL     1      -6.455   8.018  67.622  1.00  0.00    -0.055 Cl 
HETATM    2  C   UNL     1      -7.782   8.206  68.700  1.00  0.00    -0.112 A  
HETATM    3  C   UNL     1      -8.914   7.407  68.550  1.00  0.00    -0.128 A  
HETATM    4  C   UNL     1      -9.973   7.523  69.455  1.00  0.00    -0.180 A  
HETATM    5 CL   UNL     1     -11.347   6.504  69.209  1.00  0.00    -0.385 Cl 
HETATM    6  C   UNL     1      -9.905   8.433  70.523  1.00  0.00    -0.204 A  
HETATM    7  C   UNL     1      -8.762   9.252  70.628  1.00  0.00    -0.282 A  
HETATM    8  C   UNL     1      -7.706   9.139  69.726  1.00  0.00    -0.082 A  
ENDROOT
BRANCH   6   9
HETATM    9  C   UNL     1     -10.982   8.514  71.598  1.00  0.00    -0.292 C  
BRANCH   9  10
HETATM   10  C   UNL     1     -10.447   8.078  72.985  1.00  0.00    -0.271 C  
BRANCH  10  11
HETATM   11  N   UNL     1     -10.644   6.681  73.328  1.00  0.00    -0.270 NA 
HETATM   12  C   UNL     1     -10.044   6.007  74.356  1.00  0.00    -0.304 A  
HETATM   13  C   UNL     1     -11.508   5.809  72.728  1.00  0.00    -0.255 A  
HETATM   14  N   UNL     1     -11.392   4.596  73.218  1.00  0.00    -0.325 NA 
HETATM   15  C   UNL     1     -10.483   4.710  74.237  1.00  0.00    -0.279 A  
ENDBRANCH  10  11
ENDBRANCH   9  10
BRANCH   9  16
HETATM   16  O   UNL     1     -11.540   9.835  71.695  1.00  0.00    -0.375 OA 
BRANCH  16  17
HETATM   17  C   UNL     1     -12.450  10.144  70.636  1.00  0.00    -0.284 C  
BRANCH  17  18
HETATM   18  C   UNL     1     -12.167  11.540  70.149  1.00  0.00    -0.387 A  
HETATM   19  C   UNL     1     -12.583  12.683  70.857  1.00  0.00    -0.249 A  
HETATM   20 CL   UNL     1     -13.488  12.588  72.328  1.00  0.00    -0.610 Cl 
HETATM   21  C   UNL     1     -11.554  14.144  69.221  1.00  0.00    -0.350 A  
HETATM   22  C   UNL     1     -12.276  13.969  70.397  1.00  0.00    -0.433 A  
HETATM   23  C   UNL     1     -11.159  13.028  68.489  1.00  0.00    -0.298 A  
HETATM   24  C   UNL     1     -11.466  11.742  68.943  1.00  0.00    -0.297 A  
HETATM   25 CL   UNL     1     -10.936  10.418  67.960  1.00  0.00    -0.322 Cl 
ENDBRANCH  17  18
ENDBRANCH  16  17
ENDBRANCH   9  16
ENDBRANCH   6   9
TORSDOF 6
ENDMDL
MODEL       73
REMARK 921   NORMALIZED FREE ENERGY PREDICTED BY IDOCK:   -5.42 KCAL/MOL
REMARK 922        TOTAL FREE ENERGY PREDICTED BY IDOCK:   -8.35 KCAL/MOL
REMARK 923 INTER-LIGAND FREE ENERGY PREDICTED BY IDOCK:   -7.25 KCAL/MOL
REMARK 924 INTRA-LIGAND FREE ENERGY PREDICTED BY IDOCK:   -1.09 KCAL/MOL
REMARK 927      BINDING AFFINITY PREDICTED BY RF-SCORE:    0.00 PKD
ROOT
HETATM    1 CL   UNL     1     -12.186   6.297  72.211  1.00  0.00    -0.284 Cl 
HETATM    2  C   UNL     1     -11.846   7.684  71.253  1.00  0.00    -0.292 A  
HETATM    3  C   UNL     1     -12.410   8.912  71.590  1.00  0.00    -0.405 A  
HETATM    4  C   UNL     1     -12.096  10.051  70.842  1.00  0.00    -0.355 A  
HETATM    5 CL   UNL     1     -12.833  11.542  71.313  1.00  0.00    -0.498 Cl 
HETATM    6  C   UNL     1     -11.209   9.972  69.756  1.00  0.00    -0.307 A  
HETATM    7  C   UNL     1     -10.683   8.708  69.418  1.00  0.00    -0.169 A  
HETATM    8  C   UNL     1     -10.995   7.572  70.161  1.00  0.00    -0.267 A  
ENDROOT
BRANCH   6   9
HETATM    9  C   UNL     1     -10.749  11.202  68.984  1.00  0.00    -0.225 C  
BRANCH   9  10
HETATM   10  C   UNL     1      -9.387  10.969  68.283  1.00  0.00    -0.172 C  
BRANCH  10  11
HETATM   11  N   UNL     1      -9.440  10.800  66.842  1.00  0.00    -0.167 NA 
HETATM   12  C   UNL     1      -8.816  11.585  65.911  1.00  0.00    -0.105 A  
HETATM   13  C   UNL     1     -10.067   9.794  66.162  1.00  0.00    -0.245 A  
HETATM   14  N   UNL     1      -9.996   9.969  64.862  1.00  0.00    -0.299 NA 
HETATM   15  C   UNL     1      -9.215  11.082  64.696  1.00  0.00    -0.168 A  
ENDBRANCH  10  11
ENDBRANCH   9  10
BRANCH   9  16
HETATM   16  O   UNL     1     -11.723  11.617  68.011  1.00  0.00    -0.433 OA 
BRANCH  16  17
HETATM   17  C   UNL     1     -12.154  12.969  68.183  1.00  0.00    -0.157 C  
BRANCH  17  18
HETATM   18  C   UNL     1     -11.398  13.844  67.219  1.00  0.00    -0.344 A  
HETATM   19  C   UNL     1     -11.580  13.760  65.826  1.00  0.00    -0.331 A  
HETATM   20 CL   UNL     1     -12.658  12.621  65.094  1.00  0.00    -0.545 Cl 
HETATM   21  C   UNL     1      -9.998  15.556  65.452  1.00  0.00    -0.339 A  
HETATM   22  C   UNL     1     -10.889  14.610  64.954  1.00  0.00    -0.436 A  
HETATM   23  C   UNL     1      -9.781  15.635  66.824  1.00  0.00    -0.255 A  
HETATM   24  C   UNL     1     -10.467  14.786  67.697  1.00  0.00    -0.254 A  
HETATM   25 CL   UNL     1     -10.124  14.958  69.386  1.00  0.00    -0.199 Cl 
ENDBRANCH  17  18
ENDBRANCH  16  17
ENDBRANCH   9  16
ENDBRANCH   6   9
TORSDOF 6
ENDMDL
MODEL       74
REMARK 921   NORMALIZED FREE ENERGY PREDICTED BY IDOCK:   -5.42 KCAL/MOL
REMARK 922        TOTAL FREE ENERGY PREDICTED BY IDOCK:   -8.34 KCAL/MOL
REMARK 923 INTER-LIGAND FREE ENERGY PREDICTED BY IDOCK:   -7.43 KCAL/MOL
REMARK 924 INTRA-LIGAND FREE ENERGY PREDICTED BY IDOCK:   -0.91 KCAL/MOL
REMARK 927      BINDING AFFINITY PREDICTED BY RF-SCORE:    0.00 PKD
ROOT
HETATM    1 CL   UNL     1     -10.568  18.833  67.428  1.00  0.00    -0.481 Cl 
HETATM    2  C   UNL     1     -10.485  17.128  67.638  1.00  0.00    -0.355 A  
HETATM    3  C   UNL     1     -11.284  16.509  68.597  1.00  0.00    -0.297 A  
HETATM    4  C   UNL     1     -11.256  15.118  68.734  1.00  0.00    -0.284 A  
HETATM    5 CL   UNL     1     -12.270  14.416  69.945  1.00  0.00    -0.384 Cl 
HETATM    6  C   UNL     1     -10.433  14.334  67.909  1.00  0.00    -0.240 A  
HETATM    7  C   UNL     1      -9.610  14.992  66.972  1.00  0.00    -0.233 A  
HETATM    8  C   UNL     1      -9.636  16.378  66.834  1.00  0.00    -0.255 A  
ENDROOT
BRANCH   6   9
HETATM    9  C   UNL     1     -10.453  12.811  67.944  1.00  0.00    -0.220 C  
BRANCH   9  10
HETATM   10  C   UNL     1     -11.669  12.231  67.179  1.00  0.00    -0.326 C  
BRANCH  10  11
HETATM   11  N   UNL     1     -11.812  12.660  65.800  1.00  0.00    -0.425 NA 
HETATM   12  C   UNL     1     -11.140  12.153  64.721  1.00  0.00    -0.316 A  
HETATM   13  C   UNL     1     -12.683  13.600  65.324  1.00  0.00    -0.430 A  
HETATM   14  N   UNL     1     -12.509  13.817  64.041  1.00  0.00    -0.705 NA 
HETATM   15  C   UNL     1     -11.551  12.917  63.654  1.00  0.00    -0.485 A  
ENDBRANCH  10  11
ENDBRANCH   9  10
BRANCH   9  16
HETATM   16  O   UNL     1      -9.242  12.249  67.411  1.00  0.00    -0.172 OA 
BRANCH  16  17
HETATM   17  C   UNL     1      -8.682  11.224  68.235  1.00  0.00    -0.158 C  
BRANCH  17  18
HETATM   18  C   UNL     1      -9.211   9.892  67.776  1.00  0.00    -0.141 A  
HETATM   19  C   UNL     1      -8.844   9.321  66.544  1.00  0.00    -0.133 A  
HETATM   20 CL   UNL     1      -7.784  10.114  65.429  1.00  0.00    -0.138 Cl 
HETATM   21  C   UNL     1     -10.184   7.352  66.988  1.00  0.00    -0.357 A  
HETATM   22  C   UNL     1      -9.324   8.064  66.158  1.00  0.00    -0.212 A  
HETATM   23  C   UNL     1     -10.584   7.912  68.199  1.00  0.00    -0.179 A  
HETATM   24  C   UNL     1     -10.109   9.168  68.586  1.00  0.00    -0.194 A  
HETATM   25 CL   UNL     1     -10.668   9.781  70.107  1.00  0.00    -0.310 Cl 
ENDBRANCH  17  18
ENDBRANCH  16  17
ENDBRANCH   9  16
ENDBRANCH   6   9
TORSDOF 6
ENDMDL
MODEL       75
REMARK 921   NORMALIZED FREE ENERGY PREDICTED BY IDOCK:   -5.42 KCAL/MOL
REMARK 922        TOTAL FREE ENERGY PREDICTED BY IDOCK:   -8.34 KCAL/MOL
REMARK 923 INTER-LIGAND FREE ENERGY PREDICTED BY IDOCK:   -7.36 KCAL/MOL
REMARK 924 INTRA-LIGAND FREE ENERGY PREDICTED BY IDOCK:   -0.98 KCAL/MOL
REMARK 927      BINDING AFFINITY PREDICTED BY RF-SCORE:    0.00 PKD
ROOT
HETATM    1 CL   UNL     1      -9.589   4.318  65.722  1.00  0.00    -0.173 Cl 
HETATM    2  C   UNL     1      -9.565   5.991  66.117  1.00  0.00    -0.055 A  
HETATM    3  C   UNL     1      -8.460   6.767  65.775  1.00  0.00    -0.150 A  
HETATM    4  C   UNL     1      -8.460   8.138  66.051  1.00  0.00    -0.141 A  
HETATM    5 CL   UNL     1      -7.056   9.041  65.602  1.00  0.00    -0.080 Cl 
HETATM    6  C   UNL     1      -9.568   8.745  66.664  1.00  0.00    -0.283 A  
HETATM    7  C   UNL     1     -10.656   7.927  67.030  1.00  0.00    -0.381 A  
HETATM    8  C   UNL     1     -10.658   6.561  66.757  1.00  0.00    -0.323 A  
ENDROOT
BRANCH   6   9
HETATM    9  C   UNL     1      -9.661  10.250  66.880  1.00  0.00    -0.173 C  
BRANCH   9  10
HETATM   10  C   UNL     1     -10.028  11.000  65.575  1.00  0.00    -0.256 C  
BRANCH  10  11
HETATM   11  N   UNL     1     -10.794  12.222  65.743  1.00  0.00    -0.269 NA 
HETATM   12  C   UNL     1     -10.371  13.362  66.370  1.00  0.00    -0.288 A  
HETATM   13  C   UNL     1     -12.044  12.475  65.252  1.00  0.00    -0.444 A  
HETATM   14  N   UNL     1     -12.492  13.645  65.645  1.00  0.00    -0.485 NA 
HETATM   15  C   UNL     1     -11.455  14.208  66.341  1.00  0.00    -0.354 A  
ENDBRANCH  10  11
ENDBRANCH   9  10
BRANCH   9  16
HETATM   16  O   UNL     1     -10.611  10.584  67.906  1.00  0.00    -0.197 OA 
BRANCH  16  17
HETATM   17  C   UNL     1     -10.046  10.588  69.220  1.00  0.00    -0.224 C  
BRANCH  17  18
HETATM   18  C   UNL     1     -11.128  10.249  70.211  1.00  0.00    -0.388 A  
HETATM   19  C   UNL     1     -11.266   8.962  70.763  1.00  0.00    -0.272 A  
HETATM   20 CL   UNL     1     -10.233   7.645  70.325  1.00  0.00    -0.202 Cl 
HETATM   21  C   UNL     1     -13.139   9.681  72.121  1.00  0.00    -0.520 A  
HETATM   22  C   UNL     1     -12.260   8.685  71.709  1.00  0.00    -0.403 A  
HETATM   23  C   UNL     1     -13.039  10.954  71.565  1.00  0.00    -0.503 A  
HETATM   24  C   UNL     1     -12.050  11.233  70.618  1.00  0.00    -0.383 A  
HETATM   25 CL   UNL     1     -12.010  12.844  69.982  1.00  0.00    -0.410 Cl 
ENDBRANCH  17  18
ENDBRANCH  16  17
ENDBRANCH   9  16
ENDBRANCH   6   9
TORSDOF 6
ENDMDL
MODEL       76
REMARK 921   NORMALIZED FREE ENERGY PREDICTED BY IDOCK:   -5.41 KCAL/MOL
REMARK 922        TOTAL FREE ENERGY PREDICTED BY IDOCK:   -8.33 KCAL/MOL
REMARK 923 INTER-LIGAND FREE ENERGY PREDICTED BY IDOCK:   -7.78 KCAL/MOL
REMARK 924 INTRA-LIGAND FREE ENERGY PREDICTED BY IDOCK:   -0.55 KCAL/MOL
REMARK 927      BINDING AFFINITY PREDICTED BY RF-SCORE:    0.00 PKD
ROOT
HETATM    1 CL   UNL     1     -13.973  16.049  73.347  1.00  0.00    -0.169 Cl 
HETATM    2  C   UNL     1     -13.392  14.903  72.204  1.00  0.00    -0.375 A  
HETATM    3  C   UNL     1     -12.824  15.342  71.010  1.00  0.00    -0.525 A  
HETATM    4  C   UNL     1     -12.306  14.414  70.102  1.00  0.00    -0.348 A  
HETATM    5 CL   UNL     1     -11.617  15.028  68.641  1.00  0.00    -0.330 Cl 
HETATM    6  C   UNL     1     -12.346  13.039  70.384  1.00  0.00    -0.351 A  
HETATM    7  C   UNL     1     -12.960  12.623  71.583  1.00  0.00    -0.400 A  
HETATM    8  C   UNL     1     -13.477  13.546  72.489  1.00  0.00    -0.660 A  
ENDROOT
BRANCH   6   9
HETATM    9  C   UNL     1     -11.693  12.000  69.480  1.00  0.00    -0.342 C  
BRANCH   9  10
HETATM   10  C   UNL     1     -11.973  10.555  69.965  1.00  0.00    -0.288 C  
BRANCH  10  11
HETATM   11  N   UNL     1     -10.801   9.737  70.221  1.00  0.00    -0.277 NA 
HETATM   12  C   UNL     1      -9.497  10.118  70.060  1.00  0.00    -0.036 A  
HETATM   13  C   UNL     1     -10.788   8.468  70.727  1.00  0.00    -0.231 A  
HETATM   14  N   UNL     1      -9.572   7.973  70.766  1.00  0.00    -0.161 NA 
HETATM   15  C   UNL     1      -8.759   8.996  70.354  1.00  0.00    -0.199 A  
ENDBRANCH  10  11
ENDBRANCH   9  10
BRANCH   9  16
HETATM   16  O   UNL     1     -12.121  12.137  68.114  1.00  0.00    -0.447 OA 
BRANCH  16  17
HETATM   17  C   UNL     1     -11.107  11.797  67.166  1.00  0.00    -0.296 C  
BRANCH  17  18
HETATM   18  C   UNL     1     -10.664  13.051  66.461  1.00  0.00    -0.290 A  
HETATM   19  C   UNL     1     -11.387  13.607  65.390  1.00  0.00    -0.301 A  
HETATM   20 CL   UNL     1     -12.827  12.881  64.762  1.00  0.00    -0.431 Cl 
HETATM   21  C   UNL     1      -9.823  15.448  65.211  1.00  0.00    -0.239 A  
HETATM   22  C   UNL     1     -10.971  14.794  64.776  1.00  0.00    -0.393 A  
HETATM   23  C   UNL     1      -9.076  14.898  66.249  1.00  0.00    -0.262 A  
HETATM   24  C   UNL     1      -9.487  13.712  66.863  1.00  0.00    -0.262 A  
HETATM   25 CL   UNL     1      -8.488  13.106  68.142  1.00  0.00    -0.167 Cl 
ENDBRANCH  17  18
ENDBRANCH  16  17
ENDBRANCH   9  16
ENDBRANCH   6   9
TORSDOF 6
ENDMDL
MODEL       77
REMARK 921   NORMALIZED FREE ENERGY PREDICTED BY IDOCK:   -5.41 KCAL/MOL
REMARK 922        TOTAL FREE ENERGY PREDICTED BY IDOCK:   -8.32 KCAL/MOL
REMARK 923 INTER-LIGAND FREE ENERGY PREDICTED BY IDOCK:   -7.20 KCAL/MOL
REMARK 924 INTRA-LIGAND FREE ENERGY PREDICTED BY IDOCK:   -1.12 KCAL/MOL
REMARK 927      BINDING AFFINITY PREDICTED BY RF-SCORE:    0.00 PKD
ROOT
HETATM    1 CL   UNL     1     -14.269  15.353  72.468  1.00  0.00    -0.579 Cl 
HETATM    2  C   UNL     1     -13.217  14.739  71.254  1.00  0.00    -0.382 A  
HETATM    3  C   UNL     1     -12.776  15.576  70.231  1.00  0.00    -0.310 A  
HETATM    4  C   UNL     1     -11.881  15.093  69.272  1.00  0.00    -0.320 A  
HETATM    5 CL   UNL     1     -11.377  16.185  68.031  1.00  0.00    -0.289 Cl 
HETATM    6  C   UNL     1     -11.414  13.770  69.332  1.00  0.00    -0.341 A  
HETATM    7  C   UNL     1     -11.906  12.936  70.357  1.00  0.00    -0.239 A  
HETATM    8  C   UNL     1     -12.798  13.416  71.314  1.00  0.00    -0.407 A  
ENDROOT
BRANCH   6   9
HETATM    9  C   UNL     1     -10.354  13.233  68.378  1.00  0.00    -0.251 C  
BRANCH   9  10
HETATM   10  C   UNL     1      -8.920  13.505  68.896  1.00  0.00     0.228 C  
BRANCH  10  11
HETATM   11  N   UNL     1      -8.343  14.783  68.518  1.00  0.00    -0.153 NA 
HETATM   12  C   UNL     1      -7.945  15.776  69.371  1.00  0.00    -0.211 A  
HETATM   13  C   UNL     1      -8.038  15.196  67.252  1.00  0.00    -0.201 A  
HETATM   14  N   UNL     1      -7.602  16.435  67.238  1.00  0.00    -0.150 NA 
HETATM   15  C   UNL     1      -7.538  16.804  68.556  1.00  0.00    -0.217 A  
ENDBRANCH  10  11
ENDBRANCH   9  10
BRANCH   9  16
HETATM   16  O   UNL     1     -10.516  11.825  68.139  1.00  0.00    -0.188 OA 
BRANCH  16  17
HETATM   17  C   UNL     1     -11.656  11.515  67.333  1.00  0.00    -0.228 C  
BRANCH  17  18
HETATM   18  C   UNL     1     -11.252  11.566  65.884  1.00  0.00    -0.239 A  
HETATM   19  C   UNL     1     -10.406  10.602  65.305  1.00  0.00    -0.251 A  
HETATM   20 CL   UNL     1      -9.723   9.296  66.212  1.00  0.00    -0.315 Cl 
HETATM   21  C   UNL     1     -10.574  11.671  63.137  1.00  0.00    -0.341 A  
HETATM   22  C   UNL     1     -10.074  10.655  63.946  1.00  0.00    -0.356 A  
HETATM   23  C   UNL     1     -11.388  12.652  63.697  1.00  0.00    -0.544 A  
HETATM   24  C   UNL     1     -11.718  12.604  65.054  1.00  0.00    -0.359 A  
HETATM   25 CL   UNL     1     -12.733  13.872  65.657  1.00  0.00    -0.560 Cl 
ENDBRANCH  17  18
ENDBRANCH  16  17
ENDBRANCH   9  16
ENDBRANCH   6   9
TORSDOF 6
ENDMDL
MODEL       78
REMARK 921   NORMALIZED FREE ENERGY PREDICTED BY IDOCK:   -5.39 KCAL/MOL
REMARK 922        TOTAL FREE ENERGY PREDICTED BY IDOCK:   -8.30 KCAL/MOL
REMARK 923 INTER-LIGAND FREE ENERGY PREDICTED BY IDOCK:   -7.32 KCAL/MOL
REMARK 924 INTRA-LIGAND FREE ENERGY PREDICTED BY IDOCK:   -0.98 KCAL/MOL
REMARK 927      BINDING AFFINITY PREDICTED BY RF-SCORE:    0.00 PKD
ROOT
HETATM    1 CL   UNL     1     -10.135   5.978  72.279  1.00  0.00    -0.200 Cl 
HETATM    2  C   UNL     1     -10.162   7.454  71.397  1.00  0.00    -0.187 A  
HETATM    3  C   UNL     1      -8.970   8.129  71.140  1.00  0.00    -0.174 A  
HETATM    4  C   UNL     1      -8.985   9.302  70.380  1.00  0.00    -0.239 A  
HETATM    5 CL   UNL     1      -7.471  10.089  70.101  1.00  0.00    -0.175 Cl 
HETATM    6  C   UNL     1     -10.190   9.806  69.864  1.00  0.00    -0.291 A  
HETATM    7  C   UNL     1     -11.383   9.121  70.171  1.00  0.00    -0.164 A  
HETATM    8  C   UNL     1     -11.371   7.952  70.929  1.00  0.00    -0.290 A  
ENDROOT
BRANCH   6   9
HETATM    9  C   UNL     1     -10.241  11.014  68.937  1.00  0.00    -0.203 C  
BRANCH   9  10
HETATM   10  C   UNL     1     -11.214  10.793  67.752  1.00  0.00    -0.316 C  
BRANCH  10  11
HETATM   11  N   UNL     1     -10.612  10.800  66.431  1.00  0.00    -0.232 NA 
HETATM   12  C   UNL     1     -10.671  11.819  65.520  1.00  0.00    -0.279 A  
HETATM   13  C   UNL     1      -9.828   9.821  65.888  1.00  0.00    -0.282 A  
HETATM   14  N   UNL     1      -9.504  10.094  64.644  1.00  0.00    -0.275 NA 
HETATM   15  C   UNL     1     -10.024  11.339  64.406  1.00  0.00    -0.288 A  
ENDBRANCH  10  11
ENDBRANCH   9  10
BRANCH   9  16
HETATM   16  O   UNL     1     -10.612  12.211  69.642  1.00  0.00     0.197 OA 
BRANCH  16  17
HETATM   17  C   UNL     1     -11.932  12.666  69.332  1.00  0.00    -0.260 C  
BRANCH  17  18
HETATM   18  C   UNL     1     -12.391  13.597  70.422  1.00  0.00    -0.415 A  
HETATM   19  C   UNL     1     -12.350  14.996  70.282  1.00  0.00    -0.342 A  
HETATM   20 CL   UNL     1     -11.735  15.773  68.863  1.00  0.00    -0.407 Cl 
HETATM   21  C   UNL     1     -13.326  15.304  72.478  1.00  0.00    -0.553 A  
HETATM   22  C   UNL     1     -12.816  15.838  71.299  1.00  0.00    -0.486 A  
HETATM   23  C   UNL     1     -13.347  13.923  72.650  1.00  0.00    -0.640 A  
HETATM   24  C   UNL     1     -12.880  13.080  71.638  1.00  0.00    -0.277 A  
HETATM   25 CL   UNL     1     -12.943  11.376  71.948  1.00  0.00    -0.538 Cl 
ENDBRANCH  17  18
ENDBRANCH  16  17
ENDBRANCH   9  16
ENDBRANCH   6   9
TORSDOF 6
ENDMDL
MODEL       79
REMARK 921   NORMALIZED FREE ENERGY PREDICTED BY IDOCK:   -5.38 KCAL/MOL
REMARK 922        TOTAL FREE ENERGY PREDICTED BY IDOCK:   -8.29 KCAL/MOL
REMARK 923 INTER-LIGAND FREE ENERGY PREDICTED BY IDOCK:   -7.07 KCAL/MOL
REMARK 924 INTRA-LIGAND FREE ENERGY PREDICTED BY IDOCK:   -1.22 KCAL/MOL
REMARK 927      BINDING AFFINITY PREDICTED BY RF-SCORE:    0.00 PKD
ROOT
HETATM    1 CL   UNL     1      -7.555   6.002  66.238  1.00  0.00    -0.089 Cl 
HETATM    2  C   UNL     1      -8.265   7.564  66.356  1.00  0.00    -0.122 A  
HETATM    3  C   UNL     1      -7.450   8.686  66.489  1.00  0.00    -0.088 A  
HETATM    4  C   UNL     1      -8.022   9.961  66.535  1.00  0.00    -0.110 A  
HETATM    5 CL   UNL     1      -6.953  11.309  66.703  1.00  0.00    -0.142 Cl 
HETATM    6  C   UNL     1      -9.414  10.124  66.442  1.00  0.00    -0.223 A  
HETATM    7  C   UNL     1     -10.215   8.967  66.345  1.00  0.00    -0.297 A  
HETATM    8  C   UNL     1      -9.646   7.696  66.299  1.00  0.00    -0.155 A  
ENDROOT
BRANCH   6   9
HETATM    9  C   UNL     1     -10.074  11.496  66.374  1.00  0.00    -0.216 C  
BRANCH   9  10
HETATM   10  C   UNL     1     -10.873  11.687  65.060  1.00  0.00    -0.288 C  
BRANCH  10  11
HETATM   11  N   UNL     1     -11.256  13.052  64.748  1.00  0.00    -0.306 NA 
HETATM   12  C   UNL     1     -10.557  14.183  65.069  1.00  0.00    -0.419 A  
HETATM   13  C   UNL     1     -12.347  13.447  64.025  1.00  0.00    -0.337 A  
HETATM   14  N   UNL     1     -12.456  14.756  63.987  1.00  0.00    -0.809 NA 
HETATM   15  C   UNL     1     -11.342  15.224  64.634  1.00  0.00    -0.358 A  
ENDBRANCH  10  11
ENDBRANCH   9  10
BRANCH   9  16
HETATM   16  O   UNL     1     -10.940  11.727  67.498  1.00  0.00    -0.228 OA 
BRANCH  16  17
HETATM   17  C   UNL     1     -10.250  11.746  68.750  1.00  0.00    -0.160 C  
BRANCH  17  18
HETATM   18  C   UNL     1     -11.181  11.246  69.822  1.00  0.00    -0.294 A  
HETATM   19  C   UNL     1     -12.191  12.053  70.377  1.00  0.00    -0.294 A  
HETATM   20 CL   UNL     1     -12.430  13.701  69.907  1.00  0.00    -0.286 Cl 
HETATM   21  C   UNL     1     -12.948  10.237  71.791  1.00  0.00    -0.574 A  
HETATM   22  C   UNL     1     -13.065  11.550  71.349  1.00  0.00    -0.359 A  
HETATM   23  C   UNL     1     -11.936   9.431  71.277  1.00  0.00    -0.430 A  
HETATM   24  C   UNL     1     -11.060   9.930  70.310  1.00  0.00    -0.308 A  
HETATM   25 CL   UNL     1      -9.831   8.851  69.736  1.00  0.00    -0.178 Cl 
ENDBRANCH  17  18
ENDBRANCH  16  17
ENDBRANCH   9  16
ENDBRANCH   6   9
TORSDOF 6
ENDMDL
MODEL       80
REMARK 921   NORMALIZED FREE ENERGY PREDICTED BY IDOCK:   -5.38 KCAL/MOL
REMARK 922        TOTAL FREE ENERGY PREDICTED BY IDOCK:   -8.28 KCAL/MOL
REMARK 923 INTER-LIGAND FREE ENERGY PREDICTED BY IDOCK:   -6.98 KCAL/MOL
REMARK 924 INTRA-LIGAND FREE ENERGY PREDICTED BY IDOCK:   -1.30 KCAL/MOL
REMARK 927      BINDING AFFINITY PREDICTED BY RF-SCORE:    0.00 PKD
ROOT
HETATM    1 CL   UNL     1      -6.173   9.082  64.752  1.00  0.00    -0.065 Cl 
HETATM    2  C   UNL     1      -7.482   9.526  65.775  1.00  0.00    -0.100 A  
HETATM    3  C   UNL     1      -8.506   8.614  66.024  1.00  0.00    -0.151 A  
HETATM    4  C   UNL     1      -9.545   8.955  66.895  1.00  0.00    -0.190 A  
HETATM    5 CL   UNL     1     -10.783   7.777  67.157  1.00  0.00    -0.391 Cl 
HETATM    6  C   UNL     1      -9.566  10.208  67.529  1.00  0.00    -0.180 A  
HETATM    7  C   UNL     1      -8.536  11.122  67.228  1.00  0.00    -0.137 A  
HETATM    8  C   UNL     1      -7.499  10.785  66.361  1.00  0.00    -0.142 A  
ENDROOT
BRANCH   6   9
HETATM    9  C   UNL     1     -10.614  10.580  68.570  1.00  0.00    -0.206 C  
BRANCH   9  10
HETATM   10  C   UNL     1     -10.248  10.042  69.976  1.00  0.00    -0.255 C  
BRANCH  10  11
HETATM   11  N   UNL     1     -11.369   9.749  70.852  1.00  0.00    -0.336 NA 
HETATM   12  C   UNL     1     -11.630   8.551  71.459  1.00  0.00    -0.292 A  
HETATM   13  C   UNL     1     -12.324  10.630  71.275  1.00  0.00    -0.383 A  
HETATM   14  N   UNL     1     -13.246  10.035  71.997  1.00  0.00    -0.454 NA 
HETATM   15  C   UNL     1     -12.821   8.739  72.119  1.00  0.00    -0.400 A  
ENDBRANCH  10  11
ENDBRANCH   9  10
BRANCH   9  16
HETATM   16  O   UNL     1     -10.814  12.002  68.640  1.00  0.00    -0.219 OA 
BRANCH  16  17
HETATM   17  C   UNL     1     -11.892  12.463  67.822  1.00  0.00    -0.298 C  
BRANCH  17  18
HETATM   18  C   UNL     1     -11.414  13.637  67.009  1.00  0.00    -0.368 A  
HETATM   19  C   UNL     1     -11.309  14.932  67.548  1.00  0.00    -0.342 A  
HETATM   20 CL   UNL     1     -11.753  15.301  69.179  1.00  0.00    -0.338 Cl 
HETATM   21  C   UNL     1     -10.449  15.797  65.455  1.00  0.00    -0.438 A  
HETATM   22  C   UNL     1     -10.828  15.998  66.778  1.00  0.00    -0.195 A  
HETATM   23  C   UNL     1     -10.574  14.530  64.893  1.00  0.00    -0.450 A  
HETATM   24  C   UNL     1     -11.056  13.464  65.657  1.00  0.00    -0.285 A  
HETATM   25 CL   UNL     1     -11.180  11.927  64.867  1.00  0.00    -0.362 Cl 
ENDBRANCH  17  18
ENDBRANCH  16  17
ENDBRANCH   9  16
ENDBRANCH   6   9
TORSDOF 6
ENDMDL
MODEL       81
REMARK 921   NORMALIZED FREE ENERGY PREDICTED BY IDOCK:   -5.37 KCAL/MOL
REMARK 922        TOTAL FREE ENERGY PREDICTED BY IDOCK:   -8.28 KCAL/MOL
REMARK 923 INTER-LIGAND FREE ENERGY PREDICTED BY IDOCK:   -7.48 KCAL/MOL
REMARK 924 INTRA-LIGAND FREE ENERGY PREDICTED BY IDOCK:   -0.79 KCAL/MOL
REMARK 927      BINDING AFFINITY PREDICTED BY RF-SCORE:    0.00 PKD
ROOT
HETATM    1 CL   UNL     1      -5.433  17.903  67.800  1.00  0.00    -0.143 Cl 
HETATM    2  C   UNL     1      -6.932  17.101  68.062  1.00  0.00    -0.171 A  
HETATM    3  C   UNL     1      -7.965  17.247  67.139  1.00  0.00    -0.229 A  
HETATM    4  C   UNL     1      -9.167  16.556  67.324  1.00  0.00    -0.216 A  
HETATM    5 CL   UNL     1     -10.407  16.784  66.142  1.00  0.00    -0.342 Cl 
HETATM    6  C   UNL     1      -9.341  15.709  68.430  1.00  0.00    -0.195 A  
HETATM    7  C   UNL     1      -8.291  15.610  69.366  1.00  0.00    -0.238 A  
HETATM    8  C   UNL     1      -7.093  16.297  69.183  1.00  0.00    -0.214 A  
ENDROOT
BRANCH   6   9
HETATM    9  C   UNL     1     -10.586  14.849  68.613  1.00  0.00    -0.251 C  
BRANCH   9  10
HETATM   10  C   UNL     1     -11.835  15.704  68.945  1.00  0.00    -0.352 C  
BRANCH  10  11
HETATM   11  N   UNL     1     -12.232  15.727  70.341  1.00  0.00    -0.387 NA 
HETATM   12  C   UNL     1     -13.352  15.151  70.874  1.00  0.00    -0.408 A  
HETATM   13  C   UNL     1     -11.528  16.272  71.379  1.00  0.00    -0.297 A  
HETATM   14  N   UNL     1     -12.196  16.199  72.508  1.00  0.00    -0.506 NA 
HETATM   15  C   UNL     1     -13.333  15.500  72.204  1.00  0.00    -0.467 A  
ENDBRANCH  10  11
ENDBRANCH   9  10
BRANCH   9  16
HETATM   16  O   UNL     1     -10.853  14.043  67.453  1.00  0.00    -0.276 OA 
BRANCH  16  17
HETATM   17  C   UNL     1     -11.913  13.103  67.648  1.00  0.00    -0.315 C  
BRANCH  17  18
HETATM   18  C   UNL     1     -11.319  11.728  67.795  1.00  0.00    -0.358 A  
HETATM   19  C   UNL     1     -10.739  11.040  66.714  1.00  0.00    -0.266 A  
HETATM   20 CL   UNL     1     -10.690  11.693  65.112  1.00  0.00    -0.342 Cl 
HETATM   21  C   UNL     1     -10.157   9.170  68.140  1.00  0.00    -0.225 A  
HETATM   22  C   UNL     1     -10.162   9.776  66.888  1.00  0.00    -0.310 A  
HETATM   23  C   UNL     1     -10.753   9.820  69.217  1.00  0.00    -0.246 A  
HETATM   24  C   UNL     1     -11.332  11.080  69.046  1.00  0.00    -0.277 A  
HETATM   25 CL   UNL     1     -12.052  11.806  70.445  1.00  0.00    -0.450 Cl 
ENDBRANCH  17  18
ENDBRANCH  16  17
ENDBRANCH   9  16
ENDBRANCH   6   9
TORSDOF 6
ENDMDL
MODEL       82
REMARK 921   NORMALIZED FREE ENERGY PREDICTED BY IDOCK:   -5.36 KCAL/MOL
REMARK 922        TOTAL FREE ENERGY PREDICTED BY IDOCK:   -8.26 KCAL/MOL
REMARK 923 INTER-LIGAND FREE ENERGY PREDICTED BY IDOCK:   -6.75 KCAL/MOL
REMARK 924 INTRA-LIGAND FREE ENERGY PREDICTED BY IDOCK:   -1.51 KCAL/MOL
REMARK 927      BINDING AFFINITY PREDICTED BY RF-SCORE:    0.00 PKD
ROOT
HETATM    1 CL   UNL     1     -11.815  13.185  63.341  1.00  0.00    -0.547 Cl 
HETATM    2  C   UNL     1     -11.324  12.174  64.643  1.00  0.00    -0.326 A  
HETATM    3  C   UNL     1     -11.763  12.449  65.936  1.00  0.00    -0.476 A  
HETATM    4  C   UNL     1     -11.405  11.600  66.988  1.00  0.00    -0.305 A  
HETATM    5 CL   UNL     1     -11.983  12.001  68.567  1.00  0.00    -0.348 Cl 
HETATM    6  C   UNL     1     -10.612  10.466  66.754  1.00  0.00    -0.270 A  
HETATM    7  C   UNL     1     -10.153  10.234  65.441  1.00  0.00    -0.354 A  
HETATM    8  C   UNL     1     -10.508  11.079  64.391  1.00  0.00    -0.422 A  
ENDROOT
BRANCH   6   9
HETATM    9  C   UNL     1     -10.292   9.451  67.845  1.00  0.00    -0.225 C  
BRANCH   9  10
HETATM   10  C   UNL     1     -10.538   7.997  67.373  1.00  0.00    -0.267 C  
BRANCH  10  11
HETATM   11  N   UNL     1     -10.325   6.964  68.370  1.00  0.00    -0.180 NA 
HETATM   12  C   UNL     1     -11.276   6.422  69.190  1.00  0.00    -0.354 A  
HETATM   13  C   UNL     1      -9.154   6.305  68.624  1.00  0.00    -0.126 A  
HETATM   14  N   UNL     1      -9.271   5.484  69.642  1.00  0.00    -0.130 NA 
HETATM   15  C   UNL     1     -10.592   5.547  70.000  1.00  0.00    -0.314 A  
ENDBRANCH  10  11
ENDBRANCH   9  10
BRANCH   9  16
HETATM   16  O   UNL     1      -8.938   9.579  68.312  1.00  0.00    -0.124 OA 
BRANCH  16  17
HETATM   17  C   UNL     1      -8.829  10.294  69.546  1.00  0.00    -0.148 C  
BRANCH  17  18
HETATM   18  C   UNL     1      -8.855   9.305  70.680  1.00  0.00    -0.287 A  
HETATM   19  C   UNL     1     -10.016   9.056  71.434  1.00  0.00    -0.318 A  
HETATM   20 CL   UNL     1     -11.507   9.887  71.152  1.00  0.00    -0.448 Cl 
HETATM   21  C   UNL     1      -8.866   7.388  72.764  1.00  0.00    -0.168 A  
HETATM   22  C   UNL     1     -10.020   8.104  72.462  1.00  0.00    -0.372 A  
HETATM   23  C   UNL     1      -7.698   7.642  72.050  1.00  0.00    -0.096 A  
HETATM   24  C   UNL     1      -7.690   8.592  71.026  1.00  0.00    -0.108 A  
HETATM   25 CL   UNL     1      -6.187   8.839  70.200  1.00  0.00    -0.033 Cl 
ENDBRANCH  17  18
ENDBRANCH  16  17
ENDBRANCH   9  16
ENDBRANCH   6   9
TORSDOF 6
ENDMDL
MODEL       83
REMARK 921   NORMALIZED FREE ENERGY PREDICTED BY IDOCK:   -5.36 KCAL/MOL
REMARK 922        TOTAL FREE ENERGY PREDICTED BY IDOCK:   -8.25 KCAL/MOL
REMARK 923 INTER-LIGAND FREE ENERGY PREDICTED BY IDOCK:   -7.28 KCAL/MOL
REMARK 924 INTRA-LIGAND FREE ENERGY PREDICTED BY IDOCK:   -0.97 KCAL/MOL
REMARK 927      BINDING AFFINITY PREDICTED BY RF-SCORE:    0.00 PKD
ROOT
HETATM    1 CL   UNL     1      -7.662  17.290  68.806  1.00  0.00    -0.267 Cl 
HETATM    2  C   UNL     1      -8.706  15.928  68.695  1.00  0.00    -0.199 A  
HETATM    3  C   UNL     1      -9.943  15.951  69.336  1.00  0.00    -0.274 A  
HETATM    4  C   UNL     1     -10.814  14.865  69.206  1.00  0.00    -0.266 A  
HETATM    5 CL   UNL     1     -12.332  14.958  70.028  1.00  0.00    -0.367 Cl 
HETATM    6  C   UNL     1     -10.458  13.751  68.429  1.00  0.00    -0.256 A  
HETATM    7  C   UNL     1      -9.185  13.742  67.823  1.00  0.00    -0.206 A  
HETATM    8  C   UNL     1      -8.315  14.823  67.951  1.00  0.00    -0.151 A  
ENDROOT
BRANCH   6   9
HETATM    9  C   UNL     1     -11.417  12.597  68.165  1.00  0.00    -0.313 C  
BRANCH   9  10
HETATM   10  C   UNL     1     -10.972  11.740  66.954  1.00  0.00    -0.285 C  
BRANCH  10  11
HETATM   11  N   UNL     1     -11.523  12.128  65.668  1.00  0.00    -0.359 NA 
HETATM   12  C   UNL     1     -11.148  11.640  64.446  1.00  0.00    -0.317 A  
HETATM   13  C   UNL     1     -12.553  13.000  65.453  1.00  0.00    -0.422 A  
HETATM   14  N   UNL     1     -12.761  13.198  64.171  1.00  0.00    -0.671 NA 
HETATM   15  C   UNL     1     -11.891  12.352  63.535  1.00  0.00    -0.521 A  
ENDBRANCH  10  11
ENDBRANCH   9  10
BRANCH   9  16
HETATM   16  O   UNL     1     -11.566  11.753  69.319  1.00  0.00    -0.264 OA 
BRANCH  16  17
HETATM   17  C   UNL     1     -11.870  10.394  68.992  1.00  0.00    -0.023 C  
BRANCH  17  18
HETATM   18  C   UNL     1     -11.331   9.503  70.078  1.00  0.00    -0.204 A  
HETATM   19  C   UNL     1     -10.103   8.828  69.957  1.00  0.00    -0.190 A  
HETATM   20 CL   UNL     1      -9.120   8.929  68.536  1.00  0.00    -0.137 Cl 
HETATM   21  C   UNL     1     -10.331   7.889  72.179  1.00  0.00    -0.297 A  
HETATM   22  C   UNL     1      -9.609   8.032  70.999  1.00  0.00    -0.184 A  
HETATM   23  C   UNL     1     -11.563   8.524  72.308  1.00  0.00    -0.444 A  
HETATM   24  C   UNL     1     -12.060   9.316  71.269  1.00  0.00    -0.337 A  
HETATM   25 CL   UNL     1     -13.604  10.060  71.523  1.00  0.00    -0.327 Cl 
ENDBRANCH  17  18
ENDBRANCH  16  17
ENDBRANCH   9  16
ENDBRANCH   6   9
TORSDOF 6
ENDMDL
MODEL       84
REMARK 921   NORMALIZED FREE ENERGY PREDICTED BY IDOCK:   -5.35 KCAL/MOL
REMARK 922        TOTAL FREE ENERGY PREDICTED BY IDOCK:   -8.24 KCAL/MOL
REMARK 923 INTER-LIGAND FREE ENERGY PREDICTED BY IDOCK:   -7.08 KCAL/MOL
REMARK 924 INTRA-LIGAND FREE ENERGY PREDICTED BY IDOCK:   -1.16 KCAL/MOL
REMARK 927      BINDING AFFINITY PREDICTED BY RF-SCORE:    0.00 PKD
ROOT
HETATM    1 CL   UNL     1      -9.453  19.626  66.049  1.00  0.00    -0.403 Cl 
HETATM    2  C   UNL     1      -9.586  17.967  66.481  1.00  0.00    -0.313 A  
HETATM    3  C   UNL     1     -10.462  17.138  65.783  1.00  0.00    -0.242 A  
HETATM    4  C   UNL     1     -10.535  15.778  66.100  1.00  0.00    -0.317 A  
HETATM    5 CL   UNL     1     -11.644  14.808  65.195  1.00  0.00    -0.362 Cl 
HETATM    6  C   UNL     1      -9.728  15.235  67.112  1.00  0.00    -0.220 A  
HETATM    7  C   UNL     1      -8.878  16.106  67.825  1.00  0.00    -0.184 A  
HETATM    8  C   UNL     1      -8.804  17.461  67.511  1.00  0.00    -0.224 A  
ENDROOT
BRANCH   6   9
HETATM    9  C   UNL     1      -9.690  13.742  67.415  1.00  0.00    -0.235 C  
BRANCH   9  10
HETATM   10  C   UNL     1      -8.251  13.172  67.333  1.00  0.00    -0.187 C  
BRANCH  10  11
HETATM   11  N   UNL     1      -8.144  11.725  67.345  1.00  0.00    -0.152 NA 
HETATM   12  C   UNL     1      -8.484  10.880  66.324  1.00  0.00    -0.166 A  
HETATM   13  C   UNL     1      -7.626  10.954  68.347  1.00  0.00    -0.104 A  
HETATM   14  N   UNL     1      -7.745   9.672  68.084  1.00  0.00    -0.086 NA 
HETATM   15  C   UNL     1      -8.276   9.616  66.823  1.00  0.00    -0.113 A  
ENDBRANCH  10  11
ENDBRANCH   9  10
BRANCH   9  16
HETATM   16  O   UNL     1     -10.248  13.445  68.706  1.00  0.00    -0.211 OA 
BRANCH  16  17
HETATM   17  C   UNL     1     -11.629  13.078  68.654  1.00  0.00    -0.318 C  
BRANCH  17  18
HETATM   18  C   UNL     1     -12.266  13.403  69.979  1.00  0.00    -0.367 A  
HETATM   19  C   UNL     1     -12.629  12.407  70.904  1.00  0.00    -0.246 A  
HETATM   20 CL   UNL     1     -12.413  10.719  70.588  1.00  0.00    -0.432 Cl 
HETATM   21  C   UNL     1     -13.401  14.072  72.485  1.00  0.00    -0.639 A  
HETATM   22  C   UNL     1     -13.187  12.741  72.144  1.00  0.00    -0.546 A  
HETATM   23  C   UNL     1     -13.077  15.072  71.572  1.00  0.00    -0.454 A  
HETATM   24  C   UNL     1     -12.523  14.743  70.333  1.00  0.00    -0.349 A  
HETATM   25 CL   UNL     1     -12.159  16.057  69.264  1.00  0.00    -0.212 Cl 
ENDBRANCH  17  18
ENDBRANCH  16  17
ENDBRANCH   9  16
ENDBRANCH   6   9
TORSDOF 6
ENDMDL
MODEL       85
REMARK 921   NORMALIZED FREE ENERGY PREDICTED BY IDOCK:   -5.33 KCAL/MOL
REMARK 922        TOTAL FREE ENERGY PREDICTED BY IDOCK:   -8.21 KCAL/MOL
REMARK 923 INTER-LIGAND FREE ENERGY PREDICTED BY IDOCK:   -7.25 KCAL/MOL
REMARK 924 INTRA-LIGAND FREE ENERGY PREDICTED BY IDOCK:   -0.96 KCAL/MOL
REMARK 927      BINDING AFFINITY PREDICTED BY RF-SCORE:    0.00 PKD
ROOT
HETATM    1 CL   UNL     1     -12.247  13.171  63.017  1.00  0.00    -0.316 Cl 
HETATM    2  C   UNL     1     -11.822  13.078  64.681  1.00  0.00    -0.372 A  
HETATM    3  C   UNL     1     -10.541  12.668  65.046  1.00  0.00    -0.329 A  
HETATM    4  C   UNL     1     -10.177  12.640  66.395  1.00  0.00    -0.251 A  
HETATM    5 CL   UNL     1      -8.574  12.119  66.778  1.00  0.00    -0.186 Cl 
HETATM    6  C   UNL     1     -11.089  13.029  67.390  1.00  0.00    -0.302 A  
HETATM    7  C   UNL     1     -12.389  13.405  66.992  1.00  0.00    -0.231 A  
HETATM    8  C   UNL     1     -12.753  13.433  65.648  1.00  0.00    -0.432 A  
ENDROOT
BRANCH   6   9
HETATM    9  C   UNL     1     -10.703  13.124  68.861  1.00  0.00    -0.169 C  
BRANCH   9  10
HETATM   10  C   UNL     1     -11.019  14.521  69.453  1.00  0.00    -0.249 C  
BRANCH  10  11
HETATM   11  N   UNL     1     -10.145  15.599  69.028  1.00  0.00    -0.214 NA 
HETATM   12  C   UNL     1     -10.534  16.771  68.438  1.00  0.00    -0.339 A  
HETATM   13  C   UNL     1      -8.790  15.665  69.196  1.00  0.00    -0.251 A  
HETATM   14  N   UNL     1      -8.283  16.736  68.630  1.00  0.00    -0.242 NA 
HETATM   15  C   UNL     1      -9.363  17.434  68.157  1.00  0.00    -0.277 A  
ENDBRANCH  10  11
ENDBRANCH   9  10
BRANCH   9  16
HETATM   16  O   UNL     1     -11.354  12.113  69.650  1.00  0.00    -0.232 OA 
BRANCH  16  17
HETATM   17  C   UNL     1     -11.142  10.788  69.157  1.00  0.00    -0.249 C  
BRANCH  17  18
HETATM   18  C   UNL     1     -10.733   9.905  70.306  1.00  0.00    -0.367 A  
HETATM   19  C   UNL     1      -9.403   9.491  70.499  1.00  0.00    -0.237 A  
HETATM   20 CL   UNL     1      -8.125   9.926  69.416  1.00  0.00    -0.125 Cl 
HETATM   21  C   UNL     1     -10.005   8.297  72.519  1.00  0.00    -0.373 A  
HETATM   22  C   UNL     1      -9.045   8.698  71.596  1.00  0.00    -0.318 A  
HETATM   23  C   UNL     1     -11.333   8.670  72.330  1.00  0.00    -0.411 A  
HETATM   24  C   UNL     1     -11.694   9.459  71.235  1.00  0.00    -0.360 A  
HETATM   25 CL   UNL     1     -13.371   9.866  71.084  1.00  0.00    -0.422 Cl 
ENDBRANCH  17  18
ENDBRANCH  16  17
ENDBRANCH   9  16
ENDBRANCH   6   9
TORSDOF 6
ENDMDL
MODEL       86
REMARK 921   NORMALIZED FREE ENERGY PREDICTED BY IDOCK:   -5.32 KCAL/MOL
REMARK 922        TOTAL FREE ENERGY PREDICTED BY IDOCK:   -8.20 KCAL/MOL
REMARK 923 INTER-LIGAND FREE ENERGY PREDICTED BY IDOCK:   -7.13 KCAL/MOL
REMARK 924 INTRA-LIGAND FREE ENERGY PREDICTED BY IDOCK:   -1.08 KCAL/MOL
REMARK 927      BINDING AFFINITY PREDICTED BY RF-SCORE:    0.00 PKD
ROOT
HETATM    1 CL   UNL     1      -5.264  10.689  67.073  1.00  0.00    -0.041 Cl 
HETATM    2  C   UNL     1      -6.957  10.820  67.341  1.00  0.00    -0.083 A  
HETATM    3  C   UNL     1      -7.803   9.786  66.942  1.00  0.00    -0.102 A  
HETATM    4  C   UNL     1      -9.173   9.868  67.204  1.00  0.00    -0.138 A  
HETATM    5 CL   UNL     1     -10.164   8.552  66.681  1.00  0.00    -0.367 Cl 
HETATM    6  C   UNL     1      -9.709  10.981  67.873  1.00  0.00    -0.183 A  
HETATM    7  C   UNL     1      -8.834  12.026  68.232  1.00  0.00    -0.182 A  
HETATM    8  C   UNL     1      -7.468  11.947  67.971  1.00  0.00    -0.107 A  
ENDROOT
BRANCH   6   9
HETATM    9  C   UNL     1     -11.175  11.062  68.281  1.00  0.00    -0.277 C  
BRANCH   9  10
HETATM   10  C   UNL     1     -11.348  11.654  69.702  1.00  0.00    -0.236 C  
BRANCH  10  11
HETATM   11  N   UNL     1     -11.858  10.741  70.709  1.00  0.00    -0.342 NA 
HETATM   12  C   UNL     1     -11.222   9.630  71.190  1.00  0.00    -0.384 A  
HETATM   13  C   UNL     1     -13.031  10.863  71.400  1.00  0.00    -0.424 A  
HETATM   14  N   UNL     1     -13.241   9.830  72.184  1.00  0.00    -0.448 NA 
HETATM   15  C   UNL     1     -12.117   9.057  72.061  1.00  0.00    -0.370 A  
ENDBRANCH  10  11
ENDBRANCH   9  10
BRANCH   9  16
HETATM   16  O   UNL     1     -11.947  11.834  67.344  1.00  0.00    -0.617 OA 
BRANCH  16  17
HETATM   17  C   UNL     1     -12.250  13.151  67.810  1.00  0.00    -0.076 C  
BRANCH  17  18
HETATM   18  C   UNL     1     -11.562  14.149  66.918  1.00  0.00    -0.410 A  
HETATM   19  C   UNL     1     -11.705  14.132  65.519  1.00  0.00    -0.344 A  
HETATM   20 CL   UNL     1     -12.653  12.942  64.694  1.00  0.00    -0.479 Cl 
HETATM   21  C   UNL     1     -10.296  16.090  65.291  1.00  0.00    -0.319 A  
HETATM   22  C   UNL     1     -11.081  15.095  64.717  1.00  0.00    -0.395 A  
HETATM   23  C   UNL     1     -10.116  16.107  66.671  1.00  0.00    -0.283 A  
HETATM   24  C   UNL     1     -10.735  15.146  67.475  1.00  0.00    -0.284 A  
HETATM   25 CL   UNL     1     -10.446  15.248  69.180  1.00  0.00    -0.236 Cl 
ENDBRANCH  17  18
ENDBRANCH  16  17
ENDBRANCH   9  16
ENDBRANCH   6   9
TORSDOF 6
ENDMDL
MODEL       87
REMARK 921   NORMALIZED FREE ENERGY PREDICTED BY IDOCK:   -5.31 KCAL/MOL
REMARK 922        TOTAL FREE ENERGY PREDICTED BY IDOCK:   -8.19 KCAL/MOL
REMARK 923 INTER-LIGAND FREE ENERGY PREDICTED BY IDOCK:   -7.08 KCAL/MOL
REMARK 924 INTRA-LIGAND FREE ENERGY PREDICTED BY IDOCK:   -1.11 KCAL/MOL
REMARK 927      BINDING AFFINITY PREDICTED BY RF-SCORE:    0.00 PKD
ROOT
HETATM    1 CL   UNL     1      -9.604   4.404  66.407  1.00  0.00    -0.184 Cl 
HETATM    2  C   UNL     1      -9.697   6.120  66.456  1.00  0.00    -0.145 A  
HETATM    3  C   UNL     1      -8.761   6.884  65.762  1.00  0.00    -0.120 A  
HETATM    4  C   UNL     1      -8.865   8.278  65.760  1.00  0.00    -0.155 A  
HETATM    5 CL   UNL     1      -7.670   9.165  64.880  1.00  0.00    -0.106 Cl 
HETATM    6  C   UNL     1      -9.909   8.919  66.446  1.00  0.00    -0.353 A  
HETATM    7  C   UNL     1     -10.819   8.121  67.169  1.00  0.00    -0.120 A  
HETATM    8  C   UNL     1     -10.717   6.732  67.173  1.00  0.00    -0.441 A  
ENDROOT
BRANCH   6   9
HETATM    9  C   UNL     1     -10.128  10.426  66.379  1.00  0.00    -0.228 C  
BRANCH   9  10
HETATM   10  C   UNL     1     -10.687  10.868  65.003  1.00  0.00    -0.146 C  
BRANCH  10  11
HETATM   11  N   UNL     1     -11.103  12.255  64.906  1.00  0.00    -0.302 NA 
HETATM   12  C   UNL     1     -12.388  12.708  64.787  1.00  0.00    -0.489 A  
HETATM   13  C   UNL     1     -10.295  13.355  64.979  1.00  0.00    -0.347 A  
HETATM   14  N   UNL     1     -10.967  14.465  64.776  1.00  0.00    -0.401 NA 
HETATM   15  C   UNL     1     -12.275  14.072  64.658  1.00  0.00    -0.435 A  
ENDBRANCH  10  11
ENDBRANCH   9  10
BRANCH   9  16
HETATM   16  O   UNL     1     -11.008  10.884  67.420  1.00  0.00    -0.260 OA 
BRANCH  16  17
HETATM   17  C   UNL     1     -10.335  11.618  68.447  1.00  0.00    -0.204 C  
BRANCH  17  18
HETATM   18  C   UNL     1     -11.338  12.004  69.500  1.00  0.00    -0.298 A  
HETATM   19  C   UNL     1     -11.848  11.078  70.429  1.00  0.00    -0.367 A  
HETATM   20 CL   UNL     1     -11.398   9.407  70.421  1.00  0.00    -0.293 Cl 
HETATM   21  C   UNL     1     -13.175  12.797  71.504  1.00  0.00    -0.330 A  
HETATM   22  C   UNL     1     -12.754  11.474  71.421  1.00  0.00    -0.469 A  
HETATM   23  C   UNL     1     -12.707  13.723  70.575  1.00  0.00    -0.293 A  
HETATM   24  C   UNL     1     -11.805  13.331  69.583  1.00  0.00    -0.327 A  
HETATM   25 CL   UNL     1     -11.284  14.555  68.472  1.00  0.00    -0.269 Cl 
ENDBRANCH  17  18
ENDBRANCH  16  17
ENDBRANCH   9  16
ENDBRANCH   6   9
TORSDOF 6
ENDMDL
MODEL       88
REMARK 921   NORMALIZED FREE ENERGY PREDICTED BY IDOCK:   -5.30 KCAL/MOL
REMARK 922        TOTAL FREE ENERGY PREDICTED BY IDOCK:   -8.18 KCAL/MOL
REMARK 923 INTER-LIGAND FREE ENERGY PREDICTED BY IDOCK:   -6.77 KCAL/MOL
REMARK 924 INTRA-LIGAND FREE ENERGY PREDICTED BY IDOCK:   -1.41 KCAL/MOL
REMARK 927      BINDING AFFINITY PREDICTED BY RF-SCORE:    0.00 PKD
ROOT
HETATM    1 CL   UNL     1      -8.102   7.744  64.815  1.00  0.00    -0.144 Cl 
HETATM    2  C   UNL     1      -8.925   8.756  65.935  1.00  0.00    -0.195 A  
HETATM    3  C   UNL     1      -8.432  10.030  66.208  1.00  0.00    -0.134 A  
HETATM    4  C   UNL     1      -9.127  10.874  67.080  1.00  0.00    -0.145 A  
HETATM    5 CL   UNL     1      -8.458  12.439  67.377  1.00  0.00    -0.170 Cl 
HETATM    6  C   UNL     1     -10.324  10.452  67.680  1.00  0.00    -0.260 A  
HETATM    7  C   UNL     1     -10.779   9.145  67.412  1.00  0.00    -0.247 A  
HETATM    8  C   UNL     1     -10.088   8.303  66.544  1.00  0.00    -0.303 A  
ENDROOT
BRANCH   6   9
HETATM    9  C   UNL     1     -11.175  11.375  68.545  1.00  0.00    -0.250 C  
BRANCH   9  10
HETATM   10  C   UNL     1     -11.910  12.444  67.701  1.00  0.00    -0.295 C  
BRANCH  10  11
HETATM   11  N   UNL     1     -11.659  13.825  68.072  1.00  0.00    -0.313 NA 
HETATM   12  C   UNL     1     -11.599  14.894  67.220  1.00  0.00    -0.324 A  
HETATM   13  C   UNL     1     -11.502  14.313  69.339  1.00  0.00    -0.292 A  
HETATM   14  N   UNL     1     -11.209  15.593  69.333  1.00  0.00    -0.288 NA 
HETATM   15  C   UNL     1     -11.270  15.966  68.016  1.00  0.00    -0.319 A  
ENDBRANCH  10  11
ENDBRANCH   9  10
BRANCH   9  16
HETATM   16  O   UNL     1     -12.133  10.640  69.326  1.00  0.00    -0.259 OA 
BRANCH  16  17
HETATM   17  C   UNL     1     -11.773  10.528  70.705  1.00  0.00    -0.356 C  
BRANCH  17  18
HETATM   18  C   UNL     1     -11.546   9.075  71.028  1.00  0.00    -0.360 A  
HETATM   19  C   UNL     1     -12.595   8.213  71.395  1.00  0.00    -0.283 A  
HETATM   20 CL   UNL     1     -14.233   8.750  71.544  1.00  0.00    -0.418 Cl 
HETATM   21  C   UNL     1     -11.072   6.336  71.564  1.00  0.00    -0.333 A  
HETATM   22  C   UNL     1     -12.358   6.857  71.656  1.00  0.00    -0.413 A  
HETATM   23  C   UNL     1     -10.015   7.178  71.233  1.00  0.00    -0.192 A  
HETATM   24  C   UNL     1     -10.247   8.532  70.974  1.00  0.00    -0.203 A  
HETATM   25 CL   UNL     1      -8.866   9.500  70.575  1.00  0.00    -0.279 Cl 
ENDBRANCH  17  18
ENDBRANCH  16  17
ENDBRANCH   9  16
ENDBRANCH   6   9
TORSDOF 6
ENDMDL
MODEL       89
REMARK 921   NORMALIZED FREE ENERGY PREDICTED BY IDOCK:   -5.30 KCAL/MOL
REMARK 922        TOTAL FREE ENERGY PREDICTED BY IDOCK:   -8.18 KCAL/MOL
REMARK 923 INTER-LIGAND FREE ENERGY PREDICTED BY IDOCK:   -7.10 KCAL/MOL
REMARK 924 INTRA-LIGAND FREE ENERGY PREDICTED BY IDOCK:   -1.08 KCAL/MOL
REMARK 927      BINDING AFFINITY PREDICTED BY RF-SCORE:    0.00 PKD
ROOT
HETATM    1 CL   UNL     1     -11.192   4.745  73.416  1.00  0.00    -0.413 Cl 
HETATM    2  C   UNL     1     -10.884   6.102  72.405  1.00  0.00    -0.243 A  
HETATM    3  C   UNL     1      -9.649   6.744  72.466  1.00  0.00    -0.165 A  
HETATM    4  C   UNL     1      -9.379   7.816  71.610  1.00  0.00    -0.140 A  
HETATM    5 CL   UNL     1      -7.828   8.567  71.740  1.00  0.00    -0.160 Cl 
HETATM    6  C   UNL     1     -10.339   8.250  70.682  1.00  0.00    -0.220 A  
HETATM    7  C   UNL     1     -11.592   7.604  70.669  1.00  0.00    -0.251 A  
HETATM    8  C   UNL     1     -11.864   6.536  71.521  1.00  0.00    -0.386 A  
ENDROOT
BRANCH   6   9
HETATM    9  C   UNL     1     -10.049   9.337  69.653  1.00  0.00    -0.197 C  
BRANCH   9  10
HETATM   10  C   UNL     1     -10.706   9.027  68.285  1.00  0.00    -0.103 C  
BRANCH  10  11
HETATM   11  N   UNL     1     -10.113   7.936  67.533  1.00  0.00    -0.193 NA 
HETATM   12  C   UNL     1      -8.829   7.878  67.066  1.00  0.00    -0.130 A  
HETATM   13  C   UNL     1     -10.710   6.748  67.213  1.00  0.00    -0.353 A  
HETATM   14  N   UNL     1      -9.935   6.004  66.457  1.00  0.00    -0.161 NA 
HETATM   15  C   UNL     1      -8.758   6.699  66.362  1.00  0.00    -0.141 A  
ENDBRANCH  10  11
ENDBRANCH   9  10
BRANCH   9  16
HETATM   16  O   UNL     1     -10.482  10.630  70.109  1.00  0.00    -0.144 OA 
BRANCH  16  17
HETATM   17  C   UNL     1     -11.704  11.063  69.507  1.00  0.00    -0.329 C  
BRANCH  17  18
HETATM   18  C   UNL     1     -12.265  12.202  70.316  1.00  0.00    -0.344 A  
HETATM   19  C   UNL     1     -12.082  13.547  69.949  1.00  0.00    -0.341 A  
HETATM   20 CL   UNL     1     -11.166  14.017  68.558  1.00  0.00    -0.274 Cl 
HETATM   21  C   UNL     1     -13.395  14.304  71.839  1.00  0.00    -0.470 A  
HETATM   22  C   UNL     1     -12.645  14.585  70.702  1.00  0.00    -0.416 A  
HETATM   23  C   UNL     1     -13.563  12.980  72.237  1.00  0.00    -0.643 A  
HETATM   24  C   UNL     1     -13.000  11.943  71.490  1.00  0.00    -0.323 A  
HETATM   25 CL   UNL     1     -13.261  10.331  72.070  1.00  0.00    -0.559 Cl 
ENDBRANCH  17  18
ENDBRANCH  16  17
ENDBRANCH   9  16
ENDBRANCH   6   9
TORSDOF 6
ENDMDL
MODEL       90
REMARK 921   NORMALIZED FREE ENERGY PREDICTED BY IDOCK:   -5.29 KCAL/MOL
REMARK 922        TOTAL FREE ENERGY PREDICTED BY IDOCK:   -8.16 KCAL/MOL
REMARK 923 INTER-LIGAND FREE ENERGY PREDICTED BY IDOCK:   -7.25 KCAL/MOL
REMARK 924 INTRA-LIGAND FREE ENERGY PREDICTED BY IDOCK:   -0.91 KCAL/MOL
REMARK 927      BINDING AFFINITY PREDICTED BY RF-SCORE:    0.00 PKD
ROOT
HETATM    1 CL   UNL     1     -12.747  11.846  63.484  1.00  0.00    -0.641 Cl 
HETATM    2  C   UNL     1     -11.887  12.806  64.623  1.00  0.00    -0.374 A  
HETATM    3  C   UNL     1     -12.159  12.675  65.983  1.00  0.00    -0.429 A  
HETATM    4  C   UNL     1     -11.426  13.418  66.914  1.00  0.00    -0.342 A  
HETATM    5 CL   UNL     1     -11.816  13.208  68.585  1.00  0.00    -0.360 Cl 
HETATM    6  C   UNL     1     -10.412  14.293  66.492  1.00  0.00    -0.287 A  
HETATM    7  C   UNL     1     -10.185  14.431  65.107  1.00  0.00    -0.420 A  
HETATM    8  C   UNL     1     -10.914  13.692  64.178  1.00  0.00    -0.211 A  
ENDROOT
BRANCH   6   9
HETATM    9  C   UNL     1      -9.512  15.035  67.472  1.00  0.00    -0.203 C  
BRANCH   9  10
HETATM   10  C   UNL     1      -8.012  14.754  67.208  1.00  0.00    -0.205 C  
BRANCH  10  11
HETATM   11  N   UNL     1      -7.476  13.554  67.825  1.00  0.00    -0.149 NA 
HETATM   12  C   UNL     1      -7.397  12.314  67.251  1.00  0.00    -0.140 A  
HETATM   13  C   UNL     1      -6.900  13.460  69.061  1.00  0.00    -0.103 A  
HETATM   14  N   UNL     1      -6.588  12.220  69.358  1.00  0.00    -0.103 NA 
HETATM   15  C   UNL     1      -6.892  11.498  68.234  1.00  0.00    -0.066 A  
ENDBRANCH  10  11
ENDBRANCH   9  10
BRANCH   9  16
HETATM   16  O   UNL     1      -9.745  16.454  67.440  1.00  0.00    -0.233 OA 
BRANCH  16  17
HETATM   17  C   UNL     1      -9.435  17.107  68.673  1.00  0.00    -0.275 C  
BRANCH  17  18
HETATM   18  C   UNL     1      -8.616  18.335  68.378  1.00  0.00    -0.315 A  
HETATM   19  C   UNL     1      -7.251  18.425  68.706  1.00  0.00    -0.284 A  
HETATM   20 CL   UNL     1      -6.400  17.152  69.510  1.00  0.00    -0.237 Cl 
HETATM   21  C   UNL     1      -7.105  20.644  67.742  1.00  0.00    -0.325 A  
HETATM   22  C   UNL     1      -6.505  19.567  68.387  1.00  0.00    -0.283 A  
HETATM   23  C   UNL     1      -8.462  20.587  67.436  1.00  0.00    -0.354 A  
HETATM   24  C   UNL     1      -9.210  19.451  67.755  1.00  0.00    -0.318 A  
HETATM   25 CL   UNL     1     -10.892  19.479  67.339  1.00  0.00    -0.590 Cl 
ENDBRANCH  17  18
ENDBRANCH  16  17
ENDBRANCH   9  16
ENDBRANCH   6   9
TORSDOF 6
ENDMDL
MODEL       91
REMARK 921   NORMALIZED FREE ENERGY PREDICTED BY IDOCK:   -5.28 KCAL/MOL
REMARK 922        TOTAL FREE ENERGY PREDICTED BY IDOCK:   -8.15 KCAL/MOL
REMARK 923 INTER-LIGAND FREE ENERGY PREDICTED BY IDOCK:   -7.46 KCAL/MOL
REMARK 924 INTRA-LIGAND FREE ENERGY PREDICTED BY IDOCK:   -0.69 KCAL/MOL
REMARK 927      BINDING AFFINITY PREDICTED BY RF-SCORE:    0.00 PKD
ROOT
HETATM    1 CL   UNL     1      -5.721  18.521  67.218  1.00  0.00    -0.143 Cl 
HETATM    2  C   UNL     1      -7.177  17.643  67.474  1.00  0.00    -0.181 A  
HETATM    3  C   UNL     1      -8.243  17.799  66.590  1.00  0.00    -0.287 A  
HETATM    4  C   UNL     1      -9.410  17.049  66.768  1.00  0.00    -0.252 A  
HETATM    5 CL   UNL     1     -10.694  17.292  65.637  1.00  0.00    -0.229 Cl 
HETATM    6  C   UNL     1      -9.517  16.132  67.826  1.00  0.00    -0.217 A  
HETATM    7  C   UNL     1      -8.435  16.023  68.725  1.00  0.00    -0.228 A  
HETATM    8  C   UNL     1      -7.272  16.770  68.550  1.00  0.00    -0.194 A  
ENDROOT
BRANCH   6   9
HETATM    9  C   UNL     1     -10.720  15.212  67.993  1.00  0.00    -0.264 C  
BRANCH   9  10
HETATM   10  C   UNL     1     -11.906  15.931  68.683  1.00  0.00    -0.234 C  
BRANCH  10  11
HETATM   11  N   UNL     1     -12.127  15.591  70.077  1.00  0.00    -0.360 NA 
HETATM   12  C   UNL     1     -11.273  15.840  71.116  1.00  0.00    -0.326 A  
HETATM   13  C   UNL     1     -13.250  15.021  70.608  1.00  0.00    -0.295 A  
HETATM   14  N   UNL     1     -13.105  14.768  71.889  1.00  0.00    -0.315 NA 
HETATM   15  C   UNL     1     -11.877  15.278  72.216  1.00  0.00    -0.437 A  
ENDBRANCH  10  11
ENDBRANCH   9  10
BRANCH   9  16
HETATM   16  O   UNL     1     -11.156  14.670  66.735  1.00  0.00    -0.320 OA 
BRANCH  16  17
HETATM   17  C   UNL     1     -11.931  13.476  66.870  1.00  0.00    -0.399 C  
BRANCH  17  18
HETATM   18  C   UNL     1     -11.198  12.346  66.199  1.00  0.00    -0.364 A  
HETATM   19  C   UNL     1     -10.458  11.394  66.923  1.00  0.00    -0.240 A  
HETATM   20 CL   UNL     1     -10.290  11.457  68.644  1.00  0.00    -0.203 Cl 
HETATM   21  C   UNL     1      -9.892  10.201  64.892  1.00  0.00    -0.390 A  
HETATM   22  C   UNL     1      -9.815  10.332  66.274  1.00  0.00    -0.276 A  
HETATM   23  C   UNL     1     -10.594  11.149  64.153  1.00  0.00    -0.436 A  
HETATM   24  C   UNL     1     -11.234  12.212  64.796  1.00  0.00    -0.323 A  
HETATM   25 CL   UNL     1     -12.078  13.342  63.790  1.00  0.00    -0.547 Cl 
ENDBRANCH  17  18
ENDBRANCH  16  17
ENDBRANCH   9  16
ENDBRANCH   6   9
TORSDOF 6
ENDMDL
MODEL       92
REMARK 921   NORMALIZED FREE ENERGY PREDICTED BY IDOCK:   -5.28 KCAL/MOL
REMARK 922        TOTAL FREE ENERGY PREDICTED BY IDOCK:   -8.15 KCAL/MOL
REMARK 923 INTER-LIGAND FREE ENERGY PREDICTED BY IDOCK:   -7.01 KCAL/MOL
REMARK 924 INTRA-LIGAND FREE ENERGY PREDICTED BY IDOCK:   -1.14 KCAL/MOL
REMARK 927      BINDING AFFINITY PREDICTED BY RF-SCORE:    0.00 PKD
ROOT
HETATM    1 CL   UNL     1      -8.260   3.013  66.300  1.00  0.00    -0.089 Cl 
HETATM    2  C   UNL     1      -8.952   4.563  66.578  1.00  0.00    -0.114 A  
HETATM    3  C   UNL     1      -9.811   4.753  67.659  1.00  0.00    -0.201 A  
HETATM    4  C   UNL     1     -10.335   6.024  67.916  1.00  0.00    -0.206 A  
HETATM    5 CL   UNL     1     -11.395   6.189  69.272  1.00  0.00    -0.462 Cl 
HETATM    6  C   UNL     1     -10.000   7.115  67.098  1.00  0.00    -0.270 A  
HETATM    7  C   UNL     1      -9.158   6.883  65.991  1.00  0.00    -0.101 A  
HETATM    8  C   UNL     1      -8.635   5.618  65.733  1.00  0.00    -0.148 A  
ENDROOT
BRANCH   6   9
HETATM    9  C   UNL     1     -10.454   8.537  67.405  1.00  0.00    -0.280 C  
BRANCH   9  10
HETATM   10  C   UNL     1      -9.483   9.258  68.372  1.00  0.00    -0.138 C  
BRANCH  10  11
HETATM   11  N   UNL     1      -9.797   9.143  69.785  1.00  0.00    -0.173 NA 
HETATM   12  C   UNL     1      -9.016   8.554  70.742  1.00  0.00    -0.165 A  
HETATM   13  C   UNL     1     -10.893   9.654  70.421  1.00  0.00    -0.295 A  
HETATM   14  N   UNL     1     -10.924   9.309  71.687  1.00  0.00    -0.373 NA 
HETATM   15  C   UNL     1      -9.757   8.625  71.898  1.00  0.00    -0.313 A  
ENDBRANCH  10  11
ENDBRANCH   9  10
BRANCH   9  16
HETATM   16  O   UNL     1     -10.604   9.318  66.207  1.00  0.00    -0.105 OA 
BRANCH  16  17
HETATM   17  C   UNL     1      -9.946  10.587  66.273  1.00  0.00    -0.221 C  
BRANCH  17  18
HETATM   18  C   UNL     1     -10.811  11.615  65.594  1.00  0.00    -0.330 A  
HETATM   19  C   UNL     1     -11.647  12.488  66.313  1.00  0.00    -0.394 A  
HETATM   20 CL   UNL     1     -11.786  12.436  68.037  1.00  0.00    -0.408 Cl 
HETATM   21  C   UNL     1     -12.368  13.574  64.270  1.00  0.00    -0.392 A  
HETATM   22  C   UNL     1     -12.414  13.459  65.656  1.00  0.00    -0.519 A  
HETATM   23  C   UNL     1     -11.571  12.699  63.537  1.00  0.00    -0.584 A  
HETATM   24  C   UNL     1     -10.807  11.728  64.189  1.00  0.00    -0.360 A  
HETATM   25 CL   UNL     1      -9.851  10.684  63.189  1.00  0.00    -0.369 Cl 
ENDBRANCH  17  18
ENDBRANCH  16  17
ENDBRANCH   9  16
ENDBRANCH   6   9
TORSDOF 6
ENDMDL
MODEL       93
REMARK 921   NORMALIZED FREE ENERGY PREDICTED BY IDOCK:   -5.28 KCAL/MOL
REMARK 922        TOTAL FREE ENERGY PREDICTED BY IDOCK:   -8.15 KCAL/MOL
REMARK 923 INTER-LIGAND FREE ENERGY PREDICTED BY IDOCK:   -7.28 KCAL/MOL
REMARK 924 INTRA-LIGAND FREE ENERGY PREDICTED BY IDOCK:   -0.87 KCAL/MOL
REMARK 927      BINDING AFFINITY PREDICTED BY RF-SCORE:    0.00 PKD
ROOT
HETATM    1 CL   UNL     1     -11.160  15.808  64.576  1.00  0.00    -0.389 Cl 
HETATM    2  C   UNL     1     -11.004  14.613  65.802  1.00  0.00    -0.330 A  
HETATM    3  C   UNL     1      -9.779  14.435  66.444  1.00  0.00    -0.320 A  
HETATM    4  C   UNL     1      -9.663  13.499  67.476  1.00  0.00    -0.228 A  
HETATM    5 CL   UNL     1      -8.116  13.329  68.227  1.00  0.00    -0.151 Cl 
HETATM    6  C   UNL     1     -10.772  12.737  67.879  1.00  0.00    -0.235 A  
HETATM    7  C   UNL     1     -11.987  12.913  67.186  1.00  0.00    -0.374 A  
HETATM    8  C   UNL     1     -12.105  13.846  66.158  1.00  0.00    -0.478 A  
ENDROOT
BRANCH   6   9
HETATM    9  C   UNL     1     -10.723  11.789  69.070  1.00  0.00    -0.169 C  
BRANCH   9  10
HETATM   10  C   UNL     1     -12.129  11.545  69.673  1.00  0.00    -0.296 C  
BRANCH  10  11
HETATM   11  N   UNL     1     -12.533  12.461  70.724  1.00  0.00    -0.324 NA 
HETATM   12  C   UNL     1     -13.210  12.134  71.867  1.00  0.00    -0.369 A  
HETATM   13  C   UNL     1     -12.257  13.798  70.791  1.00  0.00    -0.363 A  
HETATM   14  N   UNL     1     -12.831  14.361  71.829  1.00  0.00    -0.331 NA 
HETATM   15  C   UNL     1     -13.426  13.331  72.508  1.00  0.00    -0.516 A  
ENDBRANCH  10  11
ENDBRANCH   9  10
BRANCH   9  16
HETATM   16  O   UNL     1     -10.126  10.527  68.724  1.00  0.00    -0.173 OA 
BRANCH  16  17
HETATM   17  C   UNL     1      -9.497   9.876  69.830  1.00  0.00    -0.220 C  
BRANCH  17  18
HETATM   18  C   UNL     1      -9.880   8.420  69.815  1.00  0.00    -0.187 A  
HETATM   19  C   UNL     1      -9.361   7.515  68.872  1.00  0.00    -0.142 A  
HETATM   20 CL   UNL     1      -8.266   7.999  67.621  1.00  0.00    -0.123 Cl 
HETATM   21  C   UNL     1     -10.585   5.678  69.871  1.00  0.00    -0.399 A  
HETATM   22  C   UNL     1      -9.709   6.159  68.903  1.00  0.00    -0.151 A  
HETATM   23  C   UNL     1     -11.134   6.562  70.795  1.00  0.00    -0.354 A  
HETATM   24  C   UNL     1     -10.792   7.917  70.765  1.00  0.00    -0.232 A  
HETATM   25 CL   UNL     1     -11.532   8.938  71.953  1.00  0.00    -0.426 Cl 
ENDBRANCH  17  18
ENDBRANCH  16  17
ENDBRANCH   9  16
ENDBRANCH   6   9
TORSDOF 6
ENDMDL
MODEL       94
REMARK 921   NORMALIZED FREE ENERGY PREDICTED BY IDOCK:   -5.28 KCAL/MOL
REMARK 922        TOTAL FREE ENERGY PREDICTED BY IDOCK:   -8.15 KCAL/MOL
REMARK 923 INTER-LIGAND FREE ENERGY PREDICTED BY IDOCK:   -7.10 KCAL/MOL
REMARK 924 INTRA-LIGAND FREE ENERGY PREDICTED BY IDOCK:   -1.04 KCAL/MOL
REMARK 927      BINDING AFFINITY PREDICTED BY RF-SCORE:    0.00 PKD
ROOT
HETATM    1 CL   UNL     1      -8.670   4.000  66.225  1.00  0.00    -0.114 Cl 
HETATM    2  C   UNL     1      -9.338   5.463  66.835  1.00  0.00    -0.127 A  
HETATM    3  C   UNL     1     -10.171   5.431  67.952  1.00  0.00    -0.219 A  
HETATM    4  C   UNL     1     -10.675   6.624  68.478  1.00  0.00    -0.256 A  
HETATM    5 CL   UNL     1     -11.702   6.512  69.864  1.00  0.00    -0.436 Cl 
HETATM    6  C   UNL     1     -10.345   7.859  67.897  1.00  0.00    -0.281 A  
HETATM    7  C   UNL     1      -9.530   7.856  66.746  1.00  0.00    -0.257 A  
HETATM    8  C   UNL     1      -9.027   6.668  66.219  1.00  0.00    -0.168 A  
ENDROOT
BRANCH   6   9
HETATM    9  C   UNL     1     -10.776   9.189  68.502  1.00  0.00    -0.116 C  
BRANCH   9  10
HETATM   10  C   UNL     1      -9.618   9.879  69.266  1.00  0.00    -0.205 C  
BRANCH  10  11
HETATM   11  N   UNL     1      -9.269   9.292  70.547  1.00  0.00    -0.243 NA 
HETATM   12  C   UNL     1      -8.013   8.944  70.963  1.00  0.00    -0.151 A  
HETATM   13  C   UNL     1     -10.119   9.042  71.588  1.00  0.00    -0.335 A  
HETATM   14  N   UNL     1      -9.507   8.433  72.578  1.00  0.00    -0.288 NA 
HETATM   15  C   UNL     1      -8.193   8.370  72.199  1.00  0.00    -0.147 A  
ENDBRANCH  10  11
ENDBRANCH   9  10
BRANCH   9  16
HETATM   16  O   UNL     1     -11.291  10.087  67.504  1.00  0.00    -0.212 OA 
BRANCH  16  17
HETATM   17  C   UNL     1     -10.480  11.249  67.314  1.00  0.00    -0.214 C  
BRANCH  17  18
HETATM   18  C   UNL     1     -11.058  12.064  66.189  1.00  0.00    -0.367 A  
HETATM   19  C   UNL     1     -10.863  11.725  64.837  1.00  0.00    -0.298 A  
HETATM   20 CL   UNL     1      -9.912  10.365  64.346  1.00  0.00    -0.405 Cl 
HETATM   21  C   UNL     1     -12.222  13.594  64.110  1.00  0.00    -0.450 A  
HETATM   22  C   UNL     1     -11.442  12.481  63.811  1.00  0.00    -0.542 A  
HETATM   23  C   UNL     1     -12.402  13.965  65.440  1.00  0.00    -0.494 A  
HETATM   24  C   UNL     1     -11.823  13.214  66.466  1.00  0.00    -0.400 A  
HETATM   25 CL   UNL     1     -12.101  13.759  68.087  1.00  0.00    -0.378 Cl 
ENDBRANCH  17  18
ENDBRANCH  16  17
ENDBRANCH   9  16
ENDBRANCH   6   9
TORSDOF 6
ENDMDL
MODEL       95
REMARK 921   NORMALIZED FREE ENERGY PREDICTED BY IDOCK:   -5.24 KCAL/MOL
REMARK 922        TOTAL FREE ENERGY PREDICTED BY IDOCK:   -8.10 KCAL/MOL
REMARK 923 INTER-LIGAND FREE ENERGY PREDICTED BY IDOCK:   -7.27 KCAL/MOL
REMARK 924 INTRA-LIGAND FREE ENERGY PREDICTED BY IDOCK:   -0.83 KCAL/MOL
REMARK 927      BINDING AFFINITY PREDICTED BY RF-SCORE:    0.00 PKD
ROOT
HETATM    1 CL   UNL     1      -8.098   7.846  70.852  1.00  0.00    -0.099 Cl 
HETATM    2  C   UNL     1      -8.806   9.099  69.910  1.00  0.00    -0.169 A  
HETATM    3  C   UNL     1      -9.992   9.695  70.331  1.00  0.00    -0.330 A  
HETATM    4  C   UNL     1     -10.543  10.748  69.593  1.00  0.00    -0.175 A  
HETATM    5 CL   UNL     1     -12.017  11.440  70.171  1.00  0.00    -0.431 Cl 
HETATM    6  C   UNL     1      -9.907  11.216  68.432  1.00  0.00    -0.188 A  
HETATM    7  C   UNL     1      -8.727  10.569  68.011  1.00  0.00    -0.128 A  
HETATM    8  C   UNL     1      -8.177   9.520  68.745  1.00  0.00    -0.112 A  
ENDROOT
BRANCH   6   9
HETATM    9  C   UNL     1     -10.406  12.432  67.660  1.00  0.00    -0.216 C  
BRANCH   9  10
HETATM   10  C   UNL     1     -11.686  12.115  66.846  1.00  0.00    -0.301 C  
BRANCH  10  11
HETATM   11  N   UNL     1     -11.552  12.190  65.403  1.00  0.00    -0.349 NA 
HETATM   12  C   UNL     1     -12.549  12.478  64.511  1.00  0.00    -0.421 A  
HETATM   13  C   UNL     1     -10.398  12.051  64.683  1.00  0.00    -0.287 A  
HETATM   14  N   UNL     1     -10.625  12.095  63.390  1.00  0.00    -0.442 NA 
HETATM   15  C   UNL     1     -11.963  12.363  63.273  1.00  0.00    -0.416 A  
ENDBRANCH  10  11
ENDBRANCH   9  10
BRANCH   9  16
HETATM   16  O   UNL     1     -10.657  13.549  68.529  1.00  0.00    -0.238 OA 
BRANCH  16  17
HETATM   17  C   UNL     1     -11.616  14.471  68.004  1.00  0.00    -0.336 C  
BRANCH  17  18
HETATM   18  C   UNL     1     -10.994  15.840  67.954  1.00  0.00    -0.324 A  
HETATM   19  C   UNL     1     -10.760  16.603  69.112  1.00  0.00    -0.342 A  
HETATM   20 CL   UNL     1     -11.201  16.055  70.693  1.00  0.00    -0.390 Cl 
HETATM   21  C   UNL     1      -9.760  18.384  67.809  1.00  0.00    -0.316 A  
HETATM   22  C   UNL     1     -10.147  17.860  69.038  1.00  0.00    -0.292 A  
HETATM   23  C   UNL     1     -10.010  17.659  66.648  1.00  0.00    -0.328 A  
HETATM   24  C   UNL     1     -10.624  16.406  66.717  1.00  0.00    -0.238 A  
HETATM   25 CL   UNL     1     -10.896  15.584  65.217  1.00  0.00    -0.401 Cl 
ENDBRANCH  17  18
ENDBRANCH  16  17
ENDBRANCH   9  16
ENDBRANCH   6   9
TORSDOF 6
ENDMDL
MODEL       96
REMARK 921   NORMALIZED FREE ENERGY PREDICTED BY IDOCK:   -5.24 KCAL/MOL
REMARK 922        TOTAL FREE ENERGY PREDICTED BY IDOCK:   -8.10 KCAL/MOL
REMARK 923 INTER-LIGAND FREE ENERGY PREDICTED BY IDOCK:   -7.12 KCAL/MOL
REMARK 924 INTRA-LIGAND FREE ENERGY PREDICTED BY IDOCK:   -0.98 KCAL/MOL
REMARK 927      BINDING AFFINITY PREDICTED BY RF-SCORE:    0.00 PKD
ROOT
HETATM    1 CL   UNL     1     -12.118   6.517  72.296  1.00  0.00    -0.284 Cl 
HETATM    2  C   UNL     1     -11.790   7.857  71.270  1.00  0.00    -0.296 A  
HETATM    3  C   UNL     1     -12.267   9.122  71.609  1.00  0.00    -0.433 A  
HETATM    4  C   UNL     1     -11.959  10.222  70.803  1.00  0.00    -0.360 A  
HETATM    5 CL   UNL     1     -12.586  11.760  71.281  1.00  0.00    -0.449 Cl 
HETATM    6  C   UNL     1     -11.166  10.067  69.655  1.00  0.00    -0.285 A  
HETATM    7  C   UNL     1     -10.727   8.770  69.318  1.00  0.00    -0.166 A  
HETATM    8  C   UNL     1     -11.033   7.673  70.120  1.00  0.00    -0.255 A  
ENDROOT
BRANCH   6   9
HETATM    9  C   UNL     1     -10.710  11.251  68.810  1.00  0.00    -0.203 C  
BRANCH   9  10
HETATM   10  C   UNL     1      -9.331  10.995  68.152  1.00  0.00    -0.173 C  
BRANCH  10  11
HETATM   11  N   UNL     1      -9.352  10.727  66.725  1.00  0.00    -0.160 NA 
HETATM   12  C   UNL     1      -9.740   9.560  66.126  1.00  0.00    -0.258 A  
HETATM   13  C   UNL     1      -9.051  11.610  65.726  1.00  0.00    -0.120 A  
HETATM   14  N   UNL     1      -9.090  11.037  64.545  1.00  0.00    -0.156 NA 
HETATM   15  C   UNL     1      -9.521   9.759  64.784  1.00  0.00    -0.251 A  
ENDBRANCH  10  11
ENDBRANCH   9  10
BRANCH   9  16
HETATM   16  O   UNL     1     -11.671  11.582  67.793  1.00  0.00    -0.514 OA 
BRANCH  16  17
HETATM   17  C   UNL     1     -12.260  12.873  67.969  1.00  0.00     0.031 C  
BRANCH  17  18
HETATM   18  C   UNL     1     -11.542  13.856  67.083  1.00  0.00    -0.391 A  
HETATM   19  C   UNL     1     -10.653  14.819  67.594  1.00  0.00    -0.262 A  
HETATM   20 CL   UNL     1     -10.332  14.986  69.286  1.00  0.00    -0.242 Cl 
HETATM   21  C   UNL     1     -10.170  15.640  65.366  1.00  0.00    -0.401 A  
HETATM   22  C   UNL     1      -9.973  15.698  66.742  1.00  0.00    -0.258 A  
HETATM   23  C   UNL     1     -11.068  14.715  64.843  1.00  0.00    -0.409 A  
HETATM   24  C   UNL     1     -11.751  13.838  65.690  1.00  0.00    -0.347 A  
HETATM   25 CL   UNL     1     -12.851  12.727  64.943  1.00  0.00    -0.482 Cl 
ENDBRANCH  17  18
ENDBRANCH  16  17
ENDBRANCH   9  16
ENDBRANCH   6   9
TORSDOF 6
ENDMDL
MODEL       97
REMARK 921   NORMALIZED FREE ENERGY PREDICTED BY IDOCK:   -5.23 KCAL/MOL
REMARK 922        TOTAL FREE ENERGY PREDICTED BY IDOCK:   -8.08 KCAL/MOL
REMARK 923 INTER-LIGAND FREE ENERGY PREDICTED BY IDOCK:   -7.11 KCAL/MOL
REMARK 924 INTRA-LIGAND FREE ENERGY PREDICTED BY IDOCK:   -0.97 KCAL/MOL
REMARK 927      BINDING AFFINITY PREDICTED BY RF-SCORE:    0.00 PKD
ROOT
HETATM    1 CL   UNL     1     -12.897  11.734  63.691  1.00  0.00    -0.499 Cl 
HETATM    2  C   UNL     1     -12.092  12.900  64.666  1.00  0.00    -0.418 A  
HETATM    3  C   UNL     1     -12.352  12.957  66.033  1.00  0.00    -0.330 A  
HETATM    4  C   UNL     1     -11.662  13.870  66.836  1.00  0.00    -0.399 A  
HETATM    5 CL   UNL     1     -12.035  13.888  68.524  1.00  0.00    -0.400 Cl 
HETATM    6  C   UNL     1     -10.701  14.729  66.279  1.00  0.00    -0.313 A  
HETATM    7  C   UNL     1     -10.486  14.673  64.886  1.00  0.00    -0.415 A  
HETATM    8  C   UNL     1     -11.173  13.764  64.085  1.00  0.00    -0.238 A  
ENDROOT
BRANCH   6   9
HETATM    9  C   UNL     1      -9.844  15.659  67.129  1.00  0.00    -0.229 C  
BRANCH   9  10
HETATM   10  C   UNL     1     -10.697  16.729  67.855  1.00  0.00    -0.347 C  
BRANCH  10  11
HETATM   11  N   UNL     1     -10.457  18.105  67.458  1.00  0.00    -0.397 NA 
HETATM   12  C   UNL     1     -10.433  18.585  66.177  1.00  0.00    -0.413 A  
HETATM   13  C   UNL     1     -10.274  19.173  68.291  1.00  0.00    -0.401 A  
HETATM   14  N   UNL     1     -10.000  20.269  67.621  1.00  0.00    -0.420 NA 
HETATM   15  C   UNL     1     -10.099  19.913  66.302  1.00  0.00    -0.502 A  
ENDBRANCH  10  11
ENDBRANCH   9  10
BRANCH   9  16
HETATM   16  O   UNL     1      -9.066  14.932  68.095  1.00  0.00    -0.170 OA 
BRANCH  16  17
HETATM   17  C   UNL     1      -7.741  14.636  67.647  1.00  0.00    -0.177 C  
BRANCH  17  18
HETATM   18  C   UNL     1      -7.227  13.447  68.413  1.00  0.00    -0.110 A  
HETATM   19  C   UNL     1      -7.614  12.130  68.106  1.00  0.00    -0.125 A  
HETATM   20 CL   UNL     1      -8.742  11.759  66.848  1.00  0.00    -0.183 Cl 
HETATM   21  C   UNL     1      -6.180  11.240  69.845  1.00  0.00    -0.137 A  
HETATM   22  C   UNL     1      -7.092  11.039  68.814  1.00  0.00    -0.086 A  
HETATM   23  C   UNL     1      -5.807  12.537  70.185  1.00  0.00    -0.160 A  
HETATM   24  C   UNL     1      -6.328  13.627  69.483  1.00  0.00    -0.114 A  
HETATM   25 CL   UNL     1      -5.807  15.202  69.985  1.00  0.00    -0.129 Cl 
ENDBRANCH  17  18
ENDBRANCH  16  17
ENDBRANCH   9  16
ENDBRANCH   6   9
TORSDOF 6
ENDMDL
MODEL       98
REMARK 921   NORMALIZED FREE ENERGY PREDICTED BY IDOCK:   -5.22 KCAL/MOL
REMARK 922        TOTAL FREE ENERGY PREDICTED BY IDOCK:   -8.07 KCAL/MOL
REMARK 923 INTER-LIGAND FREE ENERGY PREDICTED BY IDOCK:   -7.30 KCAL/MOL
REMARK 924 INTRA-LIGAND FREE ENERGY PREDICTED BY IDOCK:   -0.78 KCAL/MOL
REMARK 927      BINDING AFFINITY PREDICTED BY RF-SCORE:    0.00 PKD
ROOT
HETATM    1 CL   UNL     1      -5.900  17.621  66.816  1.00  0.00    -0.185 Cl 
HETATM    2  C   UNL     1      -7.224  16.523  66.822  1.00  0.00    -0.225 A  
HETATM    3  C   UNL     1      -8.371  16.818  66.090  1.00  0.00    -0.301 A  
HETATM    4  C   UNL     1      -9.429  15.905  66.053  1.00  0.00    -0.354 A  
HETATM    5 CL   UNL     1     -10.823  16.336  65.127  1.00  0.00    -0.389 Cl 
HETATM    6  C   UNL     1      -9.344  14.684  66.743  1.00  0.00    -0.275 A  
HETATM    7  C   UNL     1      -8.185  14.430  67.504  1.00  0.00    -0.201 A  
HETATM    8  C   UNL     1      -7.130  15.339  67.543  1.00  0.00    -0.224 A  
ENDROOT
BRANCH   6   9
HETATM    9  C   UNL     1     -10.420  13.610  66.640  1.00  0.00    -0.272 C  
BRANCH   9  10
HETATM   10  C   UNL     1     -11.798  14.124  67.124  1.00  0.00    -0.423 C  
BRANCH  10  11
HETATM   11  N   UNL     1     -11.905  14.404  68.545  1.00  0.00    -0.338 NA 
HETATM   12  C   UNL     1     -11.849  13.485  69.557  1.00  0.00    -0.334 A  
HETATM   13  C   UNL     1     -12.015  15.636  69.127  1.00  0.00    -0.310 A  
HETATM   14  N   UNL     1     -12.172  15.545  70.427  1.00  0.00    -0.388 NA 
HETATM   15  C   UNL     1     -12.067  14.208  70.706  1.00  0.00    -0.349 A  
ENDBRANCH  10  11
ENDBRANCH   9  10
BRANCH   9  16
HETATM   16  O   UNL     1     -10.542  13.104  65.300  1.00  0.00    -0.296 OA 
BRANCH  16  17
HETATM   17  C   UNL     1     -11.281  11.883  65.220  1.00  0.00    -0.295 C  
BRANCH  17  18
HETATM   18  C   UNL     1     -10.311  10.733  65.184  1.00  0.00    -0.341 A  
HETATM   19  C   UNL     1     -10.092   9.899  66.296  1.00  0.00    -0.241 A  
HETATM   20 CL   UNL     1     -10.885  10.143  67.815  1.00  0.00    -0.328 Cl 
HETATM   21  C   UNL     1      -8.523   8.542  65.044  1.00  0.00    -0.183 A  
HETATM   22  C   UNL     1      -9.209   8.814  66.223  1.00  0.00    -0.261 A  
HETATM   23  C   UNL     1      -8.703   9.372  63.941  1.00  0.00    -0.225 A  
HETATM   24  C   UNL     1      -9.581  10.457  64.011  1.00  0.00    -0.317 A  
HETATM   25 CL   UNL     1      -9.733  11.434  62.588  1.00  0.00    -0.240 Cl 
ENDBRANCH  17  18
ENDBRANCH  16  17
ENDBRANCH   9  16
ENDBRANCH   6   9
TORSDOF 6
ENDMDL
MODEL       99
REMARK 921   NORMALIZED FREE ENERGY PREDICTED BY IDOCK:   -5.22 KCAL/MOL
REMARK 922        TOTAL FREE ENERGY PREDICTED BY IDOCK:   -8.07 KCAL/MOL
REMARK 923 INTER-LIGAND FREE ENERGY PREDICTED BY IDOCK:   -6.80 KCAL/MOL
REMARK 924 INTRA-LIGAND FREE ENERGY PREDICTED BY IDOCK:   -1.27 KCAL/MOL
REMARK 927      BINDING AFFINITY PREDICTED BY RF-SCORE:    0.00 PKD
ROOT
HETATM    1 CL   UNL     1      -6.765   8.582  64.240  1.00  0.00    -0.070 Cl 
HETATM    2  C   UNL     1      -7.866   9.482  65.206  1.00  0.00    -0.111 A  
HETATM    3  C   UNL     1      -7.415  10.591  65.918  1.00  0.00    -0.147 A  
HETATM    4  C   UNL     1      -8.319  11.354  66.664  1.00  0.00    -0.172 A  
HETATM    5 CL   UNL     1      -7.692  12.716  67.525  1.00  0.00    -0.150 Cl 
HETATM    6  C   UNL     1      -9.682  11.018  66.698  1.00  0.00    -0.226 A  
HETATM    7  C   UNL     1     -10.101   9.869  65.996  1.00  0.00    -0.314 A  
HETATM    8  C   UNL     1      -9.203   9.107  65.253  1.00  0.00    -0.243 A  
ENDROOT
BRANCH   6   9
HETATM    9  C   UNL     1     -10.721  11.882  67.402  1.00  0.00    -0.232 C  
BRANCH   9  10
HETATM   10  C   UNL     1     -11.736  12.493  66.405  1.00  0.00    -0.397 C  
BRANCH  10  11
HETATM   11  N   UNL     1     -11.356  13.765  65.815  1.00  0.00    -0.301 NA 
HETATM   12  C   UNL     1     -10.484  14.675  66.348  1.00  0.00    -0.295 A  
HETATM   13  C   UNL     1     -11.749  14.249  64.599  1.00  0.00    -0.430 A  
HETATM   14  N   UNL     1     -11.294  15.463  64.391  1.00  0.00    -0.298 NA 
HETATM   15  C   UNL     1     -10.502  15.737  65.475  1.00  0.00    -0.403 A  
ENDBRANCH  10  11
ENDBRANCH   9  10
BRANCH   9  16
HETATM   16  O   UNL     1     -11.429  11.147  68.415  1.00  0.00    -0.262 OA 
BRANCH  16  17
HETATM   17  C   UNL     1     -10.630  10.853  69.564  1.00  0.00    -0.175 C  
BRANCH  17  18
HETATM   18  C   UNL     1     -11.182   9.623  70.234  1.00  0.00    -0.324 A  
HETATM   19  C   UNL     1     -10.635   8.344  70.027  1.00  0.00    -0.235 A  
HETATM   20 CL   UNL     1      -9.305   8.062  68.956  1.00  0.00    -0.148 Cl 
HETATM   21  C   UNL     1     -12.217   7.352  71.570  1.00  0.00    -0.368 A  
HETATM   22  C   UNL     1     -11.147   7.223  70.691  1.00  0.00    -0.287 A  
HETATM   23  C   UNL     1     -12.793   8.604  71.766  1.00  0.00    -0.397 A  
HETATM   24  C   UNL     1     -12.287   9.724  71.102  1.00  0.00    -0.359 A  
HETATM   25 CL   UNL     1     -13.075  11.237  71.408  1.00  0.00    -0.454 Cl 
ENDBRANCH  17  18
ENDBRANCH  16  17
ENDBRANCH   9  16
ENDBRANCH   6   9
TORSDOF 6
ENDMDL
MODEL      100
REMARK 921   NORMALIZED FREE ENERGY PREDICTED BY IDOCK:   -5.22 KCAL/MOL
REMARK 922        TOTAL FREE ENERGY PREDICTED BY IDOCK:   -8.07 KCAL/MOL
REMARK 923 INTER-LIGAND FREE ENERGY PREDICTED BY IDOCK:   -7.80 KCAL/MOL
REMARK 924 INTRA-LIGAND FREE ENERGY PREDICTED BY IDOCK:   -0.27 KCAL/MOL
REMARK 927      BINDING AFFINITY PREDICTED BY RF-SCORE:    0.00 PKD
ROOT
HETATM    1 CL   UNL     1     -12.446  14.926  64.320  1.00  0.00    -0.374 Cl 
HETATM    2  C   UNL     1     -11.981  13.728  65.462  1.00  0.00    -0.384 A  
HETATM    3  C   UNL     1     -11.988  14.029  66.823  1.00  0.00    -0.473 A  
HETATM    4  C   UNL     1     -11.659  13.041  67.756  1.00  0.00    -0.340 A  
HETATM    5 CL   UNL     1     -11.686  13.483  69.427  1.00  0.00    -0.358 Cl 
HETATM    6  C   UNL     1     -11.326  11.743  67.336  1.00  0.00    -0.376 A  
HETATM    7  C   UNL     1     -11.292  11.479  65.952  1.00  0.00    -0.174 A  
HETATM    8  C   UNL     1     -11.620  12.462  65.020  1.00  0.00    -0.392 A  
ENDROOT
BRANCH   6   9
HETATM    9  C   UNL     1     -11.071  10.606  68.318  1.00  0.00    -0.279 C  
BRANCH   9  10
HETATM   10  C   UNL     1      -9.606  10.107  68.258  1.00  0.00    -0.141 C  
BRANCH  10  11
HETATM   11  N   UNL     1      -9.383   8.893  67.494  1.00  0.00    -0.135 NA 
HETATM   12  C   UNL     1     -10.349   8.056  67.004  1.00  0.00    -0.344 A  
HETATM   13  C   UNL     1      -8.178   8.403  67.075  1.00  0.00    -0.107 A  
HETATM   14  N   UNL     1      -8.309   7.244  66.473  1.00  0.00    -0.116 NA 
HETATM   15  C   UNL     1      -9.659   7.020  66.421  1.00  0.00    -0.099 A  
ENDBRANCH  10  11
ENDBRANCH   9  10
BRANCH   9  16
HETATM   16  O   UNL     1     -11.391  10.986  69.668  1.00  0.00    -0.246 OA 
BRANCH  16  17
HETATM   17  C   UNL     1     -10.896  10.068  70.647  1.00  0.00    -0.297 C  
BRANCH  17  18
HETATM   18  C   UNL     1     -12.036   9.209  71.125  1.00  0.00    -0.374 A  
HETATM   19  C   UNL     1     -13.190   9.753  71.716  1.00  0.00    -0.436 A  
HETATM   20 CL   UNL     1     -13.390  11.451  71.983  1.00  0.00    -0.518 Cl 
HETATM   21  C   UNL     1     -14.179   7.553  71.948  1.00  0.00    -0.477 A  
HETATM   22  C   UNL     1     -14.251   8.931  72.120  1.00  0.00    -0.463 A  
HETATM   23  C   UNL     1     -13.033   6.992  71.393  1.00  0.00    -0.395 A  
HETATM   24  C   UNL     1     -11.972   7.808  70.992  1.00  0.00    -0.262 A  
HETATM   25 CL   UNL     1     -10.587   7.015  70.317  1.00  0.00    -0.237 Cl 
ENDBRANCH  17  18
ENDBRANCH  16  17
ENDBRANCH   9  16
ENDBRANCH   6   9
TORSDOF 6
ENDMDL
MODEL      101
REMARK 921   NORMALIZED FREE ENERGY PREDICTED BY IDOCK:   -5.21 KCAL/MOL
REMARK 922        TOTAL FREE ENERGY PREDICTED BY IDOCK:   -8.05 KCAL/MOL
REMARK 923 INTER-LIGAND FREE ENERGY PREDICTED BY IDOCK:   -7.21 KCAL/MOL
REMARK 924 INTRA-LIGAND FREE ENERGY PREDICTED BY IDOCK:   -0.85 KCAL/MOL
REMARK 927      BINDING AFFINITY PREDICTED BY RF-SCORE:    0.00 PKD
ROOT
HETATM    1 CL   UNL     1      -6.265   5.229  70.931  1.00  0.00    -0.022 Cl 
HETATM    2  C   UNL     1      -7.457   6.248  70.226  1.00  0.00    -0.094 A  
HETATM    3  C   UNL     1      -8.786   5.832  70.182  1.00  0.00    -0.140 A  
HETATM    4  C   UNL     1      -9.764   6.680  69.655  1.00  0.00    -0.154 A  
HETATM    5 CL   UNL     1     -11.392   6.099  69.629  1.00  0.00    -0.496 Cl 
HETATM    6  C   UNL     1      -9.423   7.955  69.175  1.00  0.00    -0.155 A  
HETATM    7  C   UNL     1      -8.065   8.334  69.200  1.00  0.00    -0.120 A  
HETATM    8  C   UNL     1      -7.088   7.490  69.724  1.00  0.00    -0.068 A  
ENDROOT
BRANCH   6   9
HETATM    9  C   UNL     1     -10.468   8.956  68.698  1.00  0.00    -0.193 C  
BRANCH   9  10
HETATM   10  C   UNL     1     -10.498  10.226  69.584  1.00  0.00    -0.253 C  
BRANCH  10  11
HETATM   11  N   UNL     1     -11.509  10.246  70.626  1.00  0.00    -0.329 NA 
HETATM   12  C   UNL     1     -11.723   9.274  71.565  1.00  0.00    -0.380 A  
HETATM   13  C   UNL     1     -12.384  11.261  70.894  1.00  0.00    -0.388 A  
HETATM   14  N   UNL     1     -13.225  10.938  71.849  1.00  0.00    -0.460 NA 
HETATM   15  C   UNL     1     -12.819   9.701  72.276  1.00  0.00    -0.325 A  
ENDBRANCH  10  11
ENDBRANCH   9  10
BRANCH   9  16
HETATM   16  O   UNL     1     -10.257   9.335  67.327  1.00  0.00    -0.216 OA 
BRANCH  16  17
HETATM   17  C   UNL     1      -9.884  10.706  67.170  1.00  0.00    -0.175 C  
BRANCH  17  18
HETATM   18  C   UNL     1     -10.644  11.284  66.006  1.00  0.00    -0.314 A  
HETATM   19  C   UNL     1     -11.653  12.250  66.172  1.00  0.00    -0.390 A  
HETATM   20 CL   UNL     1     -12.138  12.833  67.727  1.00  0.00    -0.304 Cl 
HETATM   21  C   UNL     1     -12.000  12.384  63.778  1.00  0.00    -0.600 A  
HETATM   22  C   UNL     1     -12.320  12.795  65.068  1.00  0.00    -0.559 A  
HETATM   23  C   UNL     1     -11.026  11.407  63.593  1.00  0.00    -0.443 A  
HETATM   24  C   UNL     1     -10.360  10.859  64.693  1.00  0.00    -0.338 A  
HETATM   25 CL   UNL     1      -9.168   9.646  64.360  1.00  0.00    -0.290 Cl 
ENDBRANCH  17  18
ENDBRANCH  16  17
ENDBRANCH   9  16
ENDBRANCH   6   9
TORSDOF 6
ENDMDL
MODEL      102
REMARK 921   NORMALIZED FREE ENERGY PREDICTED BY IDOCK:   -5.20 KCAL/MOL
REMARK 922        TOTAL FREE ENERGY PREDICTED BY IDOCK:   -8.05 KCAL/MOL
REMARK 923 INTER-LIGAND FREE ENERGY PREDICTED BY IDOCK:   -7.09 KCAL/MOL
REMARK 924 INTRA-LIGAND FREE ENERGY PREDICTED BY IDOCK:   -0.96 KCAL/MOL
REMARK 927      BINDING AFFINITY PREDICTED BY RF-SCORE:    0.00 PKD
ROOT
HETATM    1 CL   UNL     1     -10.736  19.837  66.809  1.00  0.00    -0.580 Cl 
HETATM    2  C   UNL     1     -10.344  18.179  67.045  1.00  0.00    -0.380 A  
HETATM    3  C   UNL     1     -10.528  17.595  68.296  1.00  0.00    -0.376 A  
HETATM    4  C   UNL     1     -10.257  16.236  68.477  1.00  0.00    -0.247 A  
HETATM    5 CL   UNL     1     -10.505  15.576  70.056  1.00  0.00    -0.314 Cl 
HETATM    6  C   UNL     1      -9.807  15.447  67.406  1.00  0.00    -0.216 A  
HETATM    7  C   UNL     1      -9.596  16.075  66.161  1.00  0.00    -0.366 A  
HETATM    8  C   UNL     1      -9.864  17.429  65.979  1.00  0.00    -0.201 A  
ENDROOT
BRANCH   6   9
HETATM    9  C   UNL     1      -9.608  13.941  67.525  1.00  0.00    -0.229 C  
BRANCH   9  10
HETATM   10  C   UNL     1      -8.336  13.588  68.336  1.00  0.00    -0.140 C  
BRANCH  10  11
HETATM   11  N   UNL     1      -7.780  12.269  68.097  1.00  0.00    -0.128 NA 
HETATM   12  C   UNL     1      -7.366  11.771  66.891  1.00  0.00    -0.104 A  
HETATM   13  C   UNL     1      -7.512  11.315  69.038  1.00  0.00    -0.116 A  
HETATM   14  N   UNL     1      -7.087  10.199  68.490  1.00  0.00    -0.073 NA 
HETATM   15  C   UNL     1      -6.990  10.475  67.151  1.00  0.00    -0.089 A  
ENDBRANCH  10  11
ENDBRANCH   9  10
BRANCH   9  16
HETATM   16  O   UNL     1     -10.747  13.299  68.121  1.00  0.00    -0.236 OA 
BRANCH  16  17
HETATM   17  C   UNL     1     -11.828  13.100  67.206  1.00  0.00    -0.367 C  
BRANCH  17  18
HETATM   18  C   UNL     1     -11.309  12.371  65.996  1.00  0.00    -0.397 A  
HETATM   19  C   UNL     1     -11.319  12.945  64.711  1.00  0.00    -0.315 A  
HETATM   20 CL   UNL     1     -11.962  14.521  64.400  1.00  0.00    -0.478 Cl 
HETATM   21  C   UNL     1     -10.260  10.983  63.762  1.00  0.00    -0.425 A  
HETATM   22  C   UNL     1     -10.796  12.257  63.609  1.00  0.00    -0.522 A  
HETATM   23  C   UNL     1     -10.268  10.385  65.019  1.00  0.00    -0.334 A  
HETATM   24  C   UNL     1     -10.791  11.067  66.121  1.00  0.00    -0.146 A  
HETATM   25 CL   UNL     1     -10.761  10.236  67.641  1.00  0.00    -0.315 Cl 
ENDBRANCH  17  18
ENDBRANCH  16  17
ENDBRANCH   9  16
ENDBRANCH   6   9
TORSDOF 6
ENDMDL
MODEL      103
REMARK 921   NORMALIZED FREE ENERGY PREDICTED BY IDOCK:   -5.20 KCAL/MOL
REMARK 922        TOTAL FREE ENERGY PREDICTED BY IDOCK:   -8.04 KCAL/MOL
REMARK 923 INTER-LIGAND FREE ENERGY PREDICTED BY IDOCK:   -6.98 KCAL/MOL
REMARK 924 INTRA-LIGAND FREE ENERGY PREDICTED BY IDOCK:   -1.06 KCAL/MOL
REMARK 927      BINDING AFFINITY PREDICTED BY RF-SCORE:    0.00 PKD
ROOT
HETATM    1 CL   UNL     1     -13.601   9.060  72.675  1.00  0.00    -0.480 Cl 
HETATM    2  C   UNL     1     -12.491   9.681  71.518  1.00  0.00    -0.386 A  
HETATM    3  C   UNL     1     -11.204   9.151  71.439  1.00  0.00    -0.419 A  
HETATM    4  C   UNL     1     -10.316   9.620  70.466  1.00  0.00    -0.295 A  
HETATM    5 CL   UNL     1      -8.736   8.920  70.426  1.00  0.00    -0.175 Cl 
HETATM    6  C   UNL     1     -10.710  10.618  69.560  1.00  0.00    -0.290 A  
HETATM    7  C   UNL     1     -12.005  11.160  69.688  1.00  0.00    -0.429 A  
HETATM    8  C   UNL     1     -12.892  10.695  70.657  1.00  0.00    -0.404 A  
ENDROOT
BRANCH   6   9
HETATM    9  C   UNL     1      -9.819  11.079  68.413  1.00  0.00    -0.182 C  
BRANCH   9  10
HETATM   10  C   UNL     1     -10.145  10.337  67.093  1.00  0.00    -0.210 C  
BRANCH  10  11
HETATM   11  N   UNL     1      -9.617   8.990  66.978  1.00  0.00    -0.165 NA 
HETATM   12  C   UNL     1      -8.295   8.638  66.948  1.00  0.00    -0.108 A  
HETATM   13  C   UNL     1     -10.341   7.831  66.944  1.00  0.00    -0.326 A  
HETATM   14  N   UNL     1      -9.572   6.784  66.755  1.00  0.00    -0.161 NA 
HETATM   15  C   UNL     1      -8.293   7.277  66.759  1.00  0.00    -0.119 A  
ENDBRANCH  10  11
ENDBRANCH   9  10
BRANCH   9  16
HETATM   16  O   UNL     1      -9.915  12.498  68.200  1.00  0.00    -0.212 OA 
BRANCH  16  17
HETATM   17  C   UNL     1      -8.965  12.994  67.254  1.00  0.00    -0.212 C  
BRANCH  17  18
HETATM   18  C   UNL     1      -9.499  14.268  66.656  1.00  0.00    -0.302 A  
HETATM   19  C   UNL     1     -10.228  14.286  65.453  1.00  0.00    -0.371 A  
HETATM   20 CL   UNL     1     -10.544  12.854  64.533  1.00  0.00    -0.374 Cl 
HETATM   21  C   UNL     1     -10.536  16.684  65.606  1.00  0.00    -0.282 A  
HETATM   22  C   UNL     1     -10.742  15.482  64.937  1.00  0.00    -0.415 A  
HETATM   23  C   UNL     1      -9.791  16.693  66.782  1.00  0.00    -0.280 A  
HETATM   24  C   UNL     1      -9.274  15.502  67.298  1.00  0.00    -0.209 A  
HETATM   25 CL   UNL     1      -8.357  15.617  68.763  1.00  0.00    -0.174 Cl 
ENDBRANCH  17  18
ENDBRANCH  16  17
ENDBRANCH   9  16
ENDBRANCH   6   9
TORSDOF 6
ENDMDL
MODEL      104
REMARK 921   NORMALIZED FREE ENERGY PREDICTED BY IDOCK:   -5.20 KCAL/MOL
REMARK 922        TOTAL FREE ENERGY PREDICTED BY IDOCK:   -8.04 KCAL/MOL
REMARK 923 INTER-LIGAND FREE ENERGY PREDICTED BY IDOCK:   -7.07 KCAL/MOL
REMARK 924 INTRA-LIGAND FREE ENERGY PREDICTED BY IDOCK:   -0.97 KCAL/MOL
REMARK 927      BINDING AFFINITY PREDICTED BY RF-SCORE:    0.00 PKD
ROOT
HETATM    1 CL   UNL     1      -9.988  20.038  67.707  1.00  0.00    -0.537 Cl 
HETATM    2  C   UNL     1     -10.196  18.333  67.622  1.00  0.00    -0.382 A  
HETATM    3  C   UNL     1     -10.423  17.724  66.389  1.00  0.00    -0.297 A  
HETATM    4  C   UNL     1     -10.542  16.333  66.311  1.00  0.00    -0.255 A  
HETATM    5 CL   UNL     1     -10.824  15.644  64.751  1.00  0.00    -0.440 Cl 
HETATM    6  C   UNL     1     -10.429  15.539  67.464  1.00  0.00    -0.282 A  
HETATM    7  C   UNL     1     -10.235  16.187  68.702  1.00  0.00    -0.244 A  
HETATM    8  C   UNL     1     -10.117  17.573  68.782  1.00  0.00    -0.363 A  
ENDROOT
BRANCH   6   9
HETATM    9  C   UNL     1     -10.438  14.016  67.413  1.00  0.00    -0.263 C  
BRANCH   9  10
HETATM   10  C   UNL     1      -9.099  13.448  66.879  1.00  0.00    -0.231 C  
BRANCH  10  11
HETATM   11  N   UNL     1      -8.105  13.122  67.886  1.00  0.00    -0.145 NA 
HETATM   12  C   UNL     1      -7.780  11.868  68.326  1.00  0.00    -0.127 A  
HETATM   13  C   UNL     1      -7.275  13.999  68.525  1.00  0.00    -0.109 A  
HETATM   14  N   UNL     1      -6.545  13.399  69.438  1.00  0.00    -0.101 NA 
HETATM   15  C   UNL     1      -6.851  12.069  69.319  1.00  0.00    -0.066 A  
ENDBRANCH  10  11
ENDBRANCH   9  10
BRANCH   9  16
HETATM   16  O   UNL     1     -10.721  13.441  68.700  1.00  0.00    -0.248 OA 
BRANCH  16  17
HETATM   17  C   UNL     1     -12.010  12.826  68.774  1.00  0.00    -0.240 C  
BRANCH  17  18
HETATM   18  C   UNL     1     -11.883  11.527  69.523  1.00  0.00    -0.419 A  
HETATM   19  C   UNL     1     -11.282  10.388  68.956  1.00  0.00    -0.234 A  
HETATM   20 CL   UNL     1     -10.669  10.365  67.338  1.00  0.00    -0.321 Cl 
HETATM   21  C   UNL     1     -11.611   9.125  70.998  1.00  0.00    -0.370 A  
HETATM   22  C   UNL     1     -11.146   9.202  69.689  1.00  0.00    -0.103 A  
HETATM   23  C   UNL     1     -12.237  10.231  71.567  1.00  0.00    -0.449 A  
HETATM   24  C   UNL     1     -12.377  11.415  70.838  1.00  0.00    -0.381 A  
HETATM   25 CL   UNL     1     -13.174  12.733  71.631  1.00  0.00    -0.466 Cl 
ENDBRANCH  17  18
ENDBRANCH  16  17
ENDBRANCH   9  16
ENDBRANCH   6   9
TORSDOF 6
ENDMDL
MODEL      105
REMARK 921   NORMALIZED FREE ENERGY PREDICTED BY IDOCK:   -5.19 KCAL/MOL
REMARK 922        TOTAL FREE ENERGY PREDICTED BY IDOCK:   -8.03 KCAL/MOL
REMARK 923 INTER-LIGAND FREE ENERGY PREDICTED BY IDOCK:   -6.83 KCAL/MOL
REMARK 924 INTRA-LIGAND FREE ENERGY PREDICTED BY IDOCK:   -1.20 KCAL/MOL
REMARK 927      BINDING AFFINITY PREDICTED BY RF-SCORE:    0.00 PKD
ROOT
HETATM    1 CL   UNL     1     -12.949  12.523  64.148  1.00  0.00    -0.326 Cl 
HETATM    2  C   UNL     1     -11.736  13.094  65.225  1.00  0.00    -0.344 A  
HETATM    3  C   UNL     1     -11.807  12.775  66.579  1.00  0.00    -0.471 A  
HETATM    4  C   UNL     1     -10.796  13.197  67.448  1.00  0.00    -0.255 A  
HETATM    5 CL   UNL     1     -10.948  12.768  69.115  1.00  0.00    -0.228 Cl 
HETATM    6  C   UNL     1      -9.702  13.934  66.967  1.00  0.00    -0.250 A  
HETATM    7  C   UNL     1      -9.676  14.272  65.599  1.00  0.00    -0.238 A  
HETATM    8  C   UNL     1     -10.683  13.854  64.732  1.00  0.00    -0.437 A  
ENDROOT
BRANCH   6   9
HETATM    9  C   UNL     1      -8.521  14.317  67.852  1.00  0.00    -0.168 C  
BRANCH   9  10
HETATM   10  C   UNL     1      -7.319  13.359  67.658  1.00  0.00    -0.168 C  
BRANCH  10  11
HETATM   11  N   UNL     1      -6.724  12.838  68.875  1.00  0.00    -0.094 NA 
HETATM   12  C   UNL     1      -6.568  11.518  69.199  1.00  0.00    -0.102 A  
HETATM   13  C   UNL     1      -6.157  13.567  69.882  1.00  0.00    -0.127 A  
HETATM   14  N   UNL     1      -5.780  12.803  70.881  1.00  0.00    -0.290 NA 
HETATM   15  C   UNL     1      -6.029  11.523  70.463  1.00  0.00    -0.093 A  
ENDBRANCH  10  11
ENDBRANCH   9  10
BRANCH   9  16
HETATM   16  O   UNL     1      -8.096  15.670  67.618  1.00  0.00    -0.136 OA 
BRANCH  16  17
HETATM   17  C   UNL     1      -8.199  16.504  68.775  1.00  0.00    -0.248 C  
BRANCH  17  18
HETATM   18  C   UNL     1      -8.787  17.828  68.366  1.00  0.00    -0.285 A  
HETATM   19  C   UNL     1      -7.995  18.974  68.168  1.00  0.00    -0.300 A  
HETATM   20 CL   UNL     1      -6.282  18.976  68.413  1.00  0.00    -0.232 Cl 
HETATM   21  C   UNL     1      -9.935  20.279  67.533  1.00  0.00    -0.557 A  
HETATM   22  C   UNL     1      -8.565  20.184  67.753  1.00  0.00    -0.318 A  
HETATM   23  C   UNL     1     -10.741  19.165  67.753  1.00  0.00    -0.463 A  
HETATM   24  C   UNL     1     -10.176  17.957  68.170  1.00  0.00    -0.382 A  
HETATM   25 CL   UNL     1     -11.263  16.631  68.420  1.00  0.00    -0.316 Cl 
ENDBRANCH  17  18
ENDBRANCH  16  17
ENDBRANCH   9  16
ENDBRANCH   6   9
TORSDOF 6
ENDMDL
MODEL      106
REMARK 921   NORMALIZED FREE ENERGY PREDICTED BY IDOCK:   -5.19 KCAL/MOL
REMARK 922        TOTAL FREE ENERGY PREDICTED BY IDOCK:   -8.03 KCAL/MOL
REMARK 923 INTER-LIGAND FREE ENERGY PREDICTED BY IDOCK:   -7.02 KCAL/MOL
REMARK 924 INTRA-LIGAND FREE ENERGY PREDICTED BY IDOCK:   -1.00 KCAL/MOL
REMARK 927      BINDING AFFINITY PREDICTED BY RF-SCORE:    0.00 PKD
ROOT
HETATM    1 CL   UNL     1     -13.135  11.872  63.490  1.00  0.00    -0.371 Cl 
HETATM    2  C   UNL     1     -11.986  12.594  64.546  1.00  0.00    -0.399 A  
HETATM    3  C   UNL     1     -12.242  12.649  65.914  1.00  0.00    -0.375 A  
HETATM    4  C   UNL     1     -11.288  13.190  66.781  1.00  0.00    -0.316 A  
HETATM    5 CL   UNL     1     -11.672  13.229  68.466  1.00  0.00    -0.367 Cl 
HETATM    6  C   UNL     1     -10.066  13.674  66.286  1.00  0.00    -0.301 A  
HETATM    7  C   UNL     1      -9.850  13.638  64.893  1.00  0.00    -0.039 A  
HETATM    8  C   UNL     1     -10.800  13.099  64.028  1.00  0.00    -0.348 A  
ENDROOT
BRANCH   6   9
HETATM    9  C   UNL     1      -8.951  14.167  67.201  1.00  0.00    -0.225 C  
BRANCH   9  10
HETATM   10  C   UNL     1      -7.889  13.070  67.461  1.00  0.00    -0.178 C  
BRANCH  10  11
HETATM   11  N   UNL     1      -8.402  11.723  67.637  1.00  0.00    -0.138 NA 
HETATM   12  C   UNL     1      -8.370  10.717  66.710  1.00  0.00    -0.136 A  
HETATM   13  C   UNL     1      -8.950  11.202  68.776  1.00  0.00    -0.131 A  
HETATM   14  N   UNL     1      -9.390   9.979  68.586  1.00  0.00    -0.151 NA 
HETATM   15  C   UNL     1      -9.031   9.667  67.302  1.00  0.00    -0.134 A  
ENDBRANCH  10  11
ENDBRANCH   9  10
BRANCH   9  16
HETATM   16  O   UNL     1      -8.307  15.339  66.672  1.00  0.00    -0.256 OA 
BRANCH  16  17
HETATM   17  C   UNL     1      -7.962  16.297  67.676  1.00  0.00    -0.144 C  
BRANCH  17  18
HETATM   18  C   UNL     1      -8.685  17.585  67.383  1.00  0.00    -0.231 A  
HETATM   19  C   UNL     1      -9.932  17.895  67.956  1.00  0.00    -0.333 A  
HETATM   20 CL   UNL     1     -10.765  16.811  69.016  1.00  0.00    -0.336 Cl 
HETATM   21  C   UNL     1      -9.971  20.050  66.850  1.00  0.00    -0.584 A  
HETATM   22  C   UNL     1     -10.564  19.116  67.693  1.00  0.00    -0.546 A  
HETATM   23  C   UNL     1      -8.752  19.751  66.249  1.00  0.00    -0.403 A  
HETATM   24  C   UNL     1      -8.119  18.532  66.506  1.00  0.00    -0.280 A  
HETATM   25 CL   UNL     1      -6.607  18.251  65.707  1.00  0.00    -0.300 Cl 
ENDBRANCH  17  18
ENDBRANCH  16  17
ENDBRANCH   9  16
ENDBRANCH   6   9
TORSDOF 6
ENDMDL
MODEL      107
REMARK 921   NORMALIZED FREE ENERGY PREDICTED BY IDOCK:   -5.19 KCAL/MOL
REMARK 922        TOTAL FREE ENERGY PREDICTED BY IDOCK:   -8.02 KCAL/MOL
REMARK 923 INTER-LIGAND FREE ENERGY PREDICTED BY IDOCK:   -6.75 KCAL/MOL
REMARK 924 INTRA-LIGAND FREE ENERGY PREDICTED BY IDOCK:   -1.27 KCAL/MOL
REMARK 927      BINDING AFFINITY PREDICTED BY RF-SCORE:    0.00 PKD
ROOT
HETATM    1 CL   UNL     1     -10.462  20.129  66.784  1.00  0.00    -0.513 Cl 
HETATM    2  C   UNL     1     -10.171  18.459  67.075  1.00  0.00    -0.379 A  
HETATM    3  C   UNL     1     -10.547  17.893  68.292  1.00  0.00    -0.314 A  
HETATM    4  C   UNL     1     -10.357  16.526  68.512  1.00  0.00    -0.289 A  
HETATM    5 CL   UNL     1     -10.843  15.890  70.044  1.00  0.00    -0.326 Cl 
HETATM    6  C   UNL     1      -9.797  15.712  67.514  1.00  0.00    -0.228 A  
HETATM    7  C   UNL     1      -9.394  16.320  66.308  1.00  0.00    -0.360 A  
HETATM    8  C   UNL     1      -9.582  17.682  66.087  1.00  0.00    -0.206 A  
ENDROOT
BRANCH   6   9
HETATM    9  C   UNL     1      -9.676  14.200  67.664  1.00  0.00    -0.228 C  
BRANCH   9  10
HETATM   10  C   UNL     1      -8.461  13.801  68.539  1.00  0.00    -0.117 C  
BRANCH  10  11
HETATM   11  N   UNL     1      -7.850  12.522  68.225  1.00  0.00    -0.138 NA 
HETATM   12  C   UNL     1      -7.216  12.192  67.059  1.00  0.00    -0.067 A  
HETATM   13  C   UNL     1      -7.744  11.444  69.059  1.00  0.00    -0.064 A  
HETATM   14  N   UNL     1      -7.208  10.411  68.449  1.00  0.00    -0.078 NA 
HETATM   15  C   UNL     1      -6.873  10.869  67.202  1.00  0.00    -0.093 A  
ENDBRANCH  10  11
ENDBRANCH   9  10
BRANCH   9  16
HETATM   16  O   UNL     1     -10.872  13.622  68.215  1.00  0.00    -0.237 OA 
BRANCH  16  17
HETATM   17  C   UNL     1     -11.722  13.033  67.228  1.00  0.00    -0.375 C  
BRANCH  17  18
HETATM   18  C   UNL     1     -11.076  11.769  66.726  1.00  0.00    -0.360 A  
HETATM   19  C   UNL     1     -10.963  10.615  67.521  1.00  0.00    -0.310 A  
HETATM   20 CL   UNL     1     -11.520  10.553  69.159  1.00  0.00    -0.316 Cl 
HETATM   21  C   UNL     1      -9.910   9.397  65.710  1.00  0.00    -0.345 A  
HETATM   22  C   UNL     1     -10.389   9.442  67.016  1.00  0.00    -0.322 A  
HETATM   23  C   UNL     1      -9.985  10.538  64.916  1.00  0.00    -0.401 A  
HETATM   24  C   UNL     1     -10.555  11.711  65.418  1.00  0.00    -0.280 A  
HETATM   25 CL   UNL     1     -10.597  13.078  64.354  1.00  0.00    -0.403 Cl 
ENDBRANCH  17  18
ENDBRANCH  16  17
ENDBRANCH   9  16
ENDBRANCH   6   9
TORSDOF 6
ENDMDL
MODEL      108
REMARK 921   NORMALIZED FREE ENERGY PREDICTED BY IDOCK:   -5.19 KCAL/MOL
REMARK 922        TOTAL FREE ENERGY PREDICTED BY IDOCK:   -8.02 KCAL/MOL
REMARK 923 INTER-LIGAND FREE ENERGY PREDICTED BY IDOCK:   -7.54 KCAL/MOL
REMARK 924 INTRA-LIGAND FREE ENERGY PREDICTED BY IDOCK:   -0.49 KCAL/MOL
REMARK 927      BINDING AFFINITY PREDICTED BY RF-SCORE:    0.00 PKD
ROOT
HETATM    1 CL   UNL     1     -11.945  11.756  63.571  1.00  0.00    -0.557 Cl 
HETATM    2  C   UNL     1     -11.874  12.476  65.131  1.00  0.00    -0.405 A  
HETATM    3  C   UNL     1     -11.341  11.759  66.200  1.00  0.00    -0.342 A  
HETATM    4  C   UNL     1     -11.236  12.360  67.458  1.00  0.00    -0.294 A  
HETATM    5 CL   UNL     1     -10.567  11.414  68.740  1.00  0.00    -0.218 Cl 
HETATM    6  C   UNL     1     -11.657  13.685  67.655  1.00  0.00    -0.381 A  
HETATM    7  C   UNL     1     -12.226  14.372  66.563  1.00  0.00    -0.358 A  
HETATM    8  C   UNL     1     -12.331  13.775  65.309  1.00  0.00    -0.491 A  
ENDROOT
BRANCH   6   9
HETATM    9  C   UNL     1     -11.458  14.419  68.976  1.00  0.00    -0.283 C  
BRANCH   9  10
HETATM   10  C   UNL     1     -12.182  13.708  70.147  1.00  0.00    -0.342 C  
BRANCH  10  11
HETATM   11  N   UNL     1     -12.714  14.577  71.181  1.00  0.00    -0.316 NA 
HETATM   12  C   UNL     1     -12.041  15.031  72.283  1.00  0.00    -0.362 A  
HETATM   13  C   UNL     1     -13.956  15.146  71.208  1.00  0.00    -0.463 A  
HETATM   14  N   UNL     1     -14.159  15.816  72.319  1.00  0.00    -0.452 NA 
HETATM   15  C   UNL     1     -12.969  15.752  72.995  1.00  0.00    -0.525 A  
ENDBRANCH  10  11
ENDBRANCH   9  10
BRANCH   9  16
HETATM   16  O   UNL     1     -10.065  14.571  69.297  1.00  0.00    -0.180 OA 
BRANCH  16  17
HETATM   17  C   UNL     1      -9.285  15.075  68.210  1.00  0.00    -0.184 C  
BRANCH  17  18
HETATM   18  C   UNL     1      -7.945  15.513  68.738  1.00  0.00    -0.163 A  
HETATM   19  C   UNL     1      -7.636  16.864  68.977  1.00  0.00    -0.210 A  
HETATM   20 CL   UNL     1      -8.750  18.147  68.651  1.00  0.00    -0.306 Cl 
HETATM   21  C   UNL     1      -5.431  16.276  69.794  1.00  0.00    -0.148 A  
HETATM   22  C   UNL     1      -6.392  17.238  69.502  1.00  0.00    -0.235 A  
HETATM   23  C   UNL     1      -5.706  14.936  69.536  1.00  0.00    -0.099 A  
HETATM   24  C   UNL     1      -6.944  14.559  69.009  1.00  0.00    -0.121 A  
HETATM   25 CL   UNL     1      -7.189  12.868  68.719  1.00  0.00    -0.100 Cl 
ENDBRANCH  17  18
ENDBRANCH  16  17
ENDBRANCH   9  16
ENDBRANCH   6   9
TORSDOF 6
ENDMDL
MODEL      109
REMARK 921   NORMALIZED FREE ENERGY PREDICTED BY IDOCK:   -5.18 KCAL/MOL
REMARK 922        TOTAL FREE ENERGY PREDICTED BY IDOCK:   -8.01 KCAL/MOL
REMARK 923 INTER-LIGAND FREE ENERGY PREDICTED BY IDOCK:   -7.21 KCAL/MOL
REMARK 924 INTRA-LIGAND FREE ENERGY PREDICTED BY IDOCK:   -0.80 KCAL/MOL
REMARK 927      BINDING AFFINITY PREDICTED BY RF-SCORE:    0.00 PKD
ROOT
HETATM    1 CL   UNL     1      -9.986   6.903  74.142  1.00  0.00    -0.358 Cl 
HETATM    2  C   UNL     1     -10.191   7.891  72.749  1.00  0.00    -0.314 A  
HETATM    3  C   UNL     1     -11.456   8.378  72.426  1.00  0.00    -0.451 A  
HETATM    4  C   UNL     1     -11.616   9.222  71.323  1.00  0.00    -0.349 A  
HETATM    5 CL   UNL     1     -13.212   9.789  70.979  1.00  0.00    -0.386 Cl 
HETATM    6  C   UNL     1     -10.512   9.591  70.539  1.00  0.00    -0.358 A  
HETATM    7  C   UNL     1      -9.251   9.053  70.869  1.00  0.00    -0.320 A  
HETATM    8  C   UNL     1      -9.089   8.212  71.967  1.00  0.00    -0.241 A  
ENDROOT
BRANCH   6   9
HETATM    9  C   UNL     1     -10.618  10.597  69.398  1.00  0.00    -0.239 C  
BRANCH   9  10
HETATM   10  C   UNL     1     -11.280   9.979  68.142  1.00  0.00    -0.127 C  
BRANCH  10  11
HETATM   11  N   UNL     1     -10.455   9.058  67.381  1.00  0.00    -0.267 NA 
HETATM   12  C   UNL     1      -9.353   9.384  66.638  1.00  0.00    -0.163 A  
HETATM   13  C   UNL     1     -10.591   7.700  67.321  1.00  0.00    -0.318 A  
HETATM   14  N   UNL     1      -9.735   7.163  66.482  1.00  0.00    -0.166 NA 
HETATM   15  C   UNL     1      -8.957   8.205  66.052  1.00  0.00    -0.171 A  
ENDBRANCH  10  11
ENDBRANCH   9  10
BRANCH   9  16
HETATM   16  O   UNL     1     -11.344  11.774  69.791  1.00  0.00    -0.244 OA 
BRANCH  16  17
HETATM   17  C   UNL     1     -12.130  12.333  68.735  1.00  0.00    -0.112 C  
BRANCH  17  18
HETATM   18  C   UNL     1     -11.662  13.740  68.479  1.00  0.00    -0.391 A  
HETATM   19  C   UNL     1     -10.906  14.086  67.344  1.00  0.00    -0.282 A  
HETATM   20 CL   UNL     1     -10.413  12.922  66.162  1.00  0.00    -0.275 Cl 
HETATM   21  C   UNL     1     -10.861  16.415  68.010  1.00  0.00    -0.342 A  
HETATM   22  C   UNL     1     -10.513  15.411  67.113  1.00  0.00    -0.290 A  
HETATM   23  C   UNL     1     -11.583  16.090  69.154  1.00  0.00    -0.337 A  
HETATM   24  C   UNL     1     -11.973  14.769  69.390  1.00  0.00    -0.303 A  
HETATM   25 CL   UNL     1     -12.864  14.464  70.844  1.00  0.00    -0.404 Cl 
ENDBRANCH  17  18
ENDBRANCH  16  17
ENDBRANCH   9  16
ENDBRANCH   6   9
TORSDOF 6
ENDMDL
MODEL      110
REMARK 921   NORMALIZED FREE ENERGY PREDICTED BY IDOCK:   -5.17 KCAL/MOL
REMARK 922        TOTAL FREE ENERGY PREDICTED BY IDOCK:   -8.01 KCAL/MOL
REMARK 923 INTER-LIGAND FREE ENERGY PREDICTED BY IDOCK:   -6.77 KCAL/MOL
REMARK 924 INTRA-LIGAND FREE ENERGY PREDICTED BY IDOCK:   -1.24 KCAL/MOL
REMARK 927      BINDING AFFINITY PREDICTED BY RF-SCORE:    0.00 PKD
ROOT
HETATM    1 CL   UNL     1     -11.596  16.443  68.843  1.00  0.00    -0.237 Cl 
HETATM    2  C   UNL     1     -11.182  14.774  68.833  1.00  0.00    -0.266 A  
HETATM    3  C   UNL     1      -9.978  14.363  68.264  1.00  0.00    -0.232 A  
HETATM    4  C   UNL     1      -9.616  13.014  68.299  1.00  0.00    -0.213 A  
HETATM    5 CL   UNL     1      -8.110  12.573  67.574  1.00  0.00    -0.164 Cl 
HETATM    6  C   UNL     1     -10.452  12.065  68.910  1.00  0.00    -0.154 A  
HETATM    7  C   UNL     1     -11.680  12.505  69.445  1.00  0.00    -0.383 A  
HETATM    8  C   UNL     1     -12.043  13.850  69.410  1.00  0.00    -0.384 A  
ENDROOT
BRANCH   6   9
HETATM    9  C   UNL     1     -10.049  10.604  69.074  1.00  0.00    -0.213 C  
BRANCH   9  10
HETATM   10  C   UNL     1     -11.137   9.783  69.810  1.00  0.00    -0.237 C  
BRANCH  10  11
HETATM   11  N   UNL     1     -10.688   9.038  70.972  1.00  0.00    -0.245 NA 
HETATM   12  C   UNL     1      -9.408   8.626  71.225  1.00  0.00    -0.224 A  
HETATM   13  C   UNL     1     -11.447   8.671  72.048  1.00  0.00    -0.367 A  
HETATM   14  N   UNL     1     -10.763   7.937  72.896  1.00  0.00    -0.368 NA 
HETATM   15  C   UNL     1      -9.490   7.906  72.392  1.00  0.00    -0.192 A  
ENDBRANCH  10  11
ENDBRANCH   9  10
BRANCH   9  16
HETATM   16  O   UNL     1      -9.758   9.986  67.809  1.00  0.00    -0.147 OA 
BRANCH  16  17
HETATM   17  C   UNL     1     -10.870   9.985  66.910  1.00  0.00    -0.082 C  
BRANCH  17  18
HETATM   18  C   UNL     1     -10.409  10.492  65.570  1.00  0.00    -0.287 A  
HETATM   19  C   UNL     1      -9.447   9.813  64.800  1.00  0.00    -0.251 A  
HETATM   20 CL   UNL     1      -8.680   8.359  65.338  1.00  0.00    -0.194 Cl 
HETATM   21  C   UNL     1      -9.623  11.454  63.025  1.00  0.00    -0.397 A  
HETATM   22  C   UNL     1      -9.063  10.290  63.540  1.00  0.00    -0.288 A  
HETATM   23  C   UNL     1     -10.554  12.158  63.784  1.00  0.00    -0.482 A  
HETATM   24  C   UNL     1     -10.938  11.687  65.043  1.00  0.00    -0.273 A  
HETATM   25 CL   UNL     1     -12.099  12.635  65.912  1.00  0.00    -0.488 Cl 
ENDBRANCH  17  18
ENDBRANCH  16  17
ENDBRANCH   9  16
ENDBRANCH   6   9
TORSDOF 6
ENDMDL
MODEL      111
REMARK 921   NORMALIZED FREE ENERGY PREDICTED BY IDOCK:   -5.17 KCAL/MOL
REMARK 922        TOTAL FREE ENERGY PREDICTED BY IDOCK:   -8.00 KCAL/MOL
REMARK 923 INTER-LIGAND FREE ENERGY PREDICTED BY IDOCK:   -6.85 KCAL/MOL
REMARK 924 INTRA-LIGAND FREE ENERGY PREDICTED BY IDOCK:   -1.15 KCAL/MOL
REMARK 927      BINDING AFFINITY PREDICTED BY RF-SCORE:    0.00 PKD
ROOT
HETATM    1 CL   UNL     1     -10.770   4.713  72.615  1.00  0.00    -0.263 Cl 
HETATM    2  C   UNL     1     -10.551   6.113  71.641  1.00  0.00    -0.230 A  
HETATM    3  C   UNL     1      -9.423   6.912  71.821  1.00  0.00    -0.155 A  
HETATM    4  C   UNL     1      -9.218   8.022  70.997  1.00  0.00    -0.149 A  
HETATM    5 CL   UNL     1      -7.800   8.970  71.277  1.00  0.00    -0.157 Cl 
HETATM    6  C   UNL     1     -10.135   8.339  69.982  1.00  0.00    -0.196 A  
HETATM    7  C   UNL     1     -11.284   7.533  69.848  1.00  0.00    -0.124 A  
HETATM    8  C   UNL     1     -11.491   6.427  70.668  1.00  0.00    -0.426 A  
ENDROOT
BRANCH   6   9
HETATM    9  C   UNL     1      -9.896   9.469  68.988  1.00  0.00    -0.176 C  
BRANCH   9  10
HETATM   10  C   UNL     1     -10.577   9.193  67.624  1.00  0.00    -0.242 C  
BRANCH  10  11
HETATM   11  N   UNL     1      -9.681   8.897  66.520  1.00  0.00    -0.232 NA 
HETATM   12  C   UNL     1      -8.877   7.797  66.403  1.00  0.00    -0.155 A  
HETATM   13  C   UNL     1      -9.529   9.629  65.376  1.00  0.00    -0.278 A  
HETATM   14  N   UNL     1      -8.583   9.138  64.609  1.00  0.00    -0.182 NA 
HETATM   15  C   UNL     1      -8.172   7.993  65.239  1.00  0.00    -0.146 A  
ENDBRANCH  10  11
ENDBRANCH   9  10
BRANCH   9  16
HETATM   16  O   UNL     1     -10.349  10.734  69.500  1.00  0.00    -0.215 OA 
BRANCH  16  17
HETATM   17  C   UNL     1     -11.718  11.012  69.193  1.00  0.00    -0.333 C  
BRANCH  17  18
HETATM   18  C   UNL     1     -12.245  12.006  70.193  1.00  0.00    -0.309 A  
HETATM   19  C   UNL     1     -12.893  11.610  71.377  1.00  0.00    -0.356 A  
HETATM   20 CL   UNL     1     -13.177   9.950  71.774  1.00  0.00    -0.506 Cl 
HETATM   21  C   UNL     1     -13.161  13.916  72.072  1.00  0.00    -0.503 A  
HETATM   22  C   UNL     1     -13.343  12.557  72.307  1.00  0.00    -0.475 A  
HETATM   23  C   UNL     1     -12.550  14.330  70.892  1.00  0.00    -0.426 A  
HETATM   24  C   UNL     1     -12.103  13.389  69.961  1.00  0.00    -0.334 A  
HETATM   25 CL   UNL     1     -11.359  14.003  68.522  1.00  0.00    -0.287 Cl 
ENDBRANCH  17  18
ENDBRANCH  16  17
ENDBRANCH   9  16
ENDBRANCH   6   9
TORSDOF 6
ENDMDL
MODEL      112
REMARK 921   NORMALIZED FREE ENERGY PREDICTED BY IDOCK:   -5.17 KCAL/MOL
REMARK 922        TOTAL FREE ENERGY PREDICTED BY IDOCK:   -8.00 KCAL/MOL
REMARK 923 INTER-LIGAND FREE ENERGY PREDICTED BY IDOCK:   -7.29 KCAL/MOL
REMARK 924 INTRA-LIGAND FREE ENERGY PREDICTED BY IDOCK:   -0.71 KCAL/MOL
REMARK 927      BINDING AFFINITY PREDICTED BY RF-SCORE:    0.00 PKD
ROOT
HETATM    1 CL   UNL     1     -12.399  15.656  64.049  1.00  0.00    -0.049 Cl 
HETATM    2  C   UNL     1     -11.985  14.335  65.069  1.00  0.00    -0.410 A  
HETATM    3  C   UNL     1     -11.606  14.573  66.389  1.00  0.00    -0.370 A  
HETATM    4  C   UNL     1     -11.318  13.498  67.235  1.00  0.00    -0.315 A  
HETATM    5 CL   UNL     1     -10.853  13.864  68.859  1.00  0.00    -0.272 Cl 
HETATM    6  C   UNL     1     -11.413  12.176  66.770  1.00  0.00    -0.418 A  
HETATM    7  C   UNL     1     -11.764  11.969  65.420  1.00  0.00    -0.317 A  
HETATM    8  C   UNL     1     -12.051  13.039  64.575  1.00  0.00    -0.468 A  
ENDROOT
BRANCH   6   9
HETATM    9  C   UNL     1     -11.220  10.971  67.683  1.00  0.00    -0.305 C  
BRANCH   9  10
HETATM   10  C   UNL     1      -9.725  10.598  67.840  1.00  0.00    -0.161 C  
BRANCH  10  11
HETATM   11  N   UNL     1      -9.088  10.031  66.665  1.00  0.00    -0.146 NA 
HETATM   12  C   UNL     1      -9.446   8.873  66.031  1.00  0.00    -0.252 A  
HETATM   13  C   UNL     1      -8.064  10.582  65.947  1.00  0.00    -0.154 A  
HETATM   14  N   UNL     1      -7.661   9.783  64.986  1.00  0.00    -0.120 NA 
HETATM   15  C   UNL     1      -8.518   8.715  65.028  1.00  0.00    -0.173 A  
ENDBRANCH  10  11
ENDBRANCH   9  10
BRANCH   9  16
HETATM   16  O   UNL     1     -11.797  11.189  68.982  1.00  0.00    -0.311 OA 
BRANCH  16  17
HETATM   17  C   UNL     1     -11.049  10.589  70.042  1.00  0.00    -0.308 C  
BRANCH  17  18
HETATM   18  C   UNL     1     -11.904   9.544  70.706  1.00  0.00    -0.350 A  
HETATM   19  C   UNL     1     -11.715   8.167  70.487  1.00  0.00    -0.063 A  
HETATM   20 CL   UNL     1     -10.510   7.552  69.408  1.00  0.00    -0.220 Cl 
HETATM   21  C   UNL     1     -13.500   7.616  72.030  1.00  0.00    -0.220 A  
HETATM   22  C   UNL     1     -12.504   7.215  71.146  1.00  0.00    -0.400 A  
HETATM   23  C   UNL     1     -13.724   8.974  72.238  1.00  0.00    -0.550 A  
HETATM   24  C   UNL     1     -12.941   9.926  71.580  1.00  0.00    -0.434 A  
HETATM   25 CL   UNL     1     -13.300  11.591  71.900  1.00  0.00    -0.507 Cl 
ENDBRANCH  17  18
ENDBRANCH  16  17
ENDBRANCH   9  16
ENDBRANCH   6   9
TORSDOF 6
ENDMDL
MODEL      113
REMARK 921   NORMALIZED FREE ENERGY PREDICTED BY IDOCK:   -5.16 KCAL/MOL
REMARK 922        TOTAL FREE ENERGY PREDICTED BY IDOCK:   -7.99 KCAL/MOL
REMARK 923 INTER-LIGAND FREE ENERGY PREDICTED BY IDOCK:   -6.90 KCAL/MOL
REMARK 924 INTRA-LIGAND FREE ENERGY PREDICTED BY IDOCK:   -1.10 KCAL/MOL
REMARK 927      BINDING AFFINITY PREDICTED BY RF-SCORE:    0.00 PKD
ROOT
HETATM    1 CL   UNL     1     -13.593  15.809  73.068  1.00  0.00    -0.659 Cl 
HETATM    2  C   UNL     1     -12.812  15.128  71.696  1.00  0.00    -0.364 A  
HETATM    3  C   UNL     1     -12.159  15.959  70.788  1.00  0.00    -0.393 A  
HETATM    4  C   UNL     1     -11.481  15.403  69.699  1.00  0.00    -0.320 A  
HETATM    5 CL   UNL     1     -10.693  16.491  68.611  1.00  0.00    -0.314 Cl 
HETATM    6  C   UNL     1     -11.445  14.011  69.512  1.00  0.00    -0.331 A  
HETATM    7  C   UNL     1     -12.146  13.199  70.428  1.00  0.00    -0.392 A  
HETATM    8  C   UNL     1     -12.823  13.751  71.513  1.00  0.00    -0.445 A  
ENDROOT
BRANCH   6   9
HETATM    9  C   UNL     1     -10.626  13.354  68.408  1.00  0.00    -0.248 C  
BRANCH   9  10
HETATM   10  C   UNL     1      -9.104  13.488  68.660  1.00  0.00    -0.008 C  
BRANCH  10  11
HETATM   11  N   UNL     1      -8.279  12.419  68.125  1.00  0.00    -0.165 NA 
HETATM   12  C   UNL     1      -7.767  12.349  66.858  1.00  0.00     0.021 A  
HETATM   13  C   UNL     1      -7.816  11.329  68.806  1.00  0.00    -0.139 A  
HETATM   14  N   UNL     1      -7.162  10.507  68.017  1.00  0.00    -0.086 NA 
HETATM   15  C   UNL     1      -7.124  11.136  66.801  1.00  0.00    -0.139 A  
ENDBRANCH  10  11
ENDBRANCH   9  10
BRANCH   9  16
HETATM   16  O   UNL     1     -10.965  11.966  68.247  1.00  0.00    -0.204 OA 
BRANCH  16  17
HETATM   17  C   UNL     1     -11.979  11.740  67.266  1.00  0.00     0.066 C  
BRANCH  17  18
HETATM   18  C   UNL     1     -11.328  11.633  65.913  1.00  0.00    -0.262 A  
HETATM   19  C   UNL     1     -10.550  10.523  65.539  1.00  0.00    -0.068 A  
HETATM   20 CL   UNL     1     -10.239   9.200  66.610  1.00  0.00    -0.339 Cl 
HETATM   21  C   UNL     1     -10.178  11.452  63.332  1.00  0.00    -0.457 A  
HETATM   22  C   UNL     1      -9.985  10.434  64.261  1.00  0.00    -0.368 A  
HETATM   23  C   UNL     1     -10.919  12.573  63.692  1.00  0.00    -0.507 A  
HETATM   24  C   UNL     1     -11.482  12.667  64.968  1.00  0.00    -0.329 A  
HETATM   25 CL   UNL     1     -12.383  14.104  65.322  1.00  0.00    -0.446 Cl 
ENDBRANCH  17  18
ENDBRANCH  16  17
ENDBRANCH   9  16
ENDBRANCH   6   9
TORSDOF 6
ENDMDL
MODEL      114
REMARK 921   NORMALIZED FREE ENERGY PREDICTED BY IDOCK:   -5.16 KCAL/MOL
REMARK 922        TOTAL FREE ENERGY PREDICTED BY IDOCK:   -7.99 KCAL/MOL
REMARK 923 INTER-LIGAND FREE ENERGY PREDICTED BY IDOCK:   -7.75 KCAL/MOL
REMARK 924 INTRA-LIGAND FREE ENERGY PREDICTED BY IDOCK:   -0.25 KCAL/MOL
REMARK 927      BINDING AFFINITY PREDICTED BY RF-SCORE:    0.00 PKD
ROOT
HETATM    1 CL   UNL     1     -13.381  14.957  73.399  1.00  0.00    -0.396 Cl 
HETATM    2  C   UNL     1     -12.510  15.067  71.920  1.00  0.00    -0.339 A  
HETATM    3  C   UNL     1     -12.507  13.989  71.037  1.00  0.00    -0.444 A  
HETATM    4  C   UNL     1     -11.841  14.094  69.812  1.00  0.00    -0.322 A  
HETATM    5 CL   UNL     1     -11.876  12.719  68.765  1.00  0.00    -0.350 Cl 
HETATM    6  C   UNL     1     -11.179  15.281  69.457  1.00  0.00    -0.289 A  
HETATM    7  C   UNL     1     -11.170  16.341  70.387  1.00  0.00    -0.336 A  
HETATM    8  C   UNL     1     -11.832  16.238  71.608  1.00  0.00    -0.482 A  
ENDROOT
BRANCH   6   9
HETATM    9  C   UNL     1     -10.539  15.483  68.089  1.00  0.00    -0.266 C  
BRANCH   9  10
HETATM   10  C   UNL     1      -8.996  15.591  68.183  1.00  0.00    -0.179 C  
BRANCH  10  11
HETATM   11  N   UNL     1      -8.440  16.912  67.956  1.00  0.00    -0.207 NA 
HETATM   12  C   UNL     1      -7.757  17.671  68.867  1.00  0.00    -0.205 A  
HETATM   13  C   UNL     1      -8.443  17.606  66.778  1.00  0.00    -0.251 A  
HETATM   14  N   UNL     1      -7.931  18.807  66.922  1.00  0.00    -0.246 NA 
HETATM   15  C   UNL     1      -7.498  18.856  68.220  1.00  0.00    -0.286 A  
ENDBRANCH  10  11
ENDBRANCH   9  10
BRANCH   9  16
HETATM   16  O   UNL     1     -10.889  14.430  67.176  1.00  0.00    -0.284 OA 
BRANCH  16  17
HETATM   17  C   UNL     1     -10.026  14.355  66.039  1.00  0.00    -0.317 C  
BRANCH  17  18
HETATM   18  C   UNL     1     -10.585  13.346  65.072  1.00  0.00    -0.370 A  
HETATM   19  C   UNL     1     -10.085  12.035  64.980  1.00  0.00    -0.264 A  
HETATM   20 CL   UNL     1      -8.760  11.474  65.941  1.00  0.00    -0.119 Cl 
HETATM   21  C   UNL     1     -11.716  11.468  63.281  1.00  0.00    -0.107 A  
HETATM   22  C   UNL     1     -10.649  11.106  64.096  1.00  0.00    -0.436 A  
HETATM   23  C   UNL     1     -12.207  12.770  63.334  1.00  0.00    -0.594 A  
HETATM   24  C   UNL     1     -11.645  13.699  64.213  1.00  0.00    -0.382 A  
HETATM   25 CL   UNL     1     -12.321  15.294  64.201  1.00  0.00    -0.275 Cl 
ENDBRANCH  17  18
ENDBRANCH  16  17
ENDBRANCH   9  16
ENDBRANCH   6   9
TORSDOF 6
ENDMDL
MODEL      115
REMARK 921   NORMALIZED FREE ENERGY PREDICTED BY IDOCK:   -5.16 KCAL/MOL
REMARK 922        TOTAL FREE ENERGY PREDICTED BY IDOCK:   -7.99 KCAL/MOL
REMARK 923 INTER-LIGAND FREE ENERGY PREDICTED BY IDOCK:   -7.33 KCAL/MOL
REMARK 924 INTRA-LIGAND FREE ENERGY PREDICTED BY IDOCK:   -0.66 KCAL/MOL
REMARK 927      BINDING AFFINITY PREDICTED BY RF-SCORE:    0.00 PKD
ROOT
HETATM    1 CL   UNL     1     -13.718  15.897  72.812  1.00  0.00    -0.632 Cl 
HETATM    2  C   UNL     1     -13.162  14.539  71.916  1.00  0.00    -0.359 A  
HETATM    3  C   UNL     1     -12.390  14.733  70.773  1.00  0.00    -0.397 A  
HETATM    4  C   UNL     1     -11.895  13.629  70.071  1.00  0.00    -0.308 A  
HETATM    5 CL   UNL     1     -10.945  13.942  68.661  1.00  0.00    -0.269 Cl 
HETATM    6  C   UNL     1     -12.162  12.323  70.512  1.00  0.00    -0.387 A  
HETATM    7  C   UNL     1     -12.976  12.158  71.651  1.00  0.00    -0.427 A  
HETATM    8  C   UNL     1     -13.471  13.256  72.351  1.00  0.00    -0.670 A  
ENDROOT
BRANCH   6   9
HETATM    9  C   UNL     1     -11.551  11.095  69.848  1.00  0.00    -0.337 C  
BRANCH   9  10
HETATM   10  C   UNL     1     -12.027   9.780  70.515  1.00  0.00    -0.206 C  
BRANCH  10  11
HETATM   11  N   UNL     1     -11.050   9.106  71.350  1.00  0.00    -0.317 NA 
HETATM   12  C   UNL     1      -9.693   9.114  71.176  1.00  0.00    -0.290 A  
HETATM   13  C   UNL     1     -11.303   8.399  72.492  1.00  0.00    -0.346 A  
HETATM   14  N   UNL     1     -10.213   7.845  72.972  1.00  0.00    -0.322 NA 
HETATM   15  C   UNL     1      -9.203   8.288  72.159  1.00  0.00    -0.222 A  
ENDBRANCH  10  11
ENDBRANCH   9  10
BRANCH   9  16
HETATM   16  O   UNL     1     -11.842  11.049  68.441  1.00  0.00    -0.503 OA 
BRANCH  16  17
HETATM   17  C   UNL     1     -11.405   9.842  67.811  1.00  0.00     0.182 C  
BRANCH  17  18
HETATM   18  C   UNL     1     -10.361  10.185  66.781  1.00  0.00    -0.285 A  
HETATM   19  C   UNL     1     -10.541  11.219  65.844  1.00  0.00    -0.253 A  
HETATM   20 CL   UNL     1     -11.989  12.163  65.764  1.00  0.00    -0.369 Cl 
HETATM   21  C   UNL     1      -8.340  10.833  64.907  1.00  0.00    -0.018 A  
HETATM   22  C   UNL     1      -9.538  11.539  64.920  1.00  0.00    -0.212 A  
HETATM   23  C   UNL     1      -8.154   9.786  65.806  1.00  0.00    -0.119 A  
HETATM   24  C   UNL     1      -9.153   9.462  66.727  1.00  0.00    -0.140 A  
HETATM   25 CL   UNL     1      -8.829   8.141  67.801  1.00  0.00    -0.130 Cl 
ENDBRANCH  17  18
ENDBRANCH  16  17
ENDBRANCH   9  16
ENDBRANCH   6   9
TORSDOF 6
ENDMDL
MODEL      116
REMARK 921   NORMALIZED FREE ENERGY PREDICTED BY IDOCK:   -5.15 KCAL/MOL
REMARK 922        TOTAL FREE ENERGY PREDICTED BY IDOCK:   -7.97 KCAL/MOL
REMARK 923 INTER-LIGAND FREE ENERGY PREDICTED BY IDOCK:   -7.47 KCAL/MOL
REMARK 924 INTRA-LIGAND FREE ENERGY PREDICTED BY IDOCK:   -0.51 KCAL/MOL
REMARK 927      BINDING AFFINITY PREDICTED BY RF-SCORE:    0.00 PKD
ROOT
HETATM    1 CL   UNL     1      -9.139  20.091  67.361  1.00  0.00    -0.435 Cl 
HETATM    2  C   UNL     1      -9.395  18.392  67.296  1.00  0.00    -0.270 A  
HETATM    3  C   UNL     1      -8.752  17.560  68.211  1.00  0.00    -0.270 A  
HETATM    4  C   UNL     1      -8.997  16.184  68.193  1.00  0.00    -0.185 A  
HETATM    5 CL   UNL     1      -8.165  15.210  69.354  1.00  0.00    -0.217 Cl 
HETATM    6  C   UNL     1      -9.892  15.629  67.264  1.00  0.00    -0.225 A  
HETATM    7  C   UNL     1     -10.500  16.491  66.328  1.00  0.00    -0.285 A  
HETATM    8  C   UNL     1     -10.256  17.863  66.344  1.00  0.00    -0.372 A  
ENDROOT
BRANCH   6   9
HETATM    9  C   UNL     1     -10.278  14.155  67.279  1.00  0.00    -0.256 C  
BRANCH   9  10
HETATM   10  C   UNL     1      -9.131  13.252  66.759  1.00  0.00    -0.210 C  
BRANCH  10  11
HETATM   11  N   UNL     1      -9.538  12.122  65.943  1.00  0.00    -0.236 NA 
HETATM   12  C   UNL     1      -9.115  10.828  66.085  1.00  0.00    -0.174 A  
HETATM   13  C   UNL     1     -10.460  12.134  64.935  1.00  0.00    -0.288 A  
HETATM   14  N   UNL     1     -10.544  10.966  64.340  1.00  0.00    -0.339 NA 
HETATM   15  C   UNL     1      -9.711  10.144  65.052  1.00  0.00    -0.318 A  
ENDBRANCH  10  11
ENDBRANCH   9  10
BRANCH   9  16
HETATM   16  O   UNL     1     -10.670  13.720  68.592  1.00  0.00    -0.246 OA 
BRANCH  16  17
HETATM   17  C   UNL     1     -12.042  13.988  68.891  1.00  0.00    -0.316 C  
BRANCH  17  18
HETATM   18  C   UNL     1     -12.481  13.075  70.004  1.00  0.00    -0.112 A  
HETATM   19  C   UNL     1     -12.293  11.682  69.953  1.00  0.00    -0.159 A  
HETATM   20 CL   UNL     1     -11.576  10.888  68.593  1.00  0.00    -0.375 Cl 
HETATM   21  C   UNL     1     -13.268  11.409  72.154  1.00  0.00    -0.293 A  
HETATM   22  C   UNL     1     -12.680  10.860  71.019  1.00  0.00    -0.505 A  
HETATM   23  C   UNL     1     -13.492  12.782  72.213  1.00  0.00    -0.591 A  
HETATM   24  C   UNL     1     -13.109  13.604  71.150  1.00  0.00    -0.234 A  
HETATM   25 CL   UNL     1     -13.434  15.298  71.315  1.00  0.00    -0.556 Cl 
ENDBRANCH  17  18
ENDBRANCH  16  17
ENDBRANCH   9  16
ENDBRANCH   6   9
TORSDOF 6
ENDMDL
MODEL      117
REMARK 921   NORMALIZED FREE ENERGY PREDICTED BY IDOCK:   -5.09 KCAL/MOL
REMARK 922        TOTAL FREE ENERGY PREDICTED BY IDOCK:   -7.89 KCAL/MOL
REMARK 923 INTER-LIGAND FREE ENERGY PREDICTED BY IDOCK:   -7.01 KCAL/MOL
REMARK 924 INTRA-LIGAND FREE ENERGY PREDICTED BY IDOCK:   -0.89 KCAL/MOL
REMARK 927      BINDING AFFINITY PREDICTED BY RF-SCORE:    0.00 PKD
ROOT
HETATM    1 CL   UNL     1     -10.467  15.931  67.806  1.00  0.00    -0.279 Cl 
HETATM    2  C   UNL     1     -10.511  14.212  67.799  1.00  0.00    -0.246 A  
HETATM    3  C   UNL     1      -9.329  13.490  67.642  1.00  0.00    -0.216 A  
HETATM    4  C   UNL     1      -9.356  12.093  67.686  1.00  0.00    -0.187 A  
HETATM    5 CL   UNL     1      -7.855  11.260  67.482  1.00  0.00    -0.118 Cl 
HETATM    6  C   UNL     1     -10.564  11.407  67.893  1.00  0.00    -0.224 A  
HETATM    7  C   UNL     1     -11.748  12.164  68.012  1.00  0.00    -0.409 A  
HETATM    8  C   UNL     1     -11.723  13.556  67.969  1.00  0.00    -0.394 A  
ENDROOT
BRANCH   6   9
HETATM    9  C   UNL     1     -10.626   9.894  68.062  1.00  0.00    -0.242 C  
BRANCH   9  10
HETATM   10  C   UNL     1     -10.263   9.150  66.752  1.00  0.00    -0.261 C  
BRANCH  10  11
HETATM   11  N   UNL     1     -10.102   7.712  66.866  1.00  0.00    -0.257 NA 
HETATM   12  C   UNL     1     -11.098   6.801  67.088  1.00  0.00    -0.333 A  
HETATM   13  C   UNL     1      -8.941   7.007  66.709  1.00  0.00    -0.132 A  
HETATM   14  N   UNL     1      -9.114   5.729  66.954  1.00  0.00    -0.116 NA 
HETATM   15  C   UNL     1     -10.457   5.589  67.189  1.00  0.00    -0.257 A  
ENDBRANCH  10  11
ENDBRANCH   9  10
BRANCH   9  16
HETATM   16  O   UNL     1      -9.769   9.440  69.123  1.00  0.00    -0.157 OA 
BRANCH  16  17
HETATM   17  C   UNL     1     -10.176   9.897  70.415  1.00  0.00    -0.236 C  
BRANCH  17  18
HETATM   18  C   UNL     1     -11.341   9.063  70.878  1.00  0.00    -0.351 A  
HETATM   19  C   UNL     1     -12.562   9.634  71.279  1.00  0.00    -0.352 A  
HETATM   20 CL   UNL     1     -12.824  11.344  71.314  1.00  0.00    -0.506 Cl 
HETATM   21  C   UNL     1     -13.522   7.445  71.679  1.00  0.00    -0.437 A  
HETATM   22  C   UNL     1     -13.641   8.831  71.672  1.00  0.00    -0.425 A  
HETATM   23  C   UNL     1     -12.312   6.861  71.314  1.00  0.00    -0.422 A  
HETATM   24  C   UNL     1     -11.233   7.659  70.925  1.00  0.00    -0.268 A  
HETATM   25 CL   UNL     1      -9.769   6.838  70.495  1.00  0.00    -0.180 Cl 
ENDBRANCH  17  18
ENDBRANCH  16  17
ENDBRANCH   9  16
ENDBRANCH   6   9
TORSDOF 6
ENDMDL
MODEL      118
REMARK 921   NORMALIZED FREE ENERGY PREDICTED BY IDOCK:   -5.08 KCAL/MOL
REMARK 922        TOTAL FREE ENERGY PREDICTED BY IDOCK:   -7.87 KCAL/MOL
REMARK 923 INTER-LIGAND FREE ENERGY PREDICTED BY IDOCK:   -6.81 KCAL/MOL
REMARK 924 INTRA-LIGAND FREE ENERGY PREDICTED BY IDOCK:   -1.06 KCAL/MOL
REMARK 927      BINDING AFFINITY PREDICTED BY RF-SCORE:    0.00 PKD
ROOT
HETATM    1 CL   UNL     1     -13.138  15.129  73.346  1.00  0.00    -0.607 Cl 
HETATM    2  C   UNL     1     -12.686  14.453  71.830  1.00  0.00    -0.349 A  
HETATM    3  C   UNL     1     -12.076  15.255  70.869  1.00  0.00    -0.396 A  
HETATM    4  C   UNL     1     -11.663  14.696  69.656  1.00  0.00    -0.313 A  
HETATM    5 CL   UNL     1     -10.914  15.749  68.507  1.00  0.00    -0.294 Cl 
HETATM    6  C   UNL     1     -11.851  13.329  69.397  1.00  0.00    -0.386 A  
HETATM    7  C   UNL     1     -12.504  12.550  70.375  1.00  0.00    -0.215 A  
HETATM    8  C   UNL     1     -12.916  13.105  71.584  1.00  0.00    -0.429 A  
ENDROOT
BRANCH   6   9
HETATM    9  C   UNL     1     -11.316  12.653  68.140  1.00  0.00    -0.290 C  
BRANCH   9  10
HETATM   10  C   UNL     1     -11.943  13.245  66.854  1.00  0.00    -0.375 C  
BRANCH  10  11
HETATM   11  N   UNL     1     -11.443  12.708  65.602  1.00  0.00    -0.332 NA 
HETATM   12  C   UNL     1     -10.640  13.358  64.705  1.00  0.00    -0.405 A  
HETATM   13  C   UNL     1     -11.630  11.440  65.126  1.00  0.00     0.162 A  
HETATM   14  N   UNL     1     -11.116  11.291  63.927  1.00  0.00    -0.334 NA 
HETATM   15  C   UNL     1     -10.494  12.481  63.657  1.00  0.00    -0.384 A  
ENDBRANCH  10  11
ENDBRANCH   9  10
BRANCH   9  16
HETATM   16  O   UNL     1      -9.883  12.739  68.057  1.00  0.00    -0.213 OA 
BRANCH  16  17
HETATM   17  C   UNL     1      -9.210  11.704  68.778  1.00  0.00    -0.033 C  
BRANCH  17  18
HETATM   18  C   UNL     1      -9.432  10.397  68.067  1.00  0.00    -0.152 A  
HETATM   19  C   UNL     1     -10.224   9.369  68.611  1.00  0.00    -0.201 A  
HETATM   20 CL   UNL     1     -10.982   9.499  70.161  1.00  0.00    -0.282 Cl 
HETATM   21  C   UNL     1      -9.870   7.980  66.657  1.00  0.00    -0.322 A  
HETATM   22  C   UNL     1     -10.441   8.176  67.910  1.00  0.00    -0.259 A  
HETATM   23  C   UNL     1      -9.058   8.972  66.114  1.00  0.00    -0.246 A  
HETATM   24  C   UNL     1      -8.836  10.162  66.812  1.00  0.00    -0.132 A  
HETATM   25 CL   UNL     1      -7.807  11.333  66.054  1.00  0.00    -0.027 Cl 
ENDBRANCH  17  18
ENDBRANCH  16  17
ENDBRANCH   9  16
ENDBRANCH   6   9
TORSDOF 6
ENDMDL
MODEL      119
REMARK 921   NORMALIZED FREE ENERGY PREDICTED BY IDOCK:   -5.06 KCAL/MOL
REMARK 922        TOTAL FREE ENERGY PREDICTED BY IDOCK:   -7.85 KCAL/MOL
REMARK 923 INTER-LIGAND FREE ENERGY PREDICTED BY IDOCK:   -6.82 KCAL/MOL
REMARK 924 INTRA-LIGAND FREE ENERGY PREDICTED BY IDOCK:   -1.03 KCAL/MOL
REMARK 927      BINDING AFFINITY PREDICTED BY RF-SCORE:    0.00 PKD
ROOT
HETATM    1 CL   UNL     1     -10.488  19.095  65.721  1.00  0.00    -0.489 Cl 
HETATM    2  C   UNL     1     -10.335  17.419  66.074  1.00  0.00    -0.304 A  
HETATM    3  C   UNL     1      -9.770  17.015  67.283  1.00  0.00    -0.253 A  
HETATM    4  C   UNL     1      -9.690  15.655  67.594  1.00  0.00    -0.225 A  
HETATM    5 CL   UNL     1      -8.977  15.224  69.108  1.00  0.00    -0.221 Cl 
HETATM    6  C   UNL     1     -10.181  14.687  66.702  1.00  0.00    -0.275 A  
HETATM    7  C   UNL     1     -10.713  15.124  65.472  1.00  0.00    -0.379 A  
HETATM    8  C   UNL     1     -10.794  16.479  65.160  1.00  0.00    -0.247 A  
ENDROOT
BRANCH   6   9
HETATM    9  C   UNL     1     -10.219  13.203  67.046  1.00  0.00    -0.250 C  
BRANCH   9  10
HETATM   10  C   UNL     1     -11.653  12.725  67.386  1.00  0.00    -0.356 C  
BRANCH  10  11
HETATM   11  N   UNL     1     -11.969  12.631  68.799  1.00  0.00    -0.289 NA 
HETATM   12  C   UNL     1     -12.390  13.654  69.604  1.00  0.00    -0.203 A  
HETATM   13  C   UNL     1     -11.965  11.497  69.562  1.00  0.00    -0.335 A  
HETATM   14  N   UNL     1     -12.220  11.760  70.823  1.00  0.00    -0.371 NA 
HETATM   15  C   UNL     1     -12.490  13.103  70.859  1.00  0.00    -0.323 A  
ENDBRANCH  10  11
ENDBRANCH   9  10
BRANCH   9  16
HETATM   16  O   UNL     1      -9.686  12.395  65.983  1.00  0.00    -0.250 OA 
BRANCH  16  17
HETATM   17  C   UNL     1     -10.506  11.268  65.662  1.00  0.00    -0.261 C  
BRANCH  17  18
HETATM   18  C   UNL     1      -9.638  10.195  65.061  1.00  0.00    -0.362 A  
HETATM   19  C   UNL     1      -9.200  10.242  63.725  1.00  0.00    -0.275 A  
HETATM   20 CL   UNL     1      -9.649  11.515  62.642  1.00  0.00    -0.225 Cl 
HETATM   21  C   UNL     1      -7.954   8.183  63.998  1.00  0.00    -0.139 A  
HETATM   22  C   UNL     1      -8.364   9.247  63.202  1.00  0.00    -0.196 A  
HETATM   23  C   UNL     1      -8.400   8.101  65.314  1.00  0.00    -0.160 A  
HETATM   24  C   UNL     1      -9.236   9.090  65.837  1.00  0.00    -0.230 A  
HETATM   25 CL   UNL     1      -9.742   8.896  67.483  1.00  0.00    -0.200 Cl 
ENDBRANCH  17  18
ENDBRANCH  16  17
ENDBRANCH   9  16
ENDBRANCH   6   9
TORSDOF 6
ENDMDL
MODEL      120
REMARK 921   NORMALIZED FREE ENERGY PREDICTED BY IDOCK:   -5.02 KCAL/MOL
REMARK 922        TOTAL FREE ENERGY PREDICTED BY IDOCK:   -7.80 KCAL/MOL
REMARK 923 INTER-LIGAND FREE ENERGY PREDICTED BY IDOCK:   -7.31 KCAL/MOL
REMARK 924 INTRA-LIGAND FREE ENERGY PREDICTED BY IDOCK:   -0.49 KCAL/MOL
REMARK 927      BINDING AFFINITY PREDICTED BY RF-SCORE:    0.00 PKD
ROOT
HETATM    1 CL   UNL     1     -11.720   8.608  72.443  1.00  0.00    -0.427 Cl 
HETATM    2  C   UNL     1     -11.231   9.657  71.171  1.00  0.00    -0.384 A  
HETATM    3  C   UNL     1     -10.034   9.419  70.499  1.00  0.00    -0.328 A  
HETATM    4  C   UNL     1      -9.659  10.241  69.432  1.00  0.00    -0.218 A  
HETATM    5 CL   UNL     1      -8.161   9.890  68.644  1.00  0.00    -0.105 Cl 
HETATM    6  C   UNL     1     -10.481  11.304  69.025  1.00  0.00    -0.221 A  
HETATM    7  C   UNL     1     -11.668  11.542  69.748  1.00  0.00    -0.426 A  
HETATM    8  C   UNL     1     -12.043  10.724  70.811  1.00  0.00    -0.473 A  
ENDROOT
BRANCH   6   9
HETATM    9  C   UNL     1     -10.172  12.154  67.799  1.00  0.00    -0.201 C  
BRANCH   9  10
HETATM   10  C   UNL     1     -11.457  12.740  67.162  1.00  0.00    -0.337 C  
BRANCH  10  11
HETATM   11  N   UNL     1     -11.623  12.498  65.740  1.00  0.00    -0.372 NA 
HETATM   12  C   UNL     1     -12.632  12.978  64.950  1.00  0.00    -0.428 A  
HETATM   13  C   UNL     1     -10.772  11.805  64.926  1.00  0.00    -0.295 A  
HETATM   14  N   UNL     1     -11.247  11.699  63.706  1.00  0.00    -0.409 NA 
HETATM   15  C   UNL     1     -12.406  12.430  63.710  1.00  0.00    -0.528 A  
ENDBRANCH  10  11
ENDBRANCH   9  10
BRANCH   9  16
HETATM   16  O   UNL     1      -9.262  13.224  68.108  1.00  0.00    -0.203 OA 
BRANCH  16  17
HETATM   17  C   UNL     1      -9.904  14.366  68.679  1.00  0.00    -0.231 C  
BRANCH  17  18
HETATM   18  C   UNL     1      -8.911  15.496  68.744  1.00  0.00    -0.204 A  
HETATM   19  C   UNL     1      -7.563  15.294  69.092  1.00  0.00    -0.192 A  
HETATM   20 CL   UNL     1      -6.933  13.738  69.512  1.00  0.00    -0.007 Cl 
HETATM   21  C   UNL     1      -7.071  17.647  68.789  1.00  0.00    -0.263 A  
HETATM   22  C   UNL     1      -6.654  16.359  69.110  1.00  0.00    -0.195 A  
HETATM   23  C   UNL     1      -8.407  17.874  68.472  1.00  0.00    -0.305 A  
HETATM   24  C   UNL     1      -9.318  16.815  68.456  1.00  0.00    -0.246 A  
HETATM   25 CL   UNL     1     -10.958  17.199  68.054  1.00  0.00    -0.313 Cl 
ENDBRANCH  17  18
ENDBRANCH  16  17
ENDBRANCH   9  16
ENDBRANCH   6   9
TORSDOF 6
ENDMDL
MODEL      121
REMARK 921   NORMALIZED FREE ENERGY PREDICTED BY IDOCK:   -5.02 KCAL/MOL
REMARK 922        TOTAL FREE ENERGY PREDICTED BY IDOCK:   -7.80 KCAL/MOL
REMARK 923 INTER-LIGAND FREE ENERGY PREDICTED BY IDOCK:   -7.03 KCAL/MOL
REMARK 924 INTRA-LIGAND FREE ENERGY PREDICTED BY IDOCK:   -0.76 KCAL/MOL
REMARK 927      BINDING AFFINITY PREDICTED BY RF-SCORE:    0.00 PKD
ROOT
HETATM    1 CL   UNL     1      -6.882  16.074  68.809  1.00  0.00    -0.125 Cl 
HETATM    2  C   UNL     1      -8.130  14.914  68.576  1.00  0.00    -0.147 A  
HETATM    3  C   UNL     1      -9.459  15.275  68.788  1.00  0.00    -0.212 A  
HETATM    4  C   UNL     1     -10.478  14.348  68.551  1.00  0.00    -0.254 A  
HETATM    5 CL   UNL     1     -12.104  14.862  68.835  1.00  0.00    -0.275 Cl 
HETATM    6  C   UNL     1     -10.178  13.055  68.095  1.00  0.00    -0.239 A  
HETATM    7  C   UNL     1      -8.822  12.708  67.925  1.00  0.00    -0.182 A  
HETATM    8  C   UNL     1      -7.804  13.630  68.160  1.00  0.00    -0.143 A  
ENDROOT
BRANCH   6   9
HETATM    9  C   UNL     1     -11.258  12.050  67.715  1.00  0.00    -0.271 C  
BRANCH   9  10
HETATM   10  C   UNL     1     -10.711  10.935  66.788  1.00  0.00    -0.252 C  
BRANCH  10  11
HETATM   11  N   UNL     1     -10.663  11.257  65.373  1.00  0.00    -0.257 NA 
HETATM   12  C   UNL     1     -11.224  12.351  64.773  1.00  0.00    -0.310 A  
HETATM   13  C   UNL     1     -10.000  10.562  64.401  1.00  0.00    -0.343 A  
HETATM   14  N   UNL     1     -10.219  11.067  63.209  1.00  0.00    -0.338 NA 
HETATM   15  C   UNL     1     -10.979  12.185  63.430  1.00  0.00    -0.412 A  
ENDBRANCH  10  11
ENDBRANCH   9  10
BRANCH   9  16
HETATM   16  O   UNL     1     -11.862  11.453  68.875  1.00  0.00    -0.316 OA 
BRANCH  16  17
HETATM   17  C   UNL     1     -10.909  10.979  69.829  1.00  0.00    -0.144 C  
BRANCH  17  18
HETATM   18  C   UNL     1     -11.444   9.724  70.465  1.00  0.00    -0.370 A  
HETATM   19  C   UNL     1     -12.470   9.746  71.427  1.00  0.00    -0.387 A  
HETATM   20 CL   UNL     1     -13.181  11.218  71.996  1.00  0.00    -0.564 Cl 
HETATM   21  C   UNL     1     -12.460   7.328  71.582  1.00  0.00    -0.394 A  
HETATM   22  C   UNL     1     -12.972   8.560  71.976  1.00  0.00    -0.406 A  
HETATM   23  C   UNL     1     -11.424   7.285  70.653  1.00  0.00    -0.322 A  
HETATM   24  C   UNL     1     -10.918   8.467  70.105  1.00  0.00    -0.215 A  
HETATM   25 CL   UNL     1      -9.626   8.309  68.962  1.00  0.00    -0.155 Cl 
ENDBRANCH  17  18
ENDBRANCH  16  17
ENDBRANCH   9  16
ENDBRANCH   6   9
TORSDOF 6
ENDMDL
MODEL      122
REMARK 921   NORMALIZED FREE ENERGY PREDICTED BY IDOCK:   -5.01 KCAL/MOL
REMARK 922        TOTAL FREE ENERGY PREDICTED BY IDOCK:   -7.79 KCAL/MOL
REMARK 923 INTER-LIGAND FREE ENERGY PREDICTED BY IDOCK:   -6.30 KCAL/MOL
REMARK 924 INTRA-LIGAND FREE ENERGY PREDICTED BY IDOCK:   -1.49 KCAL/MOL
REMARK 927      BINDING AFFINITY PREDICTED BY RF-SCORE:    0.00 PKD
ROOT
HETATM    1 CL   UNL     1      -8.715   4.737  65.839  1.00  0.00    -0.121 Cl 
HETATM    2  C   UNL     1      -8.992   6.427  65.983  1.00  0.00    -0.130 A  
HETATM    3  C   UNL     1      -8.192   7.323  65.277  1.00  0.00    -0.126 A  
HETATM    4  C   UNL     1      -8.448   8.695  65.354  1.00  0.00    -0.172 A  
HETATM    5 CL   UNL     1      -7.416   9.750  64.454  1.00  0.00    -0.126 Cl 
HETATM    6  C   UNL     1      -9.510   9.183  66.132  1.00  0.00    -0.309 A  
HETATM    7  C   UNL     1     -10.280   8.255  66.864  1.00  0.00    -0.388 A  
HETATM    8  C   UNL     1     -10.026   6.887  66.789  1.00  0.00    -0.248 A  
ENDROOT
BRANCH   6   9
HETATM    9  C   UNL     1      -9.898  10.656  66.157  1.00  0.00    -0.217 C  
BRANCH   9  10
HETATM   10  C   UNL     1     -10.768  11.046  64.936  1.00  0.00    -0.208 C  
BRANCH  10  11
HETATM   11  N   UNL     1     -11.244  12.417  64.911  1.00  0.00    -0.302 NA 
HETATM   12  C   UNL     1     -12.494  12.846  65.264  1.00  0.00    -0.493 A  
HETATM   13  C   UNL     1     -10.513  13.527  64.592  1.00  0.00    -0.421 A  
HETATM   14  N   UNL     1     -11.255  14.611  64.588  1.00  0.00    -0.369 NA 
HETATM   15  C   UNL     1     -12.492  14.197  65.008  1.00  0.00    -0.419 A  
ENDBRANCH  10  11
ENDBRANCH   9  10
BRANCH   9  16
HETATM   16  O   UNL     1     -10.591  11.005  67.368  1.00  0.00    -0.209 OA 
BRANCH  16  17
HETATM   17  C   UNL     1      -9.735  11.563  68.368  1.00  0.00    -0.202 C  
BRANCH  17  18
HETATM   18  C   UNL     1      -9.480  13.009  68.034  1.00  0.00    -0.217 A  
HETATM   19  C   UNL     1     -10.454  14.007  68.218  1.00  0.00    -0.244 A  
HETATM   20 CL   UNL     1     -12.043  13.660  68.809  1.00  0.00    -0.383 Cl 
HETATM   21  C   UNL     1      -8.926  15.723  67.450  1.00  0.00    -0.204 A  
HETATM   22  C   UNL     1     -10.176  15.349  67.932  1.00  0.00    -0.239 A  
HETATM   23  C   UNL     1      -7.958  14.747  67.231  1.00  0.00    -0.232 A  
HETATM   24  C   UNL     1      -8.232  13.406  67.514  1.00  0.00    -0.185 A  
HETATM   25 CL   UNL     1      -6.965  12.266  67.204  1.00  0.00    -0.135 Cl 
ENDBRANCH  17  18
ENDBRANCH  16  17
ENDBRANCH   9  16
ENDBRANCH   6   9
TORSDOF 6
ENDMDL
MODEL      123
REMARK 921   NORMALIZED FREE ENERGY PREDICTED BY IDOCK:   -4.99 KCAL/MOL
REMARK 922        TOTAL FREE ENERGY PREDICTED BY IDOCK:   -7.76 KCAL/MOL
REMARK 923 INTER-LIGAND FREE ENERGY PREDICTED BY IDOCK:   -6.64 KCAL/MOL
REMARK 924 INTRA-LIGAND FREE ENERGY PREDICTED BY IDOCK:   -1.13 KCAL/MOL
REMARK 927      BINDING AFFINITY PREDICTED BY RF-SCORE:    0.00 PKD
ROOT
HETATM    1 CL   UNL     1      -9.574   9.693  63.386  1.00  0.00     0.143 Cl 
HETATM    2  C   UNL     1     -10.098  10.242  64.929  1.00  0.00    -0.276 A  
HETATM    3  C   UNL     1     -10.915  11.367  65.023  1.00  0.00    -0.271 A  
HETATM    4  C   UNL     1     -11.383  11.785  66.272  1.00  0.00    -0.287 A  
HETATM    5 CL   UNL     1     -12.390  13.190  66.316  1.00  0.00    -0.416 Cl 
HETATM    6  C   UNL     1     -11.044  11.078  67.437  1.00  0.00    -0.370 A  
HETATM    7  C   UNL     1     -10.187   9.965  67.314  1.00  0.00    -0.277 A  
HETATM    8  C   UNL     1      -9.719   9.546  66.070  1.00  0.00    -0.341 A  
ENDROOT
BRANCH   6   9
HETATM    9  C   UNL     1     -11.621  11.427  68.803  1.00  0.00    -0.313 C  
BRANCH   9  10
HETATM   10  C   UNL     1     -10.880  10.693  69.949  1.00  0.00    -0.241 C  
BRANCH  10  11
HETATM   11  N   UNL     1     -11.723   9.979  70.891  1.00  0.00    -0.344 NA 
HETATM   12  C   UNL     1     -13.057  10.194  71.108  1.00  0.00    -0.392 A  
HETATM   13  C   UNL     1     -11.352   8.928  71.681  1.00  0.00    -0.337 A  
HETATM   14  N   UNL     1     -12.325   8.555  72.481  1.00  0.00    -0.365 NA 
HETATM   15  C   UNL     1     -13.394   9.337  72.129  1.00  0.00    -0.468 A  
ENDBRANCH  10  11
ENDBRANCH   9  10
BRANCH   9  16
HETATM   16  O   UNL     1     -11.594  12.844  69.047  1.00  0.00    -0.282 OA 
BRANCH  16  17
HETATM   17  C   UNL     1     -10.279  13.353  69.278  1.00  0.00     0.325 C  
BRANCH  17  18
HETATM   18  C   UNL     1     -10.035  14.504  68.339  1.00  0.00    -0.241 A  
HETATM   19  C   UNL     1     -10.760  15.707  68.419  1.00  0.00    -0.271 A  
HETATM   20 CL   UNL     1     -12.022  15.959  69.576  1.00  0.00    -0.330 Cl 
HETATM   21  C   UNL     1      -9.492  16.663  66.589  1.00  0.00    -0.271 A  
HETATM   22  C   UNL     1     -10.487  16.774  67.554  1.00  0.00    -0.319 A  
HETATM   23  C   UNL     1      -8.783  15.471  66.473  1.00  0.00    -0.340 A  
HETATM   24  C   UNL     1      -9.054  14.402  67.332  1.00  0.00    -0.198 A  
HETATM   25 CL   UNL     1      -8.122  12.960  67.105  1.00  0.00    -0.155 Cl 
ENDBRANCH  17  18
ENDBRANCH  16  17
ENDBRANCH   9  16
ENDBRANCH   6   9
TORSDOF 6
ENDMDL
MODEL      124
REMARK 921   NORMALIZED FREE ENERGY PREDICTED BY IDOCK:   -4.99 KCAL/MOL
REMARK 922        TOTAL FREE ENERGY PREDICTED BY IDOCK:   -7.75 KCAL/MOL
REMARK 923 INTER-LIGAND FREE ENERGY PREDICTED BY IDOCK:   -6.67 KCAL/MOL
REMARK 924 INTRA-LIGAND FREE ENERGY PREDICTED BY IDOCK:   -1.08 KCAL/MOL
REMARK 927      BINDING AFFINITY PREDICTED BY RF-SCORE:    0.00 PKD
ROOT
HETATM    1 CL   UNL     1     -10.492   6.109  68.564  1.00  0.00    -0.249 Cl 
HETATM    2  C   UNL     1     -10.425   7.790  68.206  1.00  0.00    -0.168 A  
HETATM    3  C   UNL     1     -10.218   8.210  66.894  1.00  0.00    -0.387 A  
HETATM    4  C   UNL     1     -10.212   9.575  66.592  1.00  0.00    -0.240 A  
HETATM    5 CL   UNL     1      -9.947  10.026  64.944  1.00  0.00    -0.369 Cl 
HETATM    6  C   UNL     1     -10.422  10.531  67.599  1.00  0.00    -0.276 A  
HETATM    7  C   UNL     1     -10.594  10.076  68.923  1.00  0.00    -0.239 A  
HETATM    8  C   UNL     1     -10.598   8.717  69.225  1.00  0.00    -0.204 A  
ENDROOT
BRANCH   6   9
HETATM    9  C   UNL     1     -10.539  12.021  67.301  1.00  0.00    -0.222 C  
BRANCH   9  10
HETATM   10  C   UNL     1     -11.949  12.568  67.634  1.00  0.00    -0.221 C  
BRANCH  10  11
HETATM   11  N   UNL     1     -12.016  13.510  68.737  1.00  0.00    -0.350 NA 
HETATM   12  C   UNL     1     -12.250  14.855  68.640  1.00  0.00    -0.066 A  
HETATM   13  C   UNL     1     -11.923  13.215  70.068  1.00  0.00    -0.321 A  
HETATM   14  N   UNL     1     -11.943  14.299  70.808  1.00  0.00    -0.325 NA 
HETATM   15  C   UNL     1     -12.150  15.327  69.927  1.00  0.00    -0.343 A  
ENDBRANCH  10  11
ENDBRANCH   9  10
BRANCH   9  16
HETATM   16  O   UNL     1      -9.549  12.785  68.010  1.00  0.00    -0.204 OA 
BRANCH  16  17
HETATM   17  C   UNL     1      -8.683  13.528  67.149  1.00  0.00    -0.215 C  
BRANCH  17  18
HETATM   18  C   UNL     1      -9.195  14.941  67.051  1.00  0.00    -0.249 A  
HETATM   19  C   UNL     1      -9.934  15.398  65.945  1.00  0.00    -0.346 A  
HETATM   20 CL   UNL     1     -10.289  14.393  64.582  1.00  0.00    -0.353 Cl 
HETATM   21  C   UNL     1     -10.189  17.590  66.947  1.00  0.00    -0.329 A  
HETATM   22  C   UNL     1     -10.427  16.708  65.897  1.00  0.00    -0.324 A  
HETATM   23  C   UNL     1      -9.434  17.167  68.037  1.00  0.00    -0.262 A  
HETATM   24  C   UNL     1      -8.937  15.861  68.087  1.00  0.00    -0.181 A  
HETATM   25 CL   UNL     1      -8.005  15.432  69.482  1.00  0.00    -0.228 Cl 
ENDBRANCH  17  18
ENDBRANCH  16  17
ENDBRANCH   9  16
ENDBRANCH   6   9
TORSDOF 6
ENDMDL
MODEL      125
REMARK 921   NORMALIZED FREE ENERGY PREDICTED BY IDOCK:   -4.98 KCAL/MOL
REMARK 922        TOTAL FREE ENERGY PREDICTED BY IDOCK:   -7.75 KCAL/MOL
REMARK 923 INTER-LIGAND FREE ENERGY PREDICTED BY IDOCK:   -6.93 KCAL/MOL
REMARK 924 INTRA-LIGAND FREE ENERGY PREDICTED BY IDOCK:   -0.81 KCAL/MOL
REMARK 927      BINDING AFFINITY PREDICTED BY RF-SCORE:    0.00 PKD
ROOT
HETATM    1 CL   UNL     1     -13.430   9.167  72.603  1.00  0.00    -0.475 Cl 
HETATM    2  C   UNL     1     -12.553  10.100  71.454  1.00  0.00    -0.422 A  
HETATM    3  C   UNL     1     -12.816  11.462  71.324  1.00  0.00    -0.481 A  
HETATM    4  C   UNL     1     -12.071  12.232  70.427  1.00  0.00    -0.300 A  
HETATM    5 CL   UNL     1     -12.451  13.915  70.314  1.00  0.00    -0.396 Cl 
HETATM    6  C   UNL     1     -11.051  11.648  69.658  1.00  0.00    -0.177 A  
HETATM    7  C   UNL     1     -10.833  10.261  69.785  1.00  0.00    -0.332 A  
HETATM    8  C   UNL     1     -11.575   9.491  70.679  1.00  0.00    -0.350 A  
ENDROOT
BRANCH   6   9
HETATM    9  C   UNL     1     -10.138  12.466  68.753  1.00  0.00    -0.055 C  
BRANCH   9  10
HETATM   10  C   UNL     1      -8.818  11.721  68.437  1.00  0.00    -0.161 C  
BRANCH  10  11
HETATM   11  N   UNL     1      -7.632  12.552  68.332  1.00  0.00    -0.124 NA 
HETATM   12  C   UNL     1      -6.637  12.665  69.263  1.00  0.00    -0.092 A  
HETATM   13  C   UNL     1      -7.268  13.320  67.261  1.00  0.00    -0.019 A  
HETATM   14  N   UNL     1      -6.182  14.015  67.510  1.00  0.00    -0.337 NA 
HETATM   15  C   UNL     1      -5.779  13.611  68.755  1.00  0.00    -0.083 A  
ENDBRANCH  10  11
ENDBRANCH   9  10
BRANCH   9  16
HETATM   16  O   UNL     1     -10.790  12.825  67.522  1.00  0.00    -0.231 OA 
BRANCH  16  17
HETATM   17  C   UNL     1     -11.515  11.745  66.929  1.00  0.00    -0.293 C  
BRANCH  17  18
HETATM   18  C   UNL     1     -10.927  11.455  65.574  1.00  0.00    -0.248 A  
HETATM   19  C   UNL     1     -11.086  12.330  64.483  1.00  0.00    -0.321 A  
HETATM   20 CL   UNL     1     -12.000  13.795  64.589  1.00  0.00    -0.418 Cl 
HETATM   21  C   UNL     1      -9.748  10.895  63.062  1.00  0.00    -0.380 A  
HETATM   22  C   UNL     1     -10.499  12.051  63.243  1.00  0.00    -0.403 A  
HETATM   23  C   UNL     1      -9.604  10.001  64.120  1.00  0.00    -0.274 A  
HETATM   24  C   UNL     1     -10.191  10.274  65.358  1.00  0.00    -0.242 A  
HETATM   25 CL   UNL     1      -9.959   9.098  66.609  1.00  0.00    -0.318 Cl 
ENDBRANCH  17  18
ENDBRANCH  16  17
ENDBRANCH   9  16
ENDBRANCH   6   9
TORSDOF 6
ENDMDL
MODEL      126
REMARK 921   NORMALIZED FREE ENERGY PREDICTED BY IDOCK:   -4.97 KCAL/MOL
REMARK 922        TOTAL FREE ENERGY PREDICTED BY IDOCK:   -7.74 KCAL/MOL
REMARK 923 INTER-LIGAND FREE ENERGY PREDICTED BY IDOCK:   -6.71 KCAL/MOL
REMARK 924 INTRA-LIGAND FREE ENERGY PREDICTED BY IDOCK:   -1.02 KCAL/MOL
REMARK 927      BINDING AFFINITY PREDICTED BY RF-SCORE:    0.00 PKD
ROOT
HETATM    1 CL   UNL     1     -10.744  15.886  65.252  1.00  0.00    -0.434 Cl 
HETATM    2  C   UNL     1     -10.770  14.492  66.259  1.00  0.00    -0.309 A  
HETATM    3  C   UNL     1      -9.589  14.040  66.845  1.00  0.00    -0.275 A  
HETATM    4  C   UNL     1      -9.616  12.937  67.703  1.00  0.00    -0.196 A  
HETATM    5 CL   UNL     1      -8.116  12.428  68.395  1.00  0.00    -0.157 Cl 
HETATM    6  C   UNL     1     -10.825  12.281  67.988  1.00  0.00    -0.253 A  
HETATM    7  C   UNL     1     -11.996  12.740  67.352  1.00  0.00    -0.335 A  
HETATM    8  C   UNL     1     -11.972  13.838  66.496  1.00  0.00    -0.470 A  
ENDROOT
BRANCH   6   9
HETATM    9  C   UNL     1     -10.922  11.149  69.004  1.00  0.00    -0.235 C  
BRANCH   9  10
HETATM   10  C   UNL     1     -12.020  11.415  70.063  1.00  0.00    -0.363 C  
BRANCH  10  11
HETATM   11  N   UNL     1     -12.359  10.292  70.918  1.00  0.00    -0.342 NA 
HETATM   12  C   UNL     1     -11.507   9.624  71.754  1.00  0.00    -0.188 A  
HETATM   13  C   UNL     1     -13.599   9.742  71.087  1.00  0.00    -0.168 A  
HETATM   14  N   UNL     1     -13.559   8.687  71.868  1.00  0.00    -0.388 NA 
HETATM   15  C   UNL     1     -12.258   8.606  72.291  1.00  0.00    -0.378 A  
ENDBRANCH  10  11
ENDBRANCH   9  10
BRANCH   9  16
HETATM   16  O   UNL     1     -11.168   9.883  68.368  1.00  0.00    -0.188 OA 
BRANCH  16  17
HETATM   17  C   UNL     1      -9.971   9.190  68.004  1.00  0.00    -0.178 C  
BRANCH  17  18
HETATM   18  C   UNL     1      -9.849   7.956  68.857  1.00  0.00    -0.174 A  
HETATM   19  C   UNL     1      -9.155   7.952  70.080  1.00  0.00    -0.152 A  
HETATM   20 CL   UNL     1      -8.348   9.353  70.698  1.00  0.00    -0.230 Cl 
HETATM   21  C   UNL     1      -9.704   5.622  70.453  1.00  0.00    -0.233 A  
HETATM   22  C   UNL     1      -9.088   6.797  70.870  1.00  0.00    -0.153 A  
HETATM   23  C   UNL     1     -10.370   5.595  69.231  1.00  0.00    -0.340 A  
HETATM   24  C   UNL     1     -10.437   6.745  68.440  1.00  0.00    -0.205 A  
HETATM   25 CL   UNL     1     -11.283   6.609  66.934  1.00  0.00    -0.368 Cl 
ENDBRANCH  17  18
ENDBRANCH  16  17
ENDBRANCH   9  16
ENDBRANCH   6   9
TORSDOF 6
ENDMDL
MODEL      127
REMARK 921   NORMALIZED FREE ENERGY PREDICTED BY IDOCK:   -4.97 KCAL/MOL
REMARK 922        TOTAL FREE ENERGY PREDICTED BY IDOCK:   -7.72 KCAL/MOL
REMARK 923 INTER-LIGAND FREE ENERGY PREDICTED BY IDOCK:   -6.67 KCAL/MOL
REMARK 924 INTRA-LIGAND FREE ENERGY PREDICTED BY IDOCK:   -1.06 KCAL/MOL
REMARK 927      BINDING AFFINITY PREDICTED BY RF-SCORE:    0.00 PKD
ROOT
HETATM    1 CL   UNL     1     -13.970  13.793  72.294  1.00  0.00    -0.647 Cl 
HETATM    2  C   UNL     1     -12.911  14.011  70.957  1.00  0.00    -0.340 A  
HETATM    3  C   UNL     1     -12.328  12.903  70.347  1.00  0.00    -0.333 A  
HETATM    4  C   UNL     1     -11.507  13.075  69.229  1.00  0.00    -0.289 A  
HETATM    5 CL   UNL     1     -10.816  11.657  68.522  1.00  0.00    -0.235 Cl 
HETATM    6  C   UNL     1     -11.268  14.356  68.707  1.00  0.00    -0.282 A  
HETATM    7  C   UNL     1     -11.842  15.462  69.368  1.00  0.00    -0.372 A  
HETATM    8  C   UNL     1     -12.660  15.292  70.483  1.00  0.00    -0.450 A  
ENDROOT
BRANCH   6   9
HETATM    9  C   UNL     1     -10.475  14.583  67.426  1.00  0.00    -0.264 C  
BRANCH   9  10
HETATM   10  C   UNL     1     -11.381  15.052  66.260  1.00  0.00    -0.273 C  
BRANCH  10  11
HETATM   11  N   UNL     1     -11.770  14.025  65.310  1.00  0.00    -0.333 NA 
HETATM   12  C   UNL     1     -12.497  12.899  65.588  1.00  0.00    -0.338 A  
HETATM   13  C   UNL     1     -11.536  14.029  63.964  1.00  0.00    -0.177 A  
HETATM   14  N   UNL     1     -11.945  12.918  63.397  1.00  0.00    -0.557 NA 
HETATM   15  C   UNL     1     -12.548  12.207  64.401  1.00  0.00    -0.280 A  
ENDBRANCH  10  11
ENDBRANCH   9  10
BRANCH   9  16
HETATM   16  O   UNL     1      -9.413  15.534  67.617  1.00  0.00    -0.207 OA 
BRANCH  16  17
HETATM   17  C   UNL     1      -8.145  15.068  67.150  1.00  0.00    -0.214 C  
BRANCH  17  18
HETATM   18  C   UNL     1      -7.322  14.637  68.335  1.00  0.00    -0.115 A  
HETATM   19  C   UNL     1      -6.980  13.292  68.564  1.00  0.00    -0.103 A  
HETATM   20 CL   UNL     1      -7.504  12.008  67.528  1.00  0.00    -0.130 Cl 
HETATM   21  C   UNL     1      -5.719  13.887  70.545  1.00  0.00    -0.161 A  
HETATM   22  C   UNL     1      -6.184  12.924  69.656  1.00  0.00    -0.114 A  
HETATM   23  C   UNL     1      -6.071  15.221  70.354  1.00  0.00    -0.071 A  
HETATM   24  C   UNL     1      -6.867  15.591  69.267  1.00  0.00    -0.160 A  
HETATM   25 CL   UNL     1      -7.255  17.273  69.119  1.00  0.00    -0.222 Cl 
ENDBRANCH  17  18
ENDBRANCH  16  17
ENDBRANCH   9  16
ENDBRANCH   6   9
TORSDOF 6
ENDMDL
MODEL      128
REMARK 921   NORMALIZED FREE ENERGY PREDICTED BY IDOCK:   -4.96 KCAL/MOL
REMARK 922        TOTAL FREE ENERGY PREDICTED BY IDOCK:   -7.71 KCAL/MOL
REMARK 923 INTER-LIGAND FREE ENERGY PREDICTED BY IDOCK:   -7.11 KCAL/MOL
REMARK 924 INTRA-LIGAND FREE ENERGY PREDICTED BY IDOCK:   -0.61 KCAL/MOL
REMARK 927      BINDING AFFINITY PREDICTED BY RF-SCORE:    0.00 PKD
ROOT
HETATM    1 CL   UNL     1     -10.675  20.068  66.811  1.00  0.00    -0.474 Cl 
HETATM    2  C   UNL     1     -10.436  18.380  67.040  1.00  0.00    -0.399 A  
HETATM    3  C   UNL     1     -10.645  17.816  68.297  1.00  0.00    -0.325 A  
HETATM    4  C   UNL     1     -10.500  16.436  68.474  1.00  0.00    -0.291 A  
HETATM    5 CL   UNL     1     -10.771  15.803  70.059  1.00  0.00    -0.320 Cl 
HETATM    6  C   UNL     1     -10.153  15.609  67.393  1.00  0.00    -0.251 A  
HETATM    7  C   UNL     1      -9.914  16.214  66.142  1.00  0.00    -0.357 A  
HETATM    8  C   UNL     1     -10.057  17.588  65.964  1.00  0.00    -0.270 A  
ENDROOT
BRANCH   6   9
HETATM    9  C   UNL     1     -10.095  14.091  67.510  1.00  0.00    -0.237 C  
BRANCH   9  10
HETATM   10  C   UNL     1      -9.068  13.632  68.574  1.00  0.00    -0.112 C  
BRANCH  10  11
HETATM   11  N   UNL     1      -7.766  14.273  68.513  1.00  0.00    -0.131 NA 
HETATM   12  C   UNL     1      -7.097  14.848  69.559  1.00  0.00    -0.184 A  
HETATM   13  C   UNL     1      -6.951  14.360  67.420  1.00  0.00    -0.064 A  
HETATM   14  N   UNL     1      -5.876  15.071  67.672  1.00  0.00    -0.317 NA 
HETATM   15  C   UNL     1      -5.957  15.378  69.004  1.00  0.00    -0.103 A  
ENDBRANCH  10  11
ENDBRANCH   9  10
BRANCH   9  16
HETATM   16  O   UNL     1     -11.384  13.531  67.818  1.00  0.00    -0.269 OA 
BRANCH  16  17
HETATM   17  C   UNL     1     -11.967  12.819  66.724  1.00  0.00    -0.319 C  
BRANCH  17  18
HETATM   18  C   UNL     1     -11.202  11.539  66.517  1.00  0.00    -0.324 A  
HETATM   19  C   UNL     1     -10.539  11.245  65.311  1.00  0.00    -0.261 A  
HETATM   20 CL   UNL     1     -10.575  12.307  63.946  1.00  0.00    -0.417 Cl 
HETATM   21  C   UNL     1      -9.723   9.145  66.203  1.00  0.00    -0.357 A  
HETATM   22  C   UNL     1      -9.806  10.062  65.160  1.00  0.00    -0.388 A  
HETATM   23  C   UNL     1     -10.396   9.403  67.394  1.00  0.00    -0.325 A  
HETATM   24  C   UNL     1     -11.131  10.581  67.548  1.00  0.00    -0.290 A  
HETATM   25 CL   UNL     1     -11.938  10.807  69.065  1.00  0.00    -0.322 Cl 
ENDBRANCH  17  18
ENDBRANCH  16  17
ENDBRANCH   9  16
ENDBRANCH   6   9
TORSDOF 6
ENDMDL
MODEL      129
REMARK 921   NORMALIZED FREE ENERGY PREDICTED BY IDOCK:   -4.95 KCAL/MOL
REMARK 922        TOTAL FREE ENERGY PREDICTED BY IDOCK:   -7.71 KCAL/MOL
REMARK 923 INTER-LIGAND FREE ENERGY PREDICTED BY IDOCK:   -6.40 KCAL/MOL
REMARK 924 INTRA-LIGAND FREE ENERGY PREDICTED BY IDOCK:   -1.31 KCAL/MOL
REMARK 927      BINDING AFFINITY PREDICTED BY RF-SCORE:    0.00 PKD
ROOT
HETATM    1 CL   UNL     1     -10.170  16.882  65.910  1.00  0.00    -0.350 Cl 
HETATM    2  C   UNL     1     -10.371  15.287  66.518  1.00  0.00    -0.286 A  
HETATM    3  C   UNL     1      -9.287  14.621  67.088  1.00  0.00    -0.231 A  
HETATM    4  C   UNL     1      -9.460  13.344  67.628  1.00  0.00    -0.216 A  
HETATM    5 CL   UNL     1      -8.074  12.575  68.317  1.00  0.00    -0.161 Cl 
HETATM    6  C   UNL     1     -10.720  12.723  67.609  1.00  0.00    -0.236 A  
HETATM    7  C   UNL     1     -11.789  13.407  66.993  1.00  0.00    -0.443 A  
HETATM    8  C   UNL     1     -11.619  14.680  66.454  1.00  0.00    -0.343 A  
ENDROOT
BRANCH   6   9
HETATM    9  C   UNL     1     -10.982  11.383  68.285  1.00  0.00    -0.216 C  
BRANCH   9  10
HETATM   10  C   UNL     1     -12.035  11.502  69.415  1.00  0.00    -0.325 C  
BRANCH  10  11
HETATM   11  N   UNL     1     -12.003  10.456  70.422  1.00  0.00    -0.297 NA 
HETATM   12  C   UNL     1     -13.082   9.934  71.081  1.00  0.00    -0.370 A  
HETATM   13  C   UNL     1     -10.902   9.765  70.843  1.00  0.00    -0.328 A  
HETATM   14  N   UNL     1     -11.193   8.939  71.822  1.00  0.00    -0.340 NA 
HETATM   15  C   UNL     1     -12.551   9.035  71.976  1.00  0.00    -0.394 A  
ENDBRANCH  10  11
ENDBRANCH   9  10
BRANCH   9  16
HETATM   16  O   UNL     1     -11.404  10.384  67.342  1.00  0.00    -0.355 OA 
BRANCH  16  17
HETATM   17  C   UNL     1     -10.606   9.198  67.378  1.00  0.00    -0.244 C  
BRANCH  17  18
HETATM   18  C   UNL     1      -9.245   9.514  66.820  1.00  0.00    -0.184 A  
HETATM   19  C   UNL     1      -9.071  10.164  65.585  1.00  0.00    -0.179 A  
HETATM   20 CL   UNL     1     -10.402  10.624  64.578  1.00  0.00    -0.409 Cl 
HETATM   21  C   UNL     1      -6.662  10.144  65.845  1.00  0.00    -0.107 A  
HETATM   22  C   UNL     1      -7.792  10.478  65.106  1.00  0.00    -0.076 A  
HETATM   23  C   UNL     1      -6.811   9.473  67.056  1.00  0.00    -0.084 A  
HETATM   24  C   UNL     1      -8.084   9.157  67.535  1.00  0.00    -0.104 A  
HETATM   25 CL   UNL     1      -8.165   8.317  69.049  1.00  0.00    -0.118 Cl 
ENDBRANCH  17  18
ENDBRANCH  16  17
ENDBRANCH   9  16
ENDBRANCH   6   9
TORSDOF 6
ENDMDL
MODEL      130
REMARK 921   NORMALIZED FREE ENERGY PREDICTED BY IDOCK:   -4.94 KCAL/MOL
REMARK 922        TOTAL FREE ENERGY PREDICTED BY IDOCK:   -7.69 KCAL/MOL
REMARK 923 INTER-LIGAND FREE ENERGY PREDICTED BY IDOCK:   -6.80 KCAL/MOL
REMARK 924 INTRA-LIGAND FREE ENERGY PREDICTED BY IDOCK:   -0.89 KCAL/MOL
REMARK 927      BINDING AFFINITY PREDICTED BY RF-SCORE:    0.00 PKD
ROOT
HETATM    1 CL   UNL     1     -10.713  15.781  67.602  1.00  0.00    -0.305 Cl 
HETATM    2  C   UNL     1     -10.623  14.063  67.596  1.00  0.00    -0.249 A  
HETATM    3  C   UNL     1      -9.382  13.435  67.522  1.00  0.00    -0.218 A  
HETATM    4  C   UNL     1      -9.303  12.040  67.568  1.00  0.00    -0.179 A  
HETATM    5 CL   UNL     1      -7.732  11.327  67.469  1.00  0.00    -0.117 Cl 
HETATM    6  C   UNL     1     -10.465  11.262  67.695  1.00  0.00    -0.225 A  
HETATM    7  C   UNL     1     -11.709  11.925  67.732  1.00  0.00    -0.362 A  
HETATM    8  C   UNL     1     -11.790  13.315  67.686  1.00  0.00    -0.400 A  
ENDROOT
BRANCH   6   9
HETATM    9  C   UNL     1     -10.421   9.748  67.864  1.00  0.00    -0.239 C  
BRANCH   9  10
HETATM   10  C   UNL     1     -10.114   9.026  66.528  1.00  0.00    -0.283 C  
BRANCH  10  11
HETATM   11  N   UNL     1     -10.031   7.579  66.597  1.00  0.00    -0.222 NA 
HETATM   12  C   UNL     1      -8.927   6.817  66.326  1.00  0.00    -0.152 A  
HETATM   13  C   UNL     1     -11.018   6.725  67.003  1.00  0.00    -0.368 A  
HETATM   14  N   UNL     1     -10.655   5.469  66.875  1.00  0.00    -0.283 NA 
HETATM   15  C   UNL     1      -9.352   5.516  66.456  1.00  0.00    -0.147 A  
ENDBRANCH  10  11
ENDBRANCH   9  10
BRANCH   9  16
HETATM   16  O   UNL     1      -9.459   9.350  68.855  1.00  0.00    -0.150 OA 
BRANCH  16  17
HETATM   17  C   UNL     1      -9.834   9.712  70.186  1.00  0.00    -0.262 C  
BRANCH  17  18
HETATM   18  C   UNL     1     -10.977   8.835  70.622  1.00  0.00    -0.278 A  
HETATM   19  C   UNL     1     -10.897   7.431  70.604  1.00  0.00    -0.242 A  
HETATM   20 CL   UNL     1      -9.494   6.584  70.045  1.00  0.00    -0.159 Cl 
HETATM   21  C   UNL     1     -13.134   7.232  71.512  1.00  0.00    -0.434 A  
HETATM   22  C   UNL     1     -11.964   6.640  71.048  1.00  0.00    -0.415 A  
HETATM   23  C   UNL     1     -13.246   8.619  71.510  1.00  0.00    -0.335 A  
HETATM   24  C   UNL     1     -12.184   9.411  71.065  1.00  0.00    -0.279 A  
HETATM   25 CL   UNL     1     -12.422  11.127  71.096  1.00  0.00    -0.499 Cl 
ENDBRANCH  17  18
ENDBRANCH  16  17
ENDBRANCH   9  16
ENDBRANCH   6   9
TORSDOF 6
ENDMDL
MODEL      131
REMARK 921   NORMALIZED FREE ENERGY PREDICTED BY IDOCK:   -4.93 KCAL/MOL
REMARK 922        TOTAL FREE ENERGY PREDICTED BY IDOCK:   -7.67 KCAL/MOL
REMARK 923 INTER-LIGAND FREE ENERGY PREDICTED BY IDOCK:   -6.48 KCAL/MOL
REMARK 924 INTRA-LIGAND FREE ENERGY PREDICTED BY IDOCK:   -1.20 KCAL/MOL
REMARK 927      BINDING AFFINITY PREDICTED BY RF-SCORE:    0.00 PKD
ROOT
HETATM    1 CL   UNL     1      -9.397  16.946  66.131  1.00  0.00    -0.290 Cl 
HETATM    2  C   UNL     1      -9.476  15.245  66.371  1.00  0.00    -0.298 A  
HETATM    3  C   UNL     1     -10.568  14.528  65.887  1.00  0.00    -0.315 A  
HETATM    4  C   UNL     1     -10.610  13.139  66.036  1.00  0.00    -0.281 A  
HETATM    5 CL   UNL     1     -11.994  12.311  65.415  1.00  0.00    -0.443 Cl 
HETATM    6  C   UNL     1      -9.556  12.455  66.665  1.00  0.00    -0.230 A  
HETATM    7  C   UNL     1      -8.482  13.212  67.176  1.00  0.00    -0.173 A  
HETATM    8  C   UNL     1      -8.439  14.596  67.028  1.00  0.00    -0.237 A  
ENDROOT
BRANCH   6   9
HETATM    9  C   UNL     1      -9.503  10.934  66.750  1.00  0.00    -0.177 C  
BRANCH   9  10
HETATM   10  C   UNL     1      -8.067  10.419  67.018  1.00  0.00    -0.116 C  
BRANCH  10  11
HETATM   11  N   UNL     1      -7.865   8.992  66.845  1.00  0.00    -0.101 NA 
HETATM   12  C   UNL     1      -7.801   8.323  65.653  1.00  0.00    -0.104 A  
HETATM   13  C   UNL     1      -7.639   8.075  67.833  1.00  0.00    -0.112 A  
HETATM   14  N   UNL     1      -7.575   6.854  67.355  1.00  0.00    -0.106 NA 
HETATM   15  C   UNL     1      -7.672   6.998  65.996  1.00  0.00    -0.099 A  
ENDBRANCH  10  11
ENDBRANCH   9  10
BRANCH   9  16
HETATM   16  O   UNL     1     -10.390  10.425  67.761  1.00  0.00    -0.182 OA 
BRANCH  16  17
HETATM   17  C   UNL     1      -9.919  10.649  69.092  1.00  0.00    -0.211 C  
BRANCH  17  18
HETATM   18  C   UNL     1     -11.067  10.468  70.048  1.00  0.00    -0.376 A  
HETATM   19  C   UNL     1     -11.343   9.235  70.667  1.00  0.00    -0.275 A  
HETATM   20 CL   UNL     1     -10.413   7.809  70.357  1.00  0.00    -0.217 Cl 
HETATM   21  C   UNL     1     -13.202  10.196  71.888  1.00  0.00    -0.557 A  
HETATM   22  C   UNL     1     -12.397   9.104  71.579  1.00  0.00    -0.421 A  
HETATM   23  C   UNL     1     -12.965  11.418  71.264  1.00  0.00    -0.415 A  
HETATM   24  C   UNL     1     -11.916  11.551  70.351  1.00  0.00    -0.368 A  
HETATM   25 CL   UNL     1     -11.706  13.110  69.623  1.00  0.00    -0.372 Cl 
ENDBRANCH  17  18
ENDBRANCH  16  17
ENDBRANCH   9  16
ENDBRANCH   6   9
TORSDOF 6
ENDMDL
MODEL      132
REMARK 921   NORMALIZED FREE ENERGY PREDICTED BY IDOCK:   -4.92 KCAL/MOL
REMARK 922        TOTAL FREE ENERGY PREDICTED BY IDOCK:   -7.67 KCAL/MOL
REMARK 923 INTER-LIGAND FREE ENERGY PREDICTED BY IDOCK:   -6.88 KCAL/MOL
REMARK 924 INTRA-LIGAND FREE ENERGY PREDICTED BY IDOCK:   -0.79 KCAL/MOL
REMARK 927      BINDING AFFINITY PREDICTED BY RF-SCORE:    0.00 PKD
ROOT
HETATM    1 CL   UNL     1      -6.514  16.059  68.802  1.00  0.00    -0.115 Cl 
HETATM    2  C   UNL     1      -7.688  14.859  68.427  1.00  0.00    -0.115 A  
HETATM    3  C   UNL     1      -9.037  15.203  68.378  1.00  0.00    -0.185 A  
HETATM    4  C   UNL     1      -9.988  14.241  68.024  1.00  0.00    -0.220 A  
HETATM    5 CL   UNL     1     -11.644  14.735  67.984  1.00  0.00    -0.353 Cl 
HETATM    6  C   UNL     1      -9.596  12.930  67.709  1.00  0.00    -0.212 A  
HETATM    7  C   UNL     1      -8.228  12.603  67.803  1.00  0.00    -0.171 A  
HETATM    8  C   UNL     1      -7.279  13.560  68.156  1.00  0.00    -0.117 A  
ENDROOT
BRANCH   6   9
HETATM    9  C   UNL     1     -10.581  11.880  67.209  1.00  0.00    -0.228 C  
BRANCH   9  10
HETATM   10  C   UNL     1      -9.865  10.721  66.472  1.00  0.00    -0.203 C  
BRANCH  10  11
HETATM   11  N   UNL     1      -9.807  10.831  65.025  1.00  0.00    -0.264 NA 
HETATM   12  C   UNL     1      -9.178   9.967  64.172  1.00  0.00    -0.271 A  
HETATM   13  C   UNL     1     -10.422  11.779  64.255  1.00  0.00    -0.325 A  
HETATM   14  N   UNL     1     -10.109  11.650  62.987  1.00  0.00    -0.346 NA 
HETATM   15  C   UNL     1      -9.335  10.521  62.924  1.00  0.00    -0.326 A  
ENDBRANCH  10  11
ENDBRANCH   9  10
BRANCH   9  16
HETATM   16  O   UNL     1     -11.380  11.345  68.278  1.00  0.00    -0.236 OA 
BRANCH  16  17
HETATM   17  C   UNL     1     -10.602  10.793  69.344  1.00  0.00    -0.221 C  
BRANCH  17  18
HETATM   18  C   UNL     1     -11.533  10.152  70.339  1.00  0.00    -0.400 A  
HETATM   19  C   UNL     1     -11.568   8.762  70.548  1.00  0.00    -0.147 A  
HETATM   20 CL   UNL     1     -10.575   7.660  69.657  1.00  0.00    -0.242 Cl 
HETATM   21  C   UNL     1     -13.256   9.004  72.269  1.00  0.00    -0.519 A  
HETATM   22  C   UNL     1     -12.419   8.197  71.506  1.00  0.00    -0.333 A  
HETATM   23  C   UNL     1     -13.259  10.379  72.056  1.00  0.00    -0.497 A  
HETATM   24  C   UNL     1     -12.414  10.947  71.099  1.00  0.00    -0.405 A  
HETATM   25 CL   UNL     1     -12.494  12.666  70.905  1.00  0.00    -0.430 Cl 
ENDBRANCH  17  18
ENDBRANCH  16  17
ENDBRANCH   9  16
ENDBRANCH   6   9
TORSDOF 6
ENDMDL
MODEL      133
REMARK 921   NORMALIZED FREE ENERGY PREDICTED BY IDOCK:   -4.91 KCAL/MOL
REMARK 922        TOTAL FREE ENERGY PREDICTED BY IDOCK:   -7.64 KCAL/MOL
REMARK 923 INTER-LIGAND FREE ENERGY PREDICTED BY IDOCK:   -6.45 KCAL/MOL
REMARK 924 INTRA-LIGAND FREE ENERGY PREDICTED BY IDOCK:   -1.19 KCAL/MOL
REMARK 927      BINDING AFFINITY PREDICTED BY RF-SCORE:    0.00 PKD
ROOT
HETATM    1 CL   UNL     1     -13.916  14.379  72.445  1.00  0.00    -0.583 Cl 
HETATM    2  C   UNL     1     -12.930  14.298  71.038  1.00  0.00    -0.342 A  
HETATM    3  C   UNL     1     -12.549  15.472  70.391  1.00  0.00    -0.421 A  
HETATM    4  C   UNL     1     -11.707  15.411  69.277  1.00  0.00    -0.349 A  
HETATM    5 CL   UNL     1     -11.275  16.905  68.522  1.00  0.00    -0.218 Cl 
HETATM    6  C   UNL     1     -11.233  14.176  68.805  1.00  0.00    -0.294 A  
HETATM    7  C   UNL     1     -11.665  13.004  69.459  1.00  0.00    -0.381 A  
HETATM    8  C   UNL     1     -12.505  13.062  70.569  1.00  0.00    -0.306 A  
ENDROOT
BRANCH   6   9
HETATM    9  C   UNL     1     -10.225  14.068  67.668  1.00  0.00    -0.241 C  
BRANCH   9  10
HETATM   10  C   UNL     1      -8.774  14.299  68.158  1.00  0.00    -0.174 C  
BRANCH  10  11
HETATM   11  N   UNL     1      -8.204  15.599  67.855  1.00  0.00    -0.146 NA 
HETATM   12  C   UNL     1      -7.582  16.437  68.740  1.00  0.00    -0.211 A  
HETATM   13  C   UNL     1      -8.130  16.190  66.625  1.00  0.00    -0.288 A  
HETATM   14  N   UNL     1      -7.628  17.401  66.698  1.00  0.00    -0.230 NA 
HETATM   15  C   UNL     1      -7.281  17.563  68.013  1.00  0.00    -0.206 A  
ENDBRANCH  10  11
ENDBRANCH   9  10
BRANCH   9  16
HETATM   16  O   UNL     1     -10.308  12.796  67.002  1.00  0.00    -0.232 OA 
BRANCH  16  17
HETATM   17  C   UNL     1      -9.030  12.214  66.732  1.00  0.00    -0.203 C  
BRANCH  17  18
HETATM   18  C   UNL     1      -9.128  10.724  66.922  1.00  0.00    -0.160 A  
HETATM   19  C   UNL     1      -8.610  10.075  68.058  1.00  0.00    -0.121 A  
HETATM   20 CL   UNL     1      -7.782  10.922  69.319  1.00  0.00    -0.126 Cl 
HETATM   21  C   UNL     1      -9.396   7.926  67.261  1.00  0.00    -0.180 A  
HETATM   22  C   UNL     1      -8.747   8.691  68.224  1.00  0.00    -0.142 A  
HETATM   23  C   UNL     1      -9.889   8.544  66.115  1.00  0.00    -0.227 A  
HETATM   24  C   UNL     1      -9.751   9.924  65.944  1.00  0.00    -0.262 A  
HETATM   25 CL   UNL     1     -10.393  10.598  64.482  1.00  0.00    -0.409 Cl 
ENDBRANCH  17  18
ENDBRANCH  16  17
ENDBRANCH   9  16
ENDBRANCH   6   9
TORSDOF 6
ENDMDL
MODEL      134
REMARK 921   NORMALIZED FREE ENERGY PREDICTED BY IDOCK:   -4.87 KCAL/MOL
REMARK 922        TOTAL FREE ENERGY PREDICTED BY IDOCK:   -7.60 KCAL/MOL
REMARK 923 INTER-LIGAND FREE ENERGY PREDICTED BY IDOCK:   -6.67 KCAL/MOL
REMARK 924 INTRA-LIGAND FREE ENERGY PREDICTED BY IDOCK:   -0.93 KCAL/MOL
REMARK 927      BINDING AFFINITY PREDICTED BY RF-SCORE:    0.00 PKD
ROOT
HETATM    1 CL   UNL     1     -12.563   6.378  72.039  1.00  0.00    -0.275 Cl 
HETATM    2  C   UNL     1     -11.795   7.637  71.155  1.00  0.00    -0.293 A  
HETATM    3  C   UNL     1     -12.241   8.950  71.291  1.00  0.00    -0.351 A  
HETATM    4  C   UNL     1     -11.586   9.982  70.612  1.00  0.00    -0.340 A  
HETATM    5 CL   UNL     1     -12.193  11.586  70.824  1.00  0.00    -0.477 Cl 
HETATM    6  C   UNL     1     -10.476   9.710  69.797  1.00  0.00    -0.263 A  
HETATM    7  C   UNL     1     -10.070   8.367  69.650  1.00  0.00    -0.199 A  
HETATM    8  C   UNL     1     -10.722   7.338  70.326  1.00  0.00    -0.252 A  
ENDROOT
BRANCH   6   9
HETATM    9  C   UNL     1      -9.661  10.812  69.129  1.00  0.00    -0.163 C  
BRANCH   9  10
HETATM   10  C   UNL     1      -8.309  10.284  68.588  1.00  0.00    -0.122 C  
BRANCH  10  11
HETATM   11  N   UNL     1      -7.319  11.296  68.268  1.00  0.00    -0.089 NA 
HETATM   12  C   UNL     1      -6.740  12.169  69.149  1.00  0.00    -0.100 A  
HETATM   13  C   UNL     1      -6.743  11.516  67.048  1.00  0.00    -0.143 A  
HETATM   14  N   UNL     1      -5.943  12.558  67.071  1.00  0.00    -0.282 NA 
HETATM   15  C   UNL     1      -5.932  12.970  68.377  1.00  0.00    -0.077 A  
ENDBRANCH  10  11
ENDBRANCH   9  10
BRANCH   9  16
HETATM   16  O   UNL     1     -10.391  11.441  68.061  1.00  0.00    -0.176 OA 
BRANCH  16  17
HETATM   17  C   UNL     1     -11.015  10.508  67.176  1.00  0.00    -0.228 C  
BRANCH  17  18
HETATM   18  C   UNL     1     -10.634  10.855  65.761  1.00  0.00    -0.230 A  
HETATM   19  C   UNL     1      -9.729  10.079  65.014  1.00  0.00    -0.317 A  
HETATM   20 CL   UNL     1      -8.945   8.680  65.662  1.00  0.00    -0.236 Cl 
HETATM   21  C   UNL     1     -10.000  11.517  63.082  1.00  0.00    -0.404 A  
HETATM   22  C   UNL     1      -9.420  10.407  63.688  1.00  0.00    -0.353 A  
HETATM   23  C   UNL     1     -10.874  12.316  63.814  1.00  0.00    -0.495 A  
HETATM   24  C   UNL     1     -11.183  11.994  65.138  1.00  0.00    -0.315 A  
HETATM   25 CL   UNL     1     -12.277  13.052  65.966  1.00  0.00    -0.493 Cl 
ENDBRANCH  17  18
ENDBRANCH  16  17
ENDBRANCH   9  16
ENDBRANCH   6   9
TORSDOF 6
ENDMDL
MODEL      135
REMARK 921   NORMALIZED FREE ENERGY PREDICTED BY IDOCK:   -4.87 KCAL/MOL
REMARK 922        TOTAL FREE ENERGY PREDICTED BY IDOCK:   -7.60 KCAL/MOL
REMARK 923 INTER-LIGAND FREE ENERGY PREDICTED BY IDOCK:   -6.66 KCAL/MOL
REMARK 924 INTRA-LIGAND FREE ENERGY PREDICTED BY IDOCK:   -0.94 KCAL/MOL
REMARK 927      BINDING AFFINITY PREDICTED BY RF-SCORE:    0.00 PKD
ROOT
HETATM    1 CL   UNL     1     -12.375  12.865  63.261  1.00  0.00    -0.530 Cl 
HETATM    2  C   UNL     1     -11.683  13.539  64.683  1.00  0.00    -0.381 A  
HETATM    3  C   UNL     1     -12.187  13.186  65.933  1.00  0.00    -0.497 A  
HETATM    4  C   UNL     1     -11.593  13.693  67.092  1.00  0.00    -0.361 A  
HETATM    5 CL   UNL     1     -12.270  13.215  68.609  1.00  0.00    -0.199 Cl 
HETATM    6  C   UNL     1     -10.485  14.552  67.012  1.00  0.00    -0.268 A  
HETATM    7  C   UNL     1     -10.020  14.920  65.732  1.00  0.00    -0.376 A  
HETATM    8  C   UNL     1     -10.611  14.416  64.576  1.00  0.00    -0.186 A  
ENDROOT
BRANCH   6   9
HETATM    9  C   UNL     1      -9.735  15.039  68.246  1.00  0.00    -0.215 C  
BRANCH   9  10
HETATM   10  C   UNL     1      -8.822  13.937  68.839  1.00  0.00     0.109 C  
BRANCH  10  11
HETATM   11  N   UNL     1      -7.395  14.143  68.675  1.00  0.00    -0.120 NA 
HETATM   12  C   UNL     1      -6.473  14.258  69.680  1.00  0.00    -0.140 A  
HETATM   13  C   UNL     1      -6.709  14.197  67.494  1.00  0.00    -0.105 A  
HETATM   14  N   UNL     1      -5.440  14.475  67.683  1.00  0.00    -0.339 NA 
HETATM   15  C   UNL     1      -5.282  14.513  69.043  1.00  0.00    -0.089 A  
ENDBRANCH  10  11
ENDBRANCH   9  10
BRANCH   9  16
HETATM   16  O   UNL     1      -8.950  16.210  67.966  1.00  0.00    -0.183 OA 
BRANCH  16  17
HETATM   17  C   UNL     1      -9.183  17.281  68.884  1.00  0.00    -0.182 C  
BRANCH  17  18
HETATM   18  C   UNL     1      -8.629  18.551  68.296  1.00  0.00    -0.341 A  
HETATM   19  C   UNL     1      -9.394  19.393  67.469  1.00  0.00    -0.311 A  
HETATM   20 CL   UNL     1     -11.026  19.028  67.022  1.00  0.00    -0.411 Cl 
HETATM   21  C   UNL     1      -7.559  20.962  67.267  1.00  0.00    -0.312 A  
HETATM   22  C   UNL     1      -8.863  20.587  66.964  1.00  0.00    -0.357 A  
HETATM   23  C   UNL     1      -6.774  20.128  68.059  1.00  0.00    -0.321 A  
HETATM   24  C   UNL     1      -7.299  18.935  68.562  1.00  0.00    -0.299 A  
HETATM   25 CL   UNL     1      -6.243  17.963  69.533  1.00  0.00    -0.247 Cl 
ENDBRANCH  17  18
ENDBRANCH  16  17
ENDBRANCH   9  16
ENDBRANCH   6   9
TORSDOF 6
ENDMDL
MODEL      136
REMARK 921   NORMALIZED FREE ENERGY PREDICTED BY IDOCK:   -4.87 KCAL/MOL
REMARK 922        TOTAL FREE ENERGY PREDICTED BY IDOCK:   -7.60 KCAL/MOL
REMARK 923 INTER-LIGAND FREE ENERGY PREDICTED BY IDOCK:   -6.81 KCAL/MOL
REMARK 924 INTRA-LIGAND FREE ENERGY PREDICTED BY IDOCK:   -0.79 KCAL/MOL
REMARK 927      BINDING AFFINITY PREDICTED BY RF-SCORE:    0.00 PKD
ROOT
HETATM    1 CL   UNL     1      -8.659   8.122  73.509  1.00  0.00    -0.311 Cl 
HETATM    2  C   UNL     1      -8.981   8.544  71.873  1.00  0.00    -0.231 A  
HETATM    3  C   UNL     1     -10.170   9.193  71.548  1.00  0.00    -0.403 A  
HETATM    4  C   UNL     1     -10.412   9.582  70.227  1.00  0.00    -0.268 A  
HETATM    5 CL   UNL     1     -11.908  10.381  69.892  1.00  0.00    -0.319 Cl 
HETATM    6  C   UNL     1      -9.463   9.332  69.222  1.00  0.00    -0.160 A  
HETATM    7  C   UNL     1      -8.285   8.642  69.576  1.00  0.00    -0.115 A  
HETATM    8  C   UNL     1      -8.043   8.253  70.892  1.00  0.00    -0.105 A  
ENDROOT
BRANCH   6   9
HETATM    9  C   UNL     1      -9.631   9.837  67.794  1.00  0.00    -0.135 C  
BRANCH   9  10
HETATM   10  C   UNL     1     -10.657   8.993  66.999  1.00  0.00    -0.200 C  
BRANCH  10  11
HETATM   11  N   UNL     1     -10.298   7.603  66.780  1.00  0.00    -0.297 NA 
HETATM   12  C   UNL     1     -11.073   6.512  67.065  1.00  0.00    -0.339 A  
HETATM   13  C   UNL     1      -9.153   7.140  66.194  1.00  0.00    -0.119 A  
HETATM   14  N   UNL     1      -9.094   5.828  66.216  1.00  0.00    -0.144 NA 
HETATM   15  C   UNL     1     -10.288   5.427  66.755  1.00  0.00    -0.272 A  
ENDBRANCH  10  11
ENDBRANCH   9  10
BRANCH   9  16
HETATM   16  O   UNL     1     -10.021  11.220  67.761  1.00  0.00    -0.172 OA 
BRANCH  16  17
HETATM   17  C   UNL     1      -9.353  11.973  66.745  1.00  0.00    -0.205 C  
BRANCH  17  18
HETATM   18  C   UNL     1     -10.355  12.359  65.691  1.00  0.00    -0.284 A  
HETATM   19  C   UNL     1     -11.324  13.357  65.903  1.00  0.00    -0.309 A  
HETATM   20 CL   UNL     1     -11.475  14.204  67.404  1.00  0.00    -0.346 Cl 
HETATM   21  C   UNL     1     -12.178  13.091  63.651  1.00  0.00    -0.568 A  
HETATM   22  C   UNL     1     -12.222  13.719  64.891  1.00  0.00    -0.443 A  
HETATM   23  C   UNL     1     -11.247  12.079  63.430  1.00  0.00    -0.481 A  
HETATM   24  C   UNL     1     -10.352  11.713  64.438  1.00  0.00    -0.313 A  
HETATM   25 CL   UNL     1      -9.236  10.440  64.068  1.00  0.00    -0.269 Cl 
ENDBRANCH  17  18
ENDBRANCH  16  17
ENDBRANCH   9  16
ENDBRANCH   6   9
TORSDOF 6
ENDMDL
MODEL      137
REMARK 921   NORMALIZED FREE ENERGY PREDICTED BY IDOCK:   -4.86 KCAL/MOL
REMARK 922        TOTAL FREE ENERGY PREDICTED BY IDOCK:   -7.59 KCAL/MOL
REMARK 923 INTER-LIGAND FREE ENERGY PREDICTED BY IDOCK:   -6.35 KCAL/MOL
REMARK 924 INTRA-LIGAND FREE ENERGY PREDICTED BY IDOCK:   -1.23 KCAL/MOL
REMARK 927      BINDING AFFINITY PREDICTED BY RF-SCORE:    0.00 PKD
ROOT
HETATM    1 CL   UNL     1      -6.211  18.127  68.551  1.00  0.00    -0.194 Cl 
HETATM    2  C   UNL     1      -7.448  16.984  68.203  1.00  0.00    -0.195 A  
HETATM    3  C   UNL     1      -7.201  15.623  68.377  1.00  0.00    -0.115 A  
HETATM    4  C   UNL     1      -8.221  14.696  68.142  1.00  0.00    -0.142 A  
HETATM    5 CL   UNL     1      -7.846  13.024  68.375  1.00  0.00    -0.137 Cl 
HETATM    6  C   UNL     1      -9.497  15.122  67.739  1.00  0.00    -0.194 A  
HETATM    7  C   UNL     1      -9.705  16.502  67.537  1.00  0.00    -0.242 A  
HETATM    8  C   UNL     1      -8.690  17.428  67.770  1.00  0.00    -0.232 A  
ENDROOT
BRANCH   6   9
HETATM    9  C   UNL     1     -10.669  14.160  67.583  1.00  0.00    -0.257 C  
BRANCH   9  10
HETATM   10  C   UNL     1     -11.995  14.777  68.093  1.00  0.00    -0.230 C  
BRANCH  10  11
HETATM   11  N   UNL     1     -12.246  14.643  69.517  1.00  0.00    -0.289 NA 
HETATM   12  C   UNL     1     -12.235  13.478  70.235  1.00  0.00    -0.347 A  
HETATM   13  C   UNL     1     -12.477  15.658  70.403  1.00  0.00    -0.371 A  
HETATM   14  N   UNL     1     -12.747  15.201  71.604  1.00  0.00    -0.329 NA 
HETATM   15  C   UNL     1     -12.596  13.843  71.510  1.00  0.00    -0.334 A  
ENDBRANCH  10  11
ENDBRANCH   9  10
BRANCH   9  16
HETATM   16  O   UNL     1     -10.833  13.738  66.218  1.00  0.00    -0.282 OA 
BRANCH  16  17
HETATM   17  C   UNL     1     -11.556  12.511  66.088  1.00  0.00    -0.395 C  
BRANCH  17  18
HETATM   18  C   UNL     1     -10.598  11.426  65.677  1.00  0.00    -0.314 A  
HETATM   19  C   UNL     1     -10.126  11.300  64.358  1.00  0.00    -0.303 A  
HETATM   20 CL   UNL     1     -10.632  12.354  63.082  1.00  0.00    -0.237 Cl 
HETATM   21  C   UNL     1      -8.746   9.404  64.969  1.00  0.00    -0.216 A  
HETATM   22  C   UNL     1      -9.208  10.301  64.011  1.00  0.00    -0.311 A  
HETATM   23  C   UNL     1      -9.224   9.493  66.274  1.00  0.00    -0.219 A  
HETATM   24  C   UNL     1     -10.143  10.486  66.623  1.00  0.00    -0.222 A  
HETATM   25 CL   UNL     1     -10.681  10.511  68.269  1.00  0.00    -0.245 Cl 
ENDBRANCH  17  18
ENDBRANCH  16  17
ENDBRANCH   9  16
ENDBRANCH   6   9
TORSDOF 6
ENDMDL
MODEL      138
REMARK 921   NORMALIZED FREE ENERGY PREDICTED BY IDOCK:   -4.86 KCAL/MOL
REMARK 922        TOTAL FREE ENERGY PREDICTED BY IDOCK:   -7.58 KCAL/MOL
REMARK 923 INTER-LIGAND FREE ENERGY PREDICTED BY IDOCK:   -6.78 KCAL/MOL
REMARK 924 INTRA-LIGAND FREE ENERGY PREDICTED BY IDOCK:   -0.80 KCAL/MOL
REMARK 927      BINDING AFFINITY PREDICTED BY RF-SCORE:    0.00 PKD
ROOT
HETATM    1 CL   UNL     1      -7.981   9.802  68.292  1.00  0.00    -0.096 Cl 
HETATM    2  C   UNL     1      -8.705  11.306  67.877  1.00  0.00    -0.138 A  
HETATM    3  C   UNL     1      -9.843  11.328  67.073  1.00  0.00    -0.217 A  
HETATM    4  C   UNL     1     -10.462  12.545  66.776  1.00  0.00    -0.225 A  
HETATM    5 CL   UNL     1     -11.868  12.500  65.772  1.00  0.00    -0.479 Cl 
HETATM    6  C   UNL     1      -9.952  13.750  67.286  1.00  0.00    -0.239 A  
HETATM    7  C   UNL     1      -8.779  13.699  68.066  1.00  0.00    -0.176 A  
HETATM    8  C   UNL     1      -8.160  12.487  68.363  1.00  0.00    -0.136 A  
ENDROOT
BRANCH   6   9
HETATM    9  C   UNL     1     -10.656  15.087  67.084  1.00  0.00    -0.295 C  
BRANCH   9  10
HETATM   10  C   UNL     1     -11.991  15.161  67.866  1.00  0.00    -0.057 C  
BRANCH  10  11
HETATM   11  N   UNL     1     -11.877  15.149  69.314  1.00  0.00    -0.319 NA 
HETATM   12  C   UNL     1     -12.253  14.132  70.147  1.00  0.00    -0.351 A  
HETATM   13  C   UNL     1     -11.317  16.121  70.095  1.00  0.00    -0.340 A  
HETATM   14  N   UNL     1     -11.440  15.846  71.373  1.00  0.00    -0.417 NA 
HETATM   15  C   UNL     1     -12.020  14.606  71.416  1.00  0.00    -0.343 A  
ENDBRANCH  10  11
ENDBRANCH   9  10
BRANCH   9  16
HETATM   16  O   UNL     1      -9.819  16.193  67.462  1.00  0.00    -0.232 OA 
BRANCH  16  17
HETATM   17  C   UNL     1      -9.304  16.921  66.344  1.00  0.00    -0.276 C  
BRANCH  17  18
HETATM   18  C   UNL     1      -8.490  18.080  66.856  1.00  0.00    -0.262 A  
HETATM   19  C   UNL     1      -7.152  17.936  67.265  1.00  0.00    -0.183 A  
HETATM   20 CL   UNL     1      -6.333  16.412  67.253  1.00  0.00    -0.201 Cl 
HETATM   21  C   UNL     1      -6.984  20.304  67.749  1.00  0.00    -0.323 A  
HETATM   22  C   UNL     1      -6.408  19.039  67.703  1.00  0.00    -0.212 A  
HETATM   23  C   UNL     1      -8.316  20.463  67.378  1.00  0.00    -0.380 A  
HETATM   24  C   UNL     1      -9.062  19.365  66.943  1.00  0.00    -0.319 A  
HETATM   25 CL   UNL     1     -10.713  19.663  66.508  1.00  0.00    -0.566 Cl 
ENDBRANCH  17  18
ENDBRANCH  16  17
ENDBRANCH   9  16
ENDBRANCH   6   9
TORSDOF 6
ENDMDL
MODEL      139
REMARK 921   NORMALIZED FREE ENERGY PREDICTED BY IDOCK:   -4.85 KCAL/MOL
REMARK 922        TOTAL FREE ENERGY PREDICTED BY IDOCK:   -7.57 KCAL/MOL
REMARK 923 INTER-LIGAND FREE ENERGY PREDICTED BY IDOCK:   -6.38 KCAL/MOL
REMARK 924 INTRA-LIGAND FREE ENERGY PREDICTED BY IDOCK:   -1.19 KCAL/MOL
REMARK 927      BINDING AFFINITY PREDICTED BY RF-SCORE:    0.00 PKD
ROOT
HETATM    1 CL   UNL     1     -14.213  14.252  72.255  1.00  0.00    -0.608 Cl 
HETATM    2  C   UNL     1     -13.230  13.095  71.448  1.00  0.00    -0.207 A  
HETATM    3  C   UNL     1     -12.384  13.503  70.418  1.00  0.00    -0.397 A  
HETATM    4  C   UNL     1     -11.547  12.573  69.795  1.00  0.00    -0.221 A  
HETATM    5 CL   UNL     1     -10.525  13.147  68.525  1.00  0.00    -0.259 Cl 
HETATM    6  C   UNL     1     -11.544  11.229  70.200  1.00  0.00    -0.393 A  
HETATM    7  C   UNL     1     -12.437  10.839  71.219  1.00  0.00    -0.504 A  
HETATM    8  C   UNL     1     -13.272  11.764  71.842  1.00  0.00    -0.468 A  
ENDROOT
BRANCH   6   9
HETATM    9  C   UNL     1     -10.571  10.204  69.630  1.00  0.00    -0.257 C  
BRANCH   9  10
HETATM   10  C   UNL     1      -9.944   9.323  70.739  1.00  0.00    -0.290 C  
BRANCH  10  11
HETATM   11  N   UNL     1     -10.171   7.895  70.614  1.00  0.00    -0.195 NA 
HETATM   12  C   UNL     1      -9.235   6.952  70.284  1.00  0.00    -0.156 A  
HETATM   13  C   UNL     1     -11.338   7.230  70.865  1.00  0.00    -0.280 A  
HETATM   14  N   UNL     1     -11.239   5.951  70.582  1.00  0.00    -0.269 NA 
HETATM   15  C   UNL     1      -9.930   5.768  70.222  1.00  0.00    -0.198 A  
ENDBRANCH  10  11
ENDBRANCH   9  10
BRANCH   9  16
HETATM   16  O   UNL     1     -11.198   9.362  68.648  1.00  0.00    -0.011 OA 
BRANCH  16  17
HETATM   17  C   UNL     1     -10.890   9.736  67.302  1.00  0.00    -0.177 C  
BRANCH  17  18
HETATM   18  C   UNL     1      -9.696   8.944  66.842  1.00  0.00    -0.263 A  
HETATM   19  C   UNL     1      -8.460   9.549  66.549  1.00  0.00    -0.126 A  
HETATM   20 CL   UNL     1      -8.211  11.258  66.655  1.00  0.00    -0.161 Cl 
HETATM   21  C   UNL     1      -7.461   7.401  66.041  1.00  0.00    -0.083 A  
HETATM   22  C   UNL     1      -7.355   8.783  66.156  1.00  0.00    -0.086 A  
HETATM   23  C   UNL     1      -8.684   6.785  66.296  1.00  0.00    -0.152 A  
HETATM   24  C   UNL     1      -9.789   7.547  66.685  1.00  0.00    -0.204 A  
HETATM   25 CL   UNL     1     -11.266   6.690  66.975  1.00  0.00    -0.417 Cl 
ENDBRANCH  17  18
ENDBRANCH  16  17
ENDBRANCH   9  16
ENDBRANCH   6   9
TORSDOF 6
ENDMDL
MODEL      140
REMARK 921   NORMALIZED FREE ENERGY PREDICTED BY IDOCK:   -4.85 KCAL/MOL
REMARK 922        TOTAL FREE ENERGY PREDICTED BY IDOCK:   -7.57 KCAL/MOL
REMARK 923 INTER-LIGAND FREE ENERGY PREDICTED BY IDOCK:   -6.69 KCAL/MOL
REMARK 924 INTRA-LIGAND FREE ENERGY PREDICTED BY IDOCK:   -0.88 KCAL/MOL
REMARK 927      BINDING AFFINITY PREDICTED BY RF-SCORE:    0.00 PKD
ROOT
HETATM    1 CL   UNL     1     -13.114  15.502  71.528  1.00  0.00    -0.534 Cl 
HETATM    2  C   UNL     1     -12.580  14.036  70.805  1.00  0.00    -0.360 A  
HETATM    3  C   UNL     1     -11.707  14.077  69.719  1.00  0.00    -0.375 A  
HETATM    4  C   UNL     1     -11.232  12.886  69.162  1.00  0.00    -0.237 A  
HETATM    5 CL   UNL     1     -10.155  13.010  67.816  1.00  0.00    -0.224 Cl 
HETATM    6  C   UNL     1     -11.620  11.644  69.691  1.00  0.00    -0.401 A  
HETATM    7  C   UNL     1     -12.531  11.634  70.767  1.00  0.00    -0.425 A  
HETATM    8  C   UNL     1     -13.006  12.820  71.323  1.00  0.00    -0.310 A  
ENDROOT
BRANCH   6   9
HETATM    9  C   UNL     1     -11.041  10.326  69.192  1.00  0.00    -0.235 C  
BRANCH   9  10
HETATM   10  C   UNL     1     -11.105  10.214  67.648  1.00  0.00    -0.206 C  
BRANCH  10  11
HETATM   11  N   UNL     1     -10.324   9.140  67.060  1.00  0.00    -0.264 NA 
HETATM   12  C   UNL     1     -10.626   7.806  67.096  1.00  0.00    -0.331 A  
HETATM   13  C   UNL     1      -9.187   9.274  66.313  1.00  0.00    -0.186 A  
HETATM   14  N   UNL     1      -8.677   8.107  65.994  1.00  0.00    -0.149 NA 
HETATM   15  C   UNL     1      -9.568   7.185  66.476  1.00  0.00    -0.144 A  
ENDBRANCH  10  11
ENDBRANCH   9  10
BRANCH   9  16
HETATM   16  O   UNL     1      -9.684  10.140  69.629  1.00  0.00    -0.228 OA 
BRANCH  16  17
HETATM   17  C   UNL     1      -9.580   9.458  70.881  1.00  0.00    -0.231 C  
BRANCH  17  18
HETATM   18  C   UNL     1      -9.804   7.987  70.649  1.00  0.00    -0.192 A  
HETATM   19  C   UNL     1      -8.862   7.178  69.989  1.00  0.00    -0.142 A  
HETATM   20 CL   UNL     1      -7.381   7.803  69.351  1.00  0.00    -0.084 Cl 
HETATM   21  C   UNL     1     -10.247   5.213  70.297  1.00  0.00    -0.342 A  
HETATM   22  C   UNL     1      -9.082   5.805  69.819  1.00  0.00    -0.151 A  
HETATM   23  C   UNL     1     -11.206   6.002  70.926  1.00  0.00    -0.335 A  
HETATM   24  C   UNL     1     -10.991   7.372  71.095  1.00  0.00    -0.246 A  
HETATM   25 CL   UNL     1     -12.246   8.269  71.885  1.00  0.00    -0.356 Cl 
ENDBRANCH  17  18
ENDBRANCH  16  17
ENDBRANCH   9  16
ENDBRANCH   6   9
TORSDOF 6
ENDMDL
MODEL      141
REMARK 921   NORMALIZED FREE ENERGY PREDICTED BY IDOCK:   -4.84 KCAL/MOL
REMARK 922        TOTAL FREE ENERGY PREDICTED BY IDOCK:   -7.56 KCAL/MOL
REMARK 923 INTER-LIGAND FREE ENERGY PREDICTED BY IDOCK:   -6.40 KCAL/MOL
REMARK 924 INTRA-LIGAND FREE ENERGY PREDICTED BY IDOCK:   -1.16 KCAL/MOL
REMARK 927      BINDING AFFINITY PREDICTED BY RF-SCORE:    0.00 PKD
ROOT
HETATM    1 CL   UNL     1     -11.894  14.447  64.548  1.00  0.00    -0.453 Cl 
HETATM    2  C   UNL     1     -11.441  13.128  65.555  1.00  0.00    -0.315 A  
HETATM    3  C   UNL     1     -11.876  13.086  66.878  1.00  0.00    -0.442 A  
HETATM    4  C   UNL     1     -11.551  11.991  67.683  1.00  0.00    -0.321 A  
HETATM    5 CL   UNL     1     -12.122  12.005  69.315  1.00  0.00    -0.290 Cl 
HETATM    6  C   UNL     1     -10.795  10.925  67.170  1.00  0.00    -0.337 A  
HETATM    7  C   UNL     1     -10.338  11.013  65.839  1.00  0.00    -0.315 A  
HETATM    8  C   UNL     1     -10.660  12.104  65.035  1.00  0.00    -0.330 A  
ENDROOT
BRANCH   6   9
HETATM    9  C   UNL     1     -10.513   9.661  67.973  1.00  0.00    -0.229 C  
BRANCH   9  10
HETATM   10  C   UNL     1     -10.528   8.394  67.081  1.00  0.00    -0.310 C  
BRANCH  10  11
HETATM   11  N   UNL     1     -10.212   7.146  67.752  1.00  0.00    -0.171 NA 
HETATM   12  C   UNL     1     -10.996   6.496  68.664  1.00  0.00    -0.293 A  
HETATM   13  C   UNL     1      -9.107   6.368  67.545  1.00  0.00    -0.114 A  
HETATM   14  N   UNL     1      -9.077   5.343  68.366  1.00  0.00    -0.108 NA 
HETATM   15  C   UNL     1     -10.252   5.412  69.066  1.00  0.00    -0.221 A  
ENDBRANCH  10  11
ENDBRANCH   9  10
BRANCH   9  16
HETATM   16  O   UNL     1      -9.257   9.740  68.669  1.00  0.00    -0.133 OA 
BRANCH  16  17
HETATM   17  C   UNL     1      -9.386  10.194  70.019  1.00  0.00    -0.013 C  
BRANCH  17  18
HETATM   18  C   UNL     1      -9.510   8.997  70.922  1.00  0.00    -0.331 A  
HETATM   19  C   UNL     1      -8.513   8.008  71.001  1.00  0.00    -0.128 A  
HETATM   20 CL   UNL     1      -7.073   8.057  70.043  1.00  0.00    -0.049 Cl 
HETATM   21  C   UNL     1      -9.765   6.796  72.685  1.00  0.00    -0.164 A  
HETATM   22  C   UNL     1      -8.640   6.922  71.877  1.00  0.00    -0.118 A  
HETATM   23  C   UNL     1     -10.778   7.747  72.600  1.00  0.00    -0.402 A  
HETATM   24  C   UNL     1     -10.656   8.830  71.726  1.00  0.00    -0.347 A  
HETATM   25 CL   UNL     1     -11.971   9.958  71.688  1.00  0.00    -0.465 Cl 
ENDBRANCH  17  18
ENDBRANCH  16  17
ENDBRANCH   9  16
ENDBRANCH   6   9
TORSDOF 6
ENDMDL
MODEL      142
REMARK 921   NORMALIZED FREE ENERGY PREDICTED BY IDOCK:   -4.83 KCAL/MOL
REMARK 922        TOTAL FREE ENERGY PREDICTED BY IDOCK:   -7.55 KCAL/MOL
REMARK 923 INTER-LIGAND FREE ENERGY PREDICTED BY IDOCK:   -7.05 KCAL/MOL
REMARK 924 INTRA-LIGAND FREE ENERGY PREDICTED BY IDOCK:   -0.50 KCAL/MOL
REMARK 927      BINDING AFFINITY PREDICTED BY RF-SCORE:    0.00 PKD
ROOT
HETATM    1 CL   UNL     1      -9.542  10.107  63.572  1.00  0.00    -0.319 Cl 
HETATM    2  C   UNL     1      -9.771  11.456  64.615  1.00  0.00    -0.240 A  
HETATM    3  C   UNL     1     -10.559  12.527  64.199  1.00  0.00    -0.425 A  
HETATM    4  C   UNL     1     -10.787  13.601  65.064  1.00  0.00    -0.352 A  
HETATM    5 CL   UNL     1     -11.772  14.897  64.482  1.00  0.00    -0.409 Cl 
HETATM    6  C   UNL     1     -10.234  13.610  66.355  1.00  0.00    -0.292 A  
HETATM    7  C   UNL     1      -9.412  12.529  66.734  1.00  0.00    -0.231 A  
HETATM    8  C   UNL     1      -9.183  11.457  65.874  1.00  0.00    -0.231 A  
ENDROOT
BRANCH   6   9
HETATM    9  C   UNL     1     -10.547  14.701  67.371  1.00  0.00    -0.265 C  
BRANCH   9  10
HETATM   10  C   UNL     1     -11.992  14.585  67.918  1.00  0.00    -0.287 C  
BRANCH  10  11
HETATM   11  N   UNL     1     -12.158  13.746  69.091  1.00  0.00    -0.352 NA 
HETATM   12  C   UNL     1     -11.859  12.414  69.182  1.00  0.00    -0.300 A  
HETATM   13  C   UNL     1     -12.581  14.148  70.327  1.00  0.00    -0.306 A  
HETATM   14  N   UNL     1     -12.700  13.133  71.152  1.00  0.00    -0.343 NA 
HETATM   15  C   UNL     1     -12.250  12.048  70.448  1.00  0.00    -0.294 A  
ENDBRANCH  10  11
ENDBRANCH   9  10
BRANCH   9  16
HETATM   16  O   UNL     1      -9.619  14.689  68.469  1.00  0.00    -0.209 OA 
BRANCH  16  17
HETATM   17  C   UNL     1      -9.740  15.828  69.325  1.00  0.00    -0.263 C  
BRANCH  17  18
HETATM   18  C   UNL     1      -8.716  16.852  68.916  1.00  0.00    -0.212 A  
HETATM   19  C   UNL     1      -9.056  18.005  68.186  1.00  0.00    -0.276 A  
HETATM   20 CL   UNL     1     -10.671  18.333  67.661  1.00  0.00    -0.423 Cl 
HETATM   21  C   UNL     1      -6.760  18.779  68.226  1.00  0.00    -0.248 A  
HETATM   22  C   UNL     1      -8.087  18.959  67.849  1.00  0.00    -0.300 A  
HETATM   23  C   UNL     1      -6.397  17.630  68.923  1.00  0.00    -0.213 A  
HETATM   24  C   UNL     1      -7.360  16.675  69.258  1.00  0.00    -0.184 A  
HETATM   25 CL   UNL     1      -6.809  15.277  70.120  1.00  0.00    -0.076 Cl 
ENDBRANCH  17  18
ENDBRANCH  16  17
ENDBRANCH   9  16
ENDBRANCH   6   9
TORSDOF 6
ENDMDL
MODEL      143
REMARK 921   NORMALIZED FREE ENERGY PREDICTED BY IDOCK:   -4.83 KCAL/MOL
REMARK 922        TOTAL FREE ENERGY PREDICTED BY IDOCK:   -7.54 KCAL/MOL
REMARK 923 INTER-LIGAND FREE ENERGY PREDICTED BY IDOCK:   -6.83 KCAL/MOL
REMARK 924 INTRA-LIGAND FREE ENERGY PREDICTED BY IDOCK:   -0.71 KCAL/MOL
REMARK 927      BINDING AFFINITY PREDICTED BY RF-SCORE:    0.00 PKD
ROOT
HETATM    1 CL   UNL     1      -6.517  16.700  69.806  1.00  0.00    -0.193 Cl 
HETATM    2  C   UNL     1      -7.551  15.476  69.181  1.00  0.00    -0.204 A  
HETATM    3  C   UNL     1      -7.005  14.296  68.681  1.00  0.00    -0.105 A  
HETATM    4  C   UNL     1      -7.847  13.280  68.220  1.00  0.00    -0.143 A  
HETATM    5 CL   UNL     1      -7.102  11.843  67.611  1.00  0.00    -0.102 Cl 
HETATM    6  C   UNL     1      -9.242  13.433  68.260  1.00  0.00    -0.198 A  
HETATM    7  C   UNL     1      -9.764  14.653  68.738  1.00  0.00    -0.217 A  
HETATM    8  C   UNL     1      -8.927  15.667  69.198  1.00  0.00    -0.257 A  
ENDROOT
BRANCH   6   9
HETATM    9  C   UNL     1     -10.200  12.312  67.875  1.00  0.00    -0.200 C  
BRANCH   9  10
HETATM   10  C   UNL     1     -10.287  12.127  66.340  1.00  0.00    -0.218 C  
BRANCH  10  11
HETATM   11  N   UNL     1     -11.109  13.093  65.633  1.00  0.00    -0.275 NA 
HETATM   12  C   UNL     1     -10.657  14.135  64.870  1.00  0.00    -0.430 A  
HETATM   13  C   UNL     1     -12.473  13.098  65.551  1.00  0.00    -0.458 A  
HETATM   14  N   UNL     1     -12.916  14.151  64.904  1.00  0.00    -0.683 NA 
HETATM   15  C   UNL     1     -11.791  14.803  64.472  1.00  0.00    -0.419 A  
ENDBRANCH  10  11
ENDBRANCH   9  10
BRANCH   9  16
HETATM   16  O   UNL     1      -9.832  11.063  68.486  1.00  0.00    -0.177 OA 
BRANCH  16  17
HETATM   17  C   UNL     1     -10.827  10.047  68.342  1.00  0.00    -0.235 C  
BRANCH  17  18
HETATM   18  C   UNL     1     -10.969   9.320  69.652  1.00  0.00    -0.192 A  
HETATM   19  C   UNL     1     -10.396   8.055  69.876  1.00  0.00    -0.221 A  
HETATM   20 CL   UNL     1      -9.511   7.204  68.656  1.00  0.00    -0.140 Cl 
HETATM   21  C   UNL     1     -11.210   8.023  72.158  1.00  0.00    -0.380 A  
HETATM   22  C   UNL     1     -10.514   7.417  71.117  1.00  0.00    -0.220 A  
HETATM   23  C   UNL     1     -11.811   9.261  71.948  1.00  0.00    -0.426 A  
HETATM   24  C   UNL     1     -11.697   9.899  70.710  1.00  0.00    -0.341 A  
HETATM   25 CL   UNL     1     -12.484  11.434  70.547  1.00  0.00    -0.395 Cl 
ENDBRANCH  17  18
ENDBRANCH  16  17
ENDBRANCH   9  16
ENDBRANCH   6   9
TORSDOF 6
ENDMDL
MODEL      144
REMARK 921   NORMALIZED FREE ENERGY PREDICTED BY IDOCK:   -4.80 KCAL/MOL
REMARK 922        TOTAL FREE ENERGY PREDICTED BY IDOCK:   -7.51 KCAL/MOL
REMARK 923 INTER-LIGAND FREE ENERGY PREDICTED BY IDOCK:   -7.27 KCAL/MOL
REMARK 924 INTRA-LIGAND FREE ENERGY PREDICTED BY IDOCK:   -0.24 KCAL/MOL
REMARK 927      BINDING AFFINITY PREDICTED BY RF-SCORE:    0.00 PKD
ROOT
HETATM    1 CL   UNL     1     -12.246  13.402  63.183  1.00  0.00    -0.397 Cl 
HETATM    2  C   UNL     1     -11.480  12.510  64.437  1.00  0.00    -0.349 A  
HETATM    3  C   UNL     1     -10.306  11.808  64.170  1.00  0.00    -0.376 A  
HETATM    4  C   UNL     1      -9.655  11.123  65.200  1.00  0.00    -0.234 A  
HETATM    5 CL   UNL     1      -8.205  10.272  64.799  1.00  0.00    -0.163 Cl 
HETATM    6  C   UNL     1     -10.169  11.140  66.507  1.00  0.00    -0.275 A  
HETATM    7  C   UNL     1     -11.377  11.828  66.739  1.00  0.00    -0.385 A  
HETATM    8  C   UNL     1     -12.028  12.511  65.713  1.00  0.00    -0.482 A  
ENDROOT
BRANCH   6   9
HETATM    9  C   UNL     1      -9.436  10.505  67.683  1.00  0.00    -0.149 C  
BRANCH   9  10
HETATM   10  C   UNL     1      -8.632  11.550  68.496  1.00  0.00    -0.140 C  
BRANCH  10  11
HETATM   11  N   UNL     1      -8.784  12.931  68.074  1.00  0.00    -0.183 NA 
HETATM   12  C   UNL     1      -8.045  13.570  67.115  1.00  0.00    -0.082 A  
HETATM   13  C   UNL     1      -9.728  13.818  68.510  1.00  0.00    -0.193 A  
HETATM   14  N   UNL     1      -9.547  15.012  67.993  1.00  0.00    -0.206 NA 
HETATM   15  C   UNL     1      -8.502  14.866  67.120  1.00  0.00    -0.220 A  
ENDBRANCH  10  11
ENDBRANCH   9  10
BRANCH   9  16
HETATM   16  O   UNL     1     -10.337   9.807  68.559  1.00  0.00    -0.186 OA 
BRANCH  16  17
HETATM   17  C   UNL     1      -9.982   9.918  69.940  1.00  0.00    -0.252 C  
BRANCH  17  18
HETATM   18  C   UNL     1     -11.190   9.591  70.777  1.00  0.00    -0.383 A  
HETATM   19  C   UNL     1     -12.213  10.526  71.018  1.00  0.00    -0.400 A  
HETATM   20 CL   UNL     1     -12.159  12.145  70.409  1.00  0.00    -0.435 Cl 
HETATM   21  C   UNL     1     -13.473   8.904  72.305  1.00  0.00    -0.503 A  
HETATM   22  C   UNL     1     -13.343  10.183  71.772  1.00  0.00    -0.485 A  
HETATM   23  C   UNL     1     -12.458   7.973  72.103  1.00  0.00    -0.335 A  
HETATM   24  C   UNL     1     -11.328   8.313  71.355  1.00  0.00    -0.262 A  
HETATM   25 CL   UNL     1     -10.118   7.087  71.164  1.00  0.00    -0.194 Cl 
ENDBRANCH  17  18
ENDBRANCH  16  17
ENDBRANCH   9  16
ENDBRANCH   6   9
TORSDOF 6
ENDMDL
MODEL      145
REMARK 921   NORMALIZED FREE ENERGY PREDICTED BY IDOCK:   -4.80 KCAL/MOL
REMARK 922        TOTAL FREE ENERGY PREDICTED BY IDOCK:   -7.51 KCAL/MOL
REMARK 923 INTER-LIGAND FREE ENERGY PREDICTED BY IDOCK:   -6.82 KCAL/MOL
REMARK 924 INTRA-LIGAND FREE ENERGY PREDICTED BY IDOCK:   -0.68 KCAL/MOL
REMARK 927      BINDING AFFINITY PREDICTED BY RF-SCORE:    0.00 PKD
ROOT
HETATM    1 CL   UNL     1      -8.613   4.840  65.475  1.00  0.00    -0.126 Cl 
HETATM    2  C   UNL     1      -9.127   6.299  66.227  1.00  0.00    -0.153 A  
HETATM    3  C   UNL     1      -8.311   7.428  66.176  1.00  0.00    -0.139 A  
HETATM    4  C   UNL     1      -8.749   8.628  66.743  1.00  0.00    -0.124 A  
HETATM    5 CL   UNL     1      -7.687   9.989  66.646  1.00  0.00    -0.103 Cl 
HETATM    6  C   UNL     1     -10.008   8.712  67.359  1.00  0.00    -0.270 A  
HETATM    7  C   UNL     1     -10.794   7.543  67.427  1.00  0.00    -0.272 A  
HETATM    8  C   UNL     1     -10.360   6.346  66.862  1.00  0.00    -0.306 A  
ENDROOT
BRANCH   6   9
HETATM    9  C   UNL     1     -10.574  10.024  67.889  1.00  0.00    -0.250 C  
BRANCH   9  10
HETATM   10  C   UNL     1     -10.008  10.375  69.287  1.00  0.00    -0.228 C  
BRANCH  10  11
HETATM   11  N   UNL     1     -10.675   9.749  70.415  1.00  0.00    -0.286 NA 
HETATM   12  C   UNL     1     -11.974   9.946  70.798  1.00  0.00    -0.323 A  
HETATM   13  C   UNL     1     -10.148   8.808  71.253  1.00  0.00    -0.266 A  
HETATM   14  N   UNL     1     -10.980   8.501  72.222  1.00  0.00    -0.359 NA 
HETATM   15  C   UNL     1     -12.123   9.203  71.945  1.00  0.00    -0.378 A  
ENDBRANCH  10  11
ENDBRANCH   9  10
BRANCH   9  16
HETATM   16  O   UNL     1     -10.327  11.114  66.985  1.00  0.00    -0.206 OA 
BRANCH  16  17
HETATM   17  C   UNL     1     -11.517  11.797  66.582  1.00  0.00    -0.267 C  
BRANCH  17  18
HETATM   18  C   UNL     1     -11.200  13.258  66.407  1.00  0.00    -0.325 A  
HETATM   19  C   UNL     1     -11.112  14.144  67.496  1.00  0.00    -0.291 A  
HETATM   20 CL   UNL     1     -11.396  13.645  69.129  1.00  0.00    -0.316 Cl 
HETATM   21  C   UNL     1     -10.539  15.985  66.029  1.00  0.00    -0.324 A  
HETATM   22  C   UNL     1     -10.782  15.492  67.307  1.00  0.00    -0.308 A  
HETATM   23  C   UNL     1     -10.651  15.132  64.935  1.00  0.00    -0.392 A  
HETATM   24  C   UNL     1     -10.983  13.787  65.120  1.00  0.00    -0.337 A  
HETATM   25 CL   UNL     1     -11.103  12.808  63.695  1.00  0.00    -0.473 Cl 
ENDBRANCH  17  18
ENDBRANCH  16  17
ENDBRANCH   9  16
ENDBRANCH   6   9
TORSDOF 6
ENDMDL
MODEL      146
REMARK 921   NORMALIZED FREE ENERGY PREDICTED BY IDOCK:   -4.80 KCAL/MOL
REMARK 922        TOTAL FREE ENERGY PREDICTED BY IDOCK:   -7.50 KCAL/MOL
REMARK 923 INTER-LIGAND FREE ENERGY PREDICTED BY IDOCK:   -6.52 KCAL/MOL
REMARK 924 INTRA-LIGAND FREE ENERGY PREDICTED BY IDOCK:   -0.98 KCAL/MOL
REMARK 927      BINDING AFFINITY PREDICTED BY RF-SCORE:    0.00 PKD
ROOT
HETATM    1 CL   UNL     1      -7.665   9.839  64.827  1.00  0.00    -0.122 Cl 
HETATM    2  C   UNL     1      -8.559   9.632  66.281  1.00  0.00    -0.127 A  
HETATM    3  C   UNL     1      -7.945   9.867  67.510  1.00  0.00    -0.106 A  
HETATM    4  C   UNL     1      -8.684   9.748  68.691  1.00  0.00    -0.122 A  
HETATM    5 CL   UNL     1      -7.860  10.053  70.180  1.00  0.00    -0.184 Cl 
HETATM    6  C   UNL     1     -10.044   9.400  68.652  1.00  0.00    -0.208 A  
HETATM    7  C   UNL     1     -10.627   9.133  67.397  1.00  0.00    -0.315 A  
HETATM    8  C   UNL     1      -9.893   9.250  66.219  1.00  0.00    -0.361 A  
ENDROOT
BRANCH   6   9
HETATM    9  C   UNL     1     -10.916   9.369  69.902  1.00  0.00    -0.229 C  
BRANCH   9  10
HETATM   10  C   UNL     1     -10.311   8.470  71.008  1.00  0.00    -0.209 C  
BRANCH  10  11
HETATM   11  N   UNL     1     -10.097   7.081  70.646  1.00  0.00    -0.191 NA 
HETATM   12  C   UNL     1     -11.011   6.247  70.062  1.00  0.00    -0.358 A  
HETATM   13  C   UNL     1      -8.931   6.377  70.766  1.00  0.00    -0.144 A  
HETATM   14  N   UNL     1      -9.087   5.119  70.424  1.00  0.00    -0.131 NA 
HETATM   15  C   UNL     1     -10.380   5.028  69.981  1.00  0.00    -0.233 A  
ENDBRANCH  10  11
ENDBRANCH   9  10
BRANCH   9  16
HETATM   16  O   UNL     1     -11.140  10.689  70.428  1.00  0.00    -0.285 OA 
BRANCH  16  17
HETATM   17  C   UNL     1     -12.265  11.348  69.841  1.00  0.00    -0.277 C  
BRANCH  17  18
HETATM   18  C   UNL     1     -12.072  12.836  69.966  1.00  0.00    -0.355 A  
HETATM   19  C   UNL     1     -12.598  13.575  71.041  1.00  0.00    -0.359 A  
HETATM   20 CL   UNL     1     -13.546  12.850  72.294  1.00  0.00    -0.658 Cl 
HETATM   21  C   UNL     1     -11.625  15.623  70.187  1.00  0.00    -0.366 A  
HETATM   22  C   UNL     1     -12.373  14.953  71.150  1.00  0.00    -0.387 A  
HETATM   23  C   UNL     1     -11.120  14.916  69.099  1.00  0.00    -0.279 A  
HETATM   24  C   UNL     1     -11.346  13.542  68.986  1.00  0.00    -0.288 A  
HETATM   25 CL   UNL     1     -10.681  12.752  67.594  1.00  0.00    -0.227 Cl 
ENDBRANCH  17  18
ENDBRANCH  16  17
ENDBRANCH   9  16
ENDBRANCH   6   9
TORSDOF 6
ENDMDL
MODEL      147
REMARK 921   NORMALIZED FREE ENERGY PREDICTED BY IDOCK:   -4.79 KCAL/MOL
REMARK 922        TOTAL FREE ENERGY PREDICTED BY IDOCK:   -7.49 KCAL/MOL
REMARK 923 INTER-LIGAND FREE ENERGY PREDICTED BY IDOCK:   -6.81 KCAL/MOL
REMARK 924 INTRA-LIGAND FREE ENERGY PREDICTED BY IDOCK:   -0.67 KCAL/MOL
REMARK 927      BINDING AFFINITY PREDICTED BY RF-SCORE:    0.00 PKD
ROOT
HETATM    1 CL   UNL     1      -9.248  10.212  62.363  1.00  0.00    -0.299 Cl 
HETATM    2  C   UNL     1      -9.642  10.871  63.902  1.00  0.00    -0.284 A  
HETATM    3  C   UNL     1     -10.823  11.592  64.064  1.00  0.00    -0.455 A  
HETATM    4  C   UNL     1     -11.169  12.086  65.326  1.00  0.00    -0.322 A  
HETATM    5 CL   UNL     1     -12.647  12.973  65.455  1.00  0.00    -0.502 Cl 
HETATM    6  C   UNL     1     -10.341  11.856  66.436  1.00  0.00    -0.252 A  
HETATM    7  C   UNL     1      -9.135  11.154  66.233  1.00  0.00    -0.207 A  
HETATM    8  C   UNL     1      -8.788  10.662  64.977  1.00  0.00    -0.212 A  
ENDROOT
BRANCH   6   9
HETATM    9  C   UNL     1     -10.732  12.274  67.849  1.00  0.00    -0.215 C  
BRANCH   9  10
HETATM   10  C   UNL     1     -10.604  11.103  68.855  1.00  0.00    -0.207 C  
BRANCH  10  11
HETATM   11  N   UNL     1     -11.513  11.140  69.986  1.00  0.00    -0.298 NA 
HETATM   12  C   UNL     1     -11.817  10.094  70.814  1.00  0.00    -0.351 A  
HETATM   13  C   UNL     1     -12.175  12.236  70.464  1.00  0.00    -0.300 A  
HETATM   14  N   UNL     1     -12.982  11.922  71.451  1.00  0.00    -0.356 NA 
HETATM   15  C   UNL     1     -12.765  10.589  71.678  1.00  0.00    -0.445 A  
ENDBRANCH  10  11
ENDBRANCH   9  10
BRANCH   9  16
HETATM   16  O   UNL     1      -9.949  13.389  68.310  1.00  0.00    -0.231 OA 
BRANCH  16  17
HETATM   17  C   UNL     1      -9.684  14.355  67.290  1.00  0.00    -0.233 C  
BRANCH  17  18
HETATM   18  C   UNL     1      -8.647  15.321  67.798  1.00  0.00    -0.163 A  
HETATM   19  C   UNL     1      -8.966  16.641  68.167  1.00  0.00    -0.210 A  
HETATM   20 CL   UNL     1     -10.567  17.284  68.034  1.00  0.00    -0.384 Cl 
HETATM   21  C   UNL     1      -6.671  17.079  68.809  1.00  0.00    -0.193 A  
HETATM   22  C   UNL     1      -7.987  17.507  68.669  1.00  0.00    -0.268 A  
HETATM   23  C   UNL     1      -6.328  15.787  68.422  1.00  0.00    -0.110 A  
HETATM   24  C   UNL     1      -7.302  14.920  67.917  1.00  0.00    -0.147 A  
HETATM   25 CL   UNL     1      -6.775  13.335  67.458  1.00  0.00    -0.171 Cl 
ENDBRANCH  17  18
ENDBRANCH  16  17
ENDBRANCH   9  16
ENDBRANCH   6   9
TORSDOF 6
ENDMDL
MODEL      148
REMARK 921   NORMALIZED FREE ENERGY PREDICTED BY IDOCK:   -4.79 KCAL/MOL
REMARK 922        TOTAL FREE ENERGY PREDICTED BY IDOCK:   -7.49 KCAL/MOL
REMARK 923 INTER-LIGAND FREE ENERGY PREDICTED BY IDOCK:   -6.70 KCAL/MOL
REMARK 924 INTRA-LIGAND FREE ENERGY PREDICTED BY IDOCK:   -0.79 KCAL/MOL
REMARK 927      BINDING AFFINITY PREDICTED BY RF-SCORE:    0.00 PKD
ROOT
HETATM    1 CL   UNL     1     -12.662  11.969  63.091  1.00  0.00    -0.506 Cl 
HETATM    2  C   UNL     1     -11.734  12.232  64.514  1.00  0.00    -0.353 A  
HETATM    3  C   UNL     1     -12.280  12.953  65.574  1.00  0.00    -0.527 A  
HETATM    4  C   UNL     1     -11.546  13.124  66.751  1.00  0.00    -0.366 A  
HETATM    5 CL   UNL     1     -12.284  14.031  68.025  1.00  0.00    -0.290 Cl 
HETATM    6  C   UNL     1     -10.262  12.571  66.881  1.00  0.00    -0.237 A  
HETATM    7  C   UNL     1      -9.722  11.877  65.779  1.00  0.00    -0.258 A  
HETATM    8  C   UNL     1     -10.451  11.705  64.604  1.00  0.00    -0.354 A  
ENDROOT
BRANCH   6   9
HETATM    9  C   UNL     1      -9.472  12.634  68.183  1.00  0.00    -0.218 C  
BRANCH   9  10
HETATM   10  C   UNL     1      -8.984  11.233  68.631  1.00  0.00    -0.147 C  
BRANCH  10  11
HETATM   11  N   UNL     1      -9.830  10.548  69.592  1.00  0.00    -0.144 NA 
HETATM   12  C   UNL     1      -9.446   9.540  70.434  1.00  0.00    -0.262 A  
HETATM   13  C   UNL     1     -11.138  10.828  69.872  1.00  0.00    -0.271 A  
HETATM   14  N   UNL     1     -11.642   9.975  70.734  1.00  0.00    -0.332 NA 
HETATM   15  C   UNL     1     -10.594   9.169  71.092  1.00  0.00    -0.309 A  
ENDBRANCH  10  11
ENDBRANCH   9  10
BRANCH   9  16
HETATM   16  O   UNL     1      -8.346  13.521  68.080  1.00  0.00    -0.146 OA 
BRANCH  16  17
HETATM   17  C   UNL     1      -8.485  14.707  68.867  1.00  0.00    -0.136 C  
BRANCH  17  18
HETATM   18  C   UNL     1      -8.148  15.898  68.011  1.00  0.00    -0.144 A  
HETATM   19  C   UNL     1      -9.104  16.869  67.663  1.00  0.00    -0.223 A  
HETATM   20 CL   UNL     1     -10.760  16.764  68.154  1.00  0.00    -0.351 Cl 
HETATM   21  C   UNL     1      -7.445  18.154  66.452  1.00  0.00    -0.287 A  
HETATM   22  C   UNL     1      -8.753  17.986  66.894  1.00  0.00    -0.261 A  
HETATM   23  C   UNL     1      -6.490  17.189  66.759  1.00  0.00    -0.254 A  
HETATM   24  C   UNL     1      -6.837  16.072  67.524  1.00  0.00    -0.176 A  
HETATM   25 CL   UNL     1      -5.580  14.925  67.849  1.00  0.00    -0.143 Cl 
ENDBRANCH  17  18
ENDBRANCH  16  17
ENDBRANCH   9  16
ENDBRANCH   6   9
TORSDOF 6
ENDMDL
MODEL      149
REMARK 921   NORMALIZED FREE ENERGY PREDICTED BY IDOCK:   -4.79 KCAL/MOL
REMARK 922        TOTAL FREE ENERGY PREDICTED BY IDOCK:   -7.48 KCAL/MOL
REMARK 923 INTER-LIGAND FREE ENERGY PREDICTED BY IDOCK:   -6.62 KCAL/MOL
REMARK 924 INTRA-LIGAND FREE ENERGY PREDICTED BY IDOCK:   -0.86 KCAL/MOL
REMARK 927      BINDING AFFINITY PREDICTED BY RF-SCORE:    0.00 PKD
ROOT
HETATM    1 CL   UNL     1      -5.208  14.465  70.420  1.00  0.00    -0.097 Cl 
HETATM    2  C   UNL     1      -6.329  14.573  69.120  1.00  0.00    -0.100 A  
HETATM    3  C   UNL     1      -7.109  13.469  68.784  1.00  0.00    -0.103 A  
HETATM    4  C   UNL     1      -8.056  13.570  67.760  1.00  0.00    -0.177 A  
HETATM    5 CL   UNL     1      -8.988  12.162  67.395  1.00  0.00    -0.173 Cl 
HETATM    6  C   UNL     1      -8.235  14.779  67.069  1.00  0.00    -0.211 A  
HETATM    7  C   UNL     1      -7.405  15.868  67.406  1.00  0.00    -0.224 A  
HETATM    8  C   UNL     1      -6.461  15.769  68.426  1.00  0.00    -0.113 A  
ENDROOT
BRANCH   6   9
HETATM    9  C   UNL     1      -9.329  14.971  66.026  1.00  0.00    -0.269 C  
BRANCH   9  10
HETATM   10  C   UNL     1     -10.632  14.227  66.412  1.00  0.00    -0.286 C  
BRANCH  10  11
HETATM   11  N   UNL     1     -11.275  13.483  65.343  1.00  0.00    -0.288 NA 
HETATM   12  C   UNL     1     -10.688  13.068  64.179  1.00  0.00    -0.402 A  
HETATM   13  C   UNL     1     -12.558  13.012  65.336  1.00  0.00    -0.422 A  
HETATM   14  N   UNL     1     -12.861  12.448  64.190  1.00  0.00    -0.737 NA 
HETATM   15  C   UNL     1     -11.700  12.476  63.462  1.00  0.00    -0.518 A  
ENDBRANCH  10  11
ENDBRANCH   9  10
BRANCH   9  16
HETATM   16  O   UNL     1      -9.620  16.362  65.808  1.00  0.00    -0.452 OA 
BRANCH  16  17
HETATM   17  C   UNL     1     -10.837  16.789  66.424  1.00  0.00     0.011 C  
BRANCH  17  18
HETATM   18  C   UNL     1     -10.527  17.910  67.380  1.00  0.00    -0.390 A  
HETATM   19  C   UNL     1     -10.318  17.692  68.754  1.00  0.00    -0.348 A  
HETATM   20 CL   UNL     1     -10.436  16.123  69.476  1.00  0.00    -0.274 Cl 
HETATM   21  C   UNL     1      -9.883  20.046  69.123  1.00  0.00    -0.220 A  
HETATM   22  C   UNL     1      -9.997  18.749  69.613  1.00  0.00     0.332 A  
HETATM   23  C   UNL     1     -10.116  20.289  67.772  1.00  0.00    -0.505 A  
HETATM   24  C   UNL     1     -10.440  19.237  66.912  1.00  0.00    -0.449 A  
HETATM   25 CL   UNL     1     -10.716  19.641  65.250  1.00  0.00    -0.209 Cl 
ENDBRANCH  17  18
ENDBRANCH  16  17
ENDBRANCH   9  16
ENDBRANCH   6   9
TORSDOF 6
ENDMDL
MODEL      150
REMARK 921   NORMALIZED FREE ENERGY PREDICTED BY IDOCK:   -4.78 KCAL/MOL
REMARK 922        TOTAL FREE ENERGY PREDICTED BY IDOCK:   -7.47 KCAL/MOL
REMARK 923 INTER-LIGAND FREE ENERGY PREDICTED BY IDOCK:   -6.91 KCAL/MOL
REMARK 924 INTRA-LIGAND FREE ENERGY PREDICTED BY IDOCK:   -0.56 KCAL/MOL
REMARK 927      BINDING AFFINITY PREDICTED BY RF-SCORE:    0.00 PKD
ROOT
HETATM    1 CL   UNL     1     -11.811   5.936  72.127  1.00  0.00    -0.306 Cl 
HETATM    2  C   UNL     1     -11.038   7.159  71.198  1.00  0.00    -0.254 A  
HETATM    3  C   UNL     1     -11.039   7.076  69.807  1.00  0.00    -0.278 A  
HETATM    4  C   UNL     1     -10.455   8.094  69.048  1.00  0.00    -0.198 A  
HETATM    5 CL   UNL     1     -10.490   7.927  67.328  1.00  0.00    -0.374 Cl 
HETATM    6  C   UNL     1      -9.870   9.207  69.674  1.00  0.00    -0.188 A  
HETATM    7  C   UNL     1      -9.851   9.245  71.084  1.00  0.00    -0.342 A  
HETATM    8  C   UNL     1     -10.433   8.231  71.841  1.00  0.00    -0.342 A  
ENDROOT
BRANCH   6   9
HETATM    9  C   UNL     1      -9.323  10.394  68.889  1.00  0.00    -0.186 C  
BRANCH   9  10
HETATM   10  C   UNL     1      -7.827  10.210  68.532  1.00  0.00    -0.095 C  
BRANCH  10  11
HETATM   11  N   UNL     1      -6.880  10.837  69.438  1.00  0.00    -0.095 NA 
HETATM   12  C   UNL     1      -6.401  12.115  69.351  1.00  0.00    -0.116 A  
HETATM   13  C   UNL     1      -6.348  10.285  70.569  1.00  0.00    -0.112 A  
HETATM   14  N   UNL     1      -5.462  11.080  71.125  1.00  0.00    -0.281 NA 
HETATM   15  C   UNL     1      -5.490  12.225  70.373  1.00  0.00    -0.150 A  
ENDBRANCH  10  11
ENDBRANCH   9  10
BRANCH   9  16
HETATM   16  O   UNL     1     -10.075  10.630  67.688  1.00  0.00    -0.169 OA 
BRANCH  16  17
HETATM   17  C   UNL     1      -9.636  11.781  66.962  1.00  0.00    -0.187 C  
BRANCH  17  18
HETATM   18  C   UNL     1     -10.567  12.004  65.800  1.00  0.00    -0.301 A  
HETATM   19  C   UNL     1     -10.382  11.375  64.556  1.00  0.00    -0.313 A  
HETATM   20 CL   UNL     1      -9.049  10.320  64.235  1.00  0.00    -0.249 Cl 
HETATM   21  C   UNL     1     -12.385  12.409  63.667  1.00  0.00    -0.647 A  
HETATM   22  C   UNL     1     -11.284  11.574  63.504  1.00  0.00    -0.412 A  
HETATM   23  C   UNL     1     -12.570  13.065  64.881  1.00  0.00    -0.490 A  
HETATM   24  C   UNL     1     -11.671  12.871  65.932  1.00  0.00    -0.399 A  
HETATM   25 CL   UNL     1     -11.985  13.736  67.400  1.00  0.00    -0.427 Cl 
ENDBRANCH  17  18
ENDBRANCH  16  17
ENDBRANCH   9  16
ENDBRANCH   6   9
TORSDOF 6
ENDMDL
MODEL      151
REMARK 921   NORMALIZED FREE ENERGY PREDICTED BY IDOCK:   -4.78 KCAL/MOL
REMARK 922        TOTAL FREE ENERGY PREDICTED BY IDOCK:   -7.47 KCAL/MOL
REMARK 923 INTER-LIGAND FREE ENERGY PREDICTED BY IDOCK:   -6.63 KCAL/MOL
REMARK 924 INTRA-LIGAND FREE ENERGY PREDICTED BY IDOCK:   -0.84 KCAL/MOL
REMARK 927      BINDING AFFINITY PREDICTED BY RF-SCORE:    0.00 PKD
ROOT
HETATM    1 CL   UNL     1      -7.057  16.763  66.432  1.00  0.00    -0.248 Cl 
HETATM    2  C   UNL     1      -8.103  15.474  66.876  1.00  0.00    -0.249 A  
HETATM    3  C   UNL     1      -9.469  15.570  66.617  1.00  0.00    -0.281 A  
HETATM    4  C   UNL     1     -10.315  14.503  66.932  1.00  0.00    -0.264 A  
HETATM    5 CL   UNL     1     -11.998  14.690  66.587  1.00  0.00    -0.347 Cl 
HETATM    6  C   UNL     1      -9.801  13.327  67.502  1.00  0.00    -0.220 A  
HETATM    7  C   UNL     1      -8.420  13.273  67.785  1.00  0.00    -0.181 A  
HETATM    8  C   UNL     1      -7.576  14.336  67.472  1.00  0.00    -0.202 A  
ENDROOT
BRANCH   6   9
HETATM    9  C   UNL     1     -10.663  12.096  67.756  1.00  0.00    -0.209 C  
BRANCH   9  10
HETATM   10  C   UNL     1     -11.628  12.303  68.949  1.00  0.00    -0.316 C  
BRANCH  10  11
HETATM   11  N   UNL     1     -11.639  11.246  69.944  1.00  0.00    -0.315 NA 
HETATM   12  C   UNL     1     -10.695  10.267  70.095  1.00  0.00    -0.278 A  
HETATM   13  C   UNL     1     -12.555  11.077  70.944  1.00  0.00    -0.391 A  
HETATM   14  N   UNL     1     -12.329   9.979  71.629  1.00  0.00    -0.399 NA 
HETATM   15  C   UNL     1     -11.170   9.468  71.108  1.00  0.00    -0.376 A  
ENDBRANCH  10  11
ENDBRANCH   9  10
BRANCH   9  16
HETATM   16  O   UNL     1     -11.417  11.723  66.590  1.00  0.00    -0.399 OA 
BRANCH  16  17
HETATM   17  C   UNL     1     -11.138  10.396  66.136  1.00  0.00     0.338 C  
BRANCH  17  18
HETATM   18  C   UNL     1     -10.103  10.467  65.045  1.00  0.00    -0.379 A  
HETATM   19  C   UNL     1      -8.831   9.878  65.176  1.00  0.00    -0.180 A  
HETATM   20 CL   UNL     1      -8.329   9.055  66.613  1.00  0.00    -0.117 Cl 
HETATM   21  C   UNL     1      -8.214  10.572  62.939  1.00  0.00    -0.152 A  
HETATM   22  C   UNL     1      -7.900   9.929  64.131  1.00  0.00    -0.142 A  
HETATM   23  C   UNL     1      -9.455  11.188  62.800  1.00  0.00    -0.357 A  
HETATM   24  C   UNL     1     -10.385  11.141  63.841  1.00  0.00    -0.380 A  
HETATM   25 CL   UNL     1     -11.899  11.941  63.574  1.00  0.00    -0.581 Cl 
ENDBRANCH  17  18
ENDBRANCH  16  17
ENDBRANCH   9  16
ENDBRANCH   6   9
TORSDOF 6
ENDMDL
MODEL      152
REMARK 921   NORMALIZED FREE ENERGY PREDICTED BY IDOCK:   -4.77 KCAL/MOL
REMARK 922        TOTAL FREE ENERGY PREDICTED BY IDOCK:   -7.46 KCAL/MOL
REMARK 923 INTER-LIGAND FREE ENERGY PREDICTED BY IDOCK:   -6.39 KCAL/MOL
REMARK 924 INTRA-LIGAND FREE ENERGY PREDICTED BY IDOCK:   -1.07 KCAL/MOL
REMARK 927      BINDING AFFINITY PREDICTED BY RF-SCORE:    0.00 PKD
ROOT
HETATM    1 CL   UNL     1     -11.514   4.780  73.178  1.00  0.00    -0.382 Cl 
HETATM    2  C   UNL     1     -10.960   5.850  71.952  1.00  0.00    -0.266 A  
HETATM    3  C   UNL     1      -9.798   5.548  71.243  1.00  0.00    -0.228 A  
HETATM    4  C   UNL     1      -9.373   6.390  70.212  1.00  0.00    -0.158 A  
HETATM    5 CL   UNL     1      -7.924   5.958  69.376  1.00  0.00    -0.101 Cl 
HETATM    6  C   UNL     1     -10.110   7.538  69.875  1.00  0.00    -0.193 A  
HETATM    7  C   UNL     1     -11.261   7.836  70.634  1.00  0.00    -0.278 A  
HETATM    8  C   UNL     1     -11.686   6.998  71.662  1.00  0.00    -0.332 A  
ENDROOT
BRANCH   6   9
HETATM    9  C   UNL     1      -9.750   8.422  68.688  1.00  0.00    -0.164 C  
BRANCH   9  10
HETATM   10  C   UNL     1     -10.526   8.018  67.410  1.00  0.00    -0.287 C  
BRANCH  10  11
HETATM   11  N   UNL     1     -10.040   6.835  66.723  1.00  0.00    -0.193 NA 
HETATM   12  C   UNL     1     -10.705   5.647  66.588  1.00  0.00    -0.268 A  
HETATM   13  C   UNL     1      -8.864   6.716  66.037  1.00  0.00    -0.139 A  
HETATM   14  N   UNL     1      -8.681   5.493  65.596  1.00  0.00    -0.151 NA 
HETATM   15  C   UNL     1      -9.825   4.819  65.933  1.00  0.00    -0.211 A  
ENDBRANCH  10  11
ENDBRANCH   9  10
BRANCH   9  16
HETATM   16  O   UNL     1      -9.983   9.813  68.968  1.00  0.00    -0.169 OA 
BRANCH  16  17
HETATM   17  C   UNL     1     -11.082  10.362  68.236  1.00  0.00    -0.281 C  
BRANCH  17  18
HETATM   18  C   UNL     1     -11.289  11.788  68.672  1.00  0.00    -0.327 A  
HETATM   19  C   UNL     1     -12.005  12.122  69.836  1.00  0.00    -0.309 A  
HETATM   20 CL   UNL     1     -12.745  10.930  70.849  1.00  0.00    -0.457 Cl 
HETATM   21  C   UNL     1     -11.594  14.483  69.482  1.00  0.00    -0.350 A  
HETATM   22  C   UNL     1     -12.152  13.456  70.236  1.00  0.00    -0.419 A  
HETATM   23  C   UNL     1     -10.908  14.176  68.311  1.00  0.00    -0.259 A  
HETATM   24  C   UNL     1     -10.762  12.847  67.907  1.00  0.00    -0.220 A  
HETATM   25 CL   UNL     1      -9.895  12.568  66.433  1.00  0.00    -0.251 Cl 
ENDBRANCH  17  18
ENDBRANCH  16  17
ENDBRANCH   9  16
ENDBRANCH   6   9
TORSDOF 6
ENDMDL
MODEL      153
REMARK 921   NORMALIZED FREE ENERGY PREDICTED BY IDOCK:   -4.77 KCAL/MOL
REMARK 922        TOTAL FREE ENERGY PREDICTED BY IDOCK:   -7.45 KCAL/MOL
REMARK 923 INTER-LIGAND FREE ENERGY PREDICTED BY IDOCK:   -6.91 KCAL/MOL
REMARK 924 INTRA-LIGAND FREE ENERGY PREDICTED BY IDOCK:   -0.54 KCAL/MOL
REMARK 927      BINDING AFFINITY PREDICTED BY RF-SCORE:    0.00 PKD
ROOT
HETATM    1 CL   UNL     1     -11.813   9.056  71.093  1.00  0.00    -0.344 Cl 
HETATM    2  C   UNL     1     -11.453  10.386  70.063  1.00  0.00    -0.308 A  
HETATM    3  C   UNL     1     -10.376  10.308  69.184  1.00  0.00    -0.241 A  
HETATM    4  C   UNL     1     -10.112  11.367  68.310  1.00  0.00    -0.196 A  
HETATM    5 CL   UNL     1      -8.758  11.205  67.247  1.00  0.00    -0.137 Cl 
HETATM    6  C   UNL     1     -10.927  12.510  68.305  1.00  0.00    -0.270 A  
HETATM    7  C   UNL     1     -11.988  12.575  69.232  1.00  0.00    -0.304 A  
HETATM    8  C   UNL     1     -12.253  11.521  70.103  1.00  0.00    -0.387 A  
ENDROOT
BRANCH   6   9
HETATM    9  C   UNL     1     -10.748  13.638  67.296  1.00  0.00    -0.279 C  
BRANCH   9  10
HETATM   10  C   UNL     1     -11.993  13.805  66.389  1.00  0.00    -0.438 C  
BRANCH  10  11
HETATM   11  N   UNL     1     -11.975  13.051  65.148  1.00  0.00    -0.375 NA 
HETATM   12  C   UNL     1     -10.874  12.500  64.552  1.00  0.00    -0.328 A  
HETATM   13  C   UNL     1     -13.058  12.704  64.390  1.00  0.00     0.025 A  
HETATM   14  N   UNL     1     -12.700  12.091  63.286  1.00  0.00    -0.687 NA 
HETATM   15  C   UNL     1     -11.340  11.956  63.378  1.00  0.00    -0.374 A  
ENDBRANCH  10  11
ENDBRANCH   9  10
BRANCH   9  16
HETATM   16  O   UNL     1     -10.457  14.889  67.942  1.00  0.00    -0.245 OA 
BRANCH  16  17
HETATM   17  C   UNL     1      -9.342  15.577  67.368  1.00  0.00    -0.207 C  
BRANCH  17  18
HETATM   18  C   UNL     1      -9.756  16.989  67.051  1.00  0.00    -0.264 A  
HETATM   19  C   UNL     1      -9.496  18.062  67.922  1.00  0.00    -0.273 A  
HETATM   20 CL   UNL     1      -8.714  17.853  69.451  1.00  0.00     0.327 Cl 
HETATM   21  C   UNL     1     -10.499  19.636  66.377  1.00  0.00    -0.618 A  
HETATM   22  C   UNL     1      -9.862  19.371  67.585  1.00  0.00    -0.450 A  
HETATM   23  C   UNL     1     -10.792  18.584  65.514  1.00  0.00     0.138 A  
HETATM   24  C   UNL     1     -10.431  17.276  65.848  1.00  0.00    -0.262 A  
HETATM   25 CL   UNL     1     -10.844  16.036  64.711  1.00  0.00    -0.417 Cl 
ENDBRANCH  17  18
ENDBRANCH  16  17
ENDBRANCH   9  16
ENDBRANCH   6   9
TORSDOF 6
ENDMDL
MODEL      154
REMARK 921   NORMALIZED FREE ENERGY PREDICTED BY IDOCK:   -4.76 KCAL/MOL
REMARK 922        TOTAL FREE ENERGY PREDICTED BY IDOCK:   -7.45 KCAL/MOL
REMARK 923 INTER-LIGAND FREE ENERGY PREDICTED BY IDOCK:   -6.36 KCAL/MOL
REMARK 924 INTRA-LIGAND FREE ENERGY PREDICTED BY IDOCK:   -1.09 KCAL/MOL
REMARK 927      BINDING AFFINITY PREDICTED BY RF-SCORE:    0.00 PKD
ROOT
HETATM    1 CL   UNL     1     -11.498  16.205  64.414  1.00  0.00    -0.364 Cl 
HETATM    2  C   UNL     1     -11.184  14.885  65.471  1.00  0.00    -0.348 A  
HETATM    3  C   UNL     1     -10.034  14.886  66.257  1.00  0.00    -0.300 A  
HETATM    4  C   UNL     1      -9.802  13.839  67.153  1.00  0.00    -0.242 A  
HETATM    5 CL   UNL     1      -8.354  13.902  68.096  1.00  0.00    -0.154 Cl 
HETATM    6  C   UNL     1     -10.722  12.785  67.276  1.00  0.00    -0.256 A  
HETATM    7  C   UNL     1     -11.858  12.793  66.441  1.00  0.00    -0.472 A  
HETATM    8  C   UNL     1     -12.091  13.836  65.547  1.00  0.00    -0.434 A  
ENDROOT
BRANCH   6   9
HETATM    9  C   UNL     1     -10.570  11.683  68.317  1.00  0.00    -0.205 C  
BRANCH   9  10
HETATM   10  C   UNL     1     -11.924  11.007  68.646  1.00  0.00    -0.177 C  
BRANCH  10  11
HETATM   11  N   UNL     1     -12.379  11.137  70.018  1.00  0.00    -0.298 NA 
HETATM   12  C   UNL     1     -12.672  10.112  70.875  1.00  0.00    -0.357 A  
HETATM   13  C   UNL     1     -12.535  12.301  70.718  1.00  0.00    -0.265 A  
HETATM   14  N   UNL     1     -13.038  12.085  71.911  1.00  0.00    -0.435 NA 
HETATM   15  C   UNL     1     -13.125  10.723  72.020  1.00  0.00    -0.371 A  
ENDBRANCH  10  11
ENDBRANCH   9  10
BRANCH   9  16
HETATM   16  O   UNL     1      -9.625  10.683  67.901  1.00  0.00    -0.158 OA 
BRANCH  16  17
HETATM   17  C   UNL     1     -10.222   9.609  67.169  1.00  0.00    -0.243 C  
BRANCH  17  18
HETATM   18  C   UNL     1      -9.134   8.825  66.487  1.00  0.00    -0.203 A  
HETATM   19  C   UNL     1      -8.372   7.853  67.161  1.00  0.00    -0.117 A  
HETATM   20 CL   UNL     1      -8.590   7.498  68.841  1.00  0.00    -0.129 Cl 
HETATM   21  C   UNL     1      -7.140   7.331  65.141  1.00  0.00    -0.064 A  
HETATM   22  C   UNL     1      -7.389   7.113  66.492  1.00  0.00    -0.083 A  
HETATM   23  C   UNL     1      -7.861   8.309  64.462  1.00  0.00    -0.130 A  
HETATM   24  C   UNL     1      -8.841   9.051  65.127  1.00  0.00    -0.182 A  
HETATM   25 CL   UNL     1      -9.681  10.249  64.198  1.00  0.00    -0.371 Cl 
ENDBRANCH  17  18
ENDBRANCH  16  17
ENDBRANCH   9  16
ENDBRANCH   6   9
TORSDOF 6
ENDMDL
MODEL      155
REMARK 921   NORMALIZED FREE ENERGY PREDICTED BY IDOCK:   -4.76 KCAL/MOL
REMARK 922        TOTAL FREE ENERGY PREDICTED BY IDOCK:   -7.45 KCAL/MOL
REMARK 923 INTER-LIGAND FREE ENERGY PREDICTED BY IDOCK:   -6.50 KCAL/MOL
REMARK 924 INTRA-LIGAND FREE ENERGY PREDICTED BY IDOCK:   -0.95 KCAL/MOL
REMARK 927      BINDING AFFINITY PREDICTED BY RF-SCORE:    0.00 PKD
ROOT
HETATM    1 CL   UNL     1      -7.208   8.144  63.790  1.00  0.00    -0.091 Cl 
HETATM    2  C   UNL     1      -8.214   8.648  65.090  1.00  0.00    -0.151 A  
HETATM    3  C   UNL     1      -9.133   7.757  65.640  1.00  0.00     0.010 A  
HETATM    4  C   UNL     1      -9.917   8.149  66.729  1.00  0.00    -0.279 A  
HETATM    5 CL   UNL     1     -11.037   6.994  67.361  1.00  0.00    -0.319 Cl 
HETATM    6  C   UNL     1      -9.783   9.433  67.282  1.00  0.00    -0.215 A  
HETATM    7  C   UNL     1      -8.871  10.324  66.680  1.00  0.00    -0.148 A  
HETATM    8  C   UNL     1      -8.089   9.936  65.595  1.00  0.00    -0.128 A  
ENDROOT
BRANCH   6   9
HETATM    9  C   UNL     1     -10.531   9.866  68.537  1.00  0.00    -0.205 C  
BRANCH   9  10
HETATM   10  C   UNL     1      -9.903   9.267  69.820  1.00  0.00    -0.188 C  
BRANCH  10  11
HETATM   11  N   UNL     1     -10.674   8.227  70.475  1.00  0.00    -0.221 NA 
HETATM   12  C   UNL     1     -10.213   6.996  70.856  1.00  0.00    -0.197 A  
HETATM   13  C   UNL     1     -11.975   8.311  70.884  1.00  0.00    -0.180 A  
HETATM   14  N   UNL     1     -12.406   7.171  71.372  1.00  0.00    -0.358 NA 
HETATM   15  C   UNL     1     -11.313   6.345  71.361  1.00  0.00    -0.301 A  
ENDBRANCH  10  11
ENDBRANCH   9  10
BRANCH   9  16
HETATM   16  O   UNL     1     -10.589  11.297  68.656  1.00  0.00    -0.184 OA 
BRANCH  16  17
HETATM   17  C   UNL     1     -11.898  11.831  68.442  1.00  0.00    -0.282 C  
BRANCH  17  18
HETATM   18  C   UNL     1     -12.028  13.117  69.213  1.00  0.00    -0.344 A  
HETATM   19  C   UNL     1     -11.792  14.373  68.625  1.00  0.00    -0.331 A  
HETATM   20 CL   UNL     1     -11.296  14.552  66.977  1.00  0.00    -0.343 Cl 
HETATM   21  C   UNL     1     -12.348  15.511  70.691  1.00  0.00    -0.462 A  
HETATM   22  C   UNL     1     -11.954  15.556  69.358  1.00  0.00    -0.358 A  
HETATM   23  C   UNL     1     -12.557  14.277  71.301  1.00  0.00    -0.436 A  
HETATM   24  C   UNL     1     -12.393  13.095  70.574  1.00  0.00    -0.304 A  
HETATM   25 CL   UNL     1     -12.672  11.610  71.422  1.00  0.00    -0.483 Cl 
ENDBRANCH  17  18
ENDBRANCH  16  17
ENDBRANCH   9  16
ENDBRANCH   6   9
TORSDOF 6
ENDMDL
MODEL      156
REMARK 921   NORMALIZED FREE ENERGY PREDICTED BY IDOCK:   -4.75 KCAL/MOL
REMARK 922        TOTAL FREE ENERGY PREDICTED BY IDOCK:   -7.43 KCAL/MOL
REMARK 923 INTER-LIGAND FREE ENERGY PREDICTED BY IDOCK:   -7.83 KCAL/MOL
REMARK 924 INTRA-LIGAND FREE ENERGY PREDICTED BY IDOCK:    0.39 KCAL/MOL
REMARK 927      BINDING AFFINITY PREDICTED BY RF-SCORE:    0.00 PKD
ROOT
HETATM    1 CL   UNL     1     -12.550  11.908  62.830  1.00  0.00    -0.147 Cl 
HETATM    2  C   UNL     1     -11.988  12.573  64.313  1.00  0.00    -0.408 A  
HETATM    3  C   UNL     1     -10.755  12.177  64.826  1.00  0.00    -0.342 A  
HETATM    4  C   UNL     1     -10.274  12.753  66.005  1.00  0.00    -0.278 A  
HETATM    5 CL   UNL     1      -8.738  12.214  66.587  1.00  0.00    -0.183 Cl 
HETATM    6  C   UNL     1     -11.019  13.736  66.677  1.00  0.00    -0.298 A  
HETATM    7  C   UNL     1     -12.279  14.090  66.153  1.00  0.00    -0.494 A  
HETATM    8  C   UNL     1     -12.760  13.516  64.978  1.00  0.00    -0.399 A  
ENDROOT
BRANCH   6   9
HETATM    9  C   UNL     1     -10.486  14.473  67.900  1.00  0.00    -0.242 C  
BRANCH   9  10
HETATM   10  C   UNL     1     -11.104  15.887  68.037  1.00  0.00    -0.334 C  
BRANCH  10  11
HETATM   11  N   UNL     1     -10.281  16.985  67.564  1.00  0.00    -0.313 NA 
HETATM   12  C   UNL     1      -9.589  17.028  66.384  1.00  0.00    -0.282 A  
HETATM   13  C   UNL     1     -10.101  18.192  68.179  1.00  0.00    -0.378 A  
HETATM   14  N   UNL     1      -9.233  18.940  67.535  1.00  0.00    -0.288 NA 
HETATM   15  C   UNL     1      -8.910  18.223  66.413  1.00  0.00    -0.240 A  
ENDBRANCH  10  11
ENDBRANCH   9  10
BRANCH   9  16
HETATM   16  O   UNL     1     -10.714  13.732  69.111  1.00  0.00    -0.215 OA 
BRANCH  16  17
HETATM   17  C   UNL     1     -11.159  12.393  68.880  1.00  0.00    -0.258 C  
BRANCH  17  18
HETATM   18  C   UNL     1     -11.915  11.919  70.092  1.00  0.00    -0.413 A  
HETATM   19  C   UNL     1     -12.673  12.792  70.894  1.00  0.00    -0.192 A  
HETATM   20 CL   UNL     1     -12.773  14.492  70.585  1.00  0.00    -0.409 Cl 
HETATM   21  C   UNL     1     -13.372  10.966  72.325  1.00  0.00    -0.113 A  
HETATM   22  C   UNL     1     -13.395  12.317  71.996  1.00  0.00    -0.491 A  
HETATM   23  C   UNL     1     -12.604  10.090  71.562  1.00  0.00    -0.525 A  
HETATM   24  C   UNL     1     -11.880  10.561  70.464  1.00  0.00    -0.347 A  
HETATM   25 CL   UNL     1     -10.952   9.394  69.581  1.00  0.00    -0.239 Cl 
ENDBRANCH  17  18
ENDBRANCH  16  17
ENDBRANCH   9  16
ENDBRANCH   6   9
TORSDOF 6
ENDMDL
MODEL      157
REMARK 921   NORMALIZED FREE ENERGY PREDICTED BY IDOCK:   -4.73 KCAL/MOL
REMARK 922        TOTAL FREE ENERGY PREDICTED BY IDOCK:   -7.41 KCAL/MOL
REMARK 923 INTER-LIGAND FREE ENERGY PREDICTED BY IDOCK:   -6.40 KCAL/MOL
REMARK 924 INTRA-LIGAND FREE ENERGY PREDICTED BY IDOCK:   -1.01 KCAL/MOL
REMARK 927      BINDING AFFINITY PREDICTED BY RF-SCORE:    0.00 PKD
ROOT
HETATM    1 CL   UNL     1     -10.914   5.328  73.643  1.00  0.00    -0.344 Cl 
HETATM    2  C   UNL     1     -10.630   6.305  72.257  1.00  0.00    -0.213 A  
HETATM    3  C   UNL     1      -9.487   7.100  72.193  1.00  0.00    -0.152 A  
HETATM    4  C   UNL     1      -9.229   7.857  71.047  1.00  0.00    -0.151 A  
HETATM    5 CL   UNL     1      -7.795   8.822  71.035  1.00  0.00    -0.126 Cl 
HETATM    6  C   UNL     1     -10.107   7.820  69.952  1.00  0.00    -0.203 A  
HETATM    7  C   UNL     1     -11.273   7.035  70.061  1.00  0.00    -0.310 A  
HETATM    8  C   UNL     1     -11.533   6.280  71.202  1.00  0.00    -0.362 A  
ENDROOT
BRANCH   6   9
HETATM    9  C   UNL     1      -9.811   8.537  68.640  1.00  0.00    -0.170 C  
BRANCH   9  10
HETATM   10  C   UNL     1     -10.608   7.932  67.458  1.00  0.00    -0.242 C  
BRANCH  10  11
HETATM   11  N   UNL     1      -9.985   6.806  66.785  1.00  0.00    -0.185 NA 
HETATM   12  C   UNL     1      -8.723   6.776  66.258  1.00  0.00    -0.146 A  
HETATM   13  C   UNL     1     -10.520   5.560  66.616  1.00  0.00    -0.294 A  
HETATM   14  N   UNL     1      -9.736   4.789  65.897  1.00  0.00    -0.178 NA 
HETATM   15  C   UNL     1      -8.612   5.538  65.671  1.00  0.00    -0.148 A  
ENDBRANCH  10  11
ENDBRANCH   9  10
BRANCH   9  16
HETATM   16  O   UNL     1     -10.083   9.946  68.729  1.00  0.00    -0.161 OA 
BRANCH  16  17
HETATM   17  C   UNL     1     -11.402  10.296  68.301  1.00  0.00    -0.177 C  
BRANCH  17  18
HETATM   18  C   UNL     1     -11.411  11.747  67.903  1.00  0.00    -0.387 A  
HETATM   19  C   UNL     1     -11.062  12.174  66.609  1.00  0.00    -0.306 A  
HETATM   20 CL   UNL     1     -10.553  11.077  65.371  1.00  0.00    -0.301 Cl 
HETATM   21  C   UNL     1     -11.508  14.485  67.187  1.00  0.00    -0.383 A  
HETATM   22  C   UNL     1     -11.113  13.529  66.256  1.00  0.00    -0.308 A  
HETATM   23  C   UNL     1     -11.829  14.087  68.482  1.00  0.00    -0.399 A  
HETATM   24  C   UNL     1     -11.775  12.737  68.838  1.00  0.00    -0.326 A  
HETATM   25 CL   UNL     1     -12.188  12.342  70.474  1.00  0.00    -0.432 Cl 
ENDBRANCH  17  18
ENDBRANCH  16  17
ENDBRANCH   9  16
ENDBRANCH   6   9
TORSDOF 6
ENDMDL
MODEL      158
REMARK 921   NORMALIZED FREE ENERGY PREDICTED BY IDOCK:   -4.72 KCAL/MOL
REMARK 922        TOTAL FREE ENERGY PREDICTED BY IDOCK:   -7.39 KCAL/MOL
REMARK 923 INTER-LIGAND FREE ENERGY PREDICTED BY IDOCK:   -6.24 KCAL/MOL
REMARK 924 INTRA-LIGAND FREE ENERGY PREDICTED BY IDOCK:   -1.15 KCAL/MOL
REMARK 927      BINDING AFFINITY PREDICTED BY RF-SCORE:    0.00 PKD
ROOT
HETATM    1 CL   UNL     1     -12.237   6.364  71.524  1.00  0.00    -0.315 Cl 
HETATM    2  C   UNL     1     -11.365   7.046  70.207  1.00  0.00    -0.295 A  
HETATM    3  C   UNL     1     -10.679   8.246  70.379  1.00  0.00    -0.239 A  
HETATM    4  C   UNL     1      -9.929   8.777  69.325  1.00  0.00    -0.194 A  
HETATM    5 CL   UNL     1      -9.104  10.269  69.606  1.00  0.00    -0.191 Cl 
HETATM    6  C   UNL     1      -9.854   8.107  68.093  1.00  0.00    -0.194 A  
HETATM    7  C   UNL     1     -10.588   6.914  67.938  1.00  0.00    -0.286 A  
HETATM    8  C   UNL     1     -11.337   6.384  68.987  1.00  0.00    -0.332 A  
ENDROOT
BRANCH   6   9
HETATM    9  C   UNL     1      -8.960   8.586  66.955  1.00  0.00    -0.137 C  
BRANCH   9  10
HETATM   10  C   UNL     1      -8.264   7.406  66.232  1.00  0.00    -0.126 C  
BRANCH  10  11
HETATM   11  N   UNL     1      -7.511   7.752  65.039  1.00  0.00    -0.083 NA 
HETATM   12  C   UNL     1      -7.955   7.661  63.748  1.00  0.00    -0.090 A  
HETATM   13  C   UNL     1      -6.255   8.287  64.995  1.00  0.00    -0.049 A  
HETATM   14  N   UNL     1      -5.824   8.411  63.761  1.00  0.00    -0.070 NA 
HETATM   15  C   UNL     1      -6.878   8.025  62.975  1.00  0.00    -0.085 A  
ENDBRANCH  10  11
ENDBRANCH   9  10
BRANCH   9  16
HETATM   16  O   UNL     1      -9.690   9.370  65.997  1.00  0.00    -0.237 OA 
BRANCH  16  17
HETATM   17  C   UNL     1      -9.362  10.761  66.036  1.00  0.00    -0.186 C  
BRANCH  17  18
HETATM   18  C   UNL     1     -10.442  11.532  65.325  1.00  0.00    -0.336 A  
HETATM   19  C   UNL     1     -10.478  11.659  63.924  1.00  0.00    -0.382 A  
HETATM   20 CL   UNL     1      -9.267  10.974  62.895  1.00  0.00    -0.323 Cl 
HETATM   21  C   UNL     1     -12.532  12.940  64.034  1.00  0.00    -0.407 A  
HETATM   22  C   UNL     1     -11.515  12.353  63.288  1.00  0.00    -0.426 A  
HETATM   23  C   UNL     1     -12.498  12.853  65.423  1.00  0.00    -0.511 A  
HETATM   24  C   UNL     1     -11.464  12.163  66.061  1.00  0.00    -0.370 A  
HETATM   25 CL   UNL     1     -11.509  12.115  67.793  1.00  0.00    -0.372 Cl 
ENDBRANCH  17  18
ENDBRANCH  16  17
ENDBRANCH   9  16
ENDBRANCH   6   9
TORSDOF 6
ENDMDL
MODEL      159
REMARK 921   NORMALIZED FREE ENERGY PREDICTED BY IDOCK:   -4.71 KCAL/MOL
REMARK 922        TOTAL FREE ENERGY PREDICTED BY IDOCK:   -7.38 KCAL/MOL
REMARK 923 INTER-LIGAND FREE ENERGY PREDICTED BY IDOCK:   -7.11 KCAL/MOL
REMARK 924 INTRA-LIGAND FREE ENERGY PREDICTED BY IDOCK:   -0.27 KCAL/MOL
REMARK 927      BINDING AFFINITY PREDICTED BY RF-SCORE:    0.00 PKD
ROOT
HETATM    1 CL   UNL     1      -8.597   5.240  67.875  1.00  0.00    -0.104 Cl 
HETATM    2  C   UNL     1      -9.099   6.885  67.895  1.00  0.00    -0.122 A  
HETATM    3  C   UNL     1      -8.455   7.795  68.731  1.00  0.00    -0.129 A  
HETATM    4  C   UNL     1      -8.827   9.142  68.713  1.00  0.00    -0.132 A  
HETATM    5 CL   UNL     1      -7.988  10.216  69.776  1.00  0.00    -0.179 Cl 
HETATM    6  C   UNL     1      -9.842   9.592  67.852  1.00  0.00    -0.186 A  
HETATM    7  C   UNL     1     -10.499   8.641  67.044  1.00  0.00    -0.354 A  
HETATM    8  C   UNL     1     -10.130   7.298  67.062  1.00  0.00    -0.316 A  
ENDROOT
BRANCH   6   9
HETATM    9  C   UNL     1     -10.204  11.066  67.714  1.00  0.00    -0.183 C  
BRANCH   9  10
HETATM   10  C   UNL     1     -11.526  11.266  66.933  1.00  0.00    -0.042 C  
BRANCH  10  11
HETATM   11  N   UNL     1     -11.424  12.029  65.703  1.00  0.00    -0.339 NA 
HETATM   12  C   UNL     1     -12.411  12.792  65.139  1.00  0.00    -0.496 A  
HETATM   13  C   UNL     1     -10.311  12.175  64.924  1.00  0.00    -0.289 A  
HETATM   14  N   UNL     1     -10.567  12.864  63.835  1.00  0.00    -0.392 NA 
HETATM   15  C   UNL     1     -11.873  13.255  63.962  1.00  0.00    -0.455 A  
ENDBRANCH  10  11
ENDBRANCH   9  10
BRANCH   9  16
HETATM   16  O   UNL     1     -10.302  11.713  68.994  1.00  0.00    -0.185 OA 
BRANCH  16  17
HETATM   17  C   UNL     1     -11.650  11.971  69.396  1.00  0.00    -0.330 C  
BRANCH  17  18
HETATM   18  C   UNL     1     -11.712  13.334  70.032  1.00  0.00    -0.295 A  
HETATM   19  C   UNL     1     -11.072  14.455  69.471  1.00  0.00    -0.231 A  
HETATM   20 CL   UNL     1     -10.127  14.362  68.025  1.00  0.00    -0.228 Cl 
HETATM   21  C   UNL     1     -11.914  15.890  71.233  1.00  0.00    -0.493 A  
HETATM   22  C   UNL     1     -11.177  15.719  70.066  1.00  0.00    -0.346 A  
HETATM   23  C   UNL     1     -12.529  14.788  71.821  1.00  0.00    -0.410 A  
HETATM   24  C   UNL     1     -12.425  13.525  71.232  1.00  0.00    -0.300 A  
HETATM   25 CL   UNL     1     -13.222  12.217  72.041  1.00  0.00    -0.576 Cl 
ENDBRANCH  17  18
ENDBRANCH  16  17
ENDBRANCH   9  16
ENDBRANCH   6   9
TORSDOF 6
ENDMDL
MODEL      160
REMARK 921   NORMALIZED FREE ENERGY PREDICTED BY IDOCK:   -4.71 KCAL/MOL
REMARK 922        TOTAL FREE ENERGY PREDICTED BY IDOCK:   -7.37 KCAL/MOL
REMARK 923 INTER-LIGAND FREE ENERGY PREDICTED BY IDOCK:   -6.56 KCAL/MOL
REMARK 924 INTRA-LIGAND FREE ENERGY PREDICTED BY IDOCK:   -0.82 KCAL/MOL
REMARK 927      BINDING AFFINITY PREDICTED BY RF-SCORE:    0.00 PKD
ROOT
HETATM    1 CL   UNL     1     -12.766  12.065  62.999  1.00  0.00    -0.337 Cl 
HETATM    2  C   UNL     1     -11.939  12.189  64.502  1.00  0.00    -0.337 A  
HETATM    3  C   UNL     1     -10.620  11.750  64.604  1.00  0.00    -0.359 A  
HETATM    4  C   UNL     1      -9.930  11.896  65.811  1.00  0.00    -0.236 A  
HETATM    5 CL   UNL     1      -8.298  11.329  65.868  1.00  0.00    -0.085 Cl 
HETATM    6  C   UNL     1     -10.550  12.488  66.923  1.00  0.00    -0.255 A  
HETATM    7  C   UNL     1     -11.896  12.888  66.800  1.00  0.00    -0.452 A  
HETATM    8  C   UNL     1     -12.586  12.744  65.598  1.00  0.00    -0.188 A  
ENDROOT
BRANCH   6   9
HETATM    9  C   UNL     1      -9.803  12.771  68.221  1.00  0.00    -0.224 C  
BRANCH   9  10
HETATM   10  C   UNL     1      -9.950  14.249  68.661  1.00  0.00    -0.234 C  
BRANCH  10  11
HETATM   11  N   UNL     1      -9.547  15.242  67.682  1.00  0.00    -0.206 NA 
HETATM   12  C   UNL     1     -10.325  16.255  67.190  1.00  0.00    -0.285 A  
HETATM   13  C   UNL     1      -8.306  15.383  67.127  1.00  0.00    -0.219 A  
HETATM   14  N   UNL     1      -8.288  16.329  66.216  1.00  0.00    -0.324 NA 
HETATM   15  C   UNL     1      -9.541  16.880  66.250  1.00  0.00    -0.276 A  
ENDBRANCH  10  11
ENDBRANCH   9  10
BRANCH   9  16
HETATM   16  O   UNL     1     -10.240  11.910  69.286  1.00  0.00     0.024 OA 
BRANCH  16  17
HETATM   17  C   UNL     1      -9.949  10.529  69.054  1.00  0.00    -0.211 C  
BRANCH  17  18
HETATM   18  C   UNL     1     -10.313   9.745  70.286  1.00  0.00    -0.348 A  
HETATM   19  C   UNL     1     -11.629   9.692  70.782  1.00  0.00    -0.321 A  
HETATM   20 CL   UNL     1     -12.937  10.553  70.046  1.00  0.00    -0.090 Cl 
HETATM   21  C   UNL     1     -10.958   8.201  72.570  1.00  0.00    -0.439 A  
HETATM   22  C   UNL     1     -11.945   8.925  71.910  1.00  0.00    -0.441 A  
HETATM   23  C   UNL     1      -9.644   8.264  72.114  1.00  0.00    -0.338 A  
HETATM   24  C   UNL     1      -9.324   9.030  70.990  1.00  0.00    -0.271 A  
HETATM   25 CL   UNL     1      -7.661   9.048  70.504  1.00  0.00    -0.104 Cl 
ENDBRANCH  17  18
ENDBRANCH  16  17
ENDBRANCH   9  16
ENDBRANCH   6   9
TORSDOF 6
ENDMDL
MODEL      161
REMARK 921   NORMALIZED FREE ENERGY PREDICTED BY IDOCK:   -4.69 KCAL/MOL
REMARK 922        TOTAL FREE ENERGY PREDICTED BY IDOCK:   -7.35 KCAL/MOL
REMARK 923 INTER-LIGAND FREE ENERGY PREDICTED BY IDOCK:   -6.22 KCAL/MOL
REMARK 924 INTRA-LIGAND FREE ENERGY PREDICTED BY IDOCK:   -1.13 KCAL/MOL
REMARK 927      BINDING AFFINITY PREDICTED BY RF-SCORE:    0.00 PKD
ROOT
HETATM    1 CL   UNL     1     -14.310  14.961  72.301  1.00  0.00    -0.556 Cl 
HETATM    2  C   UNL     1     -13.259  14.294  71.115  1.00  0.00    -0.321 A  
HETATM    3  C   UNL     1     -12.767  15.104  70.093  1.00  0.00    -0.273 A  
HETATM    4  C   UNL     1     -11.873  14.577  69.157  1.00  0.00    -0.319 A  
HETATM    5 CL   UNL     1     -11.304  15.635  67.914  1.00  0.00    -0.332 Cl 
HETATM    6  C   UNL     1     -11.457  13.238  69.239  1.00  0.00    -0.345 A  
HETATM    7  C   UNL     1     -11.999  12.434  70.263  1.00  0.00    -0.371 A  
HETATM    8  C   UNL     1     -12.891  12.957  71.197  1.00  0.00    -0.326 A  
ENDROOT
BRANCH   6   9
HETATM    9  C   UNL     1     -10.399  12.651  68.313  1.00  0.00    -0.241 C  
BRANCH   9  10
HETATM   10  C   UNL     1      -8.967  12.854  68.869  1.00  0.00     0.338 C  
BRANCH  10  11
HETATM   11  N   UNL     1      -8.342  14.127  68.556  1.00  0.00    -0.159 NA 
HETATM   12  C   UNL     1      -7.952  14.553  67.315  1.00  0.00    -0.191 A  
HETATM   13  C   UNL     1      -8.091  15.148  69.429  1.00  0.00    -0.200 A  
HETATM   14  N   UNL     1      -7.444  16.133  68.849  1.00  0.00    -0.184 NA 
HETATM   15  C   UNL     1      -7.355  15.773  67.530  1.00  0.00    -0.178 A  
ENDBRANCH  10  11
ENDBRANCH   9  10
BRANCH   9  16
HETATM   16  O   UNL     1     -10.622  11.252  68.067  1.00  0.00    -0.181 OA 
BRANCH  16  17
HETATM   17  C   UNL     1      -9.522  10.426  68.457  1.00  0.00    -0.159 C  
BRANCH  17  18
HETATM   18  C   UNL     1     -10.005   9.007  68.585  1.00  0.00    -0.187 A  
HETATM   19  C   UNL     1     -10.550   8.503  69.781  1.00  0.00    -0.224 A  
HETATM   20 CL   UNL     1     -10.679   9.456  71.220  1.00  0.00    -0.411 Cl 
HETATM   21  C   UNL     1     -10.960   6.346  68.755  1.00  0.00    -0.404 A  
HETATM   22  C   UNL     1     -11.024   7.188  69.861  1.00  0.00    -0.278 A  
HETATM   23  C   UNL     1     -10.396   6.815  67.572  1.00  0.00    -0.267 A  
HETATM   24  C   UNL     1      -9.919   8.126  67.489  1.00  0.00    -0.192 A  
HETATM   25 CL   UNL     1      -9.231   8.614  65.975  1.00  0.00    -0.263 Cl 
ENDBRANCH  17  18
ENDBRANCH  16  17
ENDBRANCH   9  16
ENDBRANCH   6   9
TORSDOF 6
ENDMDL
MODEL      162
REMARK 921   NORMALIZED FREE ENERGY PREDICTED BY IDOCK:   -4.68 KCAL/MOL
REMARK 922        TOTAL FREE ENERGY PREDICTED BY IDOCK:   -7.33 KCAL/MOL
REMARK 923 INTER-LIGAND FREE ENERGY PREDICTED BY IDOCK:   -5.83 KCAL/MOL
REMARK 924 INTRA-LIGAND FREE ENERGY PREDICTED BY IDOCK:   -1.50 KCAL/MOL
REMARK 927      BINDING AFFINITY PREDICTED BY RF-SCORE:    0.00 PKD
ROOT
HETATM    1 CL   UNL     1     -10.062  11.868  63.952  1.00  0.00    -0.371 Cl 
HETATM    2  C   UNL     1     -10.073  10.874  65.355  1.00  0.00    -0.277 A  
HETATM    3  C   UNL     1      -9.651   9.549  65.268  1.00  0.00    -0.314 A  
HETATM    4  C   UNL     1      -9.612   8.754  66.417  1.00  0.00    -0.249 A  
HETATM    5 CL   UNL     1      -9.081   7.118  66.237  1.00  0.00    -0.190 Cl 
HETATM    6  C   UNL     1      -9.986   9.279  67.664  1.00  0.00    -0.245 A  
HETATM    7  C   UNL     1     -10.442  10.613  67.714  1.00  0.00    -0.258 A  
HETATM    8  C   UNL     1     -10.483  11.407  66.570  1.00  0.00    -0.292 A  
ENDROOT
BRANCH   6   9
HETATM    9  C   UNL     1      -9.851   8.488  68.959  1.00  0.00    -0.183 C  
BRANCH   9  10
HETATM   10  C   UNL     1      -9.102   9.291  70.052  1.00  0.00    -0.210 C  
BRANCH  10  11
HETATM   11  N   UNL     1      -8.630   8.522  71.189  1.00  0.00    -0.152 NA 
HETATM   12  C   UNL     1      -9.113   8.588  72.468  1.00  0.00    -0.214 A  
HETATM   13  C   UNL     1      -7.666   7.554  71.174  1.00  0.00    -0.089 A  
HETATM   14  N   UNL     1      -7.412   7.103  72.381  1.00  0.00    -0.087 NA 
HETATM   15  C   UNL     1      -8.312   7.739  73.195  1.00  0.00    -0.157 A  
ENDBRANCH  10  11
ENDBRANCH   9  10
BRANCH   9  16
HETATM   16  O   UNL     1     -11.131   8.071  69.465  1.00  0.00    -0.123 OA 
BRANCH  16  17
HETATM   17  C   UNL     1     -11.398   6.682  69.253  1.00  0.00    -0.237 C  
BRANCH  17  18
HETATM   18  C   UNL     1     -11.040   5.925  70.503  1.00  0.00    -0.347 A  
HETATM   19  C   UNL     1     -10.007   4.969  70.533  1.00  0.00    -0.242 A  
HETATM   20 CL   UNL     1      -9.083   4.552  69.131  1.00  0.00    -0.157 Cl 
HETATM   21  C   UNL     1     -10.363   4.573  72.897  1.00  0.00    -0.243 A  
HETATM   22  C   UNL     1      -9.672   4.305  71.720  1.00  0.00    -0.237 A  
HETATM   23  C   UNL     1     -11.408   5.492  72.882  1.00  0.00    -0.348 A  
HETATM   24  C   UNL     1     -11.747   6.155  71.700  1.00  0.00    -0.228 A  
HETATM   25 CL   UNL     1     -13.065   7.277  71.782  1.00  0.00    -0.384 Cl 
ENDBRANCH  17  18
ENDBRANCH  16  17
ENDBRANCH   9  16
ENDBRANCH   6   9
TORSDOF 6
ENDMDL
MODEL      163
REMARK 921   NORMALIZED FREE ENERGY PREDICTED BY IDOCK:   -4.67 KCAL/MOL
REMARK 922        TOTAL FREE ENERGY PREDICTED BY IDOCK:   -7.33 KCAL/MOL
REMARK 923 INTER-LIGAND FREE ENERGY PREDICTED BY IDOCK:   -7.36 KCAL/MOL
REMARK 924 INTRA-LIGAND FREE ENERGY PREDICTED BY IDOCK:    0.03 KCAL/MOL
REMARK 927      BINDING AFFINITY PREDICTED BY RF-SCORE:    0.00 PKD
ROOT
HETATM    1 CL   UNL     1     -10.819  17.464  65.201  1.00  0.00    -0.092 Cl 
HETATM    2  C   UNL     1     -10.779  15.770  65.492  1.00  0.00    -0.383 A  
HETATM    3  C   UNL     1      -9.767  15.227  66.281  1.00  0.00    -0.325 A  
HETATM    4  C   UNL     1      -9.762  13.857  66.560  1.00  0.00    -0.294 A  
HETATM    5 CL   UNL     1      -8.476  13.249  67.543  1.00  0.00    -0.189 Cl 
HETATM    6  C   UNL     1     -10.772  13.020  66.059  1.00  0.00    -0.290 A  
HETATM    7  C   UNL     1     -11.762  13.593  65.234  1.00  0.00    -0.349 A  
HETATM    8  C   UNL     1     -11.769  14.958  64.954  1.00  0.00    -0.371 A  
ENDROOT
BRANCH   6   9
HETATM    9  C   UNL     1     -10.872  11.545  66.429  1.00  0.00    -0.285 C  
BRANCH   9  10
HETATM   10  C   UNL     1      -9.476  10.890  66.572  1.00  0.00    -0.185 C  
BRANCH  10  11
HETATM   11  N   UNL     1      -8.887  10.384  65.345  1.00  0.00    -0.171 NA 
HETATM   12  C   UNL     1      -7.594   9.968  65.179  1.00  0.00    -0.138 A  
HETATM   13  C   UNL     1      -9.531  10.173  64.158  1.00  0.00    -0.293 A  
HETATM   14  N   UNL     1      -8.701   9.783  63.218  1.00  0.00    -0.208 NA 
HETATM   15  C   UNL     1      -7.491   9.650  63.846  1.00  0.00    -0.123 A  
ENDBRANCH  10  11
ENDBRANCH   9  10
BRANCH   9  16
HETATM   16  O   UNL     1     -11.618  11.350  67.642  1.00  0.00    -0.474 OA 
BRANCH  16  17
HETATM   17  C   UNL     1     -10.816  11.444  68.822  1.00  0.00    -0.208 C  
BRANCH  17  18
HETATM   18  C   UNL     1     -11.625  10.963  69.996  1.00  0.00    -0.424 A  
HETATM   19  C   UNL     1     -12.397  11.835  70.785  1.00  0.00    -0.337 A  
HETATM   20 CL   UNL     1     -12.457  13.541  70.502  1.00  0.00    -0.395 Cl 
HETATM   21  C   UNL     1     -13.181   9.997  72.156  1.00  0.00    -0.489 A  
HETATM   22  C   UNL     1     -13.168  11.354  71.851  1.00  0.00    -0.485 A  
HETATM   23  C   UNL     1     -12.400   9.121  71.407  1.00  0.00    -0.404 A  
HETATM   24  C   UNL     1     -11.627   9.598  70.345  1.00  0.00    -0.236 A  
HETATM   25 CL   UNL     1     -10.686   8.430  69.476  1.00  0.00    -0.213 Cl 
ENDBRANCH  17  18
ENDBRANCH  16  17
ENDBRANCH   9  16
ENDBRANCH   6   9
TORSDOF 6
ENDMDL
MODEL      164
REMARK 921   NORMALIZED FREE ENERGY PREDICTED BY IDOCK:   -4.67 KCAL/MOL
REMARK 922        TOTAL FREE ENERGY PREDICTED BY IDOCK:   -7.32 KCAL/MOL
REMARK 923 INTER-LIGAND FREE ENERGY PREDICTED BY IDOCK:   -6.15 KCAL/MOL
REMARK 924 INTRA-LIGAND FREE ENERGY PREDICTED BY IDOCK:   -1.18 KCAL/MOL
REMARK 927      BINDING AFFINITY PREDICTED BY RF-SCORE:    0.00 PKD
ROOT
HETATM    1 CL   UNL     1     -10.748   8.272  72.559  1.00  0.00    -0.414 Cl 
HETATM    2  C   UNL     1     -10.640   9.268  71.161  1.00  0.00    -0.332 A  
HETATM    3  C   UNL     1      -9.415   9.420  70.514  1.00  0.00    -0.327 A  
HETATM    4  C   UNL     1      -9.335  10.189  69.348  1.00  0.00    -0.219 A  
HETATM    5 CL   UNL     1      -7.786  10.338  68.597  1.00  0.00    -0.090 Cl 
HETATM    6  C   UNL     1     -10.480  10.804  68.817  1.00  0.00    -0.221 A  
HETATM    7  C   UNL     1     -11.697  10.661  69.515  1.00  0.00    -0.356 A  
HETATM    8  C   UNL     1     -11.779   9.896  70.677  1.00  0.00    -0.404 A  
ENDROOT
BRANCH   6   9
HETATM    9  C   UNL     1     -10.465  11.555  67.491  1.00  0.00    -0.199 C  
BRANCH   9  10
HETATM   10  C   UNL     1     -10.061  13.039  67.671  1.00  0.00    -0.217 C  
BRANCH  10  11
HETATM   11  N   UNL     1     -10.403  13.925  66.573  1.00  0.00    -0.281 NA 
HETATM   12  C   UNL     1     -11.554  13.890  65.834  1.00  0.00    -0.340 A  
HETATM   13  C   UNL     1      -9.670  14.987  66.124  1.00  0.00    -0.306 A  
HETATM   14  N   UNL     1     -10.214  15.539  65.064  1.00  0.00    -0.399 NA 
HETATM   15  C   UNL     1     -11.391  14.863  64.877  1.00  0.00    -0.413 A  
ENDBRANCH  10  11
ENDBRANCH   9  10
BRANCH   9  16
HETATM   16  O   UNL     1      -9.587  10.933  66.537  1.00  0.00    -0.186 OA 
BRANCH  16  17
HETATM   17  C   UNL     1     -10.234   9.944  65.733  1.00  0.00    -0.181 C  
BRANCH  17  18
HETATM   18  C   UNL     1      -9.332   8.744  65.623  1.00  0.00    -0.219 A  
HETATM   19  C   UNL     1      -8.238   8.705  64.739  1.00  0.00    -0.160 A  
HETATM   20 CL   UNL     1      -7.852  10.013  63.674  1.00  0.00    -0.147 Cl 
HETATM   21  C   UNL     1      -7.627   6.487  65.501  1.00  0.00    -0.088 A  
HETATM   22  C   UNL     1      -7.394   7.588  64.683  1.00  0.00    -0.078 A  
HETATM   23  C   UNL     1      -8.722   6.493  66.360  1.00  0.00    -0.142 A  
HETATM   24  C   UNL     1      -9.568   7.604  66.417  1.00  0.00    -0.153 A  
HETATM   25 CL   UNL     1     -10.906   7.514  67.513  1.00  0.00    -0.276 Cl 
ENDBRANCH  17  18
ENDBRANCH  16  17
ENDBRANCH   9  16
ENDBRANCH   6   9
TORSDOF 6
ENDMDL
MODEL      165
REMARK 921   NORMALIZED FREE ENERGY PREDICTED BY IDOCK:   -4.66 KCAL/MOL
REMARK 922        TOTAL FREE ENERGY PREDICTED BY IDOCK:   -7.32 KCAL/MOL
REMARK 923 INTER-LIGAND FREE ENERGY PREDICTED BY IDOCK:   -6.48 KCAL/MOL
REMARK 924 INTRA-LIGAND FREE ENERGY PREDICTED BY IDOCK:   -0.83 KCAL/MOL
REMARK 927      BINDING AFFINITY PREDICTED BY RF-SCORE:    0.00 PKD
ROOT
HETATM    1 CL   UNL     1      -5.566   7.150  71.118  1.00  0.00    -0.027 Cl 
HETATM    2  C   UNL     1      -6.968   7.883  70.445  1.00  0.00    -0.045 A  
HETATM    3  C   UNL     1      -7.905   7.100  69.775  1.00  0.00    -0.118 A  
HETATM    4  C   UNL     1      -9.070   7.686  69.270  1.00  0.00    -0.145 A  
HETATM    5 CL   UNL     1     -10.188   6.656  68.448  1.00  0.00    -0.164 Cl 
HETATM    6  C   UNL     1      -9.310   9.060  69.438  1.00  0.00    -0.158 A  
HETATM    7  C   UNL     1      -8.326   9.833  70.088  1.00  0.00    -0.201 A  
HETATM    8  C   UNL     1      -7.165   9.250  70.591  1.00  0.00    -0.120 A  
ENDROOT
BRANCH   6   9
HETATM    9  C   UNL     1     -10.613   9.721  69.007  1.00  0.00    -0.219 C  
BRANCH   9  10
HETATM   10  C   UNL     1     -11.287  10.485  70.174  1.00  0.00    -0.323 C  
BRANCH  10  11
HETATM   11  N   UNL     1     -12.188   9.705  71.003  1.00  0.00    -0.315 NA 
HETATM   12  C   UNL     1     -13.138  10.201  71.853  1.00  0.00    -0.466 A  
HETATM   13  C   UNL     1     -12.292   8.343  71.035  1.00  0.00    -0.129 A  
HETATM   14  N   UNL     1     -13.147   7.944  71.949  1.00  0.00    -0.312 NA 
HETATM   15  C   UNL     1     -13.682   9.095  72.463  1.00  0.00    -0.435 A  
ENDBRANCH  10  11
ENDBRANCH   9  10
BRANCH   9  16
HETATM   16  O   UNL     1     -10.416  10.617  67.900  1.00  0.00    -0.184 OA 
BRANCH  16  17
HETATM   17  C   UNL     1     -11.637  11.140  67.370  1.00  0.00    -0.071 C  
BRANCH  17  18
HETATM   18  C   UNL     1     -11.329  12.389  66.589  1.00  0.00    -0.394 A  
HETATM   19  C   UNL     1     -10.807  12.350  65.284  1.00  0.00    -0.289 A  
HETATM   20 CL   UNL     1     -10.436  10.867  64.472  1.00  0.00    -0.417 Cl 
HETATM   21  C   UNL     1     -10.827  14.768  65.139  1.00  0.00    -0.417 A  
HETATM   22  C   UNL     1     -10.562  13.528  64.567  1.00  0.00    -0.439 A  
HETATM   23  C   UNL     1     -11.315  14.831  66.441  1.00  0.00    -0.339 A  
HETATM   24  C   UNL     1     -11.558  13.657  67.160  1.00  0.00    -0.361 A  
HETATM   25 CL   UNL     1     -12.160  13.839  68.774  1.00  0.00    -0.392 Cl 
ENDBRANCH  17  18
ENDBRANCH  16  17
ENDBRANCH   9  16
ENDBRANCH   6   9
TORSDOF 6
ENDMDL
MODEL      166
REMARK 921   NORMALIZED FREE ENERGY PREDICTED BY IDOCK:   -4.66 KCAL/MOL
REMARK 922        TOTAL FREE ENERGY PREDICTED BY IDOCK:   -7.32 KCAL/MOL
REMARK 923 INTER-LIGAND FREE ENERGY PREDICTED BY IDOCK:   -6.24 KCAL/MOL
REMARK 924 INTRA-LIGAND FREE ENERGY PREDICTED BY IDOCK:   -1.07 KCAL/MOL
REMARK 927      BINDING AFFINITY PREDICTED BY RF-SCORE:    0.00 PKD
ROOT
HETATM    1 CL   UNL     1      -5.762  12.958  70.579  1.00  0.00    -0.173 Cl 
HETATM    2  C   UNL     1      -6.586  13.676  69.251  1.00  0.00    -0.110 A  
HETATM    3  C   UNL     1      -7.447  12.906  68.472  1.00  0.00    -0.123 A  
HETATM    4  C   UNL     1      -8.156  13.499  67.424  1.00  0.00    -0.176 A  
HETATM    5 CL   UNL     1      -9.205  12.485  66.497  1.00  0.00    -0.230 Cl 
HETATM    6  C   UNL     1      -8.016  14.869  67.150  1.00  0.00    -0.227 A  
HETATM    7  C   UNL     1      -7.111  15.615  67.933  1.00  0.00    -0.153 A  
HETATM    8  C   UNL     1      -6.403  15.026  68.978  1.00  0.00    -0.100 A  
ENDROOT
BRANCH   6   9
HETATM    9  C   UNL     1      -8.852  15.582  66.094  1.00  0.00    -0.238 C  
BRANCH   9  10
HETATM   10  C   UNL     1     -10.302  15.836  66.579  1.00  0.00    -0.294 C  
BRANCH  10  11
HETATM   11  N   UNL     1     -11.325  15.005  65.971  1.00  0.00    -0.313 NA 
HETATM   12  C   UNL     1     -12.150  14.131  66.624  1.00  0.00    -0.451 A  
HETATM   13  C   UNL     1     -11.690  14.994  64.654  1.00  0.00    -0.382 A  
HETATM   14  N   UNL     1     -12.594  14.072  64.410  1.00  0.00    -0.677 NA 
HETATM   15  C   UNL     1     -12.889  13.530  65.633  1.00  0.00    -0.321 A  
ENDBRANCH  10  11
ENDBRANCH   9  10
BRANCH   9  16
HETATM   16  O   UNL     1      -8.257  16.829  65.695  1.00  0.00    -0.279 OA 
BRANCH  16  17
HETATM   17  C   UNL     1      -8.991  17.974  66.136  1.00  0.00    -0.093 C  
BRANCH  17  18
HETATM   18  C   UNL     1      -8.087  18.830  66.983  1.00  0.00    -0.266 A  
HETATM   19  C   UNL     1      -7.068  19.625  66.428  1.00  0.00    -0.234 A  
HETATM   20 CL   UNL     1      -6.734  19.662  64.731  1.00  0.00    -0.124 Cl 
HETATM   21  C   UNL     1      -6.457  20.473  68.615  1.00  0.00    -0.295 A  
HETATM   22  C   UNL     1      -6.265  20.439  67.237  1.00  0.00    -0.252 A  
HETATM   23  C   UNL     1      -7.441  19.670  69.187  1.00  0.00    -0.310 A  
HETATM   24  C   UNL     1      -8.242  18.855  68.383  1.00  0.00    -0.342 A  
HETATM   25 CL   UNL     1      -9.434  17.890  69.190  1.00  0.00    -0.082 Cl 
ENDBRANCH  17  18
ENDBRANCH  16  17
ENDBRANCH   9  16
ENDBRANCH   6   9
TORSDOF 6
ENDMDL
MODEL      167
REMARK 921   NORMALIZED FREE ENERGY PREDICTED BY IDOCK:   -4.65 KCAL/MOL
REMARK 922        TOTAL FREE ENERGY PREDICTED BY IDOCK:   -7.30 KCAL/MOL
REMARK 923 INTER-LIGAND FREE ENERGY PREDICTED BY IDOCK:   -7.45 KCAL/MOL
REMARK 924 INTRA-LIGAND FREE ENERGY PREDICTED BY IDOCK:    0.15 KCAL/MOL
REMARK 927      BINDING AFFINITY PREDICTED BY RF-SCORE:    0.00 PKD
ROOT
HETATM    1 CL   UNL     1     -13.637  15.866  73.189  1.00  0.00    -0.649 Cl 
HETATM    2  C   UNL     1     -13.220  14.698  71.999  1.00  0.00    -0.351 A  
HETATM    3  C   UNL     1     -12.666  15.109  70.789  1.00  0.00    -0.463 A  
HETATM    4  C   UNL     1     -12.280  14.158  69.840  1.00  0.00    -0.359 A  
HETATM    5 CL   UNL     1     -11.602  14.738  68.359  1.00  0.00    -0.333 Cl 
HETATM    6  C   UNL     1     -12.438  12.787  70.097  1.00  0.00    -0.126 A  
HETATM    7  C   UNL     1     -13.034  12.402  71.315  1.00  0.00    -0.297 A  
HETATM    8  C   UNL     1     -13.420  13.349  72.262  1.00  0.00    -0.683 A  
ENDROOT
BRANCH   6   9
HETATM    9  C   UNL     1     -11.929  11.712  69.144  1.00  0.00    -0.313 C  
BRANCH   9  10
HETATM   10  C   UNL     1     -11.582  12.292  67.750  1.00  0.00    -0.351 C  
BRANCH  10  11
HETATM   11  N   UNL     1     -10.369  11.781  67.137  1.00  0.00    -0.212 NA 
HETATM   12  C   UNL     1     -10.263  10.655  66.368  1.00  0.00    -0.234 A  
HETATM   13  C   UNL     1      -9.134  12.365  67.166  1.00  0.00    -0.199 A  
HETATM   14  N   UNL     1      -8.229  11.613  66.584  1.00  0.00    -0.164 NA 
HETATM   15  C   UNL     1      -8.924  10.545  66.080  1.00  0.00    -0.160 A  
ENDBRANCH  10  11
ENDBRANCH   9  10
BRANCH   9  16
HETATM   16  O   UNL     1     -10.782  11.028  69.676  1.00  0.00    -0.224 OA 
BRANCH  16  17
HETATM   17  C   UNL     1     -10.927   9.606  69.691  1.00  0.00    -0.229 C  
BRANCH  17  18
HETATM   18  C   UNL     1     -10.107   9.049  70.825  1.00  0.00    -0.303 A  
HETATM   19  C   UNL     1      -8.704   8.970  70.770  1.00  0.00    -0.224 A  
HETATM   20 CL   UNL     1      -7.796   9.470  69.385  1.00  0.00    -0.089 Cl 
HETATM   21  C   UNL     1      -8.609   8.052  73.011  1.00  0.00    -0.265 A  
HETATM   22  C   UNL     1      -7.965   8.479  71.854  1.00  0.00    -0.170 A  
HETATM   23  C   UNL     1      -9.999   8.092  73.073  1.00  0.00    -0.303 A  
HETATM   24  C   UNL     1     -10.740   8.578  71.993  1.00  0.00    -0.340 A  
HETATM   25 CL   UNL     1     -12.464   8.584  72.165  1.00  0.00    -0.408 Cl 
ENDBRANCH  17  18
ENDBRANCH  16  17
ENDBRANCH   9  16
ENDBRANCH   6   9
TORSDOF 6
ENDMDL
MODEL      168
REMARK 921   NORMALIZED FREE ENERGY PREDICTED BY IDOCK:   -4.64 KCAL/MOL
REMARK 922        TOTAL FREE ENERGY PREDICTED BY IDOCK:   -7.28 KCAL/MOL
REMARK 923 INTER-LIGAND FREE ENERGY PREDICTED BY IDOCK:   -6.32 KCAL/MOL
REMARK 924 INTRA-LIGAND FREE ENERGY PREDICTED BY IDOCK:   -0.96 KCAL/MOL
REMARK 927      BINDING AFFINITY PREDICTED BY RF-SCORE:    0.00 PKD
ROOT
HETATM    1 CL   UNL     1      -5.684  13.072  70.467  1.00  0.00    -0.173 Cl 
HETATM    2  C   UNL     1      -6.668  13.927  69.345  1.00  0.00    -0.095 A  
HETATM    3  C   UNL     1      -7.466  13.222  68.447  1.00  0.00    -0.124 A  
HETATM    4  C   UNL     1      -8.304  13.915  67.568  1.00  0.00    -0.196 A  
HETATM    5 CL   UNL     1      -9.266  12.978  66.479  1.00  0.00    -0.222 Cl 
HETATM    6  C   UNL     1      -8.355  15.318  67.584  1.00  0.00    -0.176 A  
HETATM    7  C   UNL     1      -7.509  16.004  68.479  1.00  0.00    -0.156 A  
HETATM    8  C   UNL     1      -6.673  15.316  69.356  1.00  0.00    -0.164 A  
ENDROOT
BRANCH   6   9
HETATM    9  C   UNL     1      -9.333  16.111  66.727  1.00  0.00    -0.234 C  
BRANCH   9  10
HETATM   10  C   UNL     1     -10.445  16.772  67.579  1.00  0.00    -0.319 C  
BRANCH  10  11
HETATM   11  N   UNL     1     -11.091  15.911  68.553  1.00  0.00    -0.321 NA 
HETATM   12  C   UNL     1     -11.183  16.139  69.899  1.00  0.00    -0.349 A  
HETATM   13  C   UNL     1     -11.773  14.756  68.294  1.00  0.00    -0.311 A  
HETATM   14  N   UNL     1     -12.171  14.169  69.400  1.00  0.00    -0.325 NA 
HETATM   15  C   UNL     1     -11.810  15.025  70.406  1.00  0.00    -0.297 A  
ENDBRANCH  10  11
ENDBRANCH   9  10
BRANCH   9  16
HETATM   16  O   UNL     1      -8.665  17.119  65.949  1.00  0.00    -0.526 OA 
BRANCH  16  17
HETATM   17  C   UNL     1      -9.069  18.450  66.279  1.00  0.00    -0.201 C  
BRANCH  17  18
HETATM   18  C   UNL     1      -7.965  19.111  67.059  1.00  0.00    -0.273 A  
HETATM   19  C   UNL     1      -8.155  19.602  68.364  1.00  0.00    -0.317 A  
HETATM   20 CL   UNL     1      -9.682  19.525  69.175  1.00  0.00    -0.458 Cl 
HETATM   21  C   UNL     1      -5.836  20.289  68.508  1.00  0.00    -0.305 A  
HETATM   22  C   UNL     1      -7.100  20.181  69.079  1.00  0.00    -0.162 A  
HETATM   23  C   UNL     1      -5.634  19.838  67.207  1.00  0.00    -0.175 A  
HETATM   24  C   UNL     1      -6.685  19.262  66.489  1.00  0.00    -0.191 A  
HETATM   25 CL   UNL     1      -6.335  18.735  64.876  1.00  0.00    -0.249 Cl 
ENDBRANCH  17  18
ENDBRANCH  16  17
ENDBRANCH   9  16
ENDBRANCH   6   9
TORSDOF 6
ENDMDL
MODEL      169
REMARK 921   NORMALIZED FREE ENERGY PREDICTED BY IDOCK:   -4.64 KCAL/MOL
REMARK 922        TOTAL FREE ENERGY PREDICTED BY IDOCK:   -7.28 KCAL/MOL
REMARK 923 INTER-LIGAND FREE ENERGY PREDICTED BY IDOCK:   -6.25 KCAL/MOL
REMARK 924 INTRA-LIGAND FREE ENERGY PREDICTED BY IDOCK:   -1.03 KCAL/MOL
REMARK 927      BINDING AFFINITY PREDICTED BY RF-SCORE:    0.00 PKD
ROOT
HETATM    1 CL   UNL     1      -9.724   5.328  67.143  1.00  0.00    -0.148 Cl 
HETATM    2  C   UNL     1      -9.724   7.045  67.053  1.00  0.00    -0.167 A  
HETATM    3  C   UNL     1      -8.988   7.686  66.058  1.00  0.00    -0.178 A  
HETATM    4  C   UNL     1      -9.026   9.079  65.952  1.00  0.00    -0.190 A  
HETATM    5 CL   UNL     1      -8.089   9.809  64.696  1.00  0.00    -0.139 Cl 
HETATM    6  C   UNL     1      -9.805   9.843  66.836  1.00  0.00    -0.252 A  
HETATM    7  C   UNL     1     -10.510   9.169  67.855  1.00  0.00    -0.293 A  
HETATM    8  C   UNL     1     -10.473   7.780  67.962  1.00  0.00    -0.244 A  
ENDROOT
BRANCH   6   9
HETATM    9  C   UNL     1      -9.968  11.351  66.690  1.00  0.00    -0.208 C  
BRANCH   9  10
HETATM   10  C   UNL     1     -11.458  11.776  66.707  1.00  0.00    -0.281 C  
BRANCH  10  11
HETATM   11  N   UNL     1     -11.889  12.611  65.601  1.00  0.00    -0.416 NA 
HETATM   12  C   UNL     1     -11.737  12.334  64.270  1.00  0.00    -0.381 A  
HETATM   13  C   UNL     1     -12.578  13.788  65.689  1.00  0.00    -0.509 A  
HETATM   14  N   UNL     1     -12.749  14.340  64.509  1.00  0.00    -0.653 NA 
HETATM   15  C   UNL     1     -12.230  13.439  63.617  1.00  0.00    -0.414 A  
ENDBRANCH  10  11
ENDBRANCH   9  10
BRANCH   9  16
HETATM   16  O   UNL     1      -9.255  12.066  67.713  1.00  0.00    -0.177 OA 
BRANCH  16  17
HETATM   17  C   UNL     1      -7.997  12.582  67.272  1.00  0.00    -0.173 C  
BRANCH  17  18
HETATM   18  C   UNL     1      -7.700  13.847  68.032  1.00  0.00    -0.151 A  
HETATM   19  C   UNL     1      -6.899  13.858  69.188  1.00  0.00    -0.108 A  
HETATM   20 CL   UNL     1      -6.216  12.419  69.864  1.00  0.00    -0.130 Cl 
HETATM   21  C   UNL     1      -7.118  16.263  69.387  1.00  0.00    -0.204 A  
HETATM   22  C   UNL     1      -6.610  15.056  69.855  1.00  0.00    -0.170 A  
HETATM   23  C   UNL     1      -7.938  16.270  68.262  1.00  0.00    -0.166 A  
HETATM   24  C   UNL     1      -8.230  15.077  67.596  1.00  0.00    -0.168 A  
HETATM   25 CL   UNL     1      -9.263  15.188  66.209  1.00  0.00    -0.333 Cl 
ENDBRANCH  17  18
ENDBRANCH  16  17
ENDBRANCH   9  16
ENDBRANCH   6   9
TORSDOF 6
ENDMDL
MODEL      170
REMARK 921   NORMALIZED FREE ENERGY PREDICTED BY IDOCK:   -4.63 KCAL/MOL
REMARK 922        TOTAL FREE ENERGY PREDICTED BY IDOCK:   -7.27 KCAL/MOL
REMARK 923 INTER-LIGAND FREE ENERGY PREDICTED BY IDOCK:   -6.15 KCAL/MOL
REMARK 924 INTRA-LIGAND FREE ENERGY PREDICTED BY IDOCK:   -1.12 KCAL/MOL
REMARK 927      BINDING AFFINITY PREDICTED BY RF-SCORE:    0.00 PKD
ROOT
HETATM    1 CL   UNL     1     -11.921  13.072  66.911  1.00  0.00    -0.437 Cl 
HETATM    2  C   UNL     1     -11.491  11.827  68.016  1.00  0.00    -0.319 A  
HETATM    3  C   UNL     1     -12.153  11.728  69.239  1.00  0.00    -0.292 A  
HETATM    4  C   UNL     1     -11.840  10.687  70.118  1.00  0.00    -0.337 A  
HETATM    5 CL   UNL     1     -12.698  10.625  71.617  1.00  0.00    -0.532 Cl 
HETATM    6  C   UNL     1     -10.868   9.732  69.778  1.00  0.00    -0.285 A  
HETATM    7  C   UNL     1     -10.190   9.880  68.551  1.00  0.00    -0.199 A  
HETATM    8  C   UNL     1     -10.500  10.917  67.674  1.00  0.00    -0.244 A  
ENDROOT
BRANCH   6   9
HETATM    9  C   UNL     1     -10.574   8.518  70.651  1.00  0.00    -0.209 C  
BRANCH   9  10
HETATM   10  C   UNL     1     -10.129   8.926  72.078  1.00  0.00    -0.281 C  
BRANCH  10  11
HETATM   11  N   UNL     1      -8.807   8.481  72.479  1.00  0.00    -0.340 NA 
HETATM   12  C   UNL     1      -7.678   8.498  71.706  1.00  0.00    -0.117 A  
HETATM   13  C   UNL     1      -8.440   8.026  73.714  1.00  0.00    -0.257 A  
HETATM   14  N   UNL     1      -7.189   7.626  73.732  1.00  0.00    -0.099 NA 
HETATM   15  C   UNL     1      -6.704   7.919  72.484  1.00  0.00    -0.073 A  
ENDBRANCH  10  11
ENDBRANCH   9  10
BRANCH   9  16
HETATM   16  O   UNL     1     -11.707   7.637  70.737  1.00  0.00    -0.287 OA 
BRANCH  16  17
HETATM   17  C   UNL     1     -11.514   6.398  70.050  1.00  0.00    -0.428 C  
BRANCH  17  18
HETATM   18  C   UNL     1     -10.267   5.741  70.580  1.00  0.00    -0.280 A  
HETATM   19  C   UNL     1     -10.190   5.216  71.883  1.00  0.00    -0.209 A  
HETATM   20 CL   UNL     1     -11.503   5.312  73.006  1.00  0.00    -0.372 Cl 
HETATM   21  C   UNL     1      -7.920   4.457  71.506  1.00  0.00    -0.083 A  
HETATM   22  C   UNL     1      -9.028   4.579  72.338  1.00  0.00    -0.139 A  
HETATM   23  C   UNL     1      -7.965   4.996  70.224  1.00  0.00    -0.078 A  
HETATM   24  C   UNL     1      -9.121   5.635  69.768  1.00  0.00    -0.138 A  
HETATM   25 CL   UNL     1      -9.077   6.278  68.159  1.00  0.00    -0.114 Cl 
ENDBRANCH  17  18
ENDBRANCH  16  17
ENDBRANCH   9  16
ENDBRANCH   6   9
TORSDOF 6
ENDMDL
MODEL      171
REMARK 921   NORMALIZED FREE ENERGY PREDICTED BY IDOCK:   -4.62 KCAL/MOL
REMARK 922        TOTAL FREE ENERGY PREDICTED BY IDOCK:   -7.26 KCAL/MOL
REMARK 923 INTER-LIGAND FREE ENERGY PREDICTED BY IDOCK:   -6.26 KCAL/MOL
REMARK 924 INTRA-LIGAND FREE ENERGY PREDICTED BY IDOCK:   -0.99 KCAL/MOL
REMARK 927      BINDING AFFINITY PREDICTED BY RF-SCORE:    0.00 PKD
ROOT
HETATM    1 CL   UNL     1      -6.022  13.006  69.955  1.00  0.00    -0.130 Cl 
HETATM    2  C   UNL     1      -6.848  14.064  68.880  1.00  0.00    -0.108 A  
HETATM    3  C   UNL     1      -7.774  13.549  67.976  1.00  0.00    -0.143 A  
HETATM    4  C   UNL     1      -8.483  14.412  67.136  1.00  0.00    -0.208 A  
HETATM    5 CL   UNL     1      -9.615  13.705  66.037  1.00  0.00    -0.234 Cl 
HETATM    6  C   UNL     1      -8.276  15.800  67.198  1.00  0.00    -0.237 A  
HETATM    7  C   UNL     1      -7.306  16.289  68.097  1.00  0.00    -0.144 A  
HETATM    8  C   UNL     1      -6.599  15.430  68.935  1.00  0.00    -0.110 A  
ENDROOT
BRANCH   6   9
HETATM    9  C   UNL     1      -9.104  16.788  66.385  1.00  0.00    -0.289 C  
BRANCH   9  10
HETATM   10  C   UNL     1     -10.223  17.441  67.235  1.00  0.00    -0.324 C  
BRANCH  10  11
HETATM   11  N   UNL     1     -10.852  16.580  68.220  1.00  0.00    -0.341 NA 
HETATM   12  C   UNL     1     -11.732  15.564  67.964  1.00  0.00    -0.186 A  
HETATM   13  C   UNL     1     -10.630  16.588  69.569  1.00  0.00    -0.321 A  
HETATM   14  N   UNL     1     -11.414  15.739  70.194  1.00  0.00    -0.330 NA 
HETATM   15  C   UNL     1     -12.103  15.094  69.201  1.00  0.00    -0.224 A  
ENDBRANCH  10  11
ENDBRANCH   9  10
BRANCH   9  16
HETATM   16  O   UNL     1      -8.286  17.816  65.801  1.00  0.00    -0.529 OA 
BRANCH  16  17
HETATM   17  C   UNL     1      -8.649  19.134  66.220  1.00  0.00    -0.296 C  
BRANCH  17  18
HETATM   18  C   UNL     1      -7.422  19.826  66.752  1.00  0.00    -0.272 A  
HETATM   19  C   UNL     1      -6.429  20.353  65.906  1.00  0.00    -0.224 A  
HETATM   20 CL   UNL     1      -6.507  20.220  64.182  1.00  0.00    -0.213 Cl 
HETATM   21  C   UNL     1      -5.166  21.177  67.802  1.00  0.00    -0.323 A  
HETATM   22  C   UNL     1      -5.316  21.023  66.428  1.00  0.00    -0.246 A  
HETATM   23  C   UNL     1      -6.122  20.636  68.658  1.00  0.00    -0.371 A  
HETATM   24  C   UNL     1      -7.233  19.965  68.141  1.00  0.00    -0.295 A  
HETATM   25 CL   UNL     1      -8.363  19.324  69.287  1.00  0.00    -0.165 Cl 
ENDBRANCH  17  18
ENDBRANCH  16  17
ENDBRANCH   9  16
ENDBRANCH   6   9
TORSDOF 6
ENDMDL
MODEL      172
REMARK 921   NORMALIZED FREE ENERGY PREDICTED BY IDOCK:   -4.61 KCAL/MOL
REMARK 922        TOTAL FREE ENERGY PREDICTED BY IDOCK:   -7.25 KCAL/MOL
REMARK 923 INTER-LIGAND FREE ENERGY PREDICTED BY IDOCK:   -6.69 KCAL/MOL
REMARK 924 INTRA-LIGAND FREE ENERGY PREDICTED BY IDOCK:   -0.55 KCAL/MOL
REMARK 927      BINDING AFFINITY PREDICTED BY RF-SCORE:    0.00 PKD
ROOT
HETATM    1 CL   UNL     1     -14.276   8.624  72.624  1.00  0.00    -0.365 Cl 
HETATM    2  C   UNL     1     -12.907   9.196  71.754  1.00  0.00    -0.377 A  
HETATM    3  C   UNL     1     -11.626   8.813  72.149  1.00  0.00    -0.434 A  
HETATM    4  C   UNL     1     -10.516   9.236  71.413  1.00  0.00    -0.338 A  
HETATM    5 CL   UNL     1      -8.957   8.727  71.960  1.00  0.00    -0.284 Cl 
HETATM    6  C   UNL     1     -10.677  10.040  70.273  1.00  0.00    -0.367 A  
HETATM    7  C   UNL     1     -11.982  10.440  69.920  1.00  0.00    -0.289 A  
HETATM    8  C   UNL     1     -13.090  10.020  70.652  1.00  0.00    -0.220 A  
ENDROOT
BRANCH   6   9
HETATM    9  C   UNL     1      -9.508  10.430  69.376  1.00  0.00    -0.183 C  
BRANCH   9  10
HETATM   10  C   UNL     1      -8.772   9.189  68.812  1.00  0.00    -0.132 C  
BRANCH  10  11
HETATM   11  N   UNL     1      -9.621   8.128  68.303  1.00  0.00    -0.142 NA 
HETATM   12  C   UNL     1      -9.776   6.883  68.848  1.00  0.00    -0.142 A  
HETATM   13  C   UNL     1     -10.463   8.203  67.229  1.00  0.00    -0.309 A  
HETATM   14  N   UNL     1     -11.033   7.047  66.978  1.00  0.00    -0.365 NA 
HETATM   15  C   UNL     1     -10.613   6.217  67.984  1.00  0.00    -0.262 A  
ENDBRANCH  10  11
ENDBRANCH   9  10
BRANCH   9  16
HETATM   16  O   UNL     1      -9.929  11.271  68.288  1.00  0.00    -0.181 OA 
BRANCH  16  17
HETATM   17  C   UNL     1      -8.852  11.691  67.447  1.00  0.00    -0.160 C  
BRANCH  17  18
HETATM   18  C   UNL     1      -9.189  11.345  66.021  1.00  0.00    -0.229 A  
HETATM   19  C   UNL     1      -8.348  10.549  65.222  1.00  0.00    -0.155 A  
HETATM   20 CL   UNL     1      -6.835   9.929  65.789  1.00  0.00    -0.098 Cl 
HETATM   21  C   UNL     1      -9.900  10.670  63.365  1.00  0.00    -0.376 A  
HETATM   22  C   UNL     1      -8.704  10.214  63.909  1.00  0.00    -0.220 A  
HETATM   23  C   UNL     1     -10.732  11.483  64.129  1.00  0.00    -0.428 A  
HETATM   24  C   UNL     1     -10.379  11.822  65.438  1.00  0.00    -0.268 A  
HETATM   25 CL   UNL     1     -11.478  12.843  66.305  1.00  0.00    -0.370 Cl 
ENDBRANCH  17  18
ENDBRANCH  16  17
ENDBRANCH   9  16
ENDBRANCH   6   9
TORSDOF 6
ENDMDL
MODEL      173
REMARK 921   NORMALIZED FREE ENERGY PREDICTED BY IDOCK:   -4.61 KCAL/MOL
REMARK 922        TOTAL FREE ENERGY PREDICTED BY IDOCK:   -7.24 KCAL/MOL
REMARK 923 INTER-LIGAND FREE ENERGY PREDICTED BY IDOCK:   -6.39 KCAL/MOL
REMARK 924 INTRA-LIGAND FREE ENERGY PREDICTED BY IDOCK:   -0.86 KCAL/MOL
REMARK 927      BINDING AFFINITY PREDICTED BY RF-SCORE:    0.00 PKD
ROOT
HETATM    1 CL   UNL     1     -11.971   8.941  72.429  1.00  0.00    -0.379 Cl 
HETATM    2  C   UNL     1     -11.482   9.675  70.953  1.00  0.00    -0.353 A  
HETATM    3  C   UNL     1     -10.165   9.543  70.517  1.00  0.00    -0.349 A  
HETATM    4  C   UNL     1      -9.777  10.096  69.293  1.00  0.00    -0.224 A  
HETATM    5 CL   UNL     1      -8.128   9.898  68.816  1.00  0.00    -0.098 Cl 
HETATM    6  C   UNL     1     -10.706  10.779  68.491  1.00  0.00    -0.245 A  
HETATM    7  C   UNL     1     -12.022  10.927  68.975  1.00  0.00    -0.322 A  
HETATM    8  C   UNL     1     -12.410  10.377  70.195  1.00  0.00    -0.281 A  
ENDROOT
BRANCH   6   9
HETATM    9  C   UNL     1     -10.359  11.299  67.101  1.00  0.00    -0.209 C  
BRANCH   9  10
HETATM   10  C   UNL     1     -10.074  12.822  67.107  1.00  0.00    -0.234 C  
BRANCH  10  11
HETATM   11  N   UNL     1     -10.863  13.616  66.182  1.00  0.00    -0.278 NA 
HETATM   12  C   UNL     1     -10.441  14.730  65.509  1.00  0.00    -0.359 A  
HETATM   13  C   UNL     1     -12.140  13.359  65.771  1.00  0.00    -0.436 A  
HETATM   14  N   UNL     1     -12.600  14.311  64.992  1.00  0.00    -0.606 NA 
HETATM   15  C   UNL     1     -11.546  15.169  64.821  1.00  0.00    -0.364 A  
ENDBRANCH  10  11
ENDBRANCH   9  10
BRANCH   9  16
HETATM   16  O   UNL     1      -9.234  10.604  66.537  1.00  0.00    -0.161 OA 
BRANCH  16  17
HETATM   17  C   UNL     1      -9.598   9.669  65.519  1.00  0.00    -0.283 C  
BRANCH  17  18
HETATM   18  C   UNL     1      -8.794   8.411  65.710  1.00  0.00    -0.204 A  
HETATM   19  C   UNL     1      -9.284   7.306  66.430  1.00  0.00    -0.159 A  
HETATM   20 CL   UNL     1     -10.837   7.308  67.194  1.00  0.00    -0.410 Cl 
HETATM   21  C   UNL     1      -7.266   6.043  65.984  1.00  0.00    -0.075 A  
HETATM   22  C   UNL     1      -8.528   6.135  66.562  1.00  0.00    -0.119 A  
HETATM   23  C   UNL     1      -6.749   7.135  65.292  1.00  0.00    -0.047 A  
HETATM   24  C   UNL     1      -7.500   8.306  65.161  1.00  0.00    -0.085 A  
HETATM   25 CL   UNL     1      -6.768   9.611  64.287  1.00  0.00    -0.106 Cl 
ENDBRANCH  17  18
ENDBRANCH  16  17
ENDBRANCH   9  16
ENDBRANCH   6   9
TORSDOF 6
ENDMDL
MODEL      174
REMARK 921   NORMALIZED FREE ENERGY PREDICTED BY IDOCK:   -4.61 KCAL/MOL
REMARK 922        TOTAL FREE ENERGY PREDICTED BY IDOCK:   -7.24 KCAL/MOL
REMARK 923 INTER-LIGAND FREE ENERGY PREDICTED BY IDOCK:   -6.21 KCAL/MOL
REMARK 924 INTRA-LIGAND FREE ENERGY PREDICTED BY IDOCK:   -1.03 KCAL/MOL
REMARK 927      BINDING AFFINITY PREDICTED BY RF-SCORE:    0.00 PKD
ROOT
HETATM    1 CL   UNL     1     -12.389  13.581  65.866  1.00  0.00    -0.498 Cl 
HETATM    2  C   UNL     1     -11.580  12.185  66.462  1.00  0.00    -0.359 A  
HETATM    3  C   UNL     1     -11.806  11.759  67.769  1.00  0.00    -0.266 A  
HETATM    4  C   UNL     1     -11.188  10.597  68.239  1.00  0.00    -0.301 A  
HETATM    5 CL   UNL     1     -11.510  10.127  69.871  1.00  0.00    -0.309 Cl 
HETATM    6  C   UNL     1     -10.346   9.846  67.403  1.00  0.00    -0.301 A  
HETATM    7  C   UNL     1     -10.109  10.321  66.097  1.00  0.00    -0.307 A  
HETATM    8  C   UNL     1     -10.723  11.480  65.627  1.00  0.00    -0.323 A  
ENDROOT
BRANCH   6   9
HETATM    9  C   UNL     1      -9.742   8.514  67.833  1.00  0.00    -0.162 C  
BRANCH   9  10
HETATM   10  C   UNL     1      -8.793   7.935  66.755  1.00  0.00    -0.138 C  
BRANCH  10  11
HETATM   11  N   UNL     1      -9.161   6.636  66.220  1.00  0.00    -0.156 NA 
HETATM   12  C   UNL     1     -10.247   5.889  66.586  1.00  0.00    -0.205 A  
HETATM   13  C   UNL     1      -8.528   5.959  65.216  1.00  0.00    -0.144 A  
HETATM   14  N   UNL     1      -9.060   4.775  65.019  1.00  0.00    -0.156 NA 
HETATM   15  C   UNL     1     -10.135   4.723  65.867  1.00  0.00    -0.242 A  
ENDBRANCH  10  11
ENDBRANCH   9  10
BRANCH   9  16
HETATM   16  O   UNL     1      -9.037   8.626  69.081  1.00  0.00    -0.141 OA 
BRANCH  16  17
HETATM   17  C   UNL     1      -8.691   7.361  69.651  1.00  0.00    -0.137 C  
BRANCH  17  18
HETATM   18  C   UNL     1      -9.252   7.291  71.046  1.00  0.00    -0.154 A  
HETATM   19  C   UNL     1      -8.516   7.696  72.174  1.00  0.00    -0.114 A  
HETATM   20 CL   UNL     1      -6.889   8.275  72.066  1.00  0.00    -0.079 Cl 
HETATM   21  C   UNL     1     -10.379   7.198  73.642  1.00  0.00    -0.411 A  
HETATM   22  C   UNL     1      -9.077   7.652  73.457  1.00  0.00    -0.317 A  
HETATM   23  C   UNL     1     -11.114   6.763  72.543  1.00  0.00    -0.299 A  
HETATM   24  C   UNL     1     -10.557   6.803  71.262  1.00  0.00    -0.219 A  
HETATM   25 CL   UNL     1     -11.549   6.237  69.959  1.00  0.00    -0.470 Cl 
ENDBRANCH  17  18
ENDBRANCH  16  17
ENDBRANCH   9  16
ENDBRANCH   6   9
TORSDOF 6
ENDMDL
MODEL      175
REMARK 921   NORMALIZED FREE ENERGY PREDICTED BY IDOCK:   -4.60 KCAL/MOL
REMARK 922        TOTAL FREE ENERGY PREDICTED BY IDOCK:   -7.23 KCAL/MOL
REMARK 923 INTER-LIGAND FREE ENERGY PREDICTED BY IDOCK:   -6.29 KCAL/MOL
REMARK 924 INTRA-LIGAND FREE ENERGY PREDICTED BY IDOCK:   -0.95 KCAL/MOL
REMARK 927      BINDING AFFINITY PREDICTED BY RF-SCORE:    0.00 PKD
ROOT
HETATM    1 CL   UNL     1     -10.621  19.596  65.972  1.00  0.00    -0.600 Cl 
HETATM    2  C   UNL     1     -10.440  17.979  66.530  1.00  0.00    -0.334 A  
HETATM    3  C   UNL     1     -10.515  17.705  67.894  1.00  0.00    -0.392 A  
HETATM    4  C   UNL     1     -10.418  16.386  68.346  1.00  0.00    -0.298 A  
HETATM    5 CL   UNL     1     -10.517  16.118  70.050  1.00  0.00    -0.258 Cl 
HETATM    6  C   UNL     1     -10.252  15.329  67.436  1.00  0.00    -0.243 A  
HETATM    7  C   UNL     1     -10.144  15.641  66.065  1.00  0.00    -0.355 A  
HETATM    8  C   UNL     1     -10.240  16.955  65.613  1.00  0.00    -0.227 A  
ENDROOT
BRANCH   6   9
HETATM    9  C   UNL     1     -10.256  13.868  67.870  1.00  0.00    -0.241 C  
BRANCH   9  10
HETATM   10  C   UNL     1     -11.692  13.294  67.955  1.00  0.00    -0.359 C  
BRANCH  10  11
HETATM   11  N   UNL     1     -11.993  12.518  69.145  1.00  0.00    -0.270 NA 
HETATM   12  C   UNL     1     -12.362  13.016  70.364  1.00  0.00    -0.277 A  
HETATM   13  C   UNL     1     -12.023  11.155  69.243  1.00  0.00    -0.351 A  
HETATM   14  N   UNL     1     -12.251  10.763  70.475  1.00  0.00    -0.334 NA 
HETATM   15  C   UNL     1     -12.466  11.916  71.182  1.00  0.00    -0.261 A  
ENDBRANCH  10  11
ENDBRANCH   9  10
BRANCH   9  16
HETATM   16  O   UNL     1      -9.466  13.049  66.991  1.00  0.00    -0.221 OA 
BRANCH  16  17
HETATM   17  C   UNL     1      -8.686  12.068  67.681  1.00  0.00    -0.166 C  
BRANCH  17  18
HETATM   18  C   UNL     1      -7.712  11.456  66.710  1.00  0.00    -0.150 A  
HETATM   19  C   UNL     1      -8.105  10.512  65.744  1.00  0.00    -0.158 A  
HETATM   20 CL   UNL     1      -9.733   9.941  65.608  1.00  0.00    -0.324 Cl 
HETATM   21  C   UNL     1      -5.850  10.384  64.866  1.00  0.00    -0.130 A  
HETATM   22  C   UNL     1      -7.183   9.986  64.831  1.00  0.00    -0.140 A  
HETATM   23  C   UNL     1      -5.434  11.294  65.834  1.00  0.00    -0.007 A  
HETATM   24  C   UNL     1      -6.351  11.819  66.748  1.00  0.00    -0.083 A  
HETATM   25 CL   UNL     1      -5.735  12.941  67.916  1.00  0.00    -0.108 Cl 
ENDBRANCH  17  18
ENDBRANCH  16  17
ENDBRANCH   9  16
ENDBRANCH   6   9
TORSDOF 6
ENDMDL
MODEL      176
REMARK 921   NORMALIZED FREE ENERGY PREDICTED BY IDOCK:   -4.59 KCAL/MOL
REMARK 922        TOTAL FREE ENERGY PREDICTED BY IDOCK:   -7.22 KCAL/MOL
REMARK 923 INTER-LIGAND FREE ENERGY PREDICTED BY IDOCK:   -7.26 KCAL/MOL
REMARK 924 INTRA-LIGAND FREE ENERGY PREDICTED BY IDOCK:    0.04 KCAL/MOL
REMARK 927      BINDING AFFINITY PREDICTED BY RF-SCORE:    0.00 PKD
ROOT
HETATM    1 CL   UNL     1      -8.908   8.770  65.239  1.00  0.00    -0.223 Cl 
HETATM    2  C   UNL     1      -9.272  10.415  65.583  1.00  0.00    -0.182 A  
HETATM    3  C   UNL     1     -10.253  11.075  64.845  1.00  0.00    -0.373 A  
HETATM    4  C   UNL     1     -10.586  12.397  65.156  1.00  0.00    -0.292 A  
HETATM    5 CL   UNL     1     -11.809  13.156  64.200  1.00  0.00    -0.454 Cl 
HETATM    6  C   UNL     1      -9.946  13.067  66.211  1.00  0.00    -0.283 A  
HETATM    7  C   UNL     1      -8.933  12.384  66.916  1.00  0.00    -0.212 A  
HETATM    8  C   UNL     1      -8.599  11.067  66.607  1.00  0.00    -0.157 A  
ENDROOT
BRANCH   6   9
HETATM    9  C   UNL     1     -10.354  14.465  66.660  1.00  0.00    -0.275 C  
BRANCH   9  10
HETATM   10  C   UNL     1     -11.759  14.476  67.312  1.00  0.00    -0.406 C  
BRANCH  10  11
HETATM   11  N   UNL     1     -11.907  13.665  68.507  1.00  0.00    -0.356 NA 
HETATM   12  C   UNL     1     -12.161  14.124  69.770  1.00  0.00    -0.344 A  
HETATM   13  C   UNL     1     -11.883  12.300  68.573  1.00  0.00    -0.307 A  
HETATM   14  N   UNL     1     -11.966  11.873  69.812  1.00  0.00    -0.315 NA 
HETATM   15  C   UNL     1     -12.143  13.003  70.566  1.00  0.00    -0.292 A  
ENDBRANCH  10  11
ENDBRANCH   9  10
BRANCH   9  16
HETATM   16  O   UNL     1      -9.398  15.031  67.573  1.00  0.00    -0.191 OA 
BRANCH  16  17
HETATM   17  C   UNL     1      -9.729  16.360  67.986  1.00  0.00    -0.235 C  
BRANCH  17  18
HETATM   18  C   UNL     1      -8.812  17.326  67.285  1.00  0.00    -0.230 A  
HETATM   19  C   UNL     1      -9.245  18.592  66.849  1.00  0.00    -0.304 A  
HETATM   20 CL   UNL     1     -10.875  19.138  67.046  1.00  0.00    -0.527 Cl 
HETATM   21  C   UNL     1      -7.030  19.132  66.027  1.00  0.00    -0.281 A  
HETATM   22  C   UNL     1      -8.360  19.485  66.231  1.00  0.00    -0.359 A  
HETATM   23  C   UNL     1      -6.589  17.872  66.423  1.00  0.00    -0.267 A  
HETATM   24  C   UNL     1      -7.469  16.978  67.038  1.00  0.00    -0.191 A  
HETATM   25 CL   UNL     1      -6.827  15.433  67.489  1.00  0.00    -0.209 Cl 
ENDBRANCH  17  18
ENDBRANCH  16  17
ENDBRANCH   9  16
ENDBRANCH   6   9
TORSDOF 6
ENDMDL
MODEL      177
REMARK 921   NORMALIZED FREE ENERGY PREDICTED BY IDOCK:   -4.59 KCAL/MOL
REMARK 922        TOTAL FREE ENERGY PREDICTED BY IDOCK:   -7.22 KCAL/MOL
REMARK 923 INTER-LIGAND FREE ENERGY PREDICTED BY IDOCK:   -6.11 KCAL/MOL
REMARK 924 INTRA-LIGAND FREE ENERGY PREDICTED BY IDOCK:   -1.11 KCAL/MOL
REMARK 927      BINDING AFFINITY PREDICTED BY RF-SCORE:    0.00 PKD
ROOT
HETATM    1 CL   UNL     1     -12.692  12.065  63.105  1.00  0.00    -0.506 Cl 
HETATM    2  C   UNL     1     -11.751  11.937  64.539  1.00  0.00    -0.248 A  
HETATM    3  C   UNL     1     -10.454  11.433  64.472  1.00  0.00    -0.381 A  
HETATM    4  C   UNL     1      -9.670  11.374  65.628  1.00  0.00    -0.231 A  
HETATM    5 CL   UNL     1      -8.071  10.735  65.474  1.00  0.00    -0.128 Cl 
HETATM    6  C   UNL     1     -10.174  11.825  66.858  1.00  0.00    -0.236 A  
HETATM    7  C   UNL     1     -11.502  12.296  66.901  1.00  0.00    -0.418 A  
HETATM    8  C   UNL     1     -12.286  12.355  65.750  1.00  0.00    -0.277 A  
ENDROOT
BRANCH   6   9
HETATM    9  C   UNL     1      -9.320  11.887  68.119  1.00  0.00    -0.191 C  
BRANCH   9  10
HETATM   10  C   UNL     1      -9.396  13.275  68.802  1.00  0.00     0.117 C  
BRANCH  10  11
HETATM   11  N   UNL     1      -9.017  14.407  67.975  1.00  0.00    -0.176 NA 
HETATM   12  C   UNL     1      -7.818  14.580  67.340  1.00  0.00    -0.199 A  
HETATM   13  C   UNL     1      -9.809  15.467  67.632  1.00  0.00    -0.213 A  
HETATM   14  N   UNL     1      -9.145  16.363  66.938  1.00  0.00    -0.206 NA 
HETATM   15  C   UNL     1      -7.903  15.818  66.748  1.00  0.00    -0.213 A  
ENDBRANCH  10  11
ENDBRANCH   9  10
BRANCH   9  16
HETATM   16  O   UNL     1      -9.691  10.869  69.065  1.00  0.00    -0.202 OA 
BRANCH  16  17
HETATM   17  C   UNL     1      -8.860   9.707  69.002  1.00  0.00    -0.147 C  
BRANCH  17  18
HETATM   18  C   UNL     1      -9.710   8.490  69.249  1.00  0.00    -0.173 A  
HETATM   19  C   UNL     1     -10.349   7.795  68.206  1.00  0.00    -0.198 A  
HETATM   20 CL   UNL     1     -10.247   8.296  66.552  1.00  0.00    -0.332 Cl 
HETATM   21  C   UNL     1     -11.247   6.168  69.760  1.00  0.00    -0.494 A  
HETATM   22  C   UNL     1     -11.106   6.645  68.461  1.00  0.00    -0.284 A  
HETATM   23  C   UNL     1     -10.649   6.859  70.811  1.00  0.00    -0.245 A  
HETATM   24  C   UNL     1      -9.895   8.008  70.560  1.00  0.00    -0.182 A  
HETATM   25 CL   UNL     1      -9.195   8.800  71.933  1.00  0.00    -0.343 Cl 
ENDBRANCH  17  18
ENDBRANCH  16  17
ENDBRANCH   9  16
ENDBRANCH   6   9
TORSDOF 6
ENDMDL
MODEL      178
REMARK 921   NORMALIZED FREE ENERGY PREDICTED BY IDOCK:   -4.58 KCAL/MOL
REMARK 922        TOTAL FREE ENERGY PREDICTED BY IDOCK:   -7.20 KCAL/MOL
REMARK 923 INTER-LIGAND FREE ENERGY PREDICTED BY IDOCK:   -7.28 KCAL/MOL
REMARK 924 INTRA-LIGAND FREE ENERGY PREDICTED BY IDOCK:    0.08 KCAL/MOL
REMARK 927      BINDING AFFINITY PREDICTED BY RF-SCORE:    0.00 PKD
ROOT
HETATM    1 CL   UNL     1     -10.628  20.170  65.514  1.00  0.00    -0.395 Cl 
HETATM    2  C   UNL     1     -10.369  18.631  66.236  1.00  0.00    -0.444 A  
HETATM    3  C   UNL     1     -10.643  17.472  65.512  1.00  0.00    -0.097 A  
HETATM    4  C   UNL     1     -10.386  16.220  66.079  1.00  0.00    -0.349 A  
HETATM    5 CL   UNL     1     -10.750  14.824  65.127  1.00  0.00    -0.399 Cl 
HETATM    6  C   UNL     1      -9.847  16.117  67.372  1.00  0.00    -0.238 A  
HETATM    7  C   UNL     1      -9.615  17.306  68.093  1.00  0.00    -0.283 A  
HETATM    8  C   UNL     1      -9.871  18.555  67.530  1.00  0.00    -0.330 A  
ENDROOT
BRANCH   6   9
HETATM    9  C   UNL     1      -9.445  14.782  67.986  1.00  0.00    -0.204 C  
BRANCH   9  10
HETATM   10  C   UNL     1      -8.375  14.954  69.093  1.00  0.00    -0.150 C  
BRANCH  10  11
HETATM   11  N   UNL     1      -7.086  14.341  68.826  1.00  0.00    -0.100 NA 
HETATM   12  C   UNL     1      -6.250  13.778  69.752  1.00  0.00    -0.126 A  
HETATM   13  C   UNL     1      -6.508  14.159  67.601  1.00  0.00    -0.135 A  
HETATM   14  N   UNL     1      -5.304  13.646  67.705  1.00  0.00    -0.318 NA 
HETATM   15  C   UNL     1      -5.135  13.402  69.042  1.00  0.00    -0.070 A  
ENDBRANCH  10  11
ENDBRANCH   9  10
BRANCH   9  16
HETATM   16  O   UNL     1     -10.579  14.079  68.523  1.00  0.00    -0.241 OA 
BRANCH  16  17
HETATM   17  C   UNL     1     -11.369  14.873  69.411  1.00  0.00    -0.290 C  
BRANCH  17  18
HETATM   18  C   UNL     1     -12.055  13.962  70.394  1.00  0.00    -0.421 A  
HETATM   19  C   UNL     1     -12.171  12.577  70.180  1.00  0.00    -0.234 A  
HETATM   20 CL   UNL     1     -11.571  11.800  68.755  1.00  0.00    -0.333 Cl 
HETATM   21  C   UNL     1     -13.298  12.283  72.305  1.00  0.00    -0.375 A  
HETATM   22  C   UNL     1     -12.784  11.748  71.129  1.00  0.00    -0.405 A  
HETATM   23  C   UNL     1     -13.221  13.656  72.522  1.00  0.00    -0.578 A  
HETATM   24  C   UNL     1     -12.613  14.487  71.577  1.00  0.00    -0.348 A  
HETATM   25 CL   UNL     1     -12.571  16.181  71.936  1.00  0.00    -0.413 Cl 
ENDBRANCH  17  18
ENDBRANCH  16  17
ENDBRANCH   9  16
ENDBRANCH   6   9
TORSDOF 6
ENDMDL
MODEL      179
REMARK 921   NORMALIZED FREE ENERGY PREDICTED BY IDOCK:   -4.58 KCAL/MOL
REMARK 922        TOTAL FREE ENERGY PREDICTED BY IDOCK:   -7.20 KCAL/MOL
REMARK 923 INTER-LIGAND FREE ENERGY PREDICTED BY IDOCK:   -6.17 KCAL/MOL
REMARK 924 INTRA-LIGAND FREE ENERGY PREDICTED BY IDOCK:   -1.03 KCAL/MOL
REMARK 927      BINDING AFFINITY PREDICTED BY RF-SCORE:    0.00 PKD
ROOT
HETATM    1 CL   UNL     1      -9.641  17.172  66.617  1.00  0.00    -0.265 Cl 
HETATM    2  C   UNL     1      -9.716  15.455  66.693  1.00  0.00    -0.253 A  
HETATM    3  C   UNL     1     -10.800  14.785  66.129  1.00  0.00    -0.321 A  
HETATM    4  C   UNL     1     -10.839  13.387  66.146  1.00  0.00    -0.281 A  
HETATM    5 CL   UNL     1     -12.213  12.620  65.431  1.00  0.00    -0.519 Cl 
HETATM    6  C   UNL     1      -9.791  12.649  66.719  1.00  0.00    -0.236 A  
HETATM    7  C   UNL     1      -8.725  13.357  67.313  1.00  0.00    -0.219 A  
HETATM    8  C   UNL     1      -8.685  14.749  67.298  1.00  0.00    -0.226 A  
ENDROOT
BRANCH   6   9
HETATM    9  C   UNL     1      -9.733  11.127  66.659  1.00  0.00    -0.196 C  
BRANCH   9  10
HETATM   10  C   UNL     1      -8.498  10.626  65.871  1.00  0.00    -0.167 C  
BRANCH  10  11
HETATM   11  N   UNL     1      -8.750  10.197  64.507  1.00  0.00    -0.181 NA 
HETATM   12  C   UNL     1      -8.244   9.078  63.904  1.00  0.00    -0.172 A  
HETATM   13  C   UNL     1      -9.582  10.798  63.605  1.00  0.00    -0.305 A  
HETATM   14  N   UNL     1      -9.529  10.211  62.431  1.00  0.00    -0.273 NA 
HETATM   15  C   UNL     1      -8.700   9.136  62.608  1.00  0.00    -0.199 A  
ENDBRANCH  10  11
ENDBRANCH   9  10
BRANCH   9  16
HETATM   16  O   UNL     1      -9.733  10.542  67.972  1.00  0.00    -0.145 OA 
BRANCH  16  17
HETATM   17  C   UNL     1     -11.000   9.999  68.351  1.00  0.00    -0.217 C  
BRANCH  17  18
HETATM   18  C   UNL     1     -10.774   8.680  69.040  1.00  0.00    -0.122 A  
HETATM   19  C   UNL     1     -10.395   7.520  68.339  1.00  0.00    -0.195 A  
HETATM   20 CL   UNL     1     -10.191   7.495  66.621  1.00  0.00    -0.301 Cl 
HETATM   21  C   UNL     1     -10.299   6.238  70.393  1.00  0.00    -0.260 A  
HETATM   22  C   UNL     1     -10.157   6.315  69.011  1.00  0.00    -0.206 A  
HETATM   23  C   UNL     1     -10.703   7.366  71.102  1.00  0.00    -0.246 A  
HETATM   24  C   UNL     1     -10.944   8.570  70.435  1.00  0.00    -0.238 A  
HETATM   25 CL   UNL     1     -11.448   9.915  71.404  1.00  0.00    -0.431 Cl 
ENDBRANCH  17  18
ENDBRANCH  16  17
ENDBRANCH   9  16
ENDBRANCH   6   9
TORSDOF 6
ENDMDL
MODEL      180
REMARK 921   NORMALIZED FREE ENERGY PREDICTED BY IDOCK:   -4.57 KCAL/MOL
REMARK 922        TOTAL FREE ENERGY PREDICTED BY IDOCK:   -7.19 KCAL/MOL
REMARK 923 INTER-LIGAND FREE ENERGY PREDICTED BY IDOCK:   -6.48 KCAL/MOL
REMARK 924 INTRA-LIGAND FREE ENERGY PREDICTED BY IDOCK:   -0.72 KCAL/MOL
REMARK 927      BINDING AFFINITY PREDICTED BY RF-SCORE:    0.00 PKD
ROOT
HETATM    1 CL   UNL     1      -6.299  17.584  67.323  1.00  0.00    -0.163 Cl 
HETATM    2  C   UNL     1      -7.551  16.446  67.628  1.00  0.00    -0.142 A  
HETATM    3  C   UNL     1      -8.396  16.052  66.593  1.00  0.00    -0.331 A  
HETATM    4  C   UNL     1      -9.383  15.089  66.828  1.00  0.00    -0.251 A  
HETATM    5 CL   UNL     1     -10.398  14.649  65.500  1.00  0.00    -0.355 Cl 
HETATM    6  C   UNL     1      -9.527  14.508  68.098  1.00  0.00    -0.208 A  
HETATM    7  C   UNL     1      -8.680  14.953  69.134  1.00  0.00    -0.149 A  
HETATM    8  C   UNL     1      -7.697  15.912  68.902  1.00  0.00    -0.194 A  
ENDROOT
BRANCH   6   9
HETATM    9  C   UNL     1     -10.509  13.375  68.372  1.00  0.00    -0.250 C  
BRANCH   9  10
HETATM   10  C   UNL     1     -11.964  13.891  68.502  1.00  0.00    -0.359 C  
BRANCH  10  11
HETATM   11  N   UNL     1     -12.343  14.388  69.812  1.00  0.00    -0.314 NA 
HETATM   12  C   UNL     1     -12.343  13.675  70.980  1.00  0.00    -0.354 A  
HETATM   13  C   UNL     1     -12.706  15.668  70.125  1.00  0.00    -0.124 A  
HETATM   14  N   UNL     1     -13.067  15.777  71.383  1.00  0.00    -0.474 NA 
HETATM   15  C   UNL     1     -12.841  14.539  71.925  1.00  0.00    -0.338 A  
ENDBRANCH  10  11
ENDBRANCH   9  10
BRANCH   9  16
HETATM   16  O   UNL     1     -10.451  12.361  67.355  1.00  0.00    -0.213 OA 
BRANCH  16  17
HETATM   17  C   UNL     1     -11.365  11.284  67.576  1.00  0.00    -0.288 C  
BRANCH  17  18
HETATM   18  C   UNL     1     -10.582  10.054  67.950  1.00  0.00    -0.298 A  
HETATM   19  C   UNL     1     -10.504   9.587  69.274  1.00  0.00    -0.212 A  
HETATM   20 CL   UNL     1     -11.266  10.401  70.597  1.00  0.00    -0.397 Cl 
HETATM   21  C   UNL     1      -9.148   7.698  68.591  1.00  0.00    -0.135 A  
HETATM   22  C   UNL     1      -9.796   8.419  69.588  1.00  0.00    -0.184 A  
HETATM   23  C   UNL     1      -9.188   8.160  67.278  1.00  0.00    -0.165 A  
HETATM   24  C   UNL     1      -9.890   9.326  66.962  1.00  0.00    -0.198 A  
HETATM   25 CL   UNL     1      -9.876   9.822  65.302  1.00  0.00    -0.384 Cl 
ENDBRANCH  17  18
ENDBRANCH  16  17
ENDBRANCH   9  16
ENDBRANCH   6   9
TORSDOF 6
ENDMDL
MODEL      181
REMARK 921   NORMALIZED FREE ENERGY PREDICTED BY IDOCK:   -4.57 KCAL/MOL
REMARK 922        TOTAL FREE ENERGY PREDICTED BY IDOCK:   -7.19 KCAL/MOL
REMARK 923 INTER-LIGAND FREE ENERGY PREDICTED BY IDOCK:   -6.14 KCAL/MOL
REMARK 924 INTRA-LIGAND FREE ENERGY PREDICTED BY IDOCK:   -1.05 KCAL/MOL
REMARK 927      BINDING AFFINITY PREDICTED BY RF-SCORE:    0.00 PKD
ROOT
HETATM    1 CL   UNL     1     -13.581   9.543  72.429  1.00  0.00    -0.506 Cl 
HETATM    2  C   UNL     1     -12.576  10.113  71.156  1.00  0.00    -0.386 A  
HETATM    3  C   UNL     1     -11.756   9.221  70.469  1.00  0.00    -0.225 A  
HETATM    4  C   UNL     1     -10.975   9.674  69.401  1.00  0.00    -0.190 A  
HETATM    5 CL   UNL     1      -9.980   8.514  68.594  1.00  0.00    -0.189 Cl 
HETATM    6  C   UNL     1     -11.015  11.021  69.007  1.00  0.00    -0.284 A  
HETATM    7  C   UNL     1     -11.827  11.907  69.744  1.00  0.00    -0.411 A  
HETATM    8  C   UNL     1     -12.605  11.458  70.809  1.00  0.00    -0.409 A  
ENDROOT
BRANCH   6   9
HETATM    9  C   UNL     1     -10.271  11.537  67.780  1.00  0.00    -0.182 C  
BRANCH   9  10
HETATM   10  C   UNL     1     -11.062  12.651  67.051  1.00  0.00    -0.281 C  
BRANCH  10  11
HETATM   11  N   UNL     1     -11.355  12.405  65.650  1.00  0.00    -0.332 NA 
HETATM   12  C   UNL     1     -12.527  12.692  65.006  1.00  0.00    -0.487 A  
HETATM   13  C   UNL     1     -10.495  11.904  64.714  1.00  0.00    -0.289 A  
HETATM   14  N   UNL     1     -11.088  11.727  63.556  1.00  0.00    -0.423 NA 
HETATM   15  C   UNL     1     -12.355  12.218  63.727  1.00  0.00    -0.538 A  
ENDBRANCH  10  11
ENDBRANCH   9  10
BRANCH   9  16
HETATM   16  O   UNL     1      -8.961  12.023  68.117  1.00  0.00    -0.179 OA 
BRANCH  16  17
HETATM   17  C   UNL     1      -7.974  11.722  67.127  1.00  0.00    -0.166 C  
BRANCH  17  18
HETATM   18  C   UNL     1      -7.337  10.401  67.467  1.00  0.00    -0.092 A  
HETATM   19  C   UNL     1      -6.651  10.185  68.676  1.00  0.00    -0.053 A  
HETATM   20 CL   UNL     1      -6.443  11.426  69.863  1.00  0.00    -0.136 Cl 
HETATM   21  C   UNL     1      -6.213   7.876  68.084  1.00  0.00    -0.046 A  
HETATM   22  C   UNL     1      -6.098   8.934  68.980  1.00  0.00    -0.043 A  
HETATM   23  C   UNL     1      -6.862   8.077  66.869  1.00  0.00    -0.073 A  
HETATM   24  C   UNL     1      -7.412   9.324  66.561  1.00  0.00    -0.093 A  
HETATM   25 CL   UNL     1      -8.194   9.475  65.022  1.00  0.00    -0.129 Cl 
ENDBRANCH  17  18
ENDBRANCH  16  17
ENDBRANCH   9  16
ENDBRANCH   6   9
TORSDOF 6
ENDMDL
MODEL      182
REMARK 921   NORMALIZED FREE ENERGY PREDICTED BY IDOCK:   -4.55 KCAL/MOL
REMARK 922        TOTAL FREE ENERGY PREDICTED BY IDOCK:   -7.16 KCAL/MOL
REMARK 923 INTER-LIGAND FREE ENERGY PREDICTED BY IDOCK:   -6.52 KCAL/MOL
REMARK 924 INTRA-LIGAND FREE ENERGY PREDICTED BY IDOCK:   -0.64 KCAL/MOL
REMARK 927      BINDING AFFINITY PREDICTED BY RF-SCORE:    0.00 PKD
ROOT
HETATM    1 CL   UNL     1     -10.027   7.549  68.232  1.00  0.00    -0.180 Cl 
HETATM    2  C   UNL     1     -10.187   9.236  67.943  1.00  0.00    -0.214 A  
HETATM    3  C   UNL     1     -10.351   9.703  66.641  1.00  0.00    -0.279 A  
HETATM    4  C   UNL     1     -10.531  11.070  66.408  1.00  0.00    -0.258 A  
HETATM    5 CL   UNL     1     -10.726  11.580  64.768  1.00  0.00    -0.358 Cl 
HETATM    6  C   UNL     1     -10.556  11.980  67.477  1.00  0.00    -0.250 A  
HETATM    7  C   UNL     1     -10.352  11.482  68.780  1.00  0.00    -0.213 A  
HETATM    8  C   UNL     1     -10.171  10.120  69.014  1.00  0.00    -0.221 A  
ENDROOT
BRANCH   6   9
HETATM    9  C   UNL     1     -10.863  13.460  67.284  1.00  0.00    -0.269 C  
BRANCH   9  10
HETATM   10  C   UNL     1     -12.128  13.895  68.064  1.00  0.00    -0.283 C  
BRANCH  10  11
HETATM   11  N   UNL     1     -11.891  14.535  69.346  1.00  0.00    -0.307 NA 
HETATM   12  C   UNL     1     -12.066  13.967  70.579  1.00  0.00    -0.356 A  
HETATM   13  C   UNL     1     -11.393  15.791  69.550  1.00  0.00    -0.328 A  
HETATM   14  N   UNL     1     -11.372  16.103  70.826  1.00  0.00    -0.395 NA 
HETATM   15  C   UNL     1     -11.788  14.971  71.475  1.00  0.00    -0.372 A  
ENDBRANCH  10  11
ENDBRANCH   9  10
BRANCH   9  16
HETATM   16  O   UNL     1      -9.754  14.289  67.671  1.00  0.00    -0.215 OA 
BRANCH  16  17
HETATM   17  C   UNL     1      -8.942  14.701  66.569  1.00  0.00    -0.204 C  
BRANCH  17  18
HETATM   18  C   UNL     1      -8.319  16.031  66.897  1.00  0.00    -0.278 A  
HETATM   19  C   UNL     1      -7.023  16.143  67.432  1.00  0.00    -0.182 A  
HETATM   20 CL   UNL     1      -6.042  14.764  67.794  1.00  0.00    -0.163 Cl 
HETATM   21  C   UNL     1      -7.169  18.561  67.438  1.00  0.00    -0.210 A  
HETATM   22  C   UNL     1      -6.455  17.396  67.695  1.00  0.00    -0.164 A  
HETATM   23  C   UNL     1      -8.466  18.472  66.938  1.00  0.00    -0.277 A  
HETATM   24  C   UNL     1      -9.036  17.224  66.677  1.00  0.00    -0.265 A  
HETATM   25 CL   UNL     1     -10.656  17.218  66.061  1.00  0.00    -0.282 Cl 
ENDBRANCH  17  18
ENDBRANCH  16  17
ENDBRANCH   9  16
ENDBRANCH   6   9
TORSDOF 6
ENDMDL
MODEL      183
REMARK 921   NORMALIZED FREE ENERGY PREDICTED BY IDOCK:   -4.55 KCAL/MOL
REMARK 922        TOTAL FREE ENERGY PREDICTED BY IDOCK:   -7.16 KCAL/MOL
REMARK 923 INTER-LIGAND FREE ENERGY PREDICTED BY IDOCK:   -6.58 KCAL/MOL
REMARK 924 INTRA-LIGAND FREE ENERGY PREDICTED BY IDOCK:   -0.59 KCAL/MOL
REMARK 927      BINDING AFFINITY PREDICTED BY RF-SCORE:    0.00 PKD
ROOT
HETATM    1 CL   UNL     1     -14.220  13.575  72.548  1.00  0.00    -0.509 Cl 
HETATM    2  C   UNL     1     -13.157  12.889  71.383  1.00  0.00    -0.242 A  
HETATM    3  C   UNL     1     -12.501  13.716  70.473  1.00  0.00    -0.394 A  
HETATM    4  C   UNL     1     -11.599  13.166  69.558  1.00  0.00    -0.283 A  
HETATM    5 CL   UNL     1     -10.821  14.249  68.457  1.00  0.00    -0.253 Cl 
HETATM    6  C   UNL     1     -11.339  11.786  69.550  1.00  0.00    -0.317 A  
HETATM    7  C   UNL     1     -12.045  10.971  70.459  1.00  0.00    -0.470 A  
HETATM    8  C   UNL     1     -12.945  11.517  71.371  1.00  0.00    -0.450 A  
ENDROOT
BRANCH   6   9
HETATM    9  C   UNL     1     -10.282  11.158  68.651  1.00  0.00    -0.205 C  
BRANCH   9  10
HETATM   10  C   UNL     1     -10.025   9.673  69.010  1.00  0.00    -0.185 C  
BRANCH  10  11
HETATM   11  N   UNL     1      -9.126   9.439  70.126  1.00  0.00    -0.213 NA 
HETATM   12  C   UNL     1      -7.812   9.813  70.198  1.00  0.00    -0.183 A  
HETATM   13  C   UNL     1      -9.446   8.863  71.323  1.00  0.00    -0.272 A  
HETATM   14  N   UNL     1      -8.390   8.724  72.092  1.00  0.00    -0.385 NA 
HETATM   15  C   UNL     1      -7.366   9.316  71.400  1.00  0.00     0.104 A  
ENDBRANCH  10  11
ENDBRANCH   9  10
BRANCH   9  16
HETATM   16  O   UNL     1     -10.636  11.259  67.261  1.00  0.00    -0.210 OA 
BRANCH  16  17
HETATM   17  C   UNL     1      -9.657  11.944  66.475  1.00  0.00    -0.214 C  
BRANCH  17  18
HETATM   18  C   UNL     1      -9.466  11.198  65.183  1.00  0.00    -0.257 A  
HETATM   19  C   UNL     1      -8.647  10.058  65.087  1.00  0.00    -0.158 A  
HETATM   20 CL   UNL     1      -7.757   9.433  66.433  1.00  0.00    -0.097 Cl 
HETATM   21  C   UNL     1      -9.190   9.792  62.740  1.00  0.00    -0.247 A  
HETATM   22  C   UNL     1      -8.515   9.362  63.878  1.00  0.00    -0.204 A  
HETATM   23  C   UNL     1      -9.981  10.936  62.806  1.00  0.00    -0.182 A  
HETATM   24  C   UNL     1     -10.113  11.634  64.009  1.00  0.00    -0.323 A  
HETATM   25 CL   UNL     1     -11.116  13.047  63.988  1.00  0.00    -0.427 Cl 
ENDBRANCH  17  18
ENDBRANCH  16  17
ENDBRANCH   9  16
ENDBRANCH   6   9
TORSDOF 6
ENDMDL
MODEL      184
REMARK 921   NORMALIZED FREE ENERGY PREDICTED BY IDOCK:   -4.54 KCAL/MOL
REMARK 922        TOTAL FREE ENERGY PREDICTED BY IDOCK:   -7.15 KCAL/MOL
REMARK 923 INTER-LIGAND FREE ENERGY PREDICTED BY IDOCK:   -7.24 KCAL/MOL
REMARK 924 INTRA-LIGAND FREE ENERGY PREDICTED BY IDOCK:    0.09 KCAL/MOL
REMARK 927      BINDING AFFINITY PREDICTED BY RF-SCORE:    0.00 PKD
ROOT
HETATM    1 CL   UNL     1     -10.902  19.835  66.906  1.00  0.00    -0.545 Cl 
HETATM    2  C   UNL     1     -10.514  18.161  66.982  1.00  0.00    -0.370 A  
HETATM    3  C   UNL     1     -10.683  17.465  68.177  1.00  0.00    -0.343 A  
HETATM    4  C   UNL     1     -10.416  16.094  68.228  1.00  0.00    -0.276 A  
HETATM    5 CL   UNL     1     -10.644  15.293  69.742  1.00  0.00    -0.280 Cl 
HETATM    6  C   UNL     1      -9.986  15.406  67.082  1.00  0.00    -0.234 A  
HETATM    7  C   UNL     1      -9.790  16.144  65.896  1.00  0.00    -0.384 A  
HETATM    8  C   UNL     1     -10.055  17.511  65.844  1.00  0.00    -0.197 A  
ENDROOT
BRANCH   6   9
HETATM    9  C   UNL     1      -9.793  13.894  67.059  1.00  0.00    -0.257 C  
BRANCH   9  10
HETATM   10  C   UNL     1      -8.358  13.488  67.478  1.00  0.00    -0.184 C  
BRANCH  10  11
HETATM   11  N   UNL     1      -7.546  14.543  68.057  1.00  0.00    -0.120 NA 
HETATM   12  C   UNL     1      -7.307  14.742  69.390  1.00  0.00    -0.162 A  
HETATM   13  C   UNL     1      -6.827  15.486  67.377  1.00  0.00    -0.189 A  
HETATM   14  N   UNL     1      -6.263  16.347  68.191  1.00  0.00    -0.121 NA 
HETATM   15  C   UNL     1      -6.555  15.890  69.449  1.00  0.00    -0.173 A  
ENDBRANCH  10  11
ENDBRANCH   9  10
BRANCH   9  16
HETATM   16  O   UNL     1     -10.744  13.222  67.902  1.00  0.00    -0.231 OA 
BRANCH  16  17
HETATM   17  C   UNL     1     -11.847  12.667  67.180  1.00  0.00    -0.330 C  
BRANCH  17  18
HETATM   18  C   UNL     1     -11.359  12.206  65.833  1.00  0.00    -0.407 A  
HETATM   19  C   UNL     1     -10.589  11.040  65.671  1.00  0.00    -0.197 A  
HETATM   20 CL   UNL     1     -10.101  10.053  67.006  1.00  0.00    -0.259 Cl 
HETATM   21  C   UNL     1     -10.522  11.346  63.268  1.00  0.00    -0.397 A  
HETATM   22  C   UNL     1     -10.179  10.615  64.401  1.00  0.00    -0.400 A  
HETATM   23  C   UNL     1     -11.257  12.520  63.409  1.00  0.00    -0.460 A  
HETATM   24  C   UNL     1     -11.666  12.948  64.675  1.00  0.00    -0.359 A  
HETATM   25 CL   UNL     1     -12.573  14.423  64.747  1.00  0.00    -0.368 Cl 
ENDBRANCH  17  18
ENDBRANCH  16  17
ENDBRANCH   9  16
ENDBRANCH   6   9
TORSDOF 6
ENDMDL
MODEL      185
REMARK 921   NORMALIZED FREE ENERGY PREDICTED BY IDOCK:   -4.54 KCAL/MOL
REMARK 922        TOTAL FREE ENERGY PREDICTED BY IDOCK:   -7.15 KCAL/MOL
REMARK 923 INTER-LIGAND FREE ENERGY PREDICTED BY IDOCK:   -6.47 KCAL/MOL
REMARK 924 INTRA-LIGAND FREE ENERGY PREDICTED BY IDOCK:   -0.67 KCAL/MOL
REMARK 927      BINDING AFFINITY PREDICTED BY RF-SCORE:    0.00 PKD
ROOT
HETATM    1 CL   UNL     1      -7.518   4.769  72.598  1.00  0.00    -0.084 Cl 
HETATM    2  C   UNL     1      -8.181   5.978  71.571  1.00  0.00    -0.123 A  
HETATM    3  C   UNL     1      -9.563   6.135  71.488  1.00  0.00    -0.172 A  
HETATM    4  C   UNL     1     -10.102   7.150  70.692  1.00  0.00    -0.191 A  
HETATM    5 CL   UNL     1     -11.824   7.287  70.633  1.00  0.00    -0.315 Cl 
HETATM    6  C   UNL     1      -9.263   8.021  69.978  1.00  0.00    -0.156 A  
HETATM    7  C   UNL     1      -7.870   7.815  70.054  1.00  0.00    -0.103 A  
HETATM    8  C   UNL     1      -7.331   6.804  70.846  1.00  0.00    -0.082 A  
ENDROOT
BRANCH   6   9
HETATM    9  C   UNL     1      -9.799   9.211  69.190  1.00  0.00    -0.171 C  
BRANCH   9  10
HETATM   10  C   UNL     1     -10.746   8.767  68.048  1.00  0.00    -0.090 C  
BRANCH  10  11
HETATM   11  N   UNL     1     -10.309   7.620  67.273  1.00  0.00    -0.267 NA 
HETATM   12  C   UNL     1     -10.955   6.418  67.171  1.00  0.00    -0.399 A  
HETATM   13  C   UNL     1      -9.211   7.556  66.461  1.00  0.00    -0.174 A  
HETATM   14  N   UNL     1      -9.047   6.352  65.963  1.00  0.00    -0.135 NA 
HETATM   15  C   UNL     1     -10.131   5.636  66.398  1.00  0.00    -0.156 A  
ENDBRANCH  10  11
ENDBRANCH   9  10
BRANCH   9  16
HETATM   16  O   UNL     1     -10.482  10.149  70.040  1.00  0.00    -0.264 OA 
BRANCH  16  17
HETATM   17  C   UNL     1     -11.777  10.512  69.556  1.00  0.00    -0.241 C  
BRANCH  17  18
HETATM   18  C   UNL     1     -12.280  11.685  70.354  1.00  0.00    -0.434 A  
HETATM   19  C   UNL     1     -13.005  11.526  71.549  1.00  0.00    -0.380 A  
HETATM   20 CL   UNL     1     -13.418   9.972  72.189  1.00  0.00    -0.491 Cl 
HETATM   21  C   UNL     1     -13.147  13.926  71.853  1.00  0.00    -0.469 A  
HETATM   22  C   UNL     1     -13.430  12.636  72.290  1.00  0.00    -0.541 A  
HETATM   23  C   UNL     1     -12.457  14.106  70.657  1.00  0.00    -0.432 A  
HETATM   24  C   UNL     1     -12.034  13.001  69.914  1.00  0.00    -0.311 A  
HETATM   25 CL   UNL     1     -11.187  13.328  68.438  1.00  0.00    -0.293 Cl 
ENDBRANCH  17  18
ENDBRANCH  16  17
ENDBRANCH   9  16
ENDBRANCH   6   9
TORSDOF 6
ENDMDL
MODEL      186
REMARK 921   NORMALIZED FREE ENERGY PREDICTED BY IDOCK:   -4.52 KCAL/MOL
REMARK 922        TOTAL FREE ENERGY PREDICTED BY IDOCK:   -7.13 KCAL/MOL
REMARK 923 INTER-LIGAND FREE ENERGY PREDICTED BY IDOCK:   -7.09 KCAL/MOL
REMARK 924 INTRA-LIGAND FREE ENERGY PREDICTED BY IDOCK:   -0.03 KCAL/MOL
REMARK 927      BINDING AFFINITY PREDICTED BY RF-SCORE:    0.00 PKD
ROOT
HETATM    1 CL   UNL     1     -10.762  19.701  66.619  1.00  0.00    -0.575 Cl 
HETATM    2  C   UNL     1     -10.526  18.044  67.013  1.00  0.00    -0.351 A  
HETATM    3  C   UNL     1     -10.615  17.628  68.340  1.00  0.00    -0.318 A  
HETATM    4  C   UNL     1     -10.472  16.274  68.656  1.00  0.00    -0.282 A  
HETATM    5 CL   UNL     1     -10.593  15.828  70.322  1.00  0.00    -0.324 Cl 
HETATM    6  C   UNL     1     -10.247  15.323  67.648  1.00  0.00    -0.242 A  
HETATM    7  C   UNL     1     -10.125  15.779  66.319  1.00  0.00    -0.320 A  
HETATM    8  C   UNL     1     -10.266  17.128  66.001  1.00  0.00    -0.332 A  
ENDROOT
BRANCH   6   9
HETATM    9  C   UNL     1     -10.199  13.827  67.930  1.00  0.00    -0.245 C  
BRANCH   9  10
HETATM   10  C   UNL     1      -8.773  13.355  68.309  1.00  0.00    -0.172 C  
BRANCH  10  11
HETATM   11  N   UNL     1      -7.763  14.395  68.384  1.00  0.00    -0.123 NA 
HETATM   12  C   UNL     1      -7.230  14.924  69.528  1.00  0.00    -0.184 A  
HETATM   13  C   UNL     1      -7.120  14.984  67.332  1.00  0.00    -0.175 A  
HETATM   14  N   UNL     1      -6.319  15.946  67.730  1.00  0.00    -0.138 NA 
HETATM   15  C   UNL     1      -6.378  15.914  69.099  1.00  0.00    -0.146 A  
ENDBRANCH  10  11
ENDBRANCH   9  10
BRANCH   9  16
HETATM   16  O   UNL     1     -11.119  13.450  68.969  1.00  0.00    -0.255 OA 
BRANCH  16  17
HETATM   17  C   UNL     1     -12.001  12.392  68.588  1.00  0.00    -0.225 C  
BRANCH  17  18
HETATM   18  C   UNL     1     -11.607  11.143  69.330  1.00  0.00    -0.388 A  
HETATM   19  C   UNL     1     -10.794  10.150  68.754  1.00  0.00    -0.225 A  
HETATM   20 CL   UNL     1     -10.206  10.255  67.130  1.00  0.00    -0.261 Cl 
HETATM   21  C   UNL     1     -10.842   8.843  70.793  1.00  0.00    -0.294 A  
HETATM   22  C   UNL     1     -10.415   9.015  69.480  1.00  0.00    -0.223 A  
HETATM   23  C   UNL     1     -11.672   9.798  71.372  1.00  0.00    -0.475 A  
HETATM   24  C   UNL     1     -12.056  10.931  70.649  1.00  0.00    -0.371 A  
HETATM   25 CL   UNL     1     -13.094  12.059  71.455  1.00  0.00    -0.447 Cl 
ENDBRANCH  17  18
ENDBRANCH  16  17
ENDBRANCH   9  16
ENDBRANCH   6   9
TORSDOF 6
ENDMDL
MODEL      187
REMARK 921   NORMALIZED FREE ENERGY PREDICTED BY IDOCK:   -4.52 KCAL/MOL
REMARK 922        TOTAL FREE ENERGY PREDICTED BY IDOCK:   -7.12 KCAL/MOL
REMARK 923 INTER-LIGAND FREE ENERGY PREDICTED BY IDOCK:   -6.00 KCAL/MOL
REMARK 924 INTRA-LIGAND FREE ENERGY PREDICTED BY IDOCK:   -1.12 KCAL/MOL
REMARK 927      BINDING AFFINITY PREDICTED BY RF-SCORE:    0.00 PKD
ROOT
HETATM    1 CL   UNL     1     -14.327  12.771  72.550  1.00  0.00    -0.003 Cl 
HETATM    2  C   UNL     1     -13.221  12.570  71.248  1.00  0.00    -0.011 A  
HETATM    3  C   UNL     1     -12.868  13.666  70.464  1.00  0.00    -0.167 A  
HETATM    4  C   UNL     1     -11.932  13.515  69.437  1.00  0.00    -0.330 A  
HETATM    5 CL   UNL     1     -11.542  14.916  68.502  1.00  0.00    -0.331 Cl 
HETATM    6  C   UNL     1     -11.335  12.268  69.190  1.00  0.00    -0.330 A  
HETATM    7  C   UNL     1     -11.739  11.170  69.977  1.00  0.00    -0.438 A  
HETATM    8  C   UNL     1     -12.672  11.318  71.001  1.00  0.00    -0.457 A  
ENDROOT
BRANCH   6   9
HETATM    9  C   UNL     1     -10.228  12.080  68.160  1.00  0.00    -0.201 C  
BRANCH   9  10
HETATM   10  C   UNL     1      -9.545  10.696  68.292  1.00  0.00    -0.162 C  
BRANCH  10  11
HETATM   11  N   UNL     1      -8.287  10.679  69.017  1.00  0.00    -0.152 NA 
HETATM   12  C   UNL     1      -7.206  11.484  68.782  1.00  0.00    -0.112 A  
HETATM   13  C   UNL     1      -7.982   9.904  70.101  1.00  0.00    -0.162 A  
HETATM   14  N   UNL     1      -6.735  10.067  70.478  1.00  0.00    -0.209 NA 
HETATM   15  C   UNL     1      -6.243  11.052  69.663  1.00  0.00    -0.095 A  
ENDBRANCH  10  11
ENDBRANCH   9  10
BRANCH   9  16
HETATM   16  O   UNL     1     -10.715  12.247  66.818  1.00  0.00    -0.230 OA 
BRANCH  16  17
HETATM   17  C   UNL     1      -9.732  12.766  65.919  1.00  0.00    -0.198 C  
BRANCH  17  18
HETATM   18  C   UNL     1     -10.083  14.192  65.589  1.00  0.00    -0.350 A  
HETATM   19  C   UNL     1     -11.170  14.527  64.761  1.00  0.00    -0.390 A  
HETATM   20 CL   UNL     1     -12.177  13.332  64.017  1.00  0.00    -0.479 Cl 
HETATM   21  C   UNL     1     -10.740  16.893  65.053  1.00  0.00    -0.057 A  
HETATM   22  C   UNL     1     -11.495  15.864  64.500  1.00  0.00    -0.287 A  
HETATM   23  C   UNL     1      -9.642  16.583  65.851  1.00  0.00    -0.284 A  
HETATM   24  C   UNL     1      -9.313  15.250  66.111  1.00  0.00    -0.325 A  
HETATM   25 CL   UNL     1      -7.926  14.967  67.110  1.00  0.00    -0.237 Cl 
ENDBRANCH  17  18
ENDBRANCH  16  17
ENDBRANCH   9  16
ENDBRANCH   6   9
TORSDOF 6
ENDMDL
MODEL      188
REMARK 921   NORMALIZED FREE ENERGY PREDICTED BY IDOCK:   -4.50 KCAL/MOL
REMARK 922        TOTAL FREE ENERGY PREDICTED BY IDOCK:   -7.10 KCAL/MOL
REMARK 923 INTER-LIGAND FREE ENERGY PREDICTED BY IDOCK:   -6.17 KCAL/MOL
REMARK 924 INTRA-LIGAND FREE ENERGY PREDICTED BY IDOCK:   -0.93 KCAL/MOL
REMARK 927      BINDING AFFINITY PREDICTED BY RF-SCORE:    0.00 PKD
ROOT
HETATM    1 CL   UNL     1     -14.059  14.306  72.399  1.00  0.00    -0.593 Cl 
HETATM    2  C   UNL     1     -13.154  13.143  71.513  1.00  0.00    -0.315 A  
HETATM    3  C   UNL     1     -12.327  13.558  70.471  1.00  0.00    -0.412 A  
HETATM    4  C   UNL     1     -11.552  12.620  69.782  1.00  0.00    -0.214 A  
HETATM    5 CL   UNL     1     -10.549  13.202  68.500  1.00  0.00    -0.265 Cl 
HETATM    6  C   UNL     1     -11.594  11.261  70.133  1.00  0.00    -0.393 A  
HETATM    7  C   UNL     1     -12.468  10.867  71.167  1.00  0.00    -0.511 A  
HETATM    8  C   UNL     1     -13.241  11.800  71.855  1.00  0.00    -0.468 A  
ENDROOT
BRANCH   6   9
HETATM    9  C   UNL     1     -10.685  10.221  69.489  1.00  0.00    -0.249 C  
BRANCH   9  10
HETATM   10  C   UNL     1     -10.474   8.990  70.405  1.00  0.00    -0.213 C  
BRANCH  10  11
HETATM   11  N   UNL     1      -9.170   8.887  71.034  1.00  0.00    -0.223 NA 
HETATM   12  C   UNL     1      -8.901   8.323  72.251  1.00  0.00    -0.209 A  
HETATM   13  C   UNL     1      -7.974   9.275  70.499  1.00  0.00    -0.167 A  
HETATM   14  N   UNL     1      -6.988   9.121  71.353  1.00  0.00    -0.252 NA 
HETATM   15  C   UNL     1      -7.556   8.525  72.448  1.00  0.00    -0.036 A  
ENDBRANCH  10  11
ENDBRANCH   9  10
BRANCH   9  16
HETATM   16  O   UNL     1     -11.190   9.788  68.214  1.00  0.00    -0.155 OA 
BRANCH  16  17
HETATM   17  C   UNL     1     -10.390  10.218  67.111  1.00  0.00    -0.238 C  
BRANCH  17  18
HETATM   18  C   UNL     1      -9.181   9.327  67.014  1.00  0.00    -0.169 A  
HETATM   19  C   UNL     1      -9.282   7.925  66.963  1.00  0.00    -0.148 A  
HETATM   20 CL   UNL     1     -10.800   7.097  67.045  1.00  0.00    -0.432 Cl 
HETATM   21  C   UNL     1      -6.878   7.698  66.767  1.00  0.00    -0.067 A  
HETATM   22  C   UNL     1      -8.142   7.122  66.838  1.00  0.00    -0.116 A  
HETATM   23  C   UNL     1      -6.753   9.082  66.847  1.00  0.00    -0.072 A  
HETATM   24  C   UNL     1      -7.888   9.887  66.975  1.00  0.00    -0.102 A  
HETATM   25 CL   UNL     1      -7.628  11.597  67.071  1.00  0.00    -0.151 Cl 
ENDBRANCH  17  18
ENDBRANCH  16  17
ENDBRANCH   9  16
ENDBRANCH   6   9
TORSDOF 6
ENDMDL
MODEL      189
REMARK 921   NORMALIZED FREE ENERGY PREDICTED BY IDOCK:   -4.48 KCAL/MOL
REMARK 922        TOTAL FREE ENERGY PREDICTED BY IDOCK:   -7.07 KCAL/MOL
REMARK 923 INTER-LIGAND FREE ENERGY PREDICTED BY IDOCK:   -5.53 KCAL/MOL
REMARK 924 INTRA-LIGAND FREE ENERGY PREDICTED BY IDOCK:   -1.54 KCAL/MOL
REMARK 927      BINDING AFFINITY PREDICTED BY RF-SCORE:    0.00 PKD
ROOT
HETATM    1 CL   UNL     1     -10.079  12.015  65.239  1.00  0.00    -0.282 Cl 
HETATM    2  C   UNL     1      -9.948  10.948  66.581  1.00  0.00    -0.208 A  
HETATM    3  C   UNL     1     -10.366   9.624  66.457  1.00  0.00    -0.264 A  
HETATM    4  C   UNL     1     -10.215   8.742  67.531  1.00  0.00    -0.246 A  
HETATM    5 CL   UNL     1     -10.756   7.116  67.308  1.00  0.00    -0.387 Cl 
HETATM    6  C   UNL     1      -9.637   9.174  68.736  1.00  0.00    -0.161 A  
HETATM    7  C   UNL     1      -9.258  10.528  68.844  1.00  0.00    -0.188 A  
HETATM    8  C   UNL     1      -9.408  11.409  67.775  1.00  0.00    -0.162 A  
ENDROOT
BRANCH   6   9
HETATM    9  C   UNL     1      -9.348   8.224  69.891  1.00  0.00    -0.159 C  
BRANCH   9  10
HETATM   10  C   UNL     1      -8.061   7.396  69.650  1.00  0.00    -0.128 C  
BRANCH  10  11
HETATM   11  N   UNL     1      -7.875   6.249  70.520  1.00  0.00    -0.104 NA 
HETATM   12  C   UNL     1      -6.932   6.123  71.504  1.00  0.00    -0.076 A  
HETATM   13  C   UNL     1      -8.645   5.121  70.556  1.00  0.00    -0.118 A  
HETATM   14  N   UNL     1      -8.168   4.234  71.400  1.00  0.00    -0.081 NA 
HETATM   15  C   UNL     1      -7.101   4.851  71.998  1.00  0.00    -0.067 A  
ENDBRANCH  10  11
ENDBRANCH   9  10
BRANCH   9  16
HETATM   16  O   UNL     1      -9.239   8.924  71.142  1.00  0.00    -0.211 OA 
BRANCH  16  17
HETATM   17  C   UNL     1     -10.439   8.888  71.918  1.00  0.00    -0.345 C  
BRANCH  17  18
HETATM   18  C   UNL     1     -10.526   7.556  72.613  1.00  0.00    -0.322 A  
HETATM   19  C   UNL     1      -9.673   7.205  73.676  1.00  0.00    -0.269 A  
HETATM   20 CL   UNL     1      -8.426   8.255  74.255  1.00  0.00    -0.223 Cl 
HETATM   21  C   UNL     1     -10.772   5.061  73.929  1.00  0.00    -0.356 A  
HETATM   22  C   UNL     1      -9.799   5.972  74.327  1.00  0.00    -0.247 A  
HETATM   23  C   UNL     1     -11.606   5.375  72.860  1.00  0.00    -0.296 A  
HETATM   24  C   UNL     1     -11.481   6.604  72.206  1.00  0.00    -0.283 A  
HETATM   25 CL   UNL     1     -12.562   6.899  70.884  1.00  0.00    -0.346 Cl 
ENDBRANCH  17  18
ENDBRANCH  16  17
ENDBRANCH   9  16
ENDBRANCH   6   9
TORSDOF 6
ENDMDL
MODEL      190
REMARK 921   NORMALIZED FREE ENERGY PREDICTED BY IDOCK:   -4.48 KCAL/MOL
REMARK 922        TOTAL FREE ENERGY PREDICTED BY IDOCK:   -7.07 KCAL/MOL
REMARK 923 INTER-LIGAND FREE ENERGY PREDICTED BY IDOCK:   -5.97 KCAL/MOL
REMARK 924 INTRA-LIGAND FREE ENERGY PREDICTED BY IDOCK:   -1.10 KCAL/MOL
REMARK 927      BINDING AFFINITY PREDICTED BY RF-SCORE:    0.00 PKD
ROOT
HETATM    1 CL   UNL     1     -10.185  18.738  65.958  1.00  0.00    -0.444 Cl 
HETATM    2  C   UNL     1     -10.024  17.046  66.224  1.00  0.00    -0.310 A  
HETATM    3  C   UNL     1      -9.114  16.578  67.169  1.00  0.00    -0.227 A  
HETATM    4  C   UNL     1      -9.017  15.206  67.422  1.00  0.00    -0.183 A  
HETATM    5 CL   UNL     1      -7.866  14.693  68.605  1.00  0.00    -0.132 Cl 
HETATM    6  C   UNL     1      -9.835  14.293  66.737  1.00  0.00    -0.274 A  
HETATM    7  C   UNL     1     -10.721  14.794  65.761  1.00  0.00    -0.333 A  
HETATM    8  C   UNL     1     -10.818  16.160  65.507  1.00  0.00    -0.280 A  
ENDROOT
BRANCH   6   9
HETATM    9  C   UNL     1      -9.847  12.803  67.060  1.00  0.00    -0.231 C  
BRANCH   9  10
HETATM   10  C   UNL     1     -11.284  12.273  67.289  1.00  0.00    -0.300 C  
BRANCH  10  11
HETATM   11  N   UNL     1     -11.762  12.315  68.659  1.00  0.00    -0.313 NA 
HETATM   12  C   UNL     1     -12.117  13.436  69.358  1.00  0.00    -0.269 A  
HETATM   13  C   UNL     1     -12.003  11.242  69.471  1.00  0.00    -0.351 A  
HETATM   14  N   UNL     1     -12.353  11.618  70.680  1.00  0.00    -0.363 NA 
HETATM   15  C   UNL     1     -12.430  12.985  70.618  1.00  0.00    -0.268 A  
ENDBRANCH  10  11
ENDBRANCH   9  10
BRANCH   9  16
HETATM   16  O   UNL     1      -9.210  12.030  66.029  1.00  0.00    -0.221 OA 
BRANCH  16  17
HETATM   17  C   UNL     1      -8.133  11.221  66.510  1.00  0.00    -0.160 C  
BRANCH  17  18
HETATM   18  C   UNL     1      -8.685   9.890  66.943  1.00  0.00    -0.135 A  
HETATM   19  C   UNL     1      -8.793   9.525  68.298  1.00  0.00    -0.124 A  
HETATM   20 CL   UNL     1      -8.269  10.556  69.585  1.00  0.00    -0.098 Cl 
HETATM   21  C   UNL     1      -9.790   7.397  67.706  1.00  0.00    -0.187 A  
HETATM   22  C   UNL     1      -9.343   8.292  68.672  1.00  0.00    -0.143 A  
HETATM   23  C   UNL     1      -9.663   7.725  66.359  1.00  0.00    -0.219 A  
HETATM   24  C   UNL     1      -9.112   8.952  65.982  1.00  0.00    -0.214 A  
HETATM   25 CL   UNL     1      -8.993   9.266  64.282  1.00  0.00    -0.196 Cl 
ENDBRANCH  17  18
ENDBRANCH  16  17
ENDBRANCH   9  16
ENDBRANCH   6   9
TORSDOF 6
ENDMDL
MODEL      191
REMARK 921   NORMALIZED FREE ENERGY PREDICTED BY IDOCK:   -4.48 KCAL/MOL
REMARK 922        TOTAL FREE ENERGY PREDICTED BY IDOCK:   -7.06 KCAL/MOL
REMARK 923 INTER-LIGAND FREE ENERGY PREDICTED BY IDOCK:   -6.79 KCAL/MOL
REMARK 924 INTRA-LIGAND FREE ENERGY PREDICTED BY IDOCK:   -0.28 KCAL/MOL
REMARK 927      BINDING AFFINITY PREDICTED BY RF-SCORE:    0.00 PKD
ROOT
HETATM    1 CL   UNL     1     -12.193  15.044  64.223  1.00  0.00    -0.433 Cl 
HETATM    2  C   UNL     1     -11.735  13.671  65.152  1.00  0.00    -0.331 A  
HETATM    3  C   UNL     1     -11.045  12.624  64.545  1.00  0.00    -0.365 A  
HETATM    4  C   UNL     1     -10.628  11.530  65.309  1.00  0.00    -0.283 A  
HETATM    5 CL   UNL     1      -9.779  10.265  64.493  1.00  0.00    -0.383 Cl 
HETATM    6  C   UNL     1     -10.892  11.478  66.688  1.00  0.00    -0.335 A  
HETATM    7  C   UNL     1     -11.623  12.535  67.266  1.00  0.00    -0.434 A  
HETATM    8  C   UNL     1     -12.040  13.626  66.506  1.00  0.00    -0.469 A  
ENDROOT
BRANCH   6   9
HETATM    9  C   UNL     1     -10.359  10.364  67.581  1.00  0.00    -0.219 C  
BRANCH   9  10
HETATM   10  C   UNL     1     -11.188  10.219  68.881  1.00  0.00    -0.207 C  
BRANCH  10  11
HETATM   11  N   UNL     1     -10.474   9.695  70.031  1.00  0.00    -0.240 NA 
HETATM   12  C   UNL     1     -11.026   9.040  71.098  1.00  0.00    -0.301 A  
HETATM   13  C   UNL     1      -9.121   9.704  70.224  1.00  0.00    -0.225 A  
HETATM   14  N   UNL     1      -8.795   9.224  71.402  1.00  0.00    -0.303 NA 
HETATM   15  C   UNL     1      -9.977   8.805  71.954  1.00  0.00    -0.331 A  
ENDBRANCH  10  11
ENDBRANCH   9  10
BRANCH   9  16
HETATM   16  O   UNL     1     -10.324   9.101  66.894  1.00  0.00    -0.254 OA 
BRANCH  16  17
HETATM   17  C   UNL     1      -9.149   8.336  67.176  1.00  0.00    -0.139 C  
BRANCH  17  18
HETATM   18  C   UNL     1      -9.316   6.960  66.590  1.00  0.00    -0.198 A  
HETATM   19  C   UNL     1      -8.630   6.547  65.433  1.00  0.00    -0.068 A  
HETATM   20 CL   UNL     1      -7.563   7.593  64.559  1.00  0.00    -0.105 Cl 
HETATM   21  C   UNL     1      -9.617   4.338  65.564  1.00  0.00    -0.188 A  
HETATM   22  C   UNL     1      -8.778   5.249  64.930  1.00  0.00    -0.122 A  
HETATM   23  C   UNL     1     -10.329   4.736  66.692  1.00  0.00    -0.258 A  
HETATM   24  C   UNL     1     -10.186   6.031  67.196  1.00  0.00    -0.202 A  
HETATM   25 CL   UNL     1     -11.117   6.432  68.601  1.00  0.00    -0.394 Cl 
ENDBRANCH  17  18
ENDBRANCH  16  17
ENDBRANCH   9  16
ENDBRANCH   6   9
TORSDOF 6
ENDMDL
MODEL      192
REMARK 921   NORMALIZED FREE ENERGY PREDICTED BY IDOCK:   -4.47 KCAL/MOL
REMARK 922        TOTAL FREE ENERGY PREDICTED BY IDOCK:   -7.05 KCAL/MOL
REMARK 923 INTER-LIGAND FREE ENERGY PREDICTED BY IDOCK:   -5.71 KCAL/MOL
REMARK 924 INTRA-LIGAND FREE ENERGY PREDICTED BY IDOCK:   -1.35 KCAL/MOL
REMARK 927      BINDING AFFINITY PREDICTED BY RF-SCORE:    0.00 PKD
ROOT
HETATM    1 CL   UNL     1      -6.106   9.397  71.431  1.00  0.00    -0.077 Cl 
HETATM    2  C   UNL     1      -7.258   9.167  70.175  1.00  0.00    -0.070 A  
HETATM    3  C   UNL     1      -8.500   9.795  70.251  1.00  0.00    -0.163 A  
HETATM    4  C   UNL     1      -9.419   9.650  69.208  1.00  0.00    -0.179 A  
HETATM    5 CL   UNL     1     -10.940  10.455  69.369  1.00  0.00    -0.269 Cl 
HETATM    6  C   UNL     1      -9.101   8.882  68.076  1.00  0.00    -0.143 A  
HETATM    7  C   UNL     1      -7.852   8.229  68.044  1.00  0.00    -0.118 A  
HETATM    8  C   UNL     1      -6.935   8.372  69.083  1.00  0.00    -0.059 A  
ENDROOT
BRANCH   6   9
HETATM    9  C   UNL     1     -10.023   8.788  66.866  1.00  0.00    -0.257 C  
BRANCH   9  10
HETATM   10  C   UNL     1      -9.471   9.584  65.657  1.00  0.00    -0.261 C  
BRANCH  10  11
HETATM   11  N   UNL     1     -10.282  10.704  65.215  1.00  0.00    -0.290 NA 
HETATM   12  C   UNL     1     -11.015  11.538  66.015  1.00  0.00    -0.259 A  
HETATM   13  C   UNL     1     -10.407  11.164  63.934  1.00  0.00    -0.380 A  
HETATM   14  N   UNL     1     -11.278  12.145  63.855  1.00  0.00    -0.377 NA 
HETATM   15  C   UNL     1     -11.660  12.387  65.148  1.00  0.00    -0.362 A  
ENDBRANCH  10  11
ENDBRANCH   9  10
BRANCH   9  16
HETATM   16  O   UNL     1     -10.253   7.424  66.476  1.00  0.00    -0.194 OA 
BRANCH  16  17
HETATM   17  C   UNL     1     -11.270   6.778  67.246  1.00  0.00    -0.209 C  
BRANCH  17  18
HETATM   18  C   UNL     1     -10.631   5.706  68.088  1.00  0.00    -0.256 A  
HETATM   19  C   UNL     1      -9.960   4.606  67.523  1.00  0.00    -0.121 A  
HETATM   20 CL   UNL     1      -9.842   4.364  65.814  1.00  0.00    -0.210 Cl 
HETATM   21  C   UNL     1      -9.390   3.751  69.718  1.00  0.00    -0.245 A  
HETATM   22  C   UNL     1      -9.345   3.642  68.332  1.00  0.00    -0.225 A  
HETATM   23  C   UNL     1     -10.075   4.816  70.297  1.00  0.00    -0.304 A  
HETATM   24  C   UNL     1     -10.693   5.778  69.494  1.00  0.00    -0.338 A  
HETATM   25 CL   UNL     1     -11.523   7.061  70.309  1.00  0.00    -0.341 Cl 
ENDBRANCH  17  18
ENDBRANCH  16  17
ENDBRANCH   9  16
ENDBRANCH   6   9
TORSDOF 6
ENDMDL
MODEL      193
REMARK 921   NORMALIZED FREE ENERGY PREDICTED BY IDOCK:   -4.47 KCAL/MOL
REMARK 922        TOTAL FREE ENERGY PREDICTED BY IDOCK:   -7.05 KCAL/MOL
REMARK 923 INTER-LIGAND FREE ENERGY PREDICTED BY IDOCK:   -6.22 KCAL/MOL
REMARK 924 INTRA-LIGAND FREE ENERGY PREDICTED BY IDOCK:   -0.84 KCAL/MOL
REMARK 927      BINDING AFFINITY PREDICTED BY RF-SCORE:    0.00 PKD
ROOT
HETATM    1 CL   UNL     1     -12.408  15.418  64.221  1.00  0.00    -0.256 Cl 
HETATM    2  C   UNL     1     -11.600  13.921  64.473  1.00  0.00    -0.393 A  
HETATM    3  C   UNL     1     -10.642  13.812  65.478  1.00  0.00    -0.312 A  
HETATM    4  C   UNL     1     -10.020  12.583  65.717  1.00  0.00    -0.259 A  
HETATM    5 CL   UNL     1      -8.839  12.519  66.978  1.00  0.00    -0.207 Cl 
HETATM    6  C   UNL     1     -10.357  11.451  64.958  1.00  0.00    -0.342 A  
HETATM    7  C   UNL     1     -11.304  11.601  63.924  1.00  0.00    -0.457 A  
HETATM    8  C   UNL     1     -11.924  12.825  63.683  1.00  0.00    -0.616 A  
ENDROOT
BRANCH   6   9
HETATM    9  C   UNL     1      -9.791  10.067  65.256  1.00  0.00    -0.318 C  
BRANCH   9  10
HETATM   10  C   UNL     1      -8.429   9.836  64.555  1.00  0.00    -0.176 C  
BRANCH  10  11
HETATM   11  N   UNL     1      -7.695   8.656  64.975  1.00  0.00    -0.098 NA 
HETATM   12  C   UNL     1      -6.576   8.637  65.762  1.00  0.00    -0.057 A  
HETATM   13  C   UNL     1      -8.024   7.356  64.714  1.00  0.00    -0.127 A  
HETATM   14  N   UNL     1      -7.113   6.525  65.166  1.00  0.00    -0.058 NA 
HETATM   15  C   UNL     1      -6.207   7.315  65.823  1.00  0.00    -0.038 A  
ENDBRANCH  10  11
ENDBRANCH   9  10
BRANCH   9  16
HETATM   16  O   UNL     1      -9.645   9.845  66.669  1.00  0.00    -0.168 OA 
BRANCH  16  17
HETATM   17  C   UNL     1     -10.537   8.851  67.181  1.00  0.00    -0.231 C  
BRANCH  17  18
HETATM   18  C   UNL     1     -10.453   8.854  68.683  1.00  0.00    -0.223 A  
HETATM   19  C   UNL     1     -11.001   9.887  69.466  1.00  0.00    -0.242 A  
HETATM   20 CL   UNL     1     -11.787  11.264  68.772  1.00  0.00    -0.397 Cl 
HETATM   21  C   UNL     1     -10.323   8.779  71.511  1.00  0.00    -0.374 A  
HETATM   22  C   UNL     1     -10.938   9.846  70.864  1.00  0.00    -0.392 A  
HETATM   23  C   UNL     1      -9.747   7.761  70.755  1.00  0.00    -0.175 A  
HETATM   24  C   UNL     1      -9.805   7.801  69.359  1.00  0.00    -0.176 A  
HETATM   25 CL   UNL     1      -9.056   6.491  68.508  1.00  0.00    -0.128 Cl 
ENDBRANCH  17  18
ENDBRANCH  16  17
ENDBRANCH   9  16
ENDBRANCH   6   9
TORSDOF 6
ENDMDL
MODEL      194
REMARK 921   NORMALIZED FREE ENERGY PREDICTED BY IDOCK:   -4.46 KCAL/MOL
REMARK 922        TOTAL FREE ENERGY PREDICTED BY IDOCK:   -7.04 KCAL/MOL
REMARK 923 INTER-LIGAND FREE ENERGY PREDICTED BY IDOCK:   -6.32 KCAL/MOL
REMARK 924 INTRA-LIGAND FREE ENERGY PREDICTED BY IDOCK:   -0.72 KCAL/MOL
REMARK 927      BINDING AFFINITY PREDICTED BY RF-SCORE:    0.00 PKD
ROOT
HETATM    1 CL   UNL     1     -11.616   7.979  72.661  1.00  0.00    -0.463 Cl 
HETATM    2  C   UNL     1     -10.748   8.092  71.181  1.00  0.00    -0.220 A  
HETATM    3  C   UNL     1     -11.150   7.333  70.084  1.00  0.00    -0.281 A  
HETATM    4  C   UNL     1     -10.477   7.460  68.865  1.00  0.00    -0.203 A  
HETATM    5 CL   UNL     1     -11.026   6.488  67.546  1.00  0.00    -0.424 Cl 
HETATM    6  C   UNL     1      -9.401   8.353  68.732  1.00  0.00    -0.143 A  
HETATM    7  C   UNL     1      -8.995   9.080  69.869  1.00  0.00    -0.170 A  
HETATM    8  C   UNL     1      -9.664   8.955  71.085  1.00  0.00    -0.344 A  
ENDROOT
BRANCH   6   9
HETATM    9  C   UNL     1      -8.711   8.610  67.397  1.00  0.00    -0.134 C  
BRANCH   9  10
HETATM   10  C   UNL     1      -8.175   7.302  66.762  1.00  0.00    -0.121 C  
BRANCH  10  11
HETATM   11  N   UNL     1      -7.459   7.456  65.509  1.00  0.00    -0.084 NA 
HETATM   12  C   UNL     1      -7.764   6.847  64.322  1.00  0.00    -0.113 A  
HETATM   13  C   UNL     1      -6.395   8.281  65.275  1.00  0.00    -0.048 A  
HETATM   14  N   UNL     1      -5.923   8.130  64.058  1.00  0.00    -0.064 NA 
HETATM   15  C   UNL     1      -6.772   7.240  63.456  1.00  0.00    -0.053 A  
ENDBRANCH  10  11
ENDBRANCH   9  10
BRANCH   9  16
HETATM   16  O   UNL     1      -9.584   9.271  66.465  1.00  0.00    -0.187 OA 
BRANCH  16  17
HETATM   17  C   UNL     1      -9.107  10.555  66.056  1.00  0.00    -0.168 C  
BRANCH  17  18
HETATM   18  C   UNL     1     -10.239  11.307  65.409  1.00  0.00    -0.323 A  
HETATM   19  C   UNL     1     -11.246  11.942  66.159  1.00  0.00    -0.333 A  
HETATM   20 CL   UNL     1     -11.296  11.885  67.888  1.00  0.00    -0.329 Cl 
HETATM   21  C   UNL     1     -12.312  12.764  64.144  1.00  0.00    -0.485 A  
HETATM   22  C   UNL     1     -12.268  12.665  65.531  1.00  0.00    -0.501 A  
HETATM   23  C   UNL     1     -11.343  12.117  63.382  1.00  0.00    -0.495 A  
HETATM   24  C   UNL     1     -10.323  11.393  64.005  1.00  0.00    -0.362 A  
HETATM   25 CL   UNL     1      -9.167  10.621  62.971  1.00  0.00    -0.270 Cl 
ENDBRANCH  17  18
ENDBRANCH  16  17
ENDBRANCH   9  16
ENDBRANCH   6   9
TORSDOF 6
ENDMDL
MODEL      195
REMARK 921   NORMALIZED FREE ENERGY PREDICTED BY IDOCK:   -4.46 KCAL/MOL
REMARK 922        TOTAL FREE ENERGY PREDICTED BY IDOCK:   -7.04 KCAL/MOL
REMARK 923 INTER-LIGAND FREE ENERGY PREDICTED BY IDOCK:   -7.87 KCAL/MOL
REMARK 924 INTRA-LIGAND FREE ENERGY PREDICTED BY IDOCK:    0.83 KCAL/MOL
REMARK 927      BINDING AFFINITY PREDICTED BY RF-SCORE:    0.00 PKD
ROOT
HETATM    1 CL   UNL     1      -9.623   6.540  73.230  1.00  0.00    -0.160 Cl 
HETATM    2  C   UNL     1     -10.046   7.790  72.127  1.00  0.00    -0.210 A  
HETATM    3  C   UNL     1     -11.380   8.170  71.990  1.00  0.00    -0.378 A  
HETATM    4  C   UNL     1     -11.720   9.220  71.131  1.00  0.00    -0.325 A  
HETATM    5 CL   UNL     1     -13.392   9.638  71.008  1.00  0.00    -0.334 Cl 
HETATM    6  C   UNL     1     -10.728   9.902  70.408  1.00  0.00    -0.379 A  
HETATM    7  C   UNL     1      -9.392   9.471  70.540  1.00  0.00    -0.296 A  
HETATM    8  C   UNL     1      -9.051   8.425  71.395  1.00  0.00    -0.240 A  
ENDROOT
BRANCH   6   9
HETATM    9  C   UNL     1     -11.036  11.123  69.550  1.00  0.00    -0.252 C  
BRANCH   9  10
HETATM   10  C   UNL     1     -11.640  10.729  68.179  1.00  0.00    -0.197 C  
BRANCH  10  11
HETATM   11  N   UNL     1     -11.325  11.614  67.072  1.00  0.00    -0.405 NA 
HETATM   12  C   UNL     1     -12.190  12.476  66.453  1.00  0.00    -0.027 A  
HETATM   13  C   UNL     1     -10.100  11.792  66.494  1.00  0.00    -0.203 A  
HETATM   14  N   UNL     1     -10.163  12.604  65.463  1.00  0.00    -0.279 NA 
HETATM   15  C   UNL     1     -11.462  13.038  65.432  1.00  0.00    -0.312 A  
ENDBRANCH  10  11
ENDBRANCH   9  10
BRANCH   9  16
HETATM   16  O   UNL     1     -11.925  12.035  70.219  1.00  0.00    -0.344 OA 
BRANCH  16  17
HETATM   17  C   UNL     1     -11.745  13.396  69.820  1.00  0.00    -0.286 C  
BRANCH  17  18
HETATM   18  C   UNL     1     -12.085  14.289  70.983  1.00  0.00    -0.416 A  
HETATM   19  C   UNL     1     -11.520  15.567  71.141  1.00  0.00    -0.390 A  
HETATM   20 CL   UNL     1     -10.355  16.213  70.036  1.00  0.00    -0.215 Cl 
HETATM   21  C   UNL     1     -12.809  15.954  73.156  1.00  0.00    -0.643 A  
HETATM   22  C   UNL     1     -11.882  16.390  72.215  1.00  0.00    -0.531 A  
HETATM   23  C   UNL     1     -13.358  14.681  73.035  1.00  0.00    -0.527 A  
HETATM   24  C   UNL     1     -12.997  13.856  71.967  1.00  0.00    -0.349 A  
HETATM   25 CL   UNL     1     -13.731  12.287  71.907  1.00  0.00    -0.178 Cl 
ENDBRANCH  17  18
ENDBRANCH  16  17
ENDBRANCH   9  16
ENDBRANCH   6   9
TORSDOF 6
ENDMDL
MODEL      196
REMARK 921   NORMALIZED FREE ENERGY PREDICTED BY IDOCK:   -4.45 KCAL/MOL
REMARK 922        TOTAL FREE ENERGY PREDICTED BY IDOCK:   -7.03 KCAL/MOL
REMARK 923 INTER-LIGAND FREE ENERGY PREDICTED BY IDOCK:   -6.40 KCAL/MOL
REMARK 924 INTRA-LIGAND FREE ENERGY PREDICTED BY IDOCK:   -0.64 KCAL/MOL
REMARK 927      BINDING AFFINITY PREDICTED BY RF-SCORE:    0.00 PKD
ROOT
HETATM    1 CL   UNL     1      -9.632   3.661  65.171  1.00  0.00    -0.167 Cl 
HETATM    2  C   UNL     1     -10.015   4.437  66.657  1.00  0.00    -0.210 A  
HETATM    3  C   UNL     1      -9.616   3.862  67.862  1.00  0.00    -0.193 A  
HETATM    4  C   UNL     1      -9.882   4.516  69.068  1.00  0.00    -0.132 A  
HETATM    5 CL   UNL     1      -9.361   3.744  70.525  1.00  0.00    -0.212 Cl 
HETATM    6  C   UNL     1     -10.544   5.754  69.080  1.00  0.00    -0.351 A  
HETATM    7  C   UNL     1     -10.967   6.294  67.848  1.00  0.00    -0.421 A  
HETATM    8  C   UNL     1     -10.703   5.644  66.645  1.00  0.00    -0.339 A  
ENDROOT
BRANCH   6   9
HETATM    9  C   UNL     1     -10.755   6.558  70.358  1.00  0.00    -0.255 C  
BRANCH   9  10
HETATM   10  C   UNL     1      -9.426   6.794  71.117  1.00  0.00    -0.163 C  
BRANCH  10  11
HETATM   11  N   UNL     1      -9.425   6.420  72.520  1.00  0.00    -0.146 NA 
HETATM   12  C   UNL     1     -10.527   6.246  73.312  1.00  0.00    -0.248 A  
HETATM   13  C   UNL     1      -8.332   6.115  73.281  1.00  0.00    -0.117 A  
HETATM   14  N   UNL     1      -8.659   5.894  74.534  1.00  0.00    -0.118 NA 
HETATM   15  C   UNL     1     -10.027   5.971  74.563  1.00  0.00    -0.310 A  
ENDBRANCH  10  11
ENDBRANCH   9  10
BRANCH   9  16
HETATM   16  O   UNL     1     -11.386   7.822  70.094  1.00  0.00    -0.225 OA 
BRANCH  16  17
HETATM   17  C   UNL     1     -10.955   8.864  70.973  1.00  0.00    -0.276 C  
BRANCH  17  18
HETATM   18  C   UNL     1     -10.991  10.171  70.227  1.00  0.00    -0.380 A  
HETATM   19  C   UNL     1     -10.061  10.488  69.219  1.00  0.00    -0.224 A  
HETATM   20 CL   UNL     1      -8.772   9.424  68.773  1.00  0.00    -0.130 Cl 
HETATM   21  C   UNL     1     -11.142  12.617  68.809  1.00  0.00    -0.307 A  
HETATM   22  C   UNL     1     -10.140  11.697  68.517  1.00  0.00    -0.210 A  
HETATM   23  C   UNL     1     -12.054  12.337  69.823  1.00  0.00    -0.298 A  
HETATM   24  C   UNL     1     -11.976  11.133  70.527  1.00  0.00    -0.380 A  
HETATM   25 CL   UNL     1     -13.153  10.878  71.774  1.00  0.00    -0.586 Cl 
ENDBRANCH  17  18
ENDBRANCH  16  17
ENDBRANCH   9  16
ENDBRANCH   6   9
TORSDOF 6
ENDMDL
MODEL      197
REMARK 921   NORMALIZED FREE ENERGY PREDICTED BY IDOCK:   -4.45 KCAL/MOL
REMARK 922        TOTAL FREE ENERGY PREDICTED BY IDOCK:   -7.03 KCAL/MOL
REMARK 923 INTER-LIGAND FREE ENERGY PREDICTED BY IDOCK:   -5.83 KCAL/MOL
REMARK 924 INTRA-LIGAND FREE ENERGY PREDICTED BY IDOCK:   -1.20 KCAL/MOL
REMARK 927      BINDING AFFINITY PREDICTED BY RF-SCORE:    0.00 PKD
ROOT
HETATM    1 CL   UNL     1      -9.114   4.587  65.926  1.00  0.00    -0.127 Cl 
HETATM    2  C   UNL     1      -9.307   6.005  66.879  1.00  0.00    -0.131 A  
HETATM    3  C   UNL     1      -8.240   6.478  67.640  1.00  0.00    -0.122 A  
HETATM    4  C   UNL     1      -8.379   7.659  68.376  1.00  0.00    -0.125 A  
HETATM    5 CL   UNL     1      -7.016   8.188  69.298  1.00  0.00    -0.054 Cl 
HETATM    6  C   UNL     1      -9.584   8.379  68.351  1.00  0.00    -0.157 A  
HETATM    7  C   UNL     1     -10.657   7.856  67.601  1.00  0.00    -0.276 A  
HETATM    8  C   UNL     1     -10.521   6.680  66.868  1.00  0.00    -0.349 A  
ENDROOT
BRANCH   6   9
HETATM    9  C   UNL     1      -9.745   9.727  69.044  1.00  0.00    -0.177 C  
BRANCH   9  10
HETATM   10  C   UNL     1      -9.888   9.575  70.579  1.00  0.00    -0.269 C  
BRANCH  10  11
HETATM   11  N   UNL     1     -11.248   9.519  71.084  1.00  0.00    -0.346 NA 
HETATM   12  C   UNL     1     -12.090  10.583  71.260  1.00  0.00    -0.332 A  
HETATM   13  C   UNL     1     -11.949   8.393  71.413  1.00  0.00    -0.297 A  
HETATM   14  N   UNL     1     -13.127   8.685  71.915  1.00  0.00    -0.353 NA 
HETATM   15  C   UNL     1     -13.225  10.048  71.821  1.00  0.00    -0.437 A  
ENDBRANCH  10  11
ENDBRANCH   9  10
BRANCH   9  16
HETATM   16  O   UNL     1      -8.650  10.611  68.751  1.00  0.00    -0.135 OA 
BRANCH  16  17
HETATM   17  C   UNL     1      -9.018  11.712  67.916  1.00  0.00    -0.170 C  
BRANCH  17  18
HETATM   18  C   UNL     1      -9.101  11.231  66.492  1.00  0.00    -0.193 A  
HETATM   19  C   UNL     1      -7.999  10.668  65.823  1.00  0.00    -0.152 A  
HETATM   20 CL   UNL     1      -6.442  10.511  66.560  1.00  0.00    -0.090 Cl 
HETATM   21  C   UNL     1      -9.328  10.283  63.834  1.00  0.00    -0.337 A  
HETATM   22  C   UNL     1      -8.115  10.197  64.509  1.00  0.00    -0.160 A  
HETATM   23  C   UNL     1     -10.423  10.865  64.467  1.00  0.00    -0.393 A  
HETATM   24  C   UNL     1     -10.310  11.339  65.776  1.00  0.00    -0.258 A  
HETATM   25 CL   UNL     1     -11.727  12.051  66.476  1.00  0.00    -0.393 Cl 
ENDBRANCH  17  18
ENDBRANCH  16  17
ENDBRANCH   9  16
ENDBRANCH   6   9
TORSDOF 6
ENDMDL
MODEL      198
REMARK 921   NORMALIZED FREE ENERGY PREDICTED BY IDOCK:   -4.43 KCAL/MOL
REMARK 922        TOTAL FREE ENERGY PREDICTED BY IDOCK:   -7.00 KCAL/MOL
REMARK 923 INTER-LIGAND FREE ENERGY PREDICTED BY IDOCK:   -6.05 KCAL/MOL
REMARK 924 INTRA-LIGAND FREE ENERGY PREDICTED BY IDOCK:   -0.95 KCAL/MOL
REMARK 927      BINDING AFFINITY PREDICTED BY RF-SCORE:    0.00 PKD
ROOT
HETATM    1 CL   UNL     1     -11.122  15.386  65.678  1.00  0.00    -0.304 Cl 
HETATM    2  C   UNL     1     -10.740  13.832  66.305  1.00  0.00    -0.285 A  
HETATM    3  C   UNL     1      -9.407  13.468  66.489  1.00  0.00    -0.227 A  
HETATM    4  C   UNL     1      -9.095  12.224  67.046  1.00  0.00    -0.201 A  
HETATM    5 CL   UNL     1      -7.422  11.837  67.244  1.00  0.00    -0.142 Cl 
HETATM    6  C   UNL     1     -10.113  11.337  67.429  1.00  0.00    -0.214 A  
HETATM    7  C   UNL     1     -11.451  11.718  67.198  1.00  0.00    -0.366 A  
HETATM    8  C   UNL     1     -11.764  12.956  66.643  1.00  0.00    -0.452 A  
ENDROOT
BRANCH   6   9
HETATM    9  C   UNL     1      -9.825  10.021  68.143  1.00  0.00    -0.142 C  
BRANCH   9  10
HETATM   10  C   UNL     1      -9.622  10.222  69.666  1.00  0.00    -0.162 C  
BRANCH  10  11
HETATM   11  N   UNL     1     -10.809  10.072  70.487  1.00  0.00    -0.311 NA 
HETATM   12  C   UNL     1     -11.862  10.943  70.554  1.00  0.00    -0.360 A  
HETATM   13  C   UNL     1     -11.117   9.009  71.289  1.00  0.00    -0.312 A  
HETATM   14  N   UNL     1     -12.226   9.214  71.962  1.00  0.00    -0.377 NA 
HETATM   15  C   UNL     1     -12.700  10.417  71.508  1.00  0.00    -0.459 A  
ENDBRANCH  10  11
ENDBRANCH   9  10
BRANCH   9  16
HETATM   16  O   UNL     1     -10.869   9.056  67.924  1.00  0.00    -0.178 OA 
BRANCH  16  17
HETATM   17  C   UNL     1     -10.522   8.057  66.962  1.00  0.00    -0.340 C  
BRANCH  17  18
HETATM   18  C   UNL     1      -9.463   7.165  67.551  1.00  0.00    -0.144 A  
HETATM   19  C   UNL     1      -9.730   6.276  68.608  1.00  0.00    -0.127 A  
HETATM   20 CL   UNL     1     -11.288   6.154  69.351  1.00  0.00    -0.482 Cl 
HETATM   21  C   UNL     1      -7.448   5.463  68.580  1.00  0.00    -0.075 A  
HETATM   22  C   UNL     1      -8.732   5.433  69.113  1.00  0.00    -0.104 A  
HETATM   23  C   UNL     1      -7.154   6.358  67.555  1.00  0.00    -0.080 A  
HETATM   24  C   UNL     1      -8.146   7.202  67.050  1.00  0.00    -0.117 A  
HETATM   25 CL   UNL     1      -7.681   8.283  65.778  1.00  0.00    -0.088 Cl 
ENDBRANCH  17  18
ENDBRANCH  16  17
ENDBRANCH   9  16
ENDBRANCH   6   9
TORSDOF 6
ENDMDL
MODEL      199
REMARK 921   NORMALIZED FREE ENERGY PREDICTED BY IDOCK:   -4.42 KCAL/MOL
REMARK 922        TOTAL FREE ENERGY PREDICTED BY IDOCK:   -6.99 KCAL/MOL
REMARK 923 INTER-LIGAND FREE ENERGY PREDICTED BY IDOCK:   -6.87 KCAL/MOL
REMARK 924 INTRA-LIGAND FREE ENERGY PREDICTED BY IDOCK:   -0.12 KCAL/MOL
REMARK 927      BINDING AFFINITY PREDICTED BY RF-SCORE:    0.00 PKD
ROOT
HETATM    1 CL   UNL     1      -6.119  21.003  68.397  1.00  0.00    -0.360 Cl 
HETATM    2  C   UNL     1      -7.256  19.749  68.095  1.00  0.00    -0.294 A  
HETATM    3  C   UNL     1      -8.174  19.882  67.055  1.00  0.00    -0.356 A  
HETATM    4  C   UNL     1      -9.066  18.843  66.777  1.00  0.00    -0.312 A  
HETATM    5 CL   UNL     1     -10.179  19.075  65.474  1.00  0.00     0.019 Cl 
HETATM    6  C   UNL     1      -9.043  17.658  67.531  1.00  0.00    -0.239 A  
HETATM    7  C   UNL     1      -8.127  17.567  68.599  1.00  0.00    -0.263 A  
HETATM    8  C   UNL     1      -7.238  18.602  68.879  1.00  0.00    -0.311 A  
ENDROOT
BRANCH   6   9
HETATM    9  C   UNL     1      -9.916  16.456  67.193  1.00  0.00    -0.260 C  
BRANCH   9  10
HETATM   10  C   UNL     1      -9.162  15.420  66.322  1.00  0.00    -0.319 C  
BRANCH  10  11
HETATM   11  N   UNL     1      -8.594  14.289  67.033  1.00  0.00    -0.212 NA 
HETATM   12  C   UNL     1      -7.668  14.348  68.039  1.00  0.00    -0.138 A  
HETATM   13  C   UNL     1      -8.928  12.974  66.872  1.00  0.00    -0.209 A  
HETATM   14  N   UNL     1      -8.177  12.189  67.609  1.00  0.00    -0.152 NA 
HETATM   15  C   UNL     1      -7.389  13.037  68.343  1.00  0.00    -0.116 A  
ENDBRANCH  10  11
ENDBRANCH   9  10
BRANCH   9  16
HETATM   16  O   UNL     1     -10.416  15.810  68.376  1.00  0.00    -0.234 OA 
BRANCH  16  17
HETATM   17  C   UNL     1     -11.779  15.392  68.260  1.00  0.00    -0.297 C  
BRANCH  17  18
HETATM   18  C   UNL     1     -11.979  14.161  69.103  1.00  0.00    -0.388 A  
HETATM   19  C   UNL     1     -11.968  12.865  68.555  1.00  0.00    -0.234 A  
HETATM   20 CL   UNL     1     -11.760  12.570  66.863  1.00  0.00    -0.447 Cl 
HETATM   21  C   UNL     1     -12.298  11.874  70.742  1.00  0.00    -0.416 A  
HETATM   22  C   UNL     1     -12.122  11.736  69.369  1.00  0.00    -0.301 A  
HETATM   23  C   UNL     1     -12.343  13.149  71.300  1.00  0.00    -0.221 A  
HETATM   24  C   UNL     1     -12.192  14.278  70.491  1.00  0.00    -0.356 A  
HETATM   25 CL   UNL     1     -12.268  15.820  71.278  1.00  0.00    -0.452 Cl 
ENDBRANCH  17  18
ENDBRANCH  16  17
ENDBRANCH   9  16
ENDBRANCH   6   9
TORSDOF 6
ENDMDL
MODEL      200
REMARK 921   NORMALIZED FREE ENERGY PREDICTED BY IDOCK:   -4.40 KCAL/MOL
REMARK 922        TOTAL FREE ENERGY PREDICTED BY IDOCK:   -6.96 KCAL/MOL
REMARK 923 INTER-LIGAND FREE ENERGY PREDICTED BY IDOCK:   -6.41 KCAL/MOL
REMARK 924 INTRA-LIGAND FREE ENERGY PREDICTED BY IDOCK:   -0.55 KCAL/MOL
REMARK 927      BINDING AFFINITY PREDICTED BY RF-SCORE:    0.00 PKD
ROOT
HETATM    1 CL   UNL     1      -5.411   9.237  66.534  1.00  0.00    -0.044 Cl 
HETATM    2  C   UNL     1      -6.906   9.524  67.334  1.00  0.00    -0.083 A  
HETATM    3  C   UNL     1      -7.993   8.686  67.091  1.00  0.00    -0.100 A  
HETATM    4  C   UNL     1      -9.194   8.887  67.778  1.00  0.00    -0.141 A  
HETATM    5 CL   UNL     1     -10.502   7.813  67.427  1.00  0.00    -0.348 Cl 
HETATM    6  C   UNL     1      -9.316   9.923  68.718  1.00  0.00    -0.157 A  
HETATM    7  C   UNL     1      -8.210  10.776  68.916  1.00  0.00    -0.149 A  
HETATM    8  C   UNL     1      -7.013  10.578  68.232  1.00  0.00    -0.073 A  
ENDROOT
BRANCH   6   9
HETATM    9  C   UNL     1     -10.564  10.110  69.572  1.00  0.00    -0.245 C  
BRANCH   9  10
HETATM   10  C   UNL     1     -10.498   9.284  70.881  1.00  0.00    -0.302 C  
BRANCH  10  11
HETATM   11  N   UNL     1     -11.651   8.445  71.156  1.00  0.00    -0.276 NA 
HETATM   12  C   UNL     1     -12.935   8.873  71.353  1.00  0.00    -0.278 A  
HETATM   13  C   UNL     1     -11.672   7.079  71.205  1.00  0.00    -0.325 A  
HETATM   14  N   UNL     1     -12.853   6.624  71.555  1.00  0.00    -0.239 NA 
HETATM   15  C   UNL     1     -13.649   7.735  71.648  1.00  0.00    -0.357 A  
ENDBRANCH  10  11
ENDBRANCH   9  10
BRANCH   9  16
HETATM   16  O   UNL     1     -10.788  11.494  69.892  1.00  0.00    -0.017 OA 
BRANCH  16  17
HETATM   17  C   UNL     1     -12.039  11.991  69.410  1.00  0.00    -0.202 C  
BRANCH  17  18
HETATM   18  C   UNL     1     -12.406  13.221  70.197  1.00  0.00    -0.306 A  
HETATM   19  C   UNL     1     -12.979  13.149  71.479  1.00  0.00    -0.321 A  
HETATM   20 CL   UNL     1     -13.348  11.645  72.252  1.00  0.00    -0.385 Cl 
HETATM   21  C   UNL     1     -13.020  15.564  71.662  1.00  0.00    -0.540 A  
HETATM   22  C   UNL     1     -13.279  14.310  72.203  1.00  0.00    -0.491 A  
HETATM   23  C   UNL     1     -12.482  15.658  70.381  1.00  0.00    -0.409 A  
HETATM   24  C   UNL     1     -12.184  14.502  69.655  1.00  0.00    -0.292 A  
HETATM   25 CL   UNL     1     -11.522  14.723  68.069  1.00  0.00    -0.334 Cl 
ENDBRANCH  17  18
ENDBRANCH  16  17
ENDBRANCH   9  16
ENDBRANCH   6   9
TORSDOF 6
ENDMDL
MODEL      201
REMARK 921   NORMALIZED FREE ENERGY PREDICTED BY IDOCK:   -4.38 KCAL/MOL
REMARK 922        TOTAL FREE ENERGY PREDICTED BY IDOCK:   -6.93 KCAL/MOL
REMARK 923 INTER-LIGAND FREE ENERGY PREDICTED BY IDOCK:   -5.81 KCAL/MOL
REMARK 924 INTRA-LIGAND FREE ENERGY PREDICTED BY IDOCK:   -1.12 KCAL/MOL
REMARK 927      BINDING AFFINITY PREDICTED BY RF-SCORE:    0.00 PKD
ROOT
HETATM    1 CL   UNL     1     -12.333  14.310  64.216  1.00  0.00    -0.458 Cl 
HETATM    2  C   UNL     1     -11.545  13.155  65.217  1.00  0.00    -0.321 A  
HETATM    3  C   UNL     1     -11.998  12.944  66.518  1.00  0.00    -0.447 A  
HETATM    4  C   UNL     1     -11.392  11.970  67.317  1.00  0.00    -0.330 A  
HETATM    5 CL   UNL     1     -12.002  11.761  68.921  1.00  0.00    -0.360 Cl 
HETATM    6  C   UNL     1     -10.331  11.195  66.819  1.00  0.00    -0.284 A  
HETATM    7  C   UNL     1      -9.872  11.457  65.512  1.00  0.00    -0.271 A  
HETATM    8  C   UNL     1     -10.475  12.427  64.715  1.00  0.00    -0.333 A  
ENDROOT
BRANCH   6   9
HETATM    9  C   UNL     1      -9.715  10.048  67.611  1.00  0.00    -0.158 C  
BRANCH   9  10
HETATM   10  C   UNL     1      -9.029  10.543  68.908  1.00  0.00    -0.172 C  
BRANCH  10  11
HETATM   11  N   UNL     1      -8.844   9.544  69.945  1.00  0.00    -0.193 NA 
HETATM   12  C   UNL     1      -9.670   9.324  71.014  1.00  0.00    -0.271 A  
HETATM   13  C   UNL     1      -7.851   8.607  70.007  1.00  0.00    -0.103 A  
HETATM   14  N   UNL     1      -7.916   7.902  71.113  1.00  0.00    -0.088 NA 
HETATM   15  C   UNL     1      -9.049   8.340  71.746  1.00  0.00    -0.193 A  
ENDBRANCH  10  11
ENDBRANCH   9  10
BRANCH   9  16
HETATM   16  O   UNL     1     -10.690   9.043  67.939  1.00  0.00    -0.217 OA 
BRANCH  16  17
HETATM   17  C   UNL     1     -10.715   7.955  67.012  1.00  0.00    -0.219 C  
BRANCH  17  18
HETATM   18  C   UNL     1      -9.776   6.883  67.498  1.00  0.00    -0.162 A  
HETATM   19  C   UNL     1     -10.074   6.067  68.604  1.00  0.00    -0.168 A  
HETATM   20 CL   UNL     1     -11.526   6.244  69.528  1.00  0.00    -0.480 Cl 
HETATM   21  C   UNL     1      -8.003   4.840  68.332  1.00  0.00    -0.084 A  
HETATM   22  C   UNL     1      -9.197   5.055  69.012  1.00  0.00    -0.157 A  
HETATM   23  C   UNL     1      -7.675   5.656  67.253  1.00  0.00    -0.101 A  
HETATM   24  C   UNL     1      -8.546   6.669  66.844  1.00  0.00    -0.115 A  
HETATM   25 CL   UNL     1      -8.046   7.635  65.496  1.00  0.00    -0.123 Cl 
ENDBRANCH  17  18
ENDBRANCH  16  17
ENDBRANCH   9  16
ENDBRANCH   6   9
TORSDOF 6
ENDMDL
MODEL      202
REMARK 921   NORMALIZED FREE ENERGY PREDICTED BY IDOCK:   -4.38 KCAL/MOL
REMARK 922        TOTAL FREE ENERGY PREDICTED BY IDOCK:   -6.93 KCAL/MOL
REMARK 923 INTER-LIGAND FREE ENERGY PREDICTED BY IDOCK:   -6.18 KCAL/MOL
REMARK 924 INTRA-LIGAND FREE ENERGY PREDICTED BY IDOCK:   -0.75 KCAL/MOL
REMARK 927      BINDING AFFINITY PREDICTED BY RF-SCORE:    0.00 PKD
ROOT
HETATM    1 CL   UNL     1     -13.389  10.818  71.959  1.00  0.00    -0.506 Cl 
HETATM    2  C   UNL     1     -12.324  11.322  70.706  1.00  0.00    -0.398 A  
HETATM    3  C   UNL     1     -12.117  12.681  70.478  1.00  0.00    -0.360 A  
HETATM    4  C   UNL     1     -11.214  13.092  69.493  1.00  0.00    -0.084 A  
HETATM    5 CL   UNL     1     -11.006  14.793  69.263  1.00  0.00    -0.260 Cl 
HETATM    6  C   UNL     1     -10.506  12.148  68.733  1.00  0.00    -0.201 A  
HETATM    7  C   UNL     1     -10.764  10.781  68.961  1.00  0.00    -0.265 A  
HETATM    8  C   UNL     1     -11.663  10.369  69.942  1.00  0.00    -0.341 A  
ENDROOT
BRANCH   6   9
HETATM    9  C   UNL     1      -9.430  12.546  67.730  1.00  0.00    -0.197 C  
BRANCH   9  10
HETATM   10  C   UNL     1      -9.992  13.457  66.610  1.00  0.00    -0.277 C  
BRANCH  10  11
HETATM   11  N   UNL     1     -10.365  12.786  65.377  1.00  0.00    -0.290 NA 
HETATM   12  C   UNL     1     -10.833  13.384  64.239  1.00  0.00    -0.363 A  
HETATM   13  C   UNL     1     -10.257  11.450  65.112  1.00  0.00    -0.277 A  
HETATM   14  N   UNL     1     -10.753  11.147  63.935  1.00  0.00    -0.378 NA 
HETATM   15  C   UNL     1     -11.113  12.348  63.381  1.00  0.00    -0.402 A  
ENDBRANCH  10  11
ENDBRANCH   9  10
BRANCH   9  16
HETATM   16  O   UNL     1      -8.322  13.203  68.369  1.00  0.00    -0.157 OA 
BRANCH  16  17
HETATM   17  C   UNL     1      -7.678  14.169  67.534  1.00  0.00    -0.185 C  
BRANCH  17  18
HETATM   18  C   UNL     1      -6.982  15.177  68.409  1.00  0.00    -0.108 A  
HETATM   19  C   UNL     1      -5.864  14.844  69.195  1.00  0.00    -0.096 A  
HETATM   20 CL   UNL     1      -5.212  13.243  69.258  1.00  0.00    -0.074 Cl 
HETATM   21  C   UNL     1      -5.669  17.126  69.988  1.00  0.00    -0.232 A  
HETATM   22  C   UNL     1      -5.214  15.811  69.973  1.00  0.00    -0.128 A  
HETATM   23  C   UNL     1      -6.793  17.469  69.241  1.00  0.00    -0.196 A  
HETATM   24  C   UNL     1      -7.445  16.506  68.466  1.00  0.00    -0.193 A  
HETATM   25 CL   UNL     1      -8.836  17.030  67.576  1.00  0.00    -0.209 Cl 
ENDBRANCH  17  18
ENDBRANCH  16  17
ENDBRANCH   9  16
ENDBRANCH   6   9
TORSDOF 6
ENDMDL
MODEL      203
REMARK 921   NORMALIZED FREE ENERGY PREDICTED BY IDOCK:   -4.37 KCAL/MOL
REMARK 922        TOTAL FREE ENERGY PREDICTED BY IDOCK:   -6.93 KCAL/MOL
REMARK 923 INTER-LIGAND FREE ENERGY PREDICTED BY IDOCK:   -6.17 KCAL/MOL
REMARK 924 INTRA-LIGAND FREE ENERGY PREDICTED BY IDOCK:   -0.76 KCAL/MOL
REMARK 927      BINDING AFFINITY PREDICTED BY RF-SCORE:    0.00 PKD
ROOT
HETATM    1 CL   UNL     1     -11.539   6.011  71.292  1.00  0.00    -0.268 Cl 
HETATM    2  C   UNL     1     -10.882   7.424  70.565  1.00  0.00    -0.243 A  
HETATM    3  C   UNL     1     -10.455   7.385  69.239  1.00  0.00    -0.222 A  
HETATM    4  C   UNL     1      -9.967   8.545  68.631  1.00  0.00    -0.184 A  
HETATM    5 CL   UNL     1      -9.453   8.426  66.985  1.00  0.00    -0.206 Cl 
HETATM    6  C   UNL     1      -9.909   9.755  69.341  1.00  0.00    -0.217 A  
HETATM    7  C   UNL     1     -10.315   9.755  70.692  1.00  0.00    -0.330 A  
HETATM    8  C   UNL     1     -10.801   8.599  71.300  1.00  0.00    -0.327 A  
ENDROOT
BRANCH   6   9
HETATM    9  C   UNL     1      -9.493  11.068  68.688  1.00  0.00    -0.195 C  
BRANCH   9  10
HETATM   10  C   UNL     1      -8.024  11.031  68.200  1.00  0.00    -0.119 C  
BRANCH  10  11
HETATM   11  N   UNL     1      -7.041  11.586  69.113  1.00  0.00    -0.116 NA 
HETATM   12  C   UNL     1      -6.323  10.892  70.049  1.00  0.00    -0.142 A  
HETATM   13  C   UNL     1      -6.612  12.883  69.159  1.00  0.00    -0.104 A  
HETATM   14  N   UNL     1      -5.774  13.082  70.151  1.00  0.00    -0.132 NA 
HETATM   15  C   UNL     1      -5.586  11.846  70.711  1.00  0.00    -0.118 A  
ENDBRANCH  10  11
ENDBRANCH   9  10
BRANCH   9  16
HETATM   16  O   UNL     1     -10.353  11.412  67.589  1.00  0.00    -0.177 OA 
BRANCH  16  17
HETATM   17  C   UNL     1      -9.710  12.217  66.597  1.00  0.00    -0.222 C  
BRANCH  17  18
HETATM   18  C   UNL     1     -10.733  12.634  65.575  1.00  0.00    -0.303 A  
HETATM   19  C   UNL     1     -11.600  13.724  65.779  1.00  0.00    -0.331 A  
HETATM   20 CL   UNL     1     -11.595  14.658  67.235  1.00  0.00    -0.393 Cl 
HETATM   21  C   UNL     1     -12.597  13.417  63.592  1.00  0.00    -0.166 A  
HETATM   22  C   UNL     1     -12.518  14.111  64.795  1.00  0.00    -0.395 A  
HETATM   23  C   UNL     1     -11.770  12.317  63.383  1.00  0.00    -0.542 A  
HETATM   24  C   UNL     1     -10.854  11.926  64.363  1.00  0.00    -0.332 A  
HETATM   25 CL   UNL     1      -9.873  10.542  64.010  1.00  0.00    -0.381 Cl 
ENDBRANCH  17  18
ENDBRANCH  16  17
ENDBRANCH   9  16
ENDBRANCH   6   9
TORSDOF 6
ENDMDL
MODEL      204
REMARK 921   NORMALIZED FREE ENERGY PREDICTED BY IDOCK:   -4.37 KCAL/MOL
REMARK 922        TOTAL FREE ENERGY PREDICTED BY IDOCK:   -6.92 KCAL/MOL
REMARK 923 INTER-LIGAND FREE ENERGY PREDICTED BY IDOCK:   -5.92 KCAL/MOL
REMARK 924 INTRA-LIGAND FREE ENERGY PREDICTED BY IDOCK:   -1.00 KCAL/MOL
REMARK 927      BINDING AFFINITY PREDICTED BY RF-SCORE:    0.00 PKD
ROOT
HETATM    1 CL   UNL     1      -6.892   9.876  62.873  1.00  0.00    -0.115 Cl 
HETATM    2  C   UNL     1      -7.727   9.554  64.342  1.00  0.00    -0.123 A  
HETATM    3  C   UNL     1      -8.174  10.613  65.130  1.00  0.00    -0.092 A  
HETATM    4  C   UNL     1      -8.897  10.354  66.298  1.00  0.00    -0.152 A  
HETATM    5 CL   UNL     1      -9.420  11.713  67.229  1.00  0.00    -0.169 Cl 
HETATM    6  C   UNL     1      -9.185   9.035  66.684  1.00  0.00    -0.211 A  
HETATM    7  C   UNL     1      -8.688   7.984  65.886  1.00  0.00    -0.184 A  
HETATM    8  C   UNL     1      -7.967   8.240  64.721  1.00  0.00    -0.146 A  
ENDROOT
BRANCH   6   9
HETATM    9  C   UNL     1     -10.064   8.707  67.885  1.00  0.00    -0.203 C  
BRANCH   9  10
HETATM   10  C   UNL     1     -10.860   7.395  67.677  1.00  0.00    -0.149 C  
BRANCH  10  11
HETATM   11  N   UNL     1     -10.404   6.251  68.447  1.00  0.00    -0.178 NA 
HETATM   12  C   UNL     1     -10.960   5.782  69.606  1.00  0.00    -0.315 A  
HETATM   13  C   UNL     1      -9.383   5.404  68.120  1.00  0.00    -0.114 A  
HETATM   14  N   UNL     1      -9.169   4.516  69.064  1.00  0.00    -0.123 NA 
HETATM   15  C   UNL     1     -10.150   4.742  69.994  1.00  0.00    -0.238 A  
ENDBRANCH  10  11
ENDBRANCH   9  10
BRANCH   9  16
HETATM   16  O   UNL     1      -9.298   8.615  69.098  1.00  0.00    -0.152 OA 
BRANCH  16  17
HETATM   17  C   UNL     1      -9.494   9.724  69.978  1.00  0.00    -0.238 C  
BRANCH  17  18
HETATM   18  C   UNL     1     -10.755   9.498  70.767  1.00  0.00    -0.391 A  
HETATM   19  C   UNL     1     -11.958  10.166  70.472  1.00  0.00    -0.311 A  
HETATM   20 CL   UNL     1     -12.087  11.334  69.202  1.00  0.00    -0.387 Cl 
HETATM   21  C   UNL     1     -13.117   8.987  72.244  1.00  0.00    -0.508 A  
HETATM   22  C   UNL     1     -13.125   9.909  71.202  1.00  0.00    -0.453 A  
HETATM   23  C   UNL     1     -11.930   8.338  72.572  1.00  0.00    -0.420 A  
HETATM   24  C   UNL     1     -10.763   8.594  71.848  1.00  0.00    -0.344 A  
HETATM   25 CL   UNL     1      -9.337   7.740  72.336  1.00  0.00    -0.207 Cl 
ENDBRANCH  17  18
ENDBRANCH  16  17
ENDBRANCH   9  16
ENDBRANCH   6   9
TORSDOF 6
ENDMDL
MODEL      205
REMARK 921   NORMALIZED FREE ENERGY PREDICTED BY IDOCK:   -4.37 KCAL/MOL
REMARK 922        TOTAL FREE ENERGY PREDICTED BY IDOCK:   -6.92 KCAL/MOL
REMARK 923 INTER-LIGAND FREE ENERGY PREDICTED BY IDOCK:   -7.72 KCAL/MOL
REMARK 924 INTRA-LIGAND FREE ENERGY PREDICTED BY IDOCK:    0.80 KCAL/MOL
REMARK 927      BINDING AFFINITY PREDICTED BY RF-SCORE:    0.00 PKD
ROOT
HETATM    1 CL   UNL     1      -9.262  20.511  67.481  1.00  0.00    -0.471 Cl 
HETATM    2  C   UNL     1      -9.380  18.810  67.706  1.00  0.00    -0.293 A  
HETATM    3  C   UNL     1     -10.095  18.303  68.789  1.00  0.00    -0.393 A  
HETATM    4  C   UNL     1     -10.234  16.921  68.946  1.00  0.00    -0.314 A  
HETATM    5 CL   UNL     1     -11.132  16.360  70.313  1.00  0.00    -0.343 Cl 
HETATM    6  C   UNL     1      -9.665  16.035  68.017  1.00  0.00    -0.217 A  
HETATM    7  C   UNL     1      -8.917  16.577  66.952  1.00  0.00    -0.242 A  
HETATM    8  C   UNL     1      -8.777  17.954  66.794  1.00  0.00    -0.269 A  
ENDROOT
BRANCH   6   9
HETATM    9  C   UNL     1      -9.886  14.528  68.083  1.00  0.00    -0.223 C  
BRANCH   9  10
HETATM   10  C   UNL     1     -11.391  14.166  68.135  1.00  0.00    -0.290 C  
BRANCH  10  11
HETATM   11  N   UNL     1     -11.720  12.931  68.824  1.00  0.00    -0.305 NA 
HETATM   12  C   UNL     1     -12.058  12.806  70.144  1.00  0.00    -0.298 A  
HETATM   13  C   UNL     1     -11.813  11.687  68.266  1.00  0.00    -0.265 A  
HETATM   14  N   UNL     1     -12.051  10.766  69.172  1.00  0.00    -0.367 NA 
HETATM   15  C   UNL     1     -12.208  11.455  70.346  1.00  0.00    -0.362 A  
ENDBRANCH  10  11
ENDBRANCH   9  10
BRANCH   9  16
HETATM   16  O   UNL     1      -9.270  13.850  66.974  1.00  0.00    -0.231 OA 
BRANCH  16  17
HETATM   17  C   UNL     1      -9.543  14.464  65.712  1.00  0.00    -0.181 C  
BRANCH  17  18
HETATM   18  C   UNL     1     -10.488  13.583  64.941  1.00  0.00    -0.417 A  
HETATM   19  C   UNL     1     -10.329  12.187  64.875  1.00  0.00    -0.289 A  
HETATM   20 CL   UNL     1      -9.016  11.361  65.641  1.00  0.00    -0.174 Cl 
HETATM   21  C   UNL     1     -12.331  11.963  63.528  1.00  0.00    -0.603 A  
HETATM   22  C   UNL     1     -11.245  11.387  64.178  1.00  0.00    -0.327 A  
HETATM   23  C   UNL     1     -12.490  13.346  63.555  1.00  0.00    -0.287 A  
HETATM   24  C   UNL     1     -11.577  14.147  64.247  1.00  0.00    -0.309 A  
HETATM   25 CL   UNL     1     -11.857  15.856  64.218  1.00  0.00    -0.253 Cl 
ENDBRANCH  17  18
ENDBRANCH  16  17
ENDBRANCH   9  16
ENDBRANCH   6   9
TORSDOF 6
ENDMDL
MODEL      206
REMARK 921   NORMALIZED FREE ENERGY PREDICTED BY IDOCK:   -4.37 KCAL/MOL
REMARK 922        TOTAL FREE ENERGY PREDICTED BY IDOCK:   -6.92 KCAL/MOL
REMARK 923 INTER-LIGAND FREE ENERGY PREDICTED BY IDOCK:   -5.76 KCAL/MOL
REMARK 924 INTRA-LIGAND FREE ENERGY PREDICTED BY IDOCK:   -1.16 KCAL/MOL
REMARK 927      BINDING AFFINITY PREDICTED BY RF-SCORE:    0.00 PKD
ROOT
HETATM    1 CL   UNL     1      -8.614   2.217  74.507  1.00  0.00    -0.065 Cl 
HETATM    2  C   UNL     1      -9.122   3.574  73.581  1.00  0.00    -0.093 A  
HETATM    3  C   UNL     1      -8.177   4.484  73.111  1.00  0.00    -0.099 A  
HETATM    4  C   UNL     1      -8.582   5.560  72.315  1.00  0.00    -0.126 A  
HETATM    5 CL   UNL     1      -7.358   6.651  71.768  1.00  0.00    -0.085 Cl 
HETATM    6  C   UNL     1      -9.934   5.731  71.978  1.00  0.00    -0.208 A  
HETATM    7  C   UNL     1     -10.871   4.815  72.498  1.00  0.00    -0.208 A  
HETATM    8  C   UNL     1     -10.470   3.742  73.291  1.00  0.00    -0.258 A  
ENDROOT
BRANCH   6   9
HETATM    9  C   UNL     1     -10.408   6.820  71.022  1.00  0.00    -0.206 C  
BRANCH   9  10
HETATM   10  C   UNL     1     -11.456   6.288  70.013  1.00  0.00    -0.390 C  
BRANCH  10  11
HETATM   11  N   UNL     1     -10.941   5.907  68.710  1.00  0.00    -0.290 NA 
HETATM   12  C   UNL     1     -11.072   6.619  67.549  1.00  0.00    -0.292 A  
HETATM   13  C   UNL     1     -10.184   4.807  68.423  1.00  0.00     0.018 A  
HETATM   14  N   UNL     1      -9.945   4.705  67.136  1.00  0.00    -0.193 NA 
HETATM   15  C   UNL     1     -10.493   5.832  66.582  1.00  0.00    -0.268 A  
ENDBRANCH  10  11
ENDBRANCH   9  10
BRANCH   9  16
HETATM   16  O   UNL     1     -10.953   7.948  71.728  1.00  0.00    -0.231 OA 
BRANCH  16  17
HETATM   17  C   UNL     1     -10.137   9.119  71.641  1.00  0.00    -0.276 C  
BRANCH  17  18
HETATM   18  C   UNL     1     -10.529   9.891  70.410  1.00  0.00    -0.347 A  
HETATM   19  C   UNL     1      -9.706   9.958  69.271  1.00  0.00    -0.208 A  
HETATM   20 CL   UNL     1      -8.156   9.192  69.194  1.00  0.00    -0.102 Cl 
HETATM   21  C   UNL     1     -11.342  11.304  68.095  1.00  0.00    -0.372 A  
HETATM   22  C   UNL     1     -10.112  10.655  68.126  1.00  0.00    -0.179 A  
HETATM   23  C   UNL     1     -12.158  11.276  69.223  1.00  0.00    -0.372 A  
HETATM   24  C   UNL     1     -11.755  10.584  70.368  1.00  0.00    -0.344 A  
HETATM   25 CL   UNL     1     -12.837  10.612  71.720  1.00  0.00    -0.563 Cl 
ENDBRANCH  17  18
ENDBRANCH  16  17
ENDBRANCH   9  16
ENDBRANCH   6   9
TORSDOF 6
ENDMDL
MODEL      207
REMARK 921   NORMALIZED FREE ENERGY PREDICTED BY IDOCK:   -4.35 KCAL/MOL
REMARK 922        TOTAL FREE ENERGY PREDICTED BY IDOCK:   -6.90 KCAL/MOL
REMARK 923 INTER-LIGAND FREE ENERGY PREDICTED BY IDOCK:   -5.92 KCAL/MOL
REMARK 924 INTRA-LIGAND FREE ENERGY PREDICTED BY IDOCK:   -0.98 KCAL/MOL
REMARK 927      BINDING AFFINITY PREDICTED BY RF-SCORE:    0.00 PKD
ROOT
HETATM    1 CL   UNL     1     -10.386  10.338  65.302  1.00  0.00    -0.302 Cl 
HETATM    2  C   UNL     1      -9.965   9.650  66.820  1.00  0.00    -0.227 A  
HETATM    3  C   UNL     1      -9.007  10.270  67.619  1.00  0.00    -0.137 A  
HETATM    4  C   UNL     1      -8.699   9.741  68.876  1.00  0.00    -0.136 A  
HETATM    5 CL   UNL     1      -7.500  10.559  69.814  1.00  0.00    -0.152 Cl 
HETATM    6  C   UNL     1      -9.352   8.590  69.346  1.00  0.00    -0.154 A  
HETATM    7  C   UNL     1     -10.290   7.964  68.500  1.00  0.00    -0.229 A  
HETATM    8  C   UNL     1     -10.598   8.490  67.248  1.00  0.00    -0.315 A  
ENDROOT
BRANCH   6   9
HETATM    9  C   UNL     1      -9.133   8.042  70.752  1.00  0.00    -0.145 C  
BRANCH   9  10
HETATM   10  C   UNL     1      -9.851   8.899  71.824  1.00  0.00    -0.315 C  
BRANCH  10  11
HETATM   11  N   UNL     1     -11.297   8.963  71.717  1.00  0.00    -0.338 NA 
HETATM   12  C   UNL     1     -12.179   7.974  72.058  1.00  0.00    -0.331 A  
HETATM   13  C   UNL     1     -12.038  10.040  71.318  1.00  0.00    -0.394 A  
HETATM   14  N   UNL     1     -13.317   9.752  71.253  1.00  0.00    -0.375 NA 
HETATM   15  C   UNL     1     -13.416   8.466  71.716  1.00  0.00    -0.364 A  
ENDBRANCH  10  11
ENDBRANCH   9  10
BRANCH   9  16
HETATM   16  O   UNL     1      -9.565   6.675  70.864  1.00  0.00    -0.174 OA 
BRANCH  16  17
HETATM   17  C   UNL     1      -8.730   5.886  71.716  1.00  0.00    -0.139 C  
BRANCH  17  18
HETATM   18  C   UNL     1      -9.553   4.770  72.300  1.00  0.00    -0.195 A  
HETATM   19  C   UNL     1      -9.747   3.548  71.631  1.00  0.00    -0.163 A  
HETATM   20 CL   UNL     1      -9.090   3.231  70.062  1.00  0.00    -0.179 Cl 
HETATM   21  C   UNL     1     -11.059   2.678  73.473  1.00  0.00    -0.317 A  
HETATM   22  C   UNL     1     -10.489   2.514  72.214  1.00  0.00    -0.059 A  
HETATM   23  C   UNL     1     -10.905   3.891  74.140  1.00  0.00    -0.233 A  
HETATM   24  C   UNL     1     -10.167   4.926  73.559  1.00  0.00    -0.184 A  
HETATM   25 CL   UNL     1     -10.037   6.397  74.465  1.00  0.00    -0.366 Cl 
ENDBRANCH  17  18
ENDBRANCH  16  17
ENDBRANCH   9  16
ENDBRANCH   6   9
TORSDOF 6
ENDMDL
MODEL      208
REMARK 921   NORMALIZED FREE ENERGY PREDICTED BY IDOCK:   -4.35 KCAL/MOL
REMARK 922        TOTAL FREE ENERGY PREDICTED BY IDOCK:   -6.90 KCAL/MOL
REMARK 923 INTER-LIGAND FREE ENERGY PREDICTED BY IDOCK:   -6.38 KCAL/MOL
REMARK 924 INTRA-LIGAND FREE ENERGY PREDICTED BY IDOCK:   -0.52 KCAL/MOL
REMARK 927      BINDING AFFINITY PREDICTED BY RF-SCORE:    0.00 PKD
ROOT
HETATM    1 CL   UNL     1      -8.379   9.434  63.358  1.00  0.00    -0.175 Cl 
HETATM    2  C   UNL     1      -9.029  10.488  64.551  1.00  0.00    -0.209 A  
HETATM    3  C   UNL     1      -8.383  10.627  65.778  1.00  0.00    -0.162 A  
HETATM    4  C   UNL     1      -8.882  11.521  66.730  1.00  0.00    -0.183 A  
HETATM    5 CL   UNL     1      -8.033  11.642  68.231  1.00  0.00    -0.136 Cl 
HETATM    6  C   UNL     1     -10.026  12.288  66.460  1.00  0.00    -0.234 A  
HETATM    7  C   UNL     1     -10.678  12.099  65.225  1.00  0.00    -0.328 A  
HETATM    8  C   UNL     1     -10.183  11.209  64.275  1.00  0.00    -0.399 A  
ENDROOT
BRANCH   6   9
HETATM    9  C   UNL     1     -10.540  13.356  67.419  1.00  0.00    -0.251 C  
BRANCH   9  10
HETATM   10  C   UNL     1     -11.249  12.736  68.649  1.00  0.00    -0.282 C  
BRANCH  10  11
HETATM   11  N   UNL     1     -11.863  13.679  69.566  1.00  0.00    -0.318 NA 
HETATM   12  C   UNL     1     -11.945  15.035  69.398  1.00  0.00    -0.303 A  
HETATM   13  C   UNL     1     -12.523  13.378  70.724  1.00  0.00    -0.341 A  
HETATM   14  N   UNL     1     -12.894  14.461  71.367  1.00  0.00    -0.320 NA 
HETATM   15  C   UNL     1     -12.540  15.500  70.547  1.00  0.00    -0.416 A  
ENDBRANCH  10  11
ENDBRANCH   9  10
BRANCH   9  16
HETATM   16  O   UNL     1      -9.485  14.226  67.863  1.00  0.00    -0.202 OA 
BRANCH  16  17
HETATM   17  C   UNL     1      -9.090  15.186  66.880  1.00  0.00    -0.247 C  
BRANCH  17  18
HETATM   18  C   UNL     1      -8.344  16.300  67.564  1.00  0.00    -0.174 A  
HETATM   19  C   UNL     1      -8.933  17.551  67.823  1.00  0.00    -0.245 A  
HETATM   20 CL   UNL     1     -10.551  17.936  67.346  1.00  0.00    -0.389 Cl 
HETATM   21  C   UNL     1      -6.918  18.340  68.913  1.00  0.00    -0.289 A  
HETATM   22  C   UNL     1      -8.226  18.557  68.493  1.00  0.00    -0.360 A  
HETATM   23  C   UNL     1      -6.306  17.120  68.640  1.00  0.00    -0.163 A  
HETATM   24  C   UNL     1      -7.007  16.114  67.969  1.00  0.00    -0.128 A  
HETATM   25 CL   UNL     1      -6.158  14.634  67.672  1.00  0.00    -0.130 Cl 
ENDBRANCH  17  18
ENDBRANCH  16  17
ENDBRANCH   9  16
ENDBRANCH   6   9
TORSDOF 6
ENDMDL
MODEL      209
REMARK 921   NORMALIZED FREE ENERGY PREDICTED BY IDOCK:   -4.35 KCAL/MOL
REMARK 922        TOTAL FREE ENERGY PREDICTED BY IDOCK:   -6.90 KCAL/MOL
REMARK 923 INTER-LIGAND FREE ENERGY PREDICTED BY IDOCK:   -6.35 KCAL/MOL
REMARK 924 INTRA-LIGAND FREE ENERGY PREDICTED BY IDOCK:   -0.54 KCAL/MOL
REMARK 927      BINDING AFFINITY PREDICTED BY RF-SCORE:    0.00 PKD
ROOT
HETATM    1 CL   UNL     1     -10.581   5.781  68.674  1.00  0.00    -0.303 Cl 
HETATM    2  C   UNL     1     -10.440   7.427  68.197  1.00  0.00    -0.193 A  
HETATM    3  C   UNL     1      -9.925   7.741  66.941  1.00  0.00    -0.331 A  
HETATM    4  C   UNL     1      -9.855   9.076  66.531  1.00  0.00    -0.268 A  
HETATM    5 CL   UNL     1      -9.203   9.395  64.962  1.00  0.00    -0.296 Cl 
HETATM    6  C   UNL     1     -10.308  10.107  67.370  1.00  0.00    -0.289 A  
HETATM    7  C   UNL     1     -10.791   9.760  68.649  1.00  0.00    -0.223 A  
HETATM    8  C   UNL     1     -10.860   8.431  69.060  1.00  0.00    -0.015 A  
ENDROOT
BRANCH   6   9
HETATM    9  C   UNL     1     -10.359  11.563  66.924  1.00  0.00    -0.223 C  
BRANCH   9  10
HETATM   10  C   UNL     1     -11.090  11.727  65.568  1.00  0.00    -0.280 C  
BRANCH  10  11
HETATM   11  N   UNL     1     -11.381  13.092  65.169  1.00  0.00    -0.286 NA 
HETATM   12  C   UNL     1     -12.624  13.651  65.043  1.00  0.00    -0.390 A  
HETATM   13  C   UNL     1     -10.470  14.077  64.909  1.00  0.00    -0.431 A  
HETATM   14  N   UNL     1     -11.053  15.179  64.494  1.00  0.00    -0.297 NA 
HETATM   15  C   UNL     1     -12.396  14.924  64.577  1.00  0.00    -0.315 A  
ENDBRANCH  10  11
ENDBRANCH   9  10
BRANCH   9  16
HETATM   16  O   UNL     1     -10.986  12.401  67.910  1.00  0.00    -0.210 OA 
BRANCH  16  17
HETATM   17  C   UNL     1     -10.060  12.984  68.830  1.00  0.00    -0.055 C  
BRANCH  17  18
HETATM   18  C   UNL     1      -9.897  14.442  68.494  1.00  0.00    -0.233 A  
HETATM   19  C   UNL     1      -8.761  14.937  67.827  1.00  0.00    -0.167 A  
HETATM   20 CL   UNL     1      -7.435  13.925  67.368  1.00  0.00    -0.181 Cl 
HETATM   21  C   UNL     1      -9.668  17.184  67.828  1.00  0.00    -0.271 A  
HETATM   22  C   UNL     1      -8.652  16.294  67.496  1.00  0.00    -0.189 A  
HETATM   23  C   UNL     1     -10.787  16.720  68.515  1.00  0.00    -0.345 A  
HETATM   24  C   UNL     1     -10.897  15.368  68.849  1.00  0.00    -0.251 A  
HETATM   25 CL   UNL     1     -12.324  14.889  69.708  1.00  0.00    -0.313 Cl 
ENDBRANCH  17  18
ENDBRANCH  16  17
ENDBRANCH   9  16
ENDBRANCH   6   9
TORSDOF 6
ENDMDL
MODEL      210
REMARK 921   NORMALIZED FREE ENERGY PREDICTED BY IDOCK:   -4.35 KCAL/MOL
REMARK 922        TOTAL FREE ENERGY PREDICTED BY IDOCK:   -6.90 KCAL/MOL
REMARK 923 INTER-LIGAND FREE ENERGY PREDICTED BY IDOCK:   -6.69 KCAL/MOL
REMARK 924 INTRA-LIGAND FREE ENERGY PREDICTED BY IDOCK:   -0.20 KCAL/MOL
REMARK 927      BINDING AFFINITY PREDICTED BY RF-SCORE:    0.00 PKD
ROOT
HETATM    1 CL   UNL     1      -6.608   8.399  63.443  1.00  0.00    -0.084 Cl 
HETATM    2  C   UNL     1      -7.387   9.137  64.787  1.00  0.00    -0.098 A  
HETATM    3  C   UNL     1      -8.564   8.586  65.292  1.00  0.00    -0.192 A  
HETATM    4  C   UNL     1      -9.172   9.155  66.416  1.00  0.00    -0.183 A  
HETATM    5 CL   UNL     1     -10.629   8.424  66.989  1.00  0.00    -0.370 Cl 
HETATM    6  C   UNL     1      -8.604  10.274  67.047  1.00  0.00    -0.129 A  
HETATM    7  C   UNL     1      -7.434  10.829  66.490  1.00  0.00    -0.139 A  
HETATM    8  C   UNL     1      -6.827  10.265  65.371  1.00  0.00    -0.140 A  
ENDROOT
BRANCH   6   9
HETATM    9  C   UNL     1      -9.166  10.857  68.338  1.00  0.00    -0.168 C  
BRANCH   9  10
HETATM   10  C   UNL     1      -9.640  12.320  68.153  1.00  0.00    -0.213 C  
BRANCH  10  11
HETATM   11  N   UNL     1     -10.429  12.583  66.963  1.00  0.00    -0.230 NA 
HETATM   12  C   UNL     1     -11.714  12.172  66.736  1.00  0.00    -0.305 A  
HETATM   13  C   UNL     1     -10.054  13.338  65.887  1.00  0.00    -0.291 A  
HETATM   14  N   UNL     1     -10.962  13.317  64.939  1.00  0.00    -0.314 NA 
HETATM   15  C   UNL     1     -12.003  12.594  65.460  1.00  0.00    -0.456 A  
ENDBRANCH  10  11
ENDBRANCH   9  10
BRANCH   9  16
HETATM   16  O   UNL     1     -10.250  10.065  68.853  1.00  0.00    -0.175 OA 
BRANCH  16  17
HETATM   17  C   UNL     1     -10.065   9.670  70.215  1.00  0.00    -0.275 C  
BRANCH  17  18
HETATM   18  C   UNL     1     -11.340   9.046  70.715  1.00  0.00    -0.329 A  
HETATM   19  C   UNL     1     -11.508   7.653  70.811  1.00  0.00    -0.277 A  
HETATM   20 CL   UNL     1     -10.282   6.531  70.329  1.00  0.00    -0.216 Cl 
HETATM   21  C   UNL     1     -13.737   7.925  71.722  1.00  0.00    -0.417 A  
HETATM   22  C   UNL     1     -12.694   7.101  71.313  1.00  0.00    -0.412 A  
HETATM   23  C   UNL     1     -13.603   9.306  71.607  1.00  0.00    -0.448 A  
HETATM   24  C   UNL     1     -12.423   9.860  71.104  1.00  0.00    -0.368 A  
HETATM   25 CL   UNL     1     -12.354  11.588  70.995  1.00  0.00    -0.462 Cl 
ENDBRANCH  17  18
ENDBRANCH  16  17
ENDBRANCH   9  16
ENDBRANCH   6   9
TORSDOF 6
ENDMDL
MODEL      211
REMARK 921   NORMALIZED FREE ENERGY PREDICTED BY IDOCK:   -4.34 KCAL/MOL
REMARK 922        TOTAL FREE ENERGY PREDICTED BY IDOCK:   -6.88 KCAL/MOL
REMARK 923 INTER-LIGAND FREE ENERGY PREDICTED BY IDOCK:   -5.42 KCAL/MOL
REMARK 924 INTRA-LIGAND FREE ENERGY PREDICTED BY IDOCK:   -1.46 KCAL/MOL
REMARK 927      BINDING AFFINITY PREDICTED BY RF-SCORE:    0.00 PKD
ROOT
HETATM    1 CL   UNL     1      -9.141   3.350  67.176  1.00  0.00    -0.179 Cl 
HETATM    2  C   UNL     1      -9.439   4.957  67.711  1.00  0.00    -0.138 A  
HETATM    3  C   UNL     1      -8.369   5.819  67.940  1.00  0.00    -0.104 A  
HETATM    4  C   UNL     1      -8.611   7.141  68.327  1.00  0.00    -0.122 A  
HETATM    5 CL   UNL     1      -7.238   8.156  68.597  1.00  0.00    -0.082 Cl 
HETATM    6  C   UNL     1      -9.924   7.613  68.480  1.00  0.00    -0.190 A  
HETATM    7  C   UNL     1     -10.985   6.706  68.276  1.00  0.00    -0.321 A  
HETATM    8  C   UNL     1     -10.746   5.389  67.892  1.00  0.00    -0.095 A  
ENDROOT
BRANCH   6   9
HETATM    9  C   UNL     1     -10.239   9.072  68.788  1.00  0.00    -0.208 C  
BRANCH   9  10
HETATM   10  C   UNL     1     -10.565   9.876  67.505  1.00  0.00    -0.275 C  
BRANCH  10  11
HETATM   11  N   UNL     1     -10.647  11.316  67.666  1.00  0.00    -0.202 NA 
HETATM   12  C   UNL     1     -11.734  12.101  67.391  1.00  0.00    -0.304 A  
HETATM   13  C   UNL     1      -9.681  12.136  68.180  1.00  0.00    -0.208 A  
HETATM   14  N   UNL     1     -10.034  13.399  68.117  1.00  0.00    -0.232 NA 
HETATM   15  C   UNL     1     -11.314  13.388  67.629  1.00  0.00    -0.290 A  
ENDBRANCH  10  11
ENDBRANCH   9  10
BRANCH   9  16
HETATM   16  O   UNL     1     -11.327   9.197  69.720  1.00  0.00    -0.126 OA 
BRANCH  16  17
HETATM   17  C   UNL     1     -10.897   9.344  71.076  1.00  0.00    -0.336 C  
BRANCH  17  18
HETATM   18  C   UNL     1     -10.679   7.976  71.665  1.00  0.00    -0.284 A  
HETATM   19  C   UNL     1     -11.734   7.067  71.865  1.00  0.00    -0.296 A  
HETATM   20 CL   UNL     1     -13.379   7.451  71.490  1.00  0.00    -0.433 Cl 
HETATM   21  C   UNL     1     -10.206   5.390  72.716  1.00  0.00    -0.222 A  
HETATM   22  C   UNL     1     -11.497   5.787  72.382  1.00  0.00    -0.343 A  
HETATM   23  C   UNL     1      -9.152   6.285  72.554  1.00  0.00    -0.141 A  
HETATM   24  C   UNL     1      -9.385   7.564  72.041  1.00  0.00    -0.133 A  
HETATM   25 CL   UNL     1      -8.010   8.606  71.882  1.00  0.00    -0.160 Cl 
ENDBRANCH  17  18
ENDBRANCH  16  17
ENDBRANCH   9  16
ENDBRANCH   6   9
TORSDOF 6
ENDMDL
MODEL      212
REMARK 921   NORMALIZED FREE ENERGY PREDICTED BY IDOCK:   -4.34 KCAL/MOL
REMARK 922        TOTAL FREE ENERGY PREDICTED BY IDOCK:   -6.88 KCAL/MOL
REMARK 923 INTER-LIGAND FREE ENERGY PREDICTED BY IDOCK:   -5.93 KCAL/MOL
REMARK 924 INTRA-LIGAND FREE ENERGY PREDICTED BY IDOCK:   -0.94 KCAL/MOL
REMARK 927      BINDING AFFINITY PREDICTED BY RF-SCORE:    0.00 PKD
ROOT
HETATM    1 CL   UNL     1      -7.042  20.199  67.721  1.00  0.00    -0.319 Cl 
HETATM    2  C   UNL     1      -7.458  18.542  67.532  1.00  0.00    -0.220 A  
HETATM    3  C   UNL     1      -7.667  17.748  68.659  1.00  0.00    -0.283 A  
HETATM    4  C   UNL     1      -8.055  16.414  68.508  1.00  0.00    -0.205 A  
HETATM    5 CL   UNL     1      -8.294  15.486  69.947  1.00  0.00     0.014 Cl 
HETATM    6  C   UNL     1      -8.244  15.864  67.230  1.00  0.00    -0.211 A  
HETATM    7  C   UNL     1      -7.991  16.681  66.109  1.00  0.00    -0.237 A  
HETATM    8  C   UNL     1      -7.604  18.011  66.257  1.00  0.00    -0.306 A  
ENDROOT
BRANCH   6   9
HETATM    9  C   UNL     1      -8.775  14.451  67.018  1.00  0.00    -0.223 C  
BRANCH   9  10
HETATM   10  C   UNL     1      -7.696  13.378  67.306  1.00  0.00    -0.079 C  
BRANCH  10  11
HETATM   11  N   UNL     1      -8.177  12.013  67.421  1.00  0.00    -0.159 NA 
HETATM   12  C   UNL     1      -8.417  11.150  66.386  1.00  0.00    -0.167 A  
HETATM   13  C   UNL     1      -8.415  11.327  68.579  1.00  0.00    -0.156 A  
HETATM   14  N   UNL     1      -8.919  10.138  68.343  1.00  0.00    -0.120 NA 
HETATM   15  C   UNL     1      -8.923  10.017  66.979  1.00  0.00    -0.138 A  
ENDBRANCH  10  11
ENDBRANCH   9  10
BRANCH   9  16
HETATM   16  O   UNL     1      -9.936  14.191  67.826  1.00  0.00    -0.228 OA 
BRANCH  16  17
HETATM   17  C   UNL     1     -11.118  14.833  67.342  1.00  0.00    -0.324 C  
BRANCH  17  18
HETATM   18  C   UNL     1     -11.607  14.092  66.126  1.00  0.00    -0.377 A  
HETATM   19  C   UNL     1     -11.729  14.710  64.868  1.00  0.00    -0.403 A  
HETATM   20 CL   UNL     1     -11.365  16.382  64.612  1.00  0.00    -0.320 Cl 
HETATM   21  C   UNL     1     -12.470  12.637  63.856  1.00  0.00    -0.498 A  
HETATM   22  C   UNL     1     -12.153  13.987  63.746  1.00  0.00    -0.265 A  
HETATM   23  C   UNL     1     -12.386  12.014  65.098  1.00  0.00     0.038 A  
HETATM   24  C   UNL     1     -11.966  12.733  66.220  1.00  0.00    -0.395 A  
HETATM   25 CL   UNL     1     -11.898  11.870  67.721  1.00  0.00    -0.353 Cl 
ENDBRANCH  17  18
ENDBRANCH  16  17
ENDBRANCH   9  16
ENDBRANCH   6   9
TORSDOF 6
ENDMDL
MODEL      213
REMARK 921   NORMALIZED FREE ENERGY PREDICTED BY IDOCK:   -4.33 KCAL/MOL
REMARK 922        TOTAL FREE ENERGY PREDICTED BY IDOCK:   -6.87 KCAL/MOL
REMARK 923 INTER-LIGAND FREE ENERGY PREDICTED BY IDOCK:   -5.86 KCAL/MOL
REMARK 924 INTRA-LIGAND FREE ENERGY PREDICTED BY IDOCK:   -1.01 KCAL/MOL
REMARK 927      BINDING AFFINITY PREDICTED BY RF-SCORE:    0.00 PKD
ROOT
HETATM    1 CL   UNL     1      -7.599   8.934  64.151  1.00  0.00    -0.114 Cl 
HETATM    2  C   UNL     1      -8.354   9.232  65.667  1.00  0.00    -0.123 A  
HETATM    3  C   UNL     1      -7.575   9.372  66.813  1.00  0.00    -0.097 A  
HETATM    4  C   UNL     1      -8.183   9.664  68.038  1.00  0.00    -0.110 A  
HETATM    5 CL   UNL     1      -7.157   9.823  69.420  1.00  0.00    -0.060 Cl 
HETATM    6  C   UNL     1      -9.575   9.826  68.124  1.00  0.00    -0.158 A  
HETATM    7  C   UNL     1     -10.340   9.642  66.954  1.00  0.00    -0.307 A  
HETATM    8  C   UNL     1      -9.736   9.351  65.734  1.00  0.00    -0.354 A  
ENDROOT
BRANCH   6   9
HETATM    9  C   UNL     1     -10.271  10.256  69.411  1.00  0.00    -0.235 C  
BRANCH   9  10
HETATM   10  C   UNL     1     -11.697  10.796  69.143  1.00  0.00    -0.296 C  
BRANCH  10  11
HETATM   11  N   UNL     1     -11.868  12.230  69.296  1.00  0.00    -0.313 NA 
HETATM   12  C   UNL     1     -11.778  13.166  68.302  1.00  0.00    -0.349 A  
HETATM   13  C   UNL     1     -12.211  12.893  70.441  1.00  0.00    -0.304 A  
HETATM   14  N   UNL     1     -12.208  14.194  70.267  1.00  0.00    -0.329 NA 
HETATM   15  C   UNL     1     -11.941  14.375  68.936  1.00  0.00    -0.302 A  
ENDBRANCH  10  11
ENDBRANCH   9  10
BRANCH   9  16
HETATM   16  O   UNL     1     -10.337   9.182  70.365  1.00  0.00    -0.195 OA 
BRANCH  16  17
HETATM   17  C   UNL     1     -11.033   8.033  69.877  1.00  0.00    -0.172 C  
BRANCH  17  18
HETATM   18  C   UNL     1     -10.897   6.922  70.883  1.00  0.00    -0.277 A  
HETATM   19  C   UNL     1      -9.690   6.225  71.076  1.00  0.00    -0.176 A  
HETATM   20 CL   UNL     1      -8.266   6.555  70.149  1.00  0.00    -0.127 Cl 
HETATM   21  C   UNL     1     -10.677   4.883  72.835  1.00  0.00    -0.297 A  
HETATM   22  C   UNL     1      -9.583   5.219  72.044  1.00  0.00    -0.189 A  
HETATM   23  C   UNL     1     -11.889   5.538  72.639  1.00  0.00    -0.176 A  
HETATM   24  C   UNL     1     -12.001   6.541  71.672  1.00  0.00    -0.335 A  
HETATM   25 CL   UNL     1     -13.551   7.294  71.502  1.00  0.00    -0.465 Cl 
ENDBRANCH  17  18
ENDBRANCH  16  17
ENDBRANCH   9  16
ENDBRANCH   6   9
TORSDOF 6
ENDMDL
MODEL      214
REMARK 921   NORMALIZED FREE ENERGY PREDICTED BY IDOCK:   -4.33 KCAL/MOL
REMARK 922        TOTAL FREE ENERGY PREDICTED BY IDOCK:   -6.87 KCAL/MOL
REMARK 923 INTER-LIGAND FREE ENERGY PREDICTED BY IDOCK:   -6.21 KCAL/MOL
REMARK 924 INTRA-LIGAND FREE ENERGY PREDICTED BY IDOCK:   -0.66 KCAL/MOL
REMARK 927      BINDING AFFINITY PREDICTED BY RF-SCORE:    0.00 PKD
ROOT
HETATM    1 CL   UNL     1     -10.629  17.611  68.267  1.00  0.00    -0.367 Cl 
HETATM    2  C   UNL     1     -10.368  15.923  68.070  1.00  0.00    -0.262 A  
HETATM    3  C   UNL     1      -9.081  15.403  68.185  1.00  0.00    -0.184 A  
HETATM    4  C   UNL     1      -8.873  14.025  68.074  1.00  0.00    -0.181 A  
HETATM    5 CL   UNL     1      -7.251  13.448  68.225  1.00  0.00    -0.099 Cl 
HETATM    6  C   UNL     1      -9.953  13.154  67.854  1.00  0.00    -0.233 A  
HETATM    7  C   UNL     1     -11.239  13.713  67.706  1.00  0.00    -0.310 A  
HETATM    8  C   UNL     1     -11.448  15.086  67.816  1.00  0.00    -0.347 A  
ENDROOT
BRANCH   6   9
HETATM    9  C   UNL     1      -9.793  11.639  67.841  1.00  0.00    -0.184 C  
BRANCH   9  10
HETATM   10  C   UNL     1      -9.627  11.062  69.269  1.00  0.00     0.016 C  
BRANCH  10  11
HETATM   11  N   UNL     1     -10.848  10.619  69.917  1.00  0.00    -0.264 NA 
HETATM   12  C   UNL     1     -11.915  11.406  70.257  1.00  0.00    -0.373 A  
HETATM   13  C   UNL     1     -11.176   9.334  70.246  1.00  0.00    -0.231 A  
HETATM   14  N   UNL     1     -12.317   9.275  70.894  1.00  0.00    -0.223 NA 
HETATM   15  C   UNL     1     -12.787  10.562  70.903  1.00  0.00    -0.394 A  
ENDBRANCH  10  11
ENDBRANCH   9  10
BRANCH   9  16
HETATM   16  O   UNL     1     -10.899  10.992  67.190  1.00  0.00    -0.253 OA 
BRANCH  16  17
HETATM   17  C   UNL     1     -10.536   9.777  66.529  1.00  0.00    -0.142 C  
BRANCH  17  18
HETATM   18  C   UNL     1      -9.963  10.115  65.178  1.00  0.00    -0.379 A  
HETATM   19  C   UNL     1     -10.554  11.067  64.328  1.00  0.00    -0.331 A  
HETATM   20 CL   UNL     1     -12.009  11.908  64.739  1.00  0.00    -0.281 Cl 
HETATM   21  C   UNL     1      -8.810  10.759  62.674  1.00  0.00    -0.311 A  
HETATM   22  C   UNL     1      -9.979  11.386  63.091  1.00  0.00    -0.402 A  
HETATM   23  C   UNL     1      -8.226   9.792  63.487  1.00  0.00    -0.156 A  
HETATM   24  C   UNL     1      -8.798   9.468  64.720  1.00  0.00    -0.207 A  
HETATM   25 CL   UNL     1      -8.000   8.248  65.657  1.00  0.00    -0.106 Cl 
ENDBRANCH  17  18
ENDBRANCH  16  17
ENDBRANCH   9  16
ENDBRANCH   6   9
TORSDOF 6
ENDMDL
MODEL      215
REMARK 921   NORMALIZED FREE ENERGY PREDICTED BY IDOCK:   -4.33 KCAL/MOL
REMARK 922        TOTAL FREE ENERGY PREDICTED BY IDOCK:   -6.86 KCAL/MOL
REMARK 923 INTER-LIGAND FREE ENERGY PREDICTED BY IDOCK:   -6.60 KCAL/MOL
REMARK 924 INTRA-LIGAND FREE ENERGY PREDICTED BY IDOCK:   -0.26 KCAL/MOL
REMARK 927      BINDING AFFINITY PREDICTED BY RF-SCORE:    0.00 PKD
ROOT
HETATM    1 CL   UNL     1     -11.245  14.714  65.131  1.00  0.00    -0.355 Cl 
HETATM    2  C   UNL     1     -11.110  13.186  65.909  1.00  0.00    -0.278 A  
HETATM    3  C   UNL     1     -10.327  12.186  65.337  1.00  0.00    -0.301 A  
HETATM    4  C   UNL     1     -10.175  10.960  65.993  1.00  0.00    -0.254 A  
HETATM    5 CL   UNL     1      -9.191   9.763  65.227  1.00  0.00    -0.268 Cl 
HETATM    6  C   UNL     1     -10.801  10.728  67.229  1.00  0.00    -0.344 A  
HETATM    7  C   UNL     1     -11.616  11.746  67.764  1.00  0.00    -0.374 A  
HETATM    8  C   UNL     1     -11.769  12.968  67.112  1.00  0.00    -0.439 A  
ENDROOT
BRANCH   6   9
HETATM    9  C   UNL     1     -10.574   9.454  68.034  1.00  0.00    -0.226 C  
BRANCH   9  10
HETATM   10  C   UNL     1     -10.706   8.184  67.156  1.00  0.00    -0.194 C  
BRANCH  10  11
HETATM   11  N   UNL     1     -10.353   6.932  67.800  1.00  0.00    -0.185 NA 
HETATM   12  C   UNL     1      -9.238   6.179  67.550  1.00  0.00    -0.111 A  
HETATM   13  C   UNL     1     -11.035   6.315  68.811  1.00  0.00    -0.352 A  
HETATM   14  N   UNL     1     -10.500   5.156  69.120  1.00  0.00    -0.161 NA 
HETATM   15  C   UNL     1      -9.377   5.064  68.340  1.00  0.00    -0.126 A  
ENDBRANCH  10  11
ENDBRANCH   9  10
BRANCH   9  16
HETATM   16  O   UNL     1      -9.291   9.455  68.682  1.00  0.00    -0.140 OA 
BRANCH  16  17
HETATM   17  C   UNL     1      -9.294  10.128  69.944  1.00  0.00    -0.093 C  
BRANCH  17  18
HETATM   18  C   UNL     1      -9.871   9.204  70.983  1.00  0.00    -0.366 A  
HETATM   19  C   UNL     1     -11.244   9.181  71.290  1.00  0.00    -0.337 A  
HETATM   20 CL   UNL     1     -12.386  10.236  70.530  1.00  0.00    -0.374 Cl 
HETATM   21  C   UNL     1     -10.915   7.401  72.900  1.00  0.00    -0.408 A  
HETATM   22  C   UNL     1     -11.758   8.286  72.236  1.00  0.00    -0.453 A  
HETATM   23  C   UNL     1      -9.549   7.429  72.634  1.00  0.00    -0.204 A  
HETATM   24  C   UNL     1      -9.032   8.322  71.692  1.00  0.00    -0.180 A  
HETATM   25 CL   UNL     1      -7.319   8.283  71.435  1.00  0.00    -0.075 Cl 
ENDBRANCH  17  18
ENDBRANCH  16  17
ENDBRANCH   9  16
ENDBRANCH   6   9
TORSDOF 6
ENDMDL
MODEL      216
REMARK 921   NORMALIZED FREE ENERGY PREDICTED BY IDOCK:   -4.32 KCAL/MOL
REMARK 922        TOTAL FREE ENERGY PREDICTED BY IDOCK:   -6.86 KCAL/MOL
REMARK 923 INTER-LIGAND FREE ENERGY PREDICTED BY IDOCK:   -6.12 KCAL/MOL
REMARK 924 INTRA-LIGAND FREE ENERGY PREDICTED BY IDOCK:   -0.74 KCAL/MOL
REMARK 927      BINDING AFFINITY PREDICTED BY RF-SCORE:    0.00 PKD
ROOT
HETATM    1 CL   UNL     1      -8.725   4.657  65.322  1.00  0.00    -0.132 Cl 
HETATM    2  C   UNL     1      -9.342   5.952  66.270  1.00  0.00    -0.152 A  
HETATM    3  C   UNL     1     -10.162   5.680  67.363  1.00  0.00    -0.249 A  
HETATM    4  C   UNL     1     -10.625   6.727  68.165  1.00  0.00    -0.230 A  
HETATM    5 CL   UNL     1     -11.640   6.319  69.503  1.00  0.00    -0.417 Cl 
HETATM    6  C   UNL     1     -10.265   8.055  67.884  1.00  0.00    -0.267 A  
HETATM    7  C   UNL     1      -9.463   8.302  66.751  1.00  0.00    -0.256 A  
HETATM    8  C   UNL     1      -9.002   7.260  65.950  1.00  0.00    -0.103 A  
ENDROOT
BRANCH   6   9
HETATM    9  C   UNL     1     -10.649   9.217  68.793  1.00  0.00    -0.181 C  
BRANCH   9  10
HETATM   10  C   UNL     1      -9.680   9.356  69.994  1.00  0.00    -0.224 C  
BRANCH  10  11
HETATM   11  N   UNL     1     -10.102   8.710  71.224  1.00  0.00    -0.220 NA 
HETATM   12  C   UNL     1     -11.392   8.550  71.653  1.00  0.00    -0.295 A  
HETATM   13  C   UNL     1      -9.296   8.093  72.139  1.00  0.00    -0.206 A  
HETATM   14  N   UNL     1      -9.977   7.677  73.183  1.00  0.00    -0.278 NA 
HETATM   15  C   UNL     1     -11.285   7.955  72.888  1.00  0.00    -0.366 A  
ENDBRANCH  10  11
ENDBRANCH   9  10
BRANCH   9  16
HETATM   16  O   UNL     1     -10.701  10.461  68.075  1.00  0.00    -0.210 OA 
BRANCH  16  17
HETATM   17  C   UNL     1      -9.843  11.466  68.621  1.00  0.00    -0.193 C  
BRANCH  17  18
HETATM   18  C   UNL     1     -10.549  12.793  68.554  1.00  0.00    -0.270 A  
HETATM   19  C   UNL     1     -10.162  13.807  67.659  1.00  0.00    -0.242 A  
HETATM   20 CL   UNL     1      -8.818  13.637  66.582  1.00  0.00    -0.148 Cl 
HETATM   21  C   UNL     1     -11.953  15.249  68.424  1.00  0.00    -0.189 A  
HETATM   22  C   UNL     1     -10.860  15.020  67.594  1.00  0.00    -0.291 A  
HETATM   23  C   UNL     1     -12.334  14.271  69.338  1.00  0.00    -0.238 A  
HETATM   24  C   UNL     1     -11.638  13.061  69.408  1.00  0.00    -0.299 A  
HETATM   25 CL   UNL     1     -12.185  11.910  70.581  1.00  0.00    -0.464 Cl 
ENDBRANCH  17  18
ENDBRANCH  16  17
ENDBRANCH   9  16
ENDBRANCH   6   9
TORSDOF 6
ENDMDL
MODEL      217
REMARK 921   NORMALIZED FREE ENERGY PREDICTED BY IDOCK:   -4.32 KCAL/MOL
REMARK 922        TOTAL FREE ENERGY PREDICTED BY IDOCK:   -6.85 KCAL/MOL
REMARK 923 INTER-LIGAND FREE ENERGY PREDICTED BY IDOCK:   -5.89 KCAL/MOL
REMARK 924 INTRA-LIGAND FREE ENERGY PREDICTED BY IDOCK:   -0.96 KCAL/MOL
REMARK 927      BINDING AFFINITY PREDICTED BY RF-SCORE:    0.00 PKD
ROOT
HETATM    1 CL   UNL     1      -9.204  17.288  66.222  1.00  0.00    -0.267 Cl 
HETATM    2  C   UNL     1      -9.232  15.595  66.527  1.00  0.00    -0.293 A  
HETATM    3  C   UNL     1     -10.337  14.840  66.138  1.00  0.00    -0.314 A  
HETATM    4  C   UNL     1     -10.340  13.457  66.340  1.00  0.00    -0.288 A  
HETATM    5 CL   UNL     1     -11.743  12.582  65.836  1.00  0.00    -0.455 Cl 
HETATM    6  C   UNL     1      -9.236  12.816  66.925  1.00  0.00    -0.229 A  
HETATM    7  C   UNL     1      -8.148  13.612  67.340  1.00  0.00    -0.184 A  
HETATM    8  C   UNL     1      -8.143  14.991  67.141  1.00  0.00    -0.245 A  
ENDROOT
BRANCH   6   9
HETATM    9  C   UNL     1      -9.146  11.301  67.060  1.00  0.00    -0.163 C  
BRANCH   9  10
HETATM   10  C   UNL     1      -7.709  10.782  66.803  1.00  0.00    -0.136 C  
BRANCH  10  11
HETATM   11  N   UNL     1      -7.572   9.804  65.739  1.00  0.00    -0.104 NA 
HETATM   12  C   UNL     1      -8.593   9.184  65.072  1.00  0.00    -0.180 A  
HETATM   13  C   UNL     1      -6.405   9.378  65.170  1.00  0.00    -0.071 A  
HETATM   14  N   UNL     1      -6.614   8.429  64.286  1.00  0.00    -0.067 NA 
HETATM   15  C   UNL     1      -7.977   8.303  64.216  1.00  0.00    -0.148 A  
ENDBRANCH  10  11
ENDBRANCH   9  10
BRANCH   9  16
HETATM   16  O   UNL     1      -9.592  10.854  68.352  1.00  0.00    -0.163 OA 
BRANCH  16  17
HETATM   17  C   UNL     1     -10.604   9.846  68.284  1.00  0.00    -0.229 C  
BRANCH  17  18
HETATM   18  C   UNL     1     -10.784   9.250  69.654  1.00  0.00    -0.244 A  
HETATM   19  C   UNL     1     -11.533   9.888  70.660  1.00  0.00    -0.334 A  
HETATM   20 CL   UNL     1     -12.281  11.431  70.427  1.00  0.00    -0.441 Cl 
HETATM   21  C   UNL     1     -11.146   8.053  72.195  1.00  0.00    -0.372 A  
HETATM   22  C   UNL     1     -11.713   9.292  71.915  1.00  0.00    -0.420 A  
HETATM   23  C   UNL     1     -10.376   7.419  71.224  1.00  0.00    -0.203 A  
HETATM   24  C   UNL     1     -10.192   8.011  69.972  1.00  0.00    -0.205 A  
HETATM   25 CL   UNL     1      -9.214   7.146  68.833  1.00  0.00    -0.138 Cl 
ENDBRANCH  17  18
ENDBRANCH  16  17
ENDBRANCH   9  16
ENDBRANCH   6   9
TORSDOF 6
ENDMDL
MODEL      218
REMARK 921   NORMALIZED FREE ENERGY PREDICTED BY IDOCK:   -4.31 KCAL/MOL
REMARK 922        TOTAL FREE ENERGY PREDICTED BY IDOCK:   -6.84 KCAL/MOL
REMARK 923 INTER-LIGAND FREE ENERGY PREDICTED BY IDOCK:   -5.93 KCAL/MOL
REMARK 924 INTRA-LIGAND FREE ENERGY PREDICTED BY IDOCK:   -0.92 KCAL/MOL
REMARK 927      BINDING AFFINITY PREDICTED BY RF-SCORE:    0.00 PKD
ROOT
HETATM    1 CL   UNL     1     -10.868   5.654  68.198  1.00  0.00    -0.236 Cl 
HETATM    2  C   UNL     1     -10.512   7.336  68.216  1.00  0.00    -0.199 A  
HETATM    3  C   UNL     1     -10.407   8.034  67.014  1.00  0.00    -0.414 A  
HETATM    4  C   UNL     1     -10.167   9.411  67.027  1.00  0.00    -0.255 A  
HETATM    5 CL   UNL     1     -10.046  10.214  65.501  1.00  0.00    -0.359 Cl 
HETATM    6  C   UNL     1     -10.037  10.103  68.242  1.00  0.00    -0.179 A  
HETATM    7  C   UNL     1     -10.112   9.364  69.441  1.00  0.00    -0.204 A  
HETATM    8  C   UNL     1     -10.351   7.991  69.430  1.00  0.00    -0.217 A  
ENDROOT
BRANCH   6   9
HETATM    9  C   UNL     1      -9.889  11.618  68.309  1.00  0.00    -0.199 C  
BRANCH   9  10
HETATM   10  C   UNL     1      -8.411  12.062  68.171  1.00  0.00    -0.165 C  
BRANCH  10  11
HETATM   11  N   UNL     1      -8.191  13.489  68.019  1.00  0.00    -0.151 NA 
HETATM   12  C   UNL     1      -7.929  14.146  66.848  1.00  0.00     0.187 A  
HETATM   13  C   UNL     1      -8.268  14.435  69.002  1.00  0.00    -0.031 A  
HETATM   14  N   UNL     1      -7.937  15.625  68.556  1.00  0.00    -0.132 NA 
HETATM   15  C   UNL     1      -7.726  15.456  67.213  1.00  0.00    -0.213 A  
ENDBRANCH  10  11
ENDBRANCH   9  10
BRANCH   9  16
HETATM   16  O   UNL     1     -10.680  12.276  67.305  1.00  0.00    -0.223 OA 
BRANCH  16  17
HETATM   17  C   UNL     1     -12.018  12.552  67.729  1.00  0.00    -0.223 C  
BRANCH  17  18
HETATM   18  C   UNL     1     -11.971  13.547  68.858  1.00  0.00    -0.378 A  
HETATM   19  C   UNL     1     -12.260  13.191  70.188  1.00  0.00    -0.290 A  
HETATM   20 CL   UNL     1     -12.731  11.589  70.641  1.00  0.00    -0.305 Cl 
HETATM   21  C   UNL     1     -11.806  15.444  70.953  1.00  0.00    -0.400 A  
HETATM   22  C   UNL     1     -12.175  14.130  71.223  1.00  0.00    -0.419 A  
HETATM   23  C   UNL     1     -11.546  15.825  69.640  1.00  0.00    -0.363 A  
HETATM   24  C   UNL     1     -11.633  14.891  68.604  1.00  0.00    -0.318 A  
HETATM   25 CL   UNL     1     -11.295  15.464  67.004  1.00  0.00    -0.240 Cl 
ENDBRANCH  17  18
ENDBRANCH  16  17
ENDBRANCH   9  16
ENDBRANCH   6   9
TORSDOF 6
ENDMDL
MODEL      219
REMARK 921   NORMALIZED FREE ENERGY PREDICTED BY IDOCK:   -4.29 KCAL/MOL
REMARK 922        TOTAL FREE ENERGY PREDICTED BY IDOCK:   -6.82 KCAL/MOL
REMARK 923 INTER-LIGAND FREE ENERGY PREDICTED BY IDOCK:   -5.94 KCAL/MOL
REMARK 924 INTRA-LIGAND FREE ENERGY PREDICTED BY IDOCK:   -0.88 KCAL/MOL
REMARK 927      BINDING AFFINITY PREDICTED BY RF-SCORE:    0.00 PKD
ROOT
HETATM    1 CL   UNL     1      -5.199   6.891  72.387  1.00  0.00    -0.036 Cl 
HETATM    2  C   UNL     1      -6.411   7.633  71.419  1.00  0.00    -0.038 A  
HETATM    3  C   UNL     1      -6.364   7.505  70.033  1.00  0.00    -0.031 A  
HETATM    4  C   UNL     1      -7.375   8.066  69.247  1.00  0.00    -0.081 A  
HETATM    5 CL   UNL     1      -7.253   7.871  67.534  1.00  0.00    -0.086 Cl 
HETATM    6  C   UNL     1      -8.446   8.752  69.842  1.00  0.00    -0.131 A  
HETATM    7  C   UNL     1      -8.448   8.896  71.245  1.00  0.00    -0.239 A  
HETATM    8  C   UNL     1      -7.440   8.339  72.029  1.00  0.00    -0.124 A  
ENDROOT
BRANCH   6   9
HETATM    9  C   UNL     1      -9.628   9.279  69.037  1.00  0.00    -0.159 C  
BRANCH   9  10
HETATM   10  C   UNL     1     -10.659   8.166  68.727  1.00  0.00    -0.121 C  
BRANCH  10  11
HETATM   11  N   UNL     1     -10.996   7.290  69.834  1.00  0.00    -0.257 NA 
HETATM   12  C   UNL     1     -11.875   7.567  70.846  1.00  0.00    -0.267 A  
HETATM   13  C   UNL     1     -10.548   6.014  70.031  1.00  0.00    -0.274 A  
HETATM   14  N   UNL     1     -10.976   5.519  71.169  1.00  0.00    -0.182 NA 
HETATM   15  C   UNL     1     -11.807   6.479  71.684  1.00  0.00    -0.333 A  
ENDBRANCH  10  11
ENDBRANCH   9  10
BRANCH   9  16
HETATM   16  O   UNL     1     -10.287  10.367  69.708  1.00  0.00    -0.240 OA 
BRANCH  16  17
HETATM   17  C   UNL     1     -11.452  10.832  69.023  1.00  0.00    -0.298 C  
BRANCH  17  18
HETATM   18  C   UNL     1     -11.860  12.158  69.608  1.00  0.00    -0.391 A  
HETATM   19  C   UNL     1     -12.520  12.261  70.847  1.00  0.00    -0.276 A  
HETATM   20 CL   UNL     1     -12.956  10.877  71.789  1.00  0.00    -0.578 Cl 
HETATM   21  C   UNL     1     -12.549  14.679  70.696  1.00  0.00    -0.419 A  
HETATM   22  C   UNL     1     -12.857  13.510  71.384  1.00  0.00    -0.440 A  
HETATM   23  C   UNL     1     -11.923  14.598  69.455  1.00  0.00    -0.351 A  
HETATM   24  C   UNL     1     -11.589  13.354  68.914  1.00  0.00    -0.314 A  
HETATM   25 CL   UNL     1     -10.818  13.356  67.363  1.00  0.00    -0.273 Cl 
ENDBRANCH  17  18
ENDBRANCH  16  17
ENDBRANCH   9  16
ENDBRANCH   6   9
TORSDOF 6
ENDMDL
MODEL      220
REMARK 921   NORMALIZED FREE ENERGY PREDICTED BY IDOCK:   -4.28 KCAL/MOL
REMARK 922        TOTAL FREE ENERGY PREDICTED BY IDOCK:   -6.79 KCAL/MOL
REMARK 923 INTER-LIGAND FREE ENERGY PREDICTED BY IDOCK:   -5.69 KCAL/MOL
REMARK 924 INTRA-LIGAND FREE ENERGY PREDICTED BY IDOCK:   -1.10 KCAL/MOL
REMARK 927      BINDING AFFINITY PREDICTED BY RF-SCORE:    0.00 PKD
ROOT
HETATM    1 CL   UNL     1     -12.240   8.400  72.702  1.00  0.00    -0.391 Cl 
HETATM    2  C   UNL     1     -11.231   8.228  71.320  1.00  0.00    -0.259 A  
HETATM    3  C   UNL     1     -10.180   9.119  71.115  1.00  0.00    -0.384 A  
HETATM    4  C   UNL     1      -9.328   8.951  70.019  1.00  0.00    -0.174 A  
HETATM    5 CL   UNL     1      -8.045  10.093  69.825  1.00  0.00    -0.181 Cl 
HETATM    6  C   UNL     1      -9.517   7.886  69.123  1.00  0.00    -0.155 A  
HETATM    7  C   UNL     1     -10.612   7.023  69.336  1.00  0.00    -0.248 A  
HETATM    8  C   UNL     1     -11.461   7.189  70.428  1.00  0.00    -0.317 A  
ENDROOT
BRANCH   6   9
HETATM    9  C   UNL     1      -8.550   7.596  67.982  1.00  0.00    -0.123 C  
BRANCH   9  10
HETATM   10  C   UNL     1      -8.202   6.089  67.888  1.00  0.00    -0.112 C  
BRANCH  10  11
HETATM   11  N   UNL     1      -8.782   5.376  66.765  1.00  0.00    -0.113 NA 
HETATM   12  C   UNL     1      -8.181   5.139  65.559  1.00  0.00    -0.121 A  
HETATM   13  C   UNL     1     -10.002   4.761  66.732  1.00  0.00    -0.228 A  
HETATM   14  N   UNL     1     -10.267   4.272  65.543  1.00  0.00    -0.228 NA 
HETATM   15  C   UNL     1      -9.136   4.500  64.804  1.00  0.00    -0.152 A  
ENDBRANCH  10  11
ENDBRANCH   9  10
BRANCH   9  16
HETATM   16  O   UNL     1      -9.066   8.047  66.718  1.00  0.00    -0.140 OA 
BRANCH  16  17
HETATM   17  C   UNL     1      -8.305   9.112  66.143  1.00  0.00    -0.119 C  
BRANCH  17  18
HETATM   18  C   UNL     1      -9.202   9.913  65.238  1.00  0.00    -0.280 A  
HETATM   19  C   UNL     1     -10.215  10.753  65.735  1.00  0.00    -0.257 A  
HETATM   20 CL   UNL     1     -10.548  10.912  67.425  1.00  0.00    -0.266 Cl 
HETATM   21  C   UNL     1     -10.820  11.448  63.493  1.00  0.00    -0.430 A  
HETATM   22  C   UNL     1     -11.012  11.513  64.870  1.00  0.00    -0.319 A  
HETATM   23  C   UNL     1      -9.842  10.600  62.980  1.00  0.00    -0.318 A  
HETATM   24  C   UNL     1      -9.048   9.838  63.839  1.00  0.00    -0.233 A  
HETATM   25 CL   UNL     1      -7.863   8.810  63.103  1.00  0.00    -0.141 Cl 
ENDBRANCH  17  18
ENDBRANCH  16  17
ENDBRANCH   9  16
ENDBRANCH   6   9
TORSDOF 6
ENDMDL
MODEL      221
REMARK 921   NORMALIZED FREE ENERGY PREDICTED BY IDOCK:   -4.27 KCAL/MOL
REMARK 922        TOTAL FREE ENERGY PREDICTED BY IDOCK:   -6.79 KCAL/MOL
REMARK 923 INTER-LIGAND FREE ENERGY PREDICTED BY IDOCK:   -5.87 KCAL/MOL
REMARK 924 INTRA-LIGAND FREE ENERGY PREDICTED BY IDOCK:   -0.92 KCAL/MOL
REMARK 927      BINDING AFFINITY PREDICTED BY RF-SCORE:    0.00 PKD
ROOT
HETATM    1 CL   UNL     1     -10.940   5.740  71.410  1.00  0.00    -0.324 Cl 
HETATM    2  C   UNL     1     -10.598   7.220  70.602  1.00  0.00    -0.226 A  
HETATM    3  C   UNL     1     -11.367   8.350  70.873  1.00  0.00    -0.298 A  
HETATM    4  C   UNL     1     -11.060   9.566  70.256  1.00  0.00    -0.271 A  
HETATM    5 CL   UNL     1     -12.056  10.927  70.636  1.00  0.00    -0.436 Cl 
HETATM    6  C   UNL     1      -9.976   9.663  69.368  1.00  0.00    -0.207 A  
HETATM    7  C   UNL     1      -9.239   8.495  69.086  1.00  0.00    -0.150 A  
HETATM    8  C   UNL     1      -9.544   7.282  69.700  1.00  0.00    -0.155 A  
ENDROOT
BRANCH   6   9
HETATM    9  C   UNL     1      -9.533  10.989  68.760  1.00  0.00    -0.183 C  
BRANCH   9  10
HETATM   10  C   UNL     1      -8.090  10.915  68.201  1.00  0.00    -0.119 C  
BRANCH  10  11
HETATM   11  N   UNL     1      -7.071  11.580  68.993  1.00  0.00    -0.112 NA 
HETATM   12  C   UNL     1      -6.458  11.078  70.109  1.00  0.00    -0.128 A  
HETATM   13  C   UNL     1      -6.498  12.792  68.731  1.00  0.00    -0.085 A  
HETATM   14  N   UNL     1      -5.665  13.150  69.682  1.00  0.00    -0.097 NA 
HETATM   15  C   UNL     1      -5.632  12.087  70.544  1.00  0.00    -0.165 A  
ENDBRANCH  10  11
ENDBRANCH   9  10
BRANCH   9  16
HETATM   16  O   UNL     1     -10.427  11.424  67.721  1.00  0.00    -0.177 OA 
BRANCH  16  17
HETATM   17  C   UNL     1     -10.863  10.363  66.869  1.00  0.00    -0.161 C  
BRANCH  17  18
HETATM   18  C   UNL     1     -10.461  10.683  65.454  1.00  0.00    -0.254 A  
HETATM   19  C   UNL     1     -11.076  11.707  64.711  1.00  0.00    -0.264 A  
HETATM   20 CL   UNL     1     -12.373  12.665  65.340  1.00  0.00    -0.531 Cl 
HETATM   21  C   UNL     1      -9.623  11.288  62.818  1.00  0.00    -0.327 A  
HETATM   22  C   UNL     1     -10.657  12.006  63.408  1.00  0.00    -0.478 A  
HETATM   23  C   UNL     1      -9.021  10.250  63.525  1.00  0.00    -0.259 A  
HETATM   24  C   UNL     1      -9.438   9.947  64.823  1.00  0.00    -0.291 A  
HETATM   25 CL   UNL     1      -8.632   8.635  65.618  1.00  0.00    -0.175 Cl 
ENDBRANCH  17  18
ENDBRANCH  16  17
ENDBRANCH   9  16
ENDBRANCH   6   9
TORSDOF 6
ENDMDL
MODEL      222
REMARK 921   NORMALIZED FREE ENERGY PREDICTED BY IDOCK:   -4.26 KCAL/MOL
REMARK 922        TOTAL FREE ENERGY PREDICTED BY IDOCK:   -6.77 KCAL/MOL
REMARK 923 INTER-LIGAND FREE ENERGY PREDICTED BY IDOCK:   -5.31 KCAL/MOL
REMARK 924 INTRA-LIGAND FREE ENERGY PREDICTED BY IDOCK:   -1.46 KCAL/MOL
REMARK 927      BINDING AFFINITY PREDICTED BY RF-SCORE:    0.00 PKD
ROOT
HETATM    1 CL   UNL     1     -12.097  13.253  68.029  1.00  0.00    -0.330 Cl 
HETATM    2  C   UNL     1     -11.404  11.944  68.902  1.00  0.00    -0.278 A  
HETATM    3  C   UNL     1     -12.141  11.313  69.903  1.00  0.00    -0.414 A  
HETATM    4  C   UNL     1     -11.599  10.217  70.580  1.00  0.00    -0.343 A  
HETATM    5 CL   UNL     1     -12.566   9.484  71.811  1.00  0.00    -0.460 Cl 
HETATM    6  C   UNL     1     -10.319   9.737  70.257  1.00  0.00    -0.348 A  
HETATM    7  C   UNL     1      -9.584  10.419  69.265  1.00  0.00    -0.226 A  
HETATM    8  C   UNL     1     -10.122  11.512  68.590  1.00  0.00    -0.214 A  
ENDROOT
BRANCH   6   9
HETATM    9  C   UNL     1      -9.734   8.479  70.887  1.00  0.00    -0.187 C  
BRANCH   9  10
HETATM   10  C   UNL     1      -8.671   7.817  69.975  1.00  0.00    -0.141 C  
BRANCH  10  11
HETATM   11  N   UNL     1      -8.876   6.409  69.685  1.00  0.00    -0.137 NA 
HETATM   12  C   UNL     1     -10.000   5.850  69.141  1.00  0.00    -0.165 A  
HETATM   13  C   UNL     1      -7.964   5.404  69.843  1.00  0.00    -0.081 A  
HETATM   14  N   UNL     1      -8.483   4.230  69.566  1.00  0.00    -0.071 NA 
HETATM   15  C   UNL     1      -9.752   4.498  69.125  1.00  0.00    -0.179 A  
ENDBRANCH  10  11
ENDBRANCH   9  10
BRANCH   9  16
HETATM   16  O   UNL     1      -9.158   8.746  72.177  1.00  0.00    -0.325 OA 
BRANCH  16  17
HETATM   17  C   UNL     1      -9.821   8.066  73.245  1.00  0.00    -0.211 C  
BRANCH  17  18
HETATM   18  C   UNL     1      -9.297   6.657  73.320  1.00  0.00    -0.150 A  
HETATM   19  C   UNL     1     -10.086   5.542  72.983  1.00  0.00    -0.181 A  
HETATM   20 CL   UNL     1     -11.738   5.685  72.489  1.00  0.00    -0.320 Cl 
HETATM   21  C   UNL     1      -8.242   4.031  73.416  1.00  0.00    -0.089 A  
HETATM   22  C   UNL     1      -9.561   4.245  73.028  1.00  0.00    -0.155 A  
HETATM   23  C   UNL     1      -7.453   5.118  73.784  1.00  0.00    -0.087 A  
HETATM   24  C   UNL     1      -7.975   6.414  73.742  1.00  0.00    -0.101 A  
HETATM   25 CL   UNL     1      -6.916   7.699  74.223  1.00  0.00    -0.116 Cl 
ENDBRANCH  17  18
ENDBRANCH  16  17
ENDBRANCH   9  16
ENDBRANCH   6   9
TORSDOF 6
ENDMDL
MODEL      223
REMARK 921   NORMALIZED FREE ENERGY PREDICTED BY IDOCK:   -4.26 KCAL/MOL
REMARK 922        TOTAL FREE ENERGY PREDICTED BY IDOCK:   -6.77 KCAL/MOL
REMARK 923 INTER-LIGAND FREE ENERGY PREDICTED BY IDOCK:   -5.72 KCAL/MOL
REMARK 924 INTRA-LIGAND FREE ENERGY PREDICTED BY IDOCK:   -1.04 KCAL/MOL
REMARK 927      BINDING AFFINITY PREDICTED BY RF-SCORE:    0.00 PKD
ROOT
HETATM    1 CL   UNL     1     -11.795  13.467  68.174  1.00  0.00    -0.393 Cl 
HETATM    2  C   UNL     1     -11.432  12.082  69.126  1.00  0.00    -0.300 A  
HETATM    3  C   UNL     1     -12.279  11.720  70.172  1.00  0.00    -0.342 A  
HETATM    4  C   UNL     1     -12.014  10.566  70.916  1.00  0.00    -0.377 A  
HETATM    5 CL   UNL     1     -13.104  10.177  72.199  1.00  0.00    -0.514 Cl 
HETATM    6  C   UNL     1     -10.903   9.762  70.615  1.00  0.00    -0.396 A  
HETATM    7  C   UNL     1     -10.044  10.173  69.575  1.00  0.00    -0.258 A  
HETATM    8  C   UNL     1     -10.307  11.323  68.833  1.00  0.00    -0.214 A  
ENDROOT
BRANCH   6   9
HETATM    9  C   UNL     1     -10.637   8.438  71.322  1.00  0.00    -0.222 C  
BRANCH   9  10
HETATM   10  C   UNL     1     -10.057   8.647  72.743  1.00  0.00     0.040 C  
BRANCH  10  11
HETATM   11  N   UNL     1      -8.949   7.781  73.107  1.00  0.00    -0.187 NA 
HETATM   12  C   UNL     1      -7.740   7.704  72.472  1.00  0.00    -0.096 A  
HETATM   13  C   UNL     1      -8.893   6.939  74.182  1.00  0.00    -0.175 A  
HETATM   14  N   UNL     1      -7.784   6.235  74.188  1.00  0.00    -0.088 NA 
HETATM   15  C   UNL     1      -7.057   6.707  73.127  1.00  0.00    -0.077 A  
ENDBRANCH  10  11
ENDBRANCH   9  10
BRANCH   9  16
HETATM   16  O   UNL     1     -11.823   7.630  71.404  1.00  0.00    -0.278 OA 
BRANCH  16  17
HETATM   17  C   UNL     1     -11.900   6.630  70.385  1.00  0.00    -0.346 C  
BRANCH  17  18
HETATM   18  C   UNL     1     -10.642   5.803  70.423  1.00  0.00    -0.365 A  
HETATM   19  C   UNL     1      -9.709   5.804  69.371  1.00  0.00    -0.155 A  
HETATM   20 CL   UNL     1      -9.939   6.723  67.922  1.00  0.00    -0.152 Cl 
HETATM   21  C   UNL     1      -8.261   4.279  70.574  1.00  0.00    -0.073 A  
HETATM   22  C   UNL     1      -8.531   5.051  69.449  1.00  0.00    -0.087 A  
HETATM   23  C   UNL     1      -9.186   4.240  71.614  1.00  0.00    -0.186 A  
HETATM   24  C   UNL     1     -10.364   4.987  71.538  1.00  0.00    -0.182 A  
HETATM   25 CL   UNL     1     -11.453   4.869  72.880  1.00  0.00    -0.302 Cl 
ENDBRANCH  17  18
ENDBRANCH  16  17
ENDBRANCH   9  16
ENDBRANCH   6   9
TORSDOF 6
ENDMDL
MODEL      224
REMARK 921   NORMALIZED FREE ENERGY PREDICTED BY IDOCK:   -4.25 KCAL/MOL
REMARK 922        TOTAL FREE ENERGY PREDICTED BY IDOCK:   -6.76 KCAL/MOL
REMARK 923 INTER-LIGAND FREE ENERGY PREDICTED BY IDOCK:   -5.44 KCAL/MOL
REMARK 924 INTRA-LIGAND FREE ENERGY PREDICTED BY IDOCK:   -1.32 KCAL/MOL
REMARK 927      BINDING AFFINITY PREDICTED BY RF-SCORE:    0.00 PKD
ROOT
HETATM    1 CL   UNL     1     -10.638   8.630  72.046  1.00  0.00    -0.403 Cl 
HETATM    2  C   UNL     1     -10.069   8.664  70.424  1.00  0.00    -0.188 A  
HETATM    3  C   UNL     1      -8.834   9.242  70.135  1.00  0.00    -0.235 A  
HETATM    4  C   UNL     1      -8.347   9.227  68.825  1.00  0.00    -0.117 A  
HETATM    5 CL   UNL     1      -6.810   9.963  68.537  1.00  0.00    -0.058 Cl 
HETATM    6  C   UNL     1      -9.088   8.626  67.793  1.00  0.00    -0.143 A  
HETATM    7  C   UNL     1     -10.349   8.082  68.110  1.00  0.00    -0.250 A  
HETATM    8  C   UNL     1     -10.837   8.097  69.415  1.00  0.00    -0.096 A  
ENDROOT
BRANCH   6   9
HETATM    9  C   UNL     1      -8.549   8.483  66.375  1.00  0.00    -0.125 C  
BRANCH   9  10
HETATM   10  C   UNL     1      -8.535   7.007  65.908  1.00  0.00    -0.147 C  
BRANCH  10  11
HETATM   11  N   UNL     1      -7.429   6.201  66.394  1.00  0.00    -0.085 NA 
HETATM   12  C   UNL     1      -7.425   4.841  66.547  1.00  0.00    -0.086 A  
HETATM   13  C   UNL     1      -6.180   6.645  66.724  1.00  0.00    -0.040 A  
HETATM   14  N   UNL     1      -5.433   5.678  67.205  1.00  0.00    -0.008 NA 
HETATM   15  C   UNL     1      -6.200   4.549  67.096  1.00  0.00    -0.036 A  
ENDBRANCH  10  11
ENDBRANCH   9  10
BRANCH   9  16
HETATM   16  O   UNL     1      -9.299   9.274  65.438  1.00  0.00    -0.239 OA 
BRANCH  16  17
HETATM   17  C   UNL     1      -9.013  10.673  65.520  1.00  0.00    -0.191 C  
BRANCH  17  18
HETATM   18  C   UNL     1     -10.218  11.441  65.049  1.00  0.00    -0.333 A  
HETATM   19  C   UNL     1     -10.514  11.613  63.684  1.00  0.00    -0.429 A  
HETATM   20 CL   UNL     1      -9.503  10.991  62.426  1.00  0.00    -0.242 Cl 
HETATM   21  C   UNL     1     -12.534  12.841  64.216  1.00  0.00    -0.461 A  
HETATM   22  C   UNL     1     -11.662  12.303  63.275  1.00  0.00    -0.451 A  
HETATM   23  C   UNL     1     -12.244  12.709  65.571  1.00  0.00    -0.501 A  
HETATM   24  C   UNL     1     -11.098  12.023  65.983  1.00  0.00    -0.320 A  
HETATM   25 CL   UNL     1     -10.821  11.917  67.690  1.00  0.00    -0.254 Cl 
ENDBRANCH  17  18
ENDBRANCH  16  17
ENDBRANCH   9  16
ENDBRANCH   6   9
TORSDOF 6
ENDMDL
MODEL      225
REMARK 921   NORMALIZED FREE ENERGY PREDICTED BY IDOCK:   -4.25 KCAL/MOL
REMARK 922        TOTAL FREE ENERGY PREDICTED BY IDOCK:   -6.76 KCAL/MOL
REMARK 923 INTER-LIGAND FREE ENERGY PREDICTED BY IDOCK:   -6.75 KCAL/MOL
REMARK 924 INTRA-LIGAND FREE ENERGY PREDICTED BY IDOCK:   -0.01 KCAL/MOL
REMARK 927      BINDING AFFINITY PREDICTED BY RF-SCORE:    0.00 PKD
ROOT
HETATM    1 CL   UNL     1      -5.623   7.842  68.637  1.00  0.00    -0.027 Cl 
HETATM    2  C   UNL     1      -7.002   8.829  68.351  1.00  0.00    -0.066 A  
HETATM    3  C   UNL     1      -8.141   8.274  67.770  1.00  0.00    -0.127 A  
HETATM    4  C   UNL     1      -9.281   9.062  67.583  1.00  0.00    -0.136 A  
HETATM    5 CL   UNL     1     -10.657   8.312  66.855  1.00  0.00    -0.369 Cl 
HETATM    6  C   UNL     1      -9.293  10.409  67.981  1.00  0.00    -0.145 A  
HETATM    7  C   UNL     1      -8.113  10.951  68.532  1.00  0.00    -0.137 A  
HETATM    8  C   UNL     1      -6.977  10.167  68.719  1.00  0.00    -0.066 A  
ENDROOT
BRANCH   6   9
HETATM    9  C   UNL     1     -10.545  11.274  67.902  1.00  0.00    -0.194 C  
BRANCH   9  10
HETATM   10  C   UNL     1     -11.209  11.203  66.504  1.00  0.00    -0.079 C  
BRANCH  10  11
HETATM   11  N   UNL     1     -11.575  12.478  65.913  1.00  0.00    -0.384 NA 
HETATM   12  C   UNL     1     -11.081  13.704  66.264  1.00  0.00    -0.301 A  
HETATM   13  C   UNL     1     -12.427  12.674  64.863  1.00  0.00    -0.494 A  
HETATM   14  N   UNL     1     -12.609  13.952  64.619  1.00  0.00    -0.658 NA 
HETATM   15  C   UNL     1     -11.772  14.602  65.486  1.00  0.00    -0.316 A  
ENDBRANCH  10  11
ENDBRANCH   9  10
BRANCH   9  16
HETATM   16  O   UNL     1     -11.507  10.913  68.907  1.00  0.00    -0.255 OA 
BRANCH  16  17
HETATM   17  C   UNL     1     -10.914  10.354  70.082  1.00  0.00    -0.300 C  
BRANCH  17  18
HETATM   18  C   UNL     1     -11.960   9.562  70.821  1.00  0.00    -0.326 A  
HETATM   19  C   UNL     1     -12.018   8.158  70.767  1.00  0.00    -0.113 A  
HETATM   20 CL   UNL     1     -10.918   7.216  69.819  1.00  0.00    -0.264 Cl 
HETATM   21  C   UNL     1     -13.909   8.117  72.280  1.00  0.00    -0.231 A  
HETATM   22  C   UNL     1     -12.981   7.445  71.492  1.00  0.00    -0.421 A  
HETATM   23  C   UNL     1     -13.889   9.508  72.323  1.00  0.00    -0.374 A  
HETATM   24  C   UNL     1     -12.932  10.223  71.599  1.00  0.00    -0.465 A  
HETATM   25 CL   UNL     1     -12.992  11.951  71.713  1.00  0.00    -0.504 Cl 
ENDBRANCH  17  18
ENDBRANCH  16  17
ENDBRANCH   9  16
ENDBRANCH   6   9
TORSDOF 6
ENDMDL
MODEL      226
REMARK 921   NORMALIZED FREE ENERGY PREDICTED BY IDOCK:   -4.24 KCAL/MOL
REMARK 922        TOTAL FREE ENERGY PREDICTED BY IDOCK:   -6.74 KCAL/MOL
REMARK 923 INTER-LIGAND FREE ENERGY PREDICTED BY IDOCK:   -6.41 KCAL/MOL
REMARK 924 INTRA-LIGAND FREE ENERGY PREDICTED BY IDOCK:   -0.33 KCAL/MOL
REMARK 927      BINDING AFFINITY PREDICTED BY RF-SCORE:    0.00 PKD
ROOT
HETATM    1 CL   UNL     1      -9.686   9.140  65.864  1.00  0.00    -0.350 Cl 
HETATM    2  C   UNL     1      -9.688  10.721  66.540  1.00  0.00    -0.196 A  
HETATM    3  C   UNL     1      -8.520  11.237  67.098  1.00  0.00    -0.149 A  
HETATM    4  C   UNL     1      -8.506  12.541  67.603  1.00  0.00    -0.171 A  
HETATM    5 CL   UNL     1      -7.024  13.117  68.281  1.00  0.00    -0.093 Cl 
HETATM    6  C   UNL     1      -9.658  13.341  67.548  1.00  0.00    -0.218 A  
HETATM    7  C   UNL     1     -10.834  12.779  67.011  1.00  0.00    -0.282 A  
HETATM    8  C   UNL     1     -10.850  11.480  66.507  1.00  0.00    -0.335 A  
ENDROOT
BRANCH   6   9
HETATM    9  C   UNL     1      -9.660  14.803  67.980  1.00  0.00    -0.209 C  
BRANCH   9  10
HETATM   10  C   UNL     1      -9.673  14.950  69.522  1.00  0.00    -0.034 C  
BRANCH  10  11
HETATM   11  N   UNL     1     -10.985  15.045  70.136  1.00  0.00    -0.242 NA 
HETATM   12  C   UNL     1     -11.465  16.101  70.862  1.00  0.00    -0.386 A  
HETATM   13  C   UNL     1     -11.995  14.128  70.048  1.00  0.00    -0.340 A  
HETATM   14  N   UNL     1     -13.028  14.472  70.782  1.00  0.00    -0.359 NA 
HETATM   15  C   UNL     1     -12.708  15.703  71.292  1.00  0.00    -0.475 A  
ENDBRANCH  10  11
ENDBRANCH   9  10
BRANCH   9  16
HETATM   16  O   UNL     1      -8.537  15.520  67.441  1.00  0.00    -0.162 OA 
BRANCH  16  17
HETATM   17  C   UNL     1      -8.835  16.206  66.223  1.00  0.00    -0.336 C  
BRANCH  17  18
HETATM   18  C   UNL     1      -9.074  17.660  66.533  1.00  0.00    -0.284 A  
HETATM   19  C   UNL     1      -8.071  18.635  66.388  1.00  0.00    -0.281 A  
HETATM   20 CL   UNL     1      -6.464  18.250  65.877  1.00  0.00    -0.269 Cl 
HETATM   21  C   UNL     1      -9.596  20.390  67.070  1.00  0.00    -0.571 A  
HETATM   22  C   UNL     1      -8.333  19.986  66.651  1.00  0.00    -0.363 A  
HETATM   23  C   UNL     1     -10.595  19.437  67.249  1.00  0.00    -0.599 A  
HETATM   24  C   UNL     1     -10.336  18.088  66.991  1.00  0.00    -0.369 A  
HETATM   25 CL   UNL     1     -11.642  16.978  67.248  1.00  0.00     0.664 Cl 
ENDBRANCH  17  18
ENDBRANCH  16  17
ENDBRANCH   9  16
ENDBRANCH   6   9
TORSDOF 6
ENDMDL
MODEL      227
REMARK 921   NORMALIZED FREE ENERGY PREDICTED BY IDOCK:   -4.22 KCAL/MOL
REMARK 922        TOTAL FREE ENERGY PREDICTED BY IDOCK:   -6.72 KCAL/MOL
REMARK 923 INTER-LIGAND FREE ENERGY PREDICTED BY IDOCK:   -6.13 KCAL/MOL
REMARK 924 INTRA-LIGAND FREE ENERGY PREDICTED BY IDOCK:   -0.59 KCAL/MOL
REMARK 927      BINDING AFFINITY PREDICTED BY RF-SCORE:    0.00 PKD
ROOT
HETATM    1 CL   UNL     1     -10.024  19.766  69.747  1.00  0.00    -0.098 Cl 
HETATM    2  C   UNL     1     -10.058  18.322  68.815  1.00  0.00    -0.370 A  
HETATM    3  C   UNL     1      -9.067  18.088  67.864  1.00  0.00    -0.269 A  
HETATM    4  C   UNL     1      -9.065  16.892  67.140  1.00  0.00    -0.217 A  
HETATM    5 CL   UNL     1      -7.809  16.668  65.974  1.00  0.00    -0.184 Cl 
HETATM    6  C   UNL     1     -10.049  15.916  67.367  1.00  0.00    -0.252 A  
HETATM    7  C   UNL     1     -11.059  16.197  68.311  1.00  0.00    -0.348 A  
HETATM    8  C   UNL     1     -11.063  17.388  69.033  1.00  0.00     0.398 A  
ENDROOT
BRANCH   6   9
HETATM    9  C   UNL     1     -10.022  14.553  66.687  1.00  0.00    -0.270 C  
BRANCH   9  10
HETATM   10  C   UNL     1     -10.210  14.668  65.154  1.00  0.00    -0.382 C  
BRANCH  10  11
HETATM   11  N   UNL     1     -10.783  13.506  64.499  1.00  0.00    -0.411 NA 
HETATM   12  C   UNL     1     -12.113  13.282  64.265  1.00  0.00    -0.416 A  
HETATM   13  C   UNL     1     -10.098  12.462  63.944  1.00  0.00    -0.322 A  
HETATM   14  N   UNL     1     -10.909  11.530  63.499  1.00  0.00    -0.410 NA 
HETATM   15  C   UNL     1     -12.169  12.034  63.693  1.00  0.00    -0.538 A  
ENDBRANCH  10  11
ENDBRANCH   9  10
BRANCH   9  16
HETATM   16  O   UNL     1      -8.805  13.841  66.967  1.00  0.00    -0.223 OA 
BRANCH  16  17
HETATM   17  C   UNL     1      -8.830  13.145  68.216  1.00  0.00    -0.175 C  
BRANCH  17  18
HETATM   18  C   UNL     1      -9.259  11.724  67.969  1.00  0.00    -0.181 A  
HETATM   19  C   UNL     1     -10.612  11.355  67.860  1.00  0.00    -0.189 A  
HETATM   20 CL   UNL     1     -11.905  12.491  68.037  1.00  0.00    -0.404 Cl 
HETATM   21  C   UNL     1     -10.010   9.046  67.439  1.00  0.00    -0.266 A  
HETATM   22  C   UNL     1     -10.981  10.030  67.594  1.00  0.00    -0.297 A  
HETATM   23  C   UNL     1      -8.666   9.384  67.573  1.00  0.00    -0.123 A  
HETATM   24  C   UNL     1      -8.295  10.704  67.841  1.00  0.00    -0.120 A  
HETATM   25 CL   UNL     1      -6.599  11.024  67.995  1.00  0.00    -0.061 Cl 
ENDBRANCH  17  18
ENDBRANCH  16  17
ENDBRANCH   9  16
ENDBRANCH   6   9
TORSDOF 6
ENDMDL
MODEL      228
REMARK 921   NORMALIZED FREE ENERGY PREDICTED BY IDOCK:   -4.21 KCAL/MOL
REMARK 922        TOTAL FREE ENERGY PREDICTED BY IDOCK:   -6.70 KCAL/MOL
REMARK 923 INTER-LIGAND FREE ENERGY PREDICTED BY IDOCK:   -5.92 KCAL/MOL
REMARK 924 INTRA-LIGAND FREE ENERGY PREDICTED BY IDOCK:   -0.79 KCAL/MOL
REMARK 927      BINDING AFFINITY PREDICTED BY RF-SCORE:    0.00 PKD
ROOT
HETATM    1 CL   UNL     1      -8.605   2.110  65.303  1.00  0.00    -0.103 Cl 
HETATM    2  C   UNL     1      -9.262   3.416  66.209  1.00  0.00    -0.159 A  
HETATM    3  C   UNL     1      -9.379   3.308  67.594  1.00  0.00    -0.245 A  
HETATM    4  C   UNL     1      -9.866   4.387  68.337  1.00  0.00    -0.061 A  
HETATM    5 CL   UNL     1      -9.987   4.184  70.050  1.00  0.00    -0.237 Cl 
HETATM    6  C   UNL     1     -10.234   5.585  67.704  1.00  0.00    -0.241 A  
HETATM    7  C   UNL     1     -10.138   5.651  66.298  1.00  0.00    -0.160 A  
HETATM    8  C   UNL     1      -9.653   4.577  65.555  1.00  0.00    -0.190 A  
ENDROOT
BRANCH   6   9
HETATM    9  C   UNL     1     -10.661   6.824  68.481  1.00  0.00    -0.231 C  
BRANCH   9  10
HETATM   10  C   UNL     1      -9.596   7.250  69.522  1.00  0.00    -0.155 C  
BRANCH  10  11
HETATM   11  N   UNL     1     -10.086   7.485  70.868  1.00  0.00    -0.192 NA 
HETATM   12  C   UNL     1      -9.335   7.857  71.949  1.00  0.00    -0.154 A  
HETATM   13  C   UNL     1     -11.388   7.439  71.280  1.00  0.00    -0.265 A  
HETATM   14  N   UNL     1     -11.493   7.621  72.577  1.00  0.00    -0.341 NA 
HETATM   15  C   UNL     1     -10.218   7.886  73.002  1.00  0.00    -0.327 A  
ENDBRANCH  10  11
ENDBRANCH   9  10
BRANCH   9  16
HETATM   16  O   UNL     1     -10.944   7.930  67.607  1.00  0.00    -0.104 OA 
BRANCH  16  17
HETATM   17  C   UNL     1     -10.011   9.006  67.735  1.00  0.00    -0.187 C  
BRANCH  17  18
HETATM   18  C   UNL     1     -10.360  10.070  66.729  1.00  0.00    -0.283 A  
HETATM   19  C   UNL     1      -9.894  10.032  65.402  1.00  0.00    -0.314 A  
HETATM   20 CL   UNL     1      -8.851   8.782  64.816  1.00  0.00    -0.146 Cl 
HETATM   21  C   UNL     1     -11.098  12.064  64.859  1.00  0.00    -0.368 A  
HETATM   22  C   UNL     1     -10.264  11.018  64.478  1.00  0.00    -0.406 A  
HETATM   23  C   UNL     1     -11.545  12.137  66.175  1.00  0.00    -0.418 A  
HETATM   24  C   UNL     1     -11.176  11.157  67.100  1.00  0.00    -0.249 A  
HETATM   25 CL   UNL     1     -11.779  11.339  68.715  1.00  0.00    -0.382 Cl 
ENDBRANCH  17  18
ENDBRANCH  16  17
ENDBRANCH   9  16
ENDBRANCH   6   9
TORSDOF 6
ENDMDL
MODEL      229
REMARK 921   NORMALIZED FREE ENERGY PREDICTED BY IDOCK:   -4.20 KCAL/MOL
REMARK 922        TOTAL FREE ENERGY PREDICTED BY IDOCK:   -6.68 KCAL/MOL
REMARK 923 INTER-LIGAND FREE ENERGY PREDICTED BY IDOCK:   -6.56 KCAL/MOL
REMARK 924 INTRA-LIGAND FREE ENERGY PREDICTED BY IDOCK:   -0.13 KCAL/MOL
REMARK 927      BINDING AFFINITY PREDICTED BY RF-SCORE:    0.00 PKD
ROOT
HETATM    1 CL   UNL     1     -14.192   6.734  72.198  1.00  0.00    -0.226 Cl 
HETATM    2  C   UNL     1     -12.877   7.494  71.392  1.00  0.00    -0.342 A  
HETATM    3  C   UNL     1     -12.052   6.745  70.555  1.00  0.00    -0.332 A  
HETATM    4  C   UNL     1     -11.013   7.371  69.860  1.00  0.00    -0.223 A  
HETATM    5 CL   UNL     1     -10.028   6.383  68.840  1.00  0.00    -0.156 Cl 
HETATM    6  C   UNL     1     -10.795   8.752  69.991  1.00  0.00    -0.231 A  
HETATM    7  C   UNL     1     -11.623   9.476  70.874  1.00  0.00    -0.398 A  
HETATM    8  C   UNL     1     -12.658   8.854  71.568  1.00  0.00    -0.385 A  
ENDROOT
BRANCH   6   9
HETATM    9  C   UNL     1      -9.750   9.497  69.169  1.00  0.00    -0.178 C  
BRANCH   9  10
HETATM   10  C   UNL     1      -8.482   8.640  68.931  1.00  0.00    -0.129 C  
BRANCH  10  11
HETATM   11  N   UNL     1      -7.520   8.619  70.018  1.00  0.00    -0.054 NA 
HETATM   12  C   UNL     1      -6.801   7.536  70.442  1.00  0.00    -0.047 A  
HETATM   13  C   UNL     1      -7.116   9.688  70.769  1.00  0.00    -0.068 A  
HETATM   14  N   UNL     1      -6.294   9.324  71.726  1.00  0.00    -0.257 NA 
HETATM   15  C   UNL     1      -6.089   7.984  71.529  1.00  0.00    -0.035 A  
ENDBRANCH  10  11
ENDBRANCH   9  10
BRANCH   9  16
HETATM   16  O   UNL     1     -10.278   9.931  67.904  1.00  0.00    -0.171 OA 
BRANCH  16  17
HETATM   17  C   UNL     1      -9.750  11.187  67.470  1.00  0.00    -0.176 C  
BRANCH  17  18
HETATM   18  C   UNL     1     -10.553  11.668  66.292  1.00  0.00    -0.301 A  
HETATM   19  C   UNL     1     -11.522  12.682  66.405  1.00  0.00    -0.356 A  
HETATM   20 CL   UNL     1     -11.905  13.440  67.913  1.00  0.00    -0.392 Cl 
HETATM   21  C   UNL     1     -11.992  12.581  64.030  1.00  0.00    -0.536 A  
HETATM   22  C   UNL     1     -12.230  13.134  65.284  1.00  0.00    -0.502 A  
HETATM   23  C   UNL     1     -11.059  11.555  63.901  1.00  0.00    -0.458 A  
HETATM   24  C   UNL     1     -10.353  11.100  65.018  1.00  0.00    -0.301 A  
HETATM   25 CL   UNL     1      -9.218   9.817  64.756  1.00  0.00    -0.300 Cl 
ENDBRANCH  17  18
ENDBRANCH  16  17
ENDBRANCH   9  16
ENDBRANCH   6   9
TORSDOF 6
ENDMDL
MODEL      230
REMARK 921   NORMALIZED FREE ENERGY PREDICTED BY IDOCK:   -4.19 KCAL/MOL
REMARK 922        TOTAL FREE ENERGY PREDICTED BY IDOCK:   -6.68 KCAL/MOL
REMARK 923 INTER-LIGAND FREE ENERGY PREDICTED BY IDOCK:   -5.86 KCAL/MOL
REMARK 924 INTRA-LIGAND FREE ENERGY PREDICTED BY IDOCK:   -0.82 KCAL/MOL
REMARK 927      BINDING AFFINITY PREDICTED BY RF-SCORE:    0.00 PKD
ROOT
HETATM    1 CL   UNL     1      -5.190   9.398  63.920  1.00  0.00    -0.059 Cl 
HETATM    2  C   UNL     1      -6.396  10.142  64.895  1.00  0.00    -0.128 A  
HETATM    3  C   UNL     1      -7.732  10.088  64.503  1.00  0.00    -0.145 A  
HETATM    4  C   UNL     1      -8.720  10.648  65.319  1.00  0.00    -0.187 A  
HETATM    5 CL   UNL     1     -10.356  10.549  64.771  1.00  0.00    -0.375 Cl 
HETATM    6  C   UNL     1      -8.380  11.260  66.536  1.00  0.00    -0.168 A  
HETATM    7  C   UNL     1      -7.017  11.330  66.888  1.00  0.00    -0.137 A  
HETATM    8  C   UNL     1      -6.031  10.773  66.077  1.00  0.00    -0.138 A  
ENDROOT
BRANCH   6   9
HETATM    9  C   UNL     1      -9.430  11.782  67.510  1.00  0.00    -0.174 C  
BRANCH   9  10
HETATM   10  C   UNL     1     -10.380  12.806  66.842  1.00  0.00    -0.238 C  
BRANCH  10  11
HETATM   11  N   UNL     1     -10.842  13.888  67.693  1.00  0.00    -0.252 NA 
HETATM   12  C   UNL     1     -10.962  15.203  67.337  1.00  0.00    -0.314 A  
HETATM   13  C   UNL     1     -11.298  13.777  68.977  1.00  0.00    -0.289 A  
HETATM   14  N   UNL     1     -11.566  14.952  69.499  1.00  0.00    -0.285 NA 
HETATM   15  C   UNL     1     -11.363  15.848  68.483  1.00  0.00    -0.374 A  
ENDBRANCH  10  11
ENDBRANCH   9  10
BRANCH   9  16
HETATM   16  O   UNL     1     -10.204  10.714  68.082  1.00  0.00    -0.159 OA 
BRANCH  16  17
HETATM   17  C   UNL     1      -9.649  10.199  69.295  1.00  0.00    -0.225 C  
BRANCH  17  18
HETATM   18  C   UNL     1     -10.251   8.846  69.566  1.00  0.00    -0.204 A  
HETATM   19  C   UNL     1     -11.237   8.645  70.550  1.00  0.00    -0.241 A  
HETATM   20 CL   UNL     1     -11.818   9.923  71.562  1.00  0.00    -0.461 Cl 
HETATM   21  C   UNL     1     -11.398   6.293  69.992  1.00  0.00    -0.486 A  
HETATM   22  C   UNL     1     -11.804   7.381  70.756  1.00  0.00    -0.288 A  
HETATM   23  C   UNL     1     -10.402   6.464  69.034  1.00  0.00    -0.238 A  
HETATM   24  C   UNL     1      -9.831   7.722  68.827  1.00  0.00    -0.169 A  
HETATM   25 CL   UNL     1      -8.597   7.832  67.617  1.00  0.00    -0.123 Cl 
ENDBRANCH  17  18
ENDBRANCH  16  17
ENDBRANCH   9  16
ENDBRANCH   6   9
TORSDOF 6
ENDMDL
MODEL      231
REMARK 921   NORMALIZED FREE ENERGY PREDICTED BY IDOCK:   -4.19 KCAL/MOL
REMARK 922        TOTAL FREE ENERGY PREDICTED BY IDOCK:   -6.68 KCAL/MOL
REMARK 923 INTER-LIGAND FREE ENERGY PREDICTED BY IDOCK:   -6.82 KCAL/MOL
REMARK 924 INTRA-LIGAND FREE ENERGY PREDICTED BY IDOCK:    0.15 KCAL/MOL
REMARK 927      BINDING AFFINITY PREDICTED BY RF-SCORE:    0.00 PKD
ROOT
HETATM    1 CL   UNL     1     -12.874  11.933  62.956  1.00  0.00    -0.300 Cl 
HETATM    2  C   UNL     1     -11.984  12.056  64.422  1.00  0.00    -0.300 A  
HETATM    3  C   UNL     1     -10.837  11.285  64.602  1.00  0.00    -0.335 A  
HETATM    4  C   UNL     1     -10.083  11.420  65.771  1.00  0.00    -0.246 A  
HETATM    5 CL   UNL     1      -8.674  10.432  65.930  1.00  0.00    -0.160 Cl 
HETATM    6  C   UNL     1     -10.467  12.332  66.768  1.00  0.00    -0.242 A  
HETATM    7  C   UNL     1     -11.651  13.072  66.573  1.00  0.00    -0.407 A  
HETATM    8  C   UNL     1     -12.404  12.938  65.409  1.00  0.00    -0.538 A  
ENDROOT
BRANCH   6   9
HETATM    9  C   UNL     1      -9.617  12.596  68.006  1.00  0.00    -0.213 C  
BRANCH   9  10
HETATM   10  C   UNL     1      -9.431  14.112  68.266  1.00  0.00    -0.211 C  
BRANCH  10  11
HETATM   11  N   UNL     1      -8.058  14.573  68.359  1.00  0.00    -0.136 NA 
HETATM   12  C   UNL     1      -7.594  15.579  69.161  1.00  0.00    -0.204 A  
HETATM   13  C   UNL     1      -6.976  14.045  67.711  1.00  0.00    -0.177 A  
HETATM   14  N   UNL     1      -5.885  14.739  67.946  1.00  0.00    -0.200 NA 
HETATM   15  C   UNL     1      -6.260  15.696  68.851  1.00  0.00    -0.109 A  
ENDBRANCH  10  11
ENDBRANCH   9  10
BRANCH   9  16
HETATM   16  O   UNL     1     -10.174  11.975  69.177  1.00  0.00    -0.028 OA 
BRANCH  16  17
HETATM   17  C   UNL     1      -9.942  10.565  69.234  1.00  0.00    -0.213 C  
BRANCH  17  18
HETATM   18  C   UNL     1     -10.958   9.945  70.155  1.00  0.00    -0.356 A  
HETATM   19  C   UNL     1     -11.004   8.561  70.401  1.00  0.00    -0.238 A  
HETATM   20 CL   UNL     1      -9.924   7.443  69.642  1.00  0.00    -0.179 Cl 
HETATM   21  C   UNL     1     -12.851   8.837  71.946  1.00  0.00    -0.423 A  
HETATM   22  C   UNL     1     -11.939   8.016  71.290  1.00  0.00    -0.321 A  
HETATM   23  C   UNL     1     -12.842  10.206  71.693  1.00  0.00    -0.559 A  
HETATM   24  C   UNL     1     -11.913  10.753  70.804  1.00  0.00    -0.362 A  
HETATM   25 CL   UNL     1     -11.986  12.466  70.552  1.00  0.00    -0.370 Cl 
ENDBRANCH  17  18
ENDBRANCH  16  17
ENDBRANCH   9  16
ENDBRANCH   6   9
TORSDOF 6
ENDMDL
MODEL      232
REMARK 921   NORMALIZED FREE ENERGY PREDICTED BY IDOCK:   -4.18 KCAL/MOL
REMARK 922        TOTAL FREE ENERGY PREDICTED BY IDOCK:   -6.67 KCAL/MOL
REMARK 923 INTER-LIGAND FREE ENERGY PREDICTED BY IDOCK:   -5.99 KCAL/MOL
REMARK 924 INTRA-LIGAND FREE ENERGY PREDICTED BY IDOCK:   -0.68 KCAL/MOL
REMARK 927      BINDING AFFINITY PREDICTED BY RF-SCORE:    0.00 PKD
ROOT
HETATM    1 CL   UNL     1      -6.950  17.237  66.991  1.00  0.00    -0.204 Cl 
HETATM    2  C   UNL     1      -7.959  15.985  67.600  1.00  0.00    -0.143 A  
HETATM    3  C   UNL     1      -8.830  16.250  68.656  1.00  0.00    -0.226 A  
HETATM    4  C   UNL     1      -9.687  15.247  69.120  1.00  0.00    -0.243 A  
HETATM    5 CL   UNL     1     -10.739  15.643  70.432  1.00  0.00    -0.345 Cl 
HETATM    6  C   UNL     1      -9.685  13.974  68.528  1.00  0.00    -0.215 A  
HETATM    7  C   UNL     1      -8.767  13.725  67.486  1.00  0.00    -0.194 A  
HETATM    8  C   UNL     1      -7.912  14.723  67.023  1.00  0.00    -0.139 A  
ENDROOT
BRANCH   6   9
HETATM    9  C   UNL     1     -10.677  12.887  68.923  1.00  0.00    -0.160 C  
BRANCH   9  10
HETATM   10  C   UNL     1     -12.047  13.073  68.224  1.00  0.00    -0.156 C  
BRANCH  10  11
HETATM   11  N   UNL     1     -11.996  13.425  66.817  1.00  0.00    -0.396 NA 
HETATM   12  C   UNL     1     -11.893  12.553  65.768  1.00  0.00    -0.437 A  
HETATM   13  C   UNL     1     -12.105  14.680  66.286  1.00  0.00    -0.199 A  
HETATM   14  N   UNL     1     -11.939  14.671  64.983  1.00  0.00    -0.379 NA 
HETATM   15  C   UNL     1     -11.809  13.349  64.650  1.00  0.00    -0.391 A  
ENDBRANCH  10  11
ENDBRANCH   9  10
BRANCH   9  16
HETATM   16  O   UNL     1     -10.170  11.572  68.636  1.00  0.00    -0.204 OA 
BRANCH  16  17
HETATM   17  C   UNL     1     -10.943  10.525  69.228  1.00  0.00    -0.244 C  
BRANCH  17  18
HETATM   18  C   UNL     1     -10.167   9.239  69.134  1.00  0.00    -0.214 A  
HETATM   19  C   UNL     1      -9.731   8.712  67.904  1.00  0.00    -0.161 A  
HETATM   20 CL   UNL     1     -10.079   9.472  66.389  1.00  0.00    -0.335 Cl 
HETATM   21  C   UNL     1      -8.654   6.848  69.017  1.00  0.00    -0.128 A  
HETATM   22  C   UNL     1      -8.980   7.531  67.849  1.00  0.00    -0.131 A  
HETATM   23  C   UNL     1      -9.102   7.336  70.241  1.00  0.00    -0.152 A  
HETATM   24  C   UNL     1      -9.853   8.512  70.300  1.00  0.00    -0.182 A  
HETATM   25 CL   UNL     1     -10.368   9.035  71.869  1.00  0.00    -0.410 Cl 
ENDBRANCH  17  18
ENDBRANCH  16  17
ENDBRANCH   9  16
ENDBRANCH   6   9
TORSDOF 6
ENDMDL
MODEL      233
REMARK 921   NORMALIZED FREE ENERGY PREDICTED BY IDOCK:   -4.18 KCAL/MOL
REMARK 922        TOTAL FREE ENERGY PREDICTED BY IDOCK:   -6.67 KCAL/MOL
REMARK 923 INTER-LIGAND FREE ENERGY PREDICTED BY IDOCK:   -5.96 KCAL/MOL
REMARK 924 INTRA-LIGAND FREE ENERGY PREDICTED BY IDOCK:   -0.71 KCAL/MOL
REMARK 927      BINDING AFFINITY PREDICTED BY RF-SCORE:    0.00 PKD
ROOT
HETATM    1 CL   UNL     1     -12.561  14.157  65.047  1.00  0.00    -0.431 Cl 
HETATM    2  C   UNL     1     -11.721  12.721  65.483  1.00  0.00    -0.395 A  
HETATM    3  C   UNL     1     -11.674  12.325  66.818  1.00  0.00    -0.411 A  
HETATM    4  C   UNL     1     -11.035  11.131  67.168  1.00  0.00    -0.291 A  
HETATM    5 CL   UNL     1     -11.012  10.701  68.842  1.00  0.00    -0.267 Cl 
HETATM    6  C   UNL     1     -10.444  10.321  66.184  1.00  0.00    -0.200 A  
HETATM    7  C   UNL     1     -10.477  10.767  64.847  1.00  0.00    -0.324 A  
HETATM    8  C   UNL     1     -11.113  11.956  64.496  1.00  0.00    -0.381 A  
ENDROOT
BRANCH   6   9
HETATM    9  C   UNL     1      -9.837   8.960  66.502  1.00  0.00    -0.274 C  
BRANCH   9  10
HETATM   10  C   UNL     1      -8.361   9.076  66.957  1.00  0.00    -0.116 C  
BRANCH  10  11
HETATM   11  N   UNL     1      -7.406   9.422  65.920  1.00  0.00    -0.094 NA 
HETATM   12  C   UNL     1      -7.260   8.796  64.712  1.00  0.00    -0.091 A  
HETATM   13  C   UNL     1      -6.528  10.470  65.937  1.00  0.00    -0.127 A  
HETATM   14  N   UNL     1      -5.745  10.463  64.883  1.00  0.00    -0.132 NA 
HETATM   15  C   UNL     1      -6.196   9.425  64.112  1.00  0.00    -0.092 A  
ENDBRANCH  10  11
ENDBRANCH   9  10
BRANCH   9  16
HETATM   16  O   UNL     1     -10.593   8.261  67.506  1.00  0.00    -0.257 OA 
BRANCH  16  17
HETATM   17  C   UNL     1     -11.017   6.960  67.092  1.00  0.00    -0.357 C  
BRANCH  17  18
HETATM   18  C   UNL     1     -10.219   5.929  67.843  1.00  0.00    -0.225 A  
HETATM   19  C   UNL     1      -9.191   5.184  67.237  1.00  0.00    -0.115 A  
HETATM   20 CL   UNL     1      -8.777   5.357  65.565  1.00  0.00    -0.151 Cl 
HETATM   21  C   UNL     1      -8.704   4.047  69.320  1.00  0.00    -0.124 A  
HETATM   22  C   UNL     1      -8.441   4.256  67.970  1.00  0.00    -0.101 A  
HETATM   23  C   UNL     1      -9.736   4.751  69.932  1.00  0.00    -0.274 A  
HETATM   24  C   UNL     1     -10.489   5.676  69.203  1.00  0.00    -0.269 A  
HETATM   25 CL   UNL     1     -11.755   6.498  70.053  1.00  0.00    -0.459 Cl 
ENDBRANCH  17  18
ENDBRANCH  16  17
ENDBRANCH   9  16
ENDBRANCH   6   9
TORSDOF 6
ENDMDL
MODEL      234
REMARK 921   NORMALIZED FREE ENERGY PREDICTED BY IDOCK:   -4.17 KCAL/MOL
REMARK 922        TOTAL FREE ENERGY PREDICTED BY IDOCK:   -6.66 KCAL/MOL
REMARK 923 INTER-LIGAND FREE ENERGY PREDICTED BY IDOCK:   -6.31 KCAL/MOL
REMARK 924 INTRA-LIGAND FREE ENERGY PREDICTED BY IDOCK:   -0.35 KCAL/MOL
REMARK 927      BINDING AFFINITY PREDICTED BY RF-SCORE:    0.00 PKD
ROOT
HETATM    1 CL   UNL     1      -7.913   7.256  73.955  1.00  0.00    -0.132 Cl 
HETATM    2  C   UNL     1      -8.404   8.071  72.522  1.00  0.00    -0.157 A  
HETATM    3  C   UNL     1      -9.759   8.162  72.209  1.00  0.00    -0.322 A  
HETATM    4  C   UNL     1     -10.164   8.867  71.071  1.00  0.00    -0.254 A  
HETATM    5 CL   UNL     1     -11.859   8.939  70.740  1.00  0.00    -0.271 Cl 
HETATM    6  C   UNL     1      -9.218   9.491  70.242  1.00  0.00    -0.303 A  
HETATM    7  C   UNL     1      -7.853   9.350  70.565  1.00  0.00    -0.185 A  
HETATM    8  C   UNL     1      -7.447   8.648  71.698  1.00  0.00    -0.121 A  
ENDROOT
BRANCH   6   9
HETATM    9  C   UNL     1      -9.618  10.364  69.058  1.00  0.00    -0.204 C  
BRANCH   9  10
HETATM   10  C   UNL     1     -10.703   9.689  68.183  1.00  0.00    -0.217 C  
BRANCH  10  11
HETATM   11  N   UNL     1     -10.282   8.506  67.455  1.00  0.00    -0.239 NA 
HETATM   12  C   UNL     1     -10.869   7.271  67.507  1.00  0.00    -0.214 A  
HETATM   13  C   UNL     1      -9.267   8.428  66.542  1.00  0.00    -0.189 A  
HETATM   14  N   UNL     1      -9.087   7.198  66.120  1.00  0.00    -0.151 NA 
HETATM   15  C   UNL     1     -10.083   6.469  66.714  1.00  0.00    -0.176 A  
ENDBRANCH  10  11
ENDBRANCH   9  10
BRANCH   9  16
HETATM   16  O   UNL     1     -10.082  11.657  69.482  1.00  0.00     0.202 OA 
BRANCH  16  17
HETATM   17  C   UNL     1     -11.421  11.942  69.068  1.00  0.00    -0.297 C  
BRANCH  17  18
HETATM   18  C   UNL     1     -11.891  13.184  69.776  1.00  0.00    -0.386 A  
HETATM   19  C   UNL     1     -11.674  14.473  69.256  1.00  0.00    -0.310 A  
HETATM   20 CL   UNL     1     -10.815  14.750  67.779  1.00  0.00    -0.272 Cl 
HETATM   21  C   UNL     1     -12.853  15.486  71.114  1.00  0.00    -0.551 A  
HETATM   22  C   UNL     1     -12.153  15.610  69.919  1.00  0.00    -0.360 A  
HETATM   23  C   UNL     1     -13.052  14.222  71.662  1.00  0.00    -0.417 A  
HETATM   24  C   UNL     1     -12.573  13.086  71.005  1.00  0.00    -0.299 A  
HETATM   25 CL   UNL     1     -12.867  11.558  71.768  1.00  0.00    -0.486 Cl 
ENDBRANCH  17  18
ENDBRANCH  16  17
ENDBRANCH   9  16
ENDBRANCH   6   9
TORSDOF 6
ENDMDL
MODEL      235
REMARK 921   NORMALIZED FREE ENERGY PREDICTED BY IDOCK:   -4.16 KCAL/MOL
REMARK 922        TOTAL FREE ENERGY PREDICTED BY IDOCK:   -6.64 KCAL/MOL
REMARK 923 INTER-LIGAND FREE ENERGY PREDICTED BY IDOCK:   -5.82 KCAL/MOL
REMARK 924 INTRA-LIGAND FREE ENERGY PREDICTED BY IDOCK:   -0.81 KCAL/MOL
REMARK 927      BINDING AFFINITY PREDICTED BY RF-SCORE:    0.00 PKD
ROOT
HETATM    1 CL   UNL     1     -11.434  15.920  64.272  1.00  0.00    -0.333 Cl 
HETATM    2  C   UNL     1     -11.242  14.746  65.513  1.00  0.00    -0.346 A  
HETATM    3  C   UNL     1     -10.873  13.443  65.183  1.00  0.00    -0.322 A  
HETATM    4  C   UNL     1     -10.668  12.500  66.195  1.00  0.00    -0.261 A  
HETATM    5 CL   UNL     1     -10.214  10.903  65.715  1.00  0.00    -0.308 Cl 
HETATM    6  C   UNL     1     -10.822  12.854  67.545  1.00  0.00    -0.256 A  
HETATM    7  C   UNL     1     -11.231  14.170  67.846  1.00  0.00    -0.299 A  
HETATM    8  C   UNL     1     -11.437  15.111  66.839  1.00  0.00    -0.215 A  
ENDROOT
BRANCH   6   9
HETATM    9  C   UNL     1     -10.499  11.895  68.684  1.00  0.00    -0.212 C  
BRANCH   9  10
HETATM   10  C   UNL     1     -11.690  10.958  69.006  1.00  0.00    -0.320 C  
BRANCH  10  11
HETATM   11  N   UNL     1     -12.370  11.211  70.264  1.00  0.00    -0.318 NA 
HETATM   12  C   UNL     1     -12.588  12.435  70.834  1.00  0.00    -0.246 A  
HETATM   13  C   UNL     1     -12.969  10.282  71.068  1.00  0.00    -0.397 A  
HETATM   14  N   UNL     1     -13.428  10.821  72.174  1.00  0.00    -0.280 NA 
HETATM   15  C   UNL     1     -13.197  12.165  72.037  1.00  0.00    -0.391 A  
ENDBRANCH  10  11
ENDBRANCH   9  10
BRANCH   9  16
HETATM   16  O   UNL     1      -9.332  11.104  68.401  1.00  0.00    -0.171 OA 
BRANCH  16  17
HETATM   17  C   UNL     1      -9.324   9.844  69.076  1.00  0.00    -0.174 C  
BRANCH  17  18
HETATM   18  C   UNL     1      -8.444   8.892  68.312  1.00  0.00    -0.130 A  
HETATM   19  C   UNL     1      -7.040   8.938  68.392  1.00  0.00    -0.077 A  
HETATM   20 CL   UNL     1      -6.198  10.113  69.342  1.00  0.00    -0.044 Cl 
HETATM   21  C   UNL     1      -6.835   7.036  66.905  1.00  0.00    -0.064 A  
HETATM   22  C   UNL     1      -6.247   8.016  67.697  1.00  0.00    -0.052 A  
HETATM   23  C   UNL     1      -8.221   6.992  66.788  1.00  0.00    -0.111 A  
HETATM   24  C   UNL     1      -9.016   7.911  67.477  1.00  0.00    -0.127 A  
HETATM   25 CL   UNL     1     -10.730   7.779  67.264  1.00  0.00    -0.369 Cl 
ENDBRANCH  17  18
ENDBRANCH  16  17
ENDBRANCH   9  16
ENDBRANCH   6   9
TORSDOF 6
ENDMDL
MODEL      236
REMARK 921   NORMALIZED FREE ENERGY PREDICTED BY IDOCK:   -4.16 KCAL/MOL
REMARK 922        TOTAL FREE ENERGY PREDICTED BY IDOCK:   -6.63 KCAL/MOL
REMARK 923 INTER-LIGAND FREE ENERGY PREDICTED BY IDOCK:   -5.55 KCAL/MOL
REMARK 924 INTRA-LIGAND FREE ENERGY PREDICTED BY IDOCK:   -1.08 KCAL/MOL
REMARK 927      BINDING AFFINITY PREDICTED BY RF-SCORE:    0.00 PKD
ROOT
HETATM    1 CL   UNL     1     -10.877  15.643  67.526  1.00  0.00    -0.313 Cl 
HETATM    2  C   UNL     1     -10.583  13.970  67.795  1.00  0.00    -0.242 A  
HETATM    3  C   UNL     1      -9.273  13.503  67.885  1.00  0.00    -0.211 A  
HETATM    4  C   UNL     1      -9.032  12.153  68.153  1.00  0.00    -0.195 A  
HETATM    5 CL   UNL     1      -7.384  11.641  68.250  1.00  0.00    -0.087 Cl 
HETATM    6  C   UNL     1     -10.099  11.259  68.340  1.00  0.00    -0.202 A  
HETATM    7  C   UNL     1     -11.413  11.754  68.207  1.00  0.00    -0.370 A  
HETATM    8  C   UNL     1     -11.655  13.099  67.939  1.00  0.00    -0.375 A  
ENDROOT
BRANCH   6   9
HETATM    9  C   UNL     1      -9.887   9.806  68.747  1.00  0.00    -0.169 C  
BRANCH   9  10
HETATM   10  C   UNL     1      -9.849   9.635  70.286  1.00  0.00    -0.266 C  
BRANCH  10  11
HETATM   11  N   UNL     1     -11.103   9.258  70.911  1.00  0.00    -0.279 NA 
HETATM   12  C   UNL     1     -11.482   7.992  71.265  1.00  0.00    -0.269 A  
HETATM   13  C   UNL     1     -12.099  10.102  71.316  1.00  0.00    -0.394 A  
HETATM   14  N   UNL     1     -13.138   9.443  71.774  1.00  0.00    -0.379 NA 
HETATM   15  C   UNL     1     -12.762   8.126  71.749  1.00  0.00    -0.330 A  
ENDBRANCH  10  11
ENDBRANCH   9  10
BRANCH   9  16
HETATM   16  O   UNL     1     -10.900   8.945  68.196  1.00  0.00    -0.136 OA 
BRANCH  16  17
HETATM   17  C   UNL     1     -10.660   8.589  66.832  1.00  0.00    -0.209 C  
BRANCH  17  18
HETATM   18  C   UNL     1      -9.391   7.782  66.759  1.00  0.00    -0.227 A  
HETATM   19  C   UNL     1      -8.226   8.268  66.139  1.00  0.00    -0.119 A  
HETATM   20 CL   UNL     1      -8.155   9.817  65.371  1.00  0.00    -0.122 Cl 
HETATM   21  C   UNL     1      -7.012   6.249  66.706  1.00  0.00    -0.068 A  
HETATM   22  C   UNL     1      -7.049   7.508  66.116  1.00  0.00    -0.070 A  
HETATM   23  C   UNL     1      -8.163   5.737  67.299  1.00  0.00    -0.102 A  
HETATM   24  C   UNL     1      -9.339   6.491  67.320  1.00  0.00    -0.121 A  
HETATM   25 CL   UNL     1     -10.719   5.765  68.077  1.00  0.00    -0.301 Cl 
ENDBRANCH  17  18
ENDBRANCH  16  17
ENDBRANCH   9  16
ENDBRANCH   6   9
TORSDOF 6
ENDMDL
MODEL      237
REMARK 921   NORMALIZED FREE ENERGY PREDICTED BY IDOCK:   -4.14 KCAL/MOL
REMARK 922        TOTAL FREE ENERGY PREDICTED BY IDOCK:   -6.61 KCAL/MOL
REMARK 923 INTER-LIGAND FREE ENERGY PREDICTED BY IDOCK:   -5.76 KCAL/MOL
REMARK 924 INTRA-LIGAND FREE ENERGY PREDICTED BY IDOCK:   -0.85 KCAL/MOL
REMARK 927      BINDING AFFINITY PREDICTED BY RF-SCORE:    0.00 PKD
ROOT
HETATM    1 CL   UNL     1     -14.410   7.126  72.005  1.00  0.00    -0.441 Cl 
HETATM    2  C   UNL     1     -12.926   7.618  71.290  1.00  0.00    -0.246 A  
HETATM    3  C   UNL     1     -12.301   6.795  70.355  1.00  0.00    -0.069 A  
HETATM    4  C   UNL     1     -11.121   7.216  69.736  1.00  0.00    -0.210 A  
HETATM    5 CL   UNL     1     -10.398   6.145  68.588  1.00  0.00    -0.221 Cl 
HETATM    6  C   UNL     1     -10.559   8.466  70.041  1.00  0.00    -0.235 A  
HETATM    7  C   UNL     1     -11.195   9.261  71.017  1.00  0.00    -0.392 A  
HETATM    8  C   UNL     1     -12.371   8.843  71.636  1.00  0.00    -0.405 A  
ENDROOT
BRANCH   6   9
HETATM    9  C   UNL     1      -9.340   9.016  69.310  1.00  0.00    -0.150 C  
BRANCH   9  10
HETATM   10  C   UNL     1      -8.069   8.175  69.593  1.00  0.00    -0.118 C  
BRANCH  10  11
HETATM   11  N   UNL     1      -7.756   7.956  70.993  1.00  0.00    -0.081 NA 
HETATM   12  C   UNL     1      -7.938   6.792  71.690  1.00  0.00    -0.102 A  
HETATM   13  C   UNL     1      -7.167   8.846  71.846  1.00  0.00     0.052 A  
HETATM   14  N   UNL     1      -7.092   8.371  73.068  1.00  0.00    -0.234 NA 
HETATM   15  C   UNL     1      -7.568   7.089  72.980  1.00  0.00    -0.083 A  
ENDBRANCH  10  11
ENDBRANCH   9  10
BRANCH   9  16
HETATM   16  O   UNL     1      -9.558   9.090  67.891  1.00  0.00    -0.143 OA 
BRANCH  16  17
HETATM   17  C   UNL     1      -8.911  10.208  67.277  1.00  0.00    -0.135 C  
BRANCH  17  18
HETATM   18  C   UNL     1      -9.917  10.945  66.434  1.00  0.00    -0.266 A  
HETATM   19  C   UNL     1     -10.104  10.665  65.068  1.00  0.00    -0.321 A  
HETATM   20 CL   UNL     1      -9.170   9.477  64.225  1.00  0.00    -0.238 Cl 
HETATM   21  C   UNL     1     -11.869  12.317  64.909  1.00  0.00    -0.417 A  
HETATM   22  C   UNL     1     -11.072  11.343  64.317  1.00  0.00    -0.356 A  
HETATM   23  C   UNL     1     -11.680  12.631  66.252  1.00  0.00    -0.460 A  
HETATM   24  C   UNL     1     -10.713  11.959  67.004  1.00  0.00    -0.240 A  
HETATM   25 CL   UNL     1     -10.550  12.424  68.665  1.00  0.00    -0.247 Cl 
ENDBRANCH  17  18
ENDBRANCH  16  17
ENDBRANCH   9  16
ENDBRANCH   6   9
TORSDOF 6
ENDMDL
MODEL      238
REMARK 921   NORMALIZED FREE ENERGY PREDICTED BY IDOCK:   -4.13 KCAL/MOL
REMARK 922        TOTAL FREE ENERGY PREDICTED BY IDOCK:   -6.60 KCAL/MOL
REMARK 923 INTER-LIGAND FREE ENERGY PREDICTED BY IDOCK:   -5.08 KCAL/MOL
REMARK 924 INTRA-LIGAND FREE ENERGY PREDICTED BY IDOCK:   -1.52 KCAL/MOL
REMARK 927      BINDING AFFINITY PREDICTED BY RF-SCORE:    0.00 PKD
ROOT
HETATM    1 CL   UNL     1      -8.562   2.136  74.221  1.00  0.00    -0.058 Cl 
HETATM    2  C   UNL     1      -8.916   3.485  73.216  1.00  0.00    -0.098 A  
HETATM    3  C   UNL     1      -8.030   4.560  73.164  1.00  0.00    -0.095 A  
HETATM    4  C   UNL     1      -8.291   5.636  72.309  1.00  0.00    -0.119 A  
HETATM    5 CL   UNL     1      -7.152   6.937  72.296  1.00  0.00    -0.073 Cl 
HETATM    6  C   UNL     1      -9.435   5.642  71.495  1.00  0.00    -0.177 A  
HETATM    7  C   UNL     1     -10.330   4.557  71.596  1.00  0.00    -0.160 A  
HETATM    8  C   UNL     1     -10.072   3.485  72.447  1.00  0.00    -0.232 A  
ENDROOT
BRANCH   6   9
HETATM    9  C   UNL     1      -9.701   6.735  70.467  1.00  0.00    -0.176 C  
BRANCH   9  10
HETATM   10  C   UNL     1     -10.070   6.148  69.081  1.00  0.00    -0.170 C  
BRANCH  10  11
HETATM   11  N   UNL     1      -9.815   7.011  67.942  1.00  0.00    -0.135 NA 
HETATM   12  C   UNL     1      -8.617   7.170  67.299  1.00  0.00    -0.121 A  
HETATM   13  C   UNL     1     -10.734   7.766  67.270  1.00  0.00    -0.255 A  
HETATM   14  N   UNL     1     -10.171   8.497  66.335  1.00  0.00    -0.224 NA 
HETATM   15  C   UNL     1      -8.851   8.130  66.343  1.00  0.00    -0.155 A  
ENDBRANCH  10  11
ENDBRANCH   9  10
BRANCH   9  16
HETATM   16  O   UNL     1     -10.740   7.630  70.898  1.00  0.00    -0.229 OA 
BRANCH  16  17
HETATM   17  C   UNL     1     -10.245   8.885  71.372  1.00  0.00    -0.305 C  
BRANCH  17  18
HETATM   18  C   UNL     1     -10.462   9.924  70.305  1.00  0.00    -0.348 A  
HETATM   19  C   UNL     1     -11.715  10.523  70.081  1.00  0.00    -0.326 A  
HETATM   20 CL   UNL     1     -13.127  10.094  70.984  1.00  0.00    -0.467 Cl 
HETATM   21  C   UNL     1     -10.800  11.921  68.327  1.00  0.00    -0.261 A  
HETATM   22  C   UNL     1     -11.878  11.513  69.104  1.00  0.00    -0.406 A  
HETATM   23  C   UNL     1      -9.558  11.320  68.511  1.00  0.00    -0.199 A  
HETATM   24  C   UNL     1      -9.391  10.330  69.483  1.00  0.00    -0.178 A  
HETATM   25 CL   UNL     1      -7.810   9.638  69.633  1.00  0.00    -0.112 Cl 
ENDBRANCH  17  18
ENDBRANCH  16  17
ENDBRANCH   9  16
ENDBRANCH   6   9
TORSDOF 6
ENDMDL
MODEL      239
REMARK 921   NORMALIZED FREE ENERGY PREDICTED BY IDOCK:   -4.12 KCAL/MOL
REMARK 922        TOTAL FREE ENERGY PREDICTED BY IDOCK:   -6.58 KCAL/MOL
REMARK 923 INTER-LIGAND FREE ENERGY PREDICTED BY IDOCK:   -5.69 KCAL/MOL
REMARK 924 INTRA-LIGAND FREE ENERGY PREDICTED BY IDOCK:   -0.89 KCAL/MOL
REMARK 927      BINDING AFFINITY PREDICTED BY RF-SCORE:    0.00 PKD
ROOT
HETATM    1 CL   UNL     1     -12.348  14.624  64.432  1.00  0.00    -0.486 Cl 
HETATM    2  C   UNL     1     -11.814  13.571  65.682  1.00  0.00    -0.369 A  
HETATM    3  C   UNL     1     -11.215  12.356  65.355  1.00  0.00    -0.358 A  
HETATM    4  C   UNL     1     -10.735  11.521  66.368  1.00  0.00    -0.273 A  
HETATM    5 CL   UNL     1     -10.006  10.028  65.893  1.00  0.00    -0.330 Cl 
HETATM    6  C   UNL     1     -10.843  11.898  67.717  1.00  0.00    -0.254 A  
HETATM    7  C   UNL     1     -11.486  13.117  68.018  1.00  0.00    -0.346 A  
HETATM    8  C   UNL     1     -11.966  13.950  67.009  1.00  0.00    -0.459 A  
ENDROOT
BRANCH   6   9
HETATM    9  C   UNL     1     -10.234  11.077  68.847  1.00  0.00    -0.203 C  
BRANCH   9  10
HETATM   10  C   UNL     1     -11.043   9.786  69.124  1.00  0.00    -0.123 C  
BRANCH  10  11
HETATM   11  N   UNL     1     -11.819   9.777  70.351  1.00  0.00    -0.231 NA 
HETATM   12  C   UNL     1     -12.759  10.701  70.721  1.00  0.00    -0.378 A  
HETATM   13  C   UNL     1     -11.798   8.816  71.323  1.00  0.00    -0.303 A  
HETATM   14  N   UNL     1     -12.557   9.142  72.344  1.00  0.00    -0.349 NA 
HETATM   15  C   UNL     1     -13.163  10.314  71.977  1.00  0.00    -0.411 A  
ENDBRANCH  10  11
ENDBRANCH   9  10
BRANCH   9  16
HETATM   16  O   UNL     1      -8.864  10.735  68.579  1.00  0.00    -0.135 OA 
BRANCH  16  17
HETATM   17  C   UNL     1      -8.457   9.508  69.190  1.00  0.00    -0.131 C  
BRANCH  17  18
HETATM   18  C   UNL     1      -7.468   8.823  68.286  1.00  0.00    -0.092 A  
HETATM   19  C   UNL     1      -7.791   7.663  67.557  1.00  0.00    -0.119 A  
HETATM   20 CL   UNL     1      -9.340   6.899  67.663  1.00  0.00    -0.121 Cl 
HETATM   21  C   UNL     1      -5.589   7.610  66.549  1.00  0.00    -0.025 A  
HETATM   22  C   UNL     1      -6.861   7.067  66.697  1.00  0.00    -0.068 A  
HETATM   23  C   UNL     1      -5.238   8.739  67.284  1.00  0.00    -0.033 A  
HETATM   24  C   UNL     1      -6.162   9.335  68.146  1.00  0.00    -0.053 A  
HETATM   25 CL   UNL     1      -5.629  10.733  69.020  1.00  0.00    -0.041 Cl 
ENDBRANCH  17  18
ENDBRANCH  16  17
ENDBRANCH   9  16
ENDBRANCH   6   9
TORSDOF 6
ENDMDL
MODEL      240
REMARK 921   NORMALIZED FREE ENERGY PREDICTED BY IDOCK:   -4.11 KCAL/MOL
REMARK 922        TOTAL FREE ENERGY PREDICTED BY IDOCK:   -6.57 KCAL/MOL
REMARK 923 INTER-LIGAND FREE ENERGY PREDICTED BY IDOCK:   -5.76 KCAL/MOL
REMARK 924 INTRA-LIGAND FREE ENERGY PREDICTED BY IDOCK:   -0.81 KCAL/MOL
REMARK 927      BINDING AFFINITY PREDICTED BY RF-SCORE:    0.00 PKD
ROOT
HETATM    1 CL   UNL     1      -6.003  16.021  69.918  1.00  0.00    -0.167 Cl 
HETATM    2  C   UNL     1      -6.872  14.718  69.209  1.00  0.00    -0.144 A  
HETATM    3  C   UNL     1      -6.366  13.422  69.292  1.00  0.00    -0.110 A  
HETATM    4  C   UNL     1      -7.095  12.354  68.760  1.00  0.00    -0.098 A  
HETATM    5 CL   UNL     1      -6.408  10.774  68.897  1.00  0.00    -0.044 Cl 
HETATM    6  C   UNL     1      -8.339  12.573  68.147  1.00  0.00    -0.175 A  
HETATM    7  C   UNL     1      -8.807  13.899  68.045  1.00  0.00    -0.184 A  
HETATM    8  C   UNL     1      -8.082  14.964  68.574  1.00  0.00    -0.147 A  
ENDROOT
BRANCH   6   9
HETATM    9  C   UNL     1      -9.221  11.431  67.655  1.00  0.00    -0.158 C  
BRANCH   9  10
HETATM   10  C   UNL     1      -8.534  10.612  66.534  1.00  0.00    -0.144 C  
BRANCH  10  11
HETATM   11  N   UNL     1      -9.111  10.750  65.208  1.00  0.00    -0.191 NA 
HETATM   12  C   UNL     1     -10.346  11.258  64.911  1.00  0.00    -0.304 A  
HETATM   13  C   UNL     1      -8.501  10.457  64.021  1.00  0.00    -0.160 A  
HETATM   14  N   UNL     1      -9.318  10.616  63.005  1.00  0.00    -0.290 NA 
HETATM   15  C   UNL     1     -10.470  11.118  63.550  1.00  0.00    -0.358 A  
ENDBRANCH  10  11
ENDBRANCH   9  10
BRANCH   9  16
HETATM   16  O   UNL     1      -9.599  10.550  68.727  1.00  0.00    -0.163 OA 
BRANCH  16  17
HETATM   17  C   UNL     1     -10.885   9.954  68.543  1.00  0.00    -0.217 C  
BRANCH  17  18
HETATM   18  C   UNL     1     -11.633  10.007  69.849  1.00  0.00    -0.237 A  
HETATM   19  C   UNL     1     -12.243  11.184  70.319  1.00  0.00    -0.352 A  
HETATM   20 CL   UNL     1     -12.156  12.685  69.462  1.00  0.00    -0.297 Cl 
HETATM   21  C   UNL     1     -13.083  10.036  72.280  1.00  0.00    -0.385 A  
HETATM   22  C   UNL     1     -12.962  11.195  71.521  1.00  0.00    -0.542 A  
HETATM   23  C   UNL     1     -12.462   8.867  71.848  1.00  0.00    -0.445 A  
HETATM   24  C   UNL     1     -11.741   8.854  70.651  1.00  0.00    -0.179 A  
HETATM   25 CL   UNL     1     -11.000   7.353  70.201  1.00  0.00    -0.270 Cl 
ENDBRANCH  17  18
ENDBRANCH  16  17
ENDBRANCH   9  16
ENDBRANCH   6   9
TORSDOF 6
ENDMDL
MODEL      241
REMARK 921   NORMALIZED FREE ENERGY PREDICTED BY IDOCK:   -4.11 KCAL/MOL
REMARK 922        TOTAL FREE ENERGY PREDICTED BY IDOCK:   -6.57 KCAL/MOL
REMARK 923 INTER-LIGAND FREE ENERGY PREDICTED BY IDOCK:   -5.86 KCAL/MOL
REMARK 924 INTRA-LIGAND FREE ENERGY PREDICTED BY IDOCK:   -0.71 KCAL/MOL
REMARK 927      BINDING AFFINITY PREDICTED BY RF-SCORE:    0.00 PKD
ROOT
HETATM    1 CL   UNL     1     -13.509  10.383  70.911  1.00  0.00    -0.201 Cl 
HETATM    2  C   UNL     1     -12.383  11.283  69.974  1.00  0.00    -0.257 A  
HETATM    3  C   UNL     1     -12.430  12.675  69.985  1.00  0.00    -0.051 A  
HETATM    4  C   UNL     1     -11.483  13.410  69.264  1.00  0.00    -0.290 A  
HETATM    5 CL   UNL     1     -11.601  15.133  69.320  1.00  0.00    -0.321 Cl 
HETATM    6  C   UNL     1     -10.478  12.757  68.532  1.00  0.00    -0.252 A  
HETATM    7  C   UNL     1     -10.478  11.347  68.511  1.00  0.00    -0.223 A  
HETATM    8  C   UNL     1     -11.421  10.614  69.229  1.00  0.00    -0.351 A  
ENDROOT
BRANCH   6   9
HETATM    9  C   UNL     1      -9.359  13.513  67.825  1.00  0.00    -0.213 C  
BRANCH   9  10
HETATM   10  C   UNL     1      -8.599  12.613  66.819  1.00  0.00    -0.098 C  
BRANCH  10  11
HETATM   11  N   UNL     1      -7.288  12.157  67.246  1.00  0.00    -0.150 NA 
HETATM   12  C   UNL     1      -6.469  12.778  68.149  1.00  0.00    -0.085 A  
HETATM   13  C   UNL     1      -6.667  10.999  66.872  1.00  0.00    -0.120 A  
HETATM   14  N   UNL     1      -5.455  10.915  67.370  1.00  0.00    -0.044 NA 
HETATM   15  C   UNL     1      -5.323  12.020  68.170  1.00  0.00    -0.048 A  
ENDBRANCH  10  11
ENDBRANCH   9  10
BRANCH   9  16
HETATM   16  O   UNL     1      -9.852  14.680  67.145  1.00  0.00    -0.231 OA 
BRANCH  16  17
HETATM   17  C   UNL     1      -8.815  15.573  66.730  1.00  0.00    -0.265 C  
BRANCH  17  18
HETATM   18  C   UNL     1      -9.240  16.984  67.038  1.00  0.00    -0.247 A  
HETATM   19  C   UNL     1     -10.250  17.641  66.311  1.00  0.00    -0.362 A  
HETATM   20 CL   UNL     1     -11.066  16.904  64.975  1.00  0.00    -0.157 Cl 
HETATM   21  C   UNL     1     -10.047  19.616  67.701  1.00  0.00    -0.544 A  
HETATM   22  C   UNL     1     -10.649  18.942  66.643  1.00  0.00    -0.469 A  
HETATM   23  C   UNL     1      -9.025  18.995  68.413  1.00  0.00    -0.378 A  
HETATM   24  C   UNL     1      -8.622  17.699  68.083  1.00  0.00    -0.261 A  
HETATM   25 CL   UNL     1      -7.339  17.014  69.026  1.00  0.00    -0.241 Cl 
ENDBRANCH  17  18
ENDBRANCH  16  17
ENDBRANCH   9  16
ENDBRANCH   6   9
TORSDOF 6
ENDMDL
MODEL      242
REMARK 921   NORMALIZED FREE ENERGY PREDICTED BY IDOCK:   -4.11 KCAL/MOL
REMARK 922        TOTAL FREE ENERGY PREDICTED BY IDOCK:   -6.57 KCAL/MOL
REMARK 923 INTER-LIGAND FREE ENERGY PREDICTED BY IDOCK:   -6.67 KCAL/MOL
REMARK 924 INTRA-LIGAND FREE ENERGY PREDICTED BY IDOCK:    0.10 KCAL/MOL
REMARK 927      BINDING AFFINITY PREDICTED BY RF-SCORE:    0.00 PKD
ROOT
HETATM    1 CL   UNL     1     -10.382  19.723  66.070  1.00  0.00    -0.603 Cl 
HETATM    2  C   UNL     1     -10.193  18.187  66.820  1.00  0.00    -0.372 A  
HETATM    3  C   UNL     1     -10.656  17.989  68.120  1.00  0.00    -0.334 A  
HETATM    4  C   UNL     1     -10.548  16.728  68.713  1.00  0.00    -0.348 A  
HETATM    5 CL   UNL     1     -11.140  16.554  70.328  1.00  0.00    -0.290 Cl 
HETATM    6  C   UNL     1      -9.984  15.652  68.009  1.00  0.00    -0.222 A  
HETATM    7  C   UNL     1      -9.492  15.892  66.709  1.00  0.00    -0.254 A  
HETATM    8  C   UNL     1      -9.598  17.148  66.116  1.00  0.00    -0.242 A  
ENDROOT
BRANCH   6   9
HETATM    9  C   UNL     1      -9.949  14.236  68.570  1.00  0.00    -0.235 C  
BRANCH   9  10
HETATM   10  C   UNL     1     -11.302  13.506  68.381  1.00  0.00    -0.292 C  
BRANCH  10  11
HETATM   11  N   UNL     1     -11.841  12.857  69.563  1.00  0.00    -0.323 NA 
HETATM   12  C   UNL     1     -12.461  13.476  70.614  1.00  0.00    -0.333 A  
HETATM   13  C   UNL     1     -11.882  11.514  69.808  1.00  0.00    -0.357 A  
HETATM   14  N   UNL     1     -12.361  11.253  71.003  1.00  0.00    -0.380 NA 
HETATM   15  C   UNL     1     -12.727  12.471  71.512  1.00  0.00    -0.220 A  
ENDBRANCH  10  11
ENDBRANCH   9  10
BRANCH   9  16
HETATM   16  O   UNL     1      -8.897  13.454  67.978  1.00  0.00    -0.168 OA 
BRANCH  16  17
HETATM   17  C   UNL     1      -9.122  13.154  66.599  1.00  0.00    -0.173 C  
BRANCH  17  18
HETATM   18  C   UNL     1      -8.997  11.667  66.401  1.00  0.00    -0.198 A  
HETATM   19  C   UNL     1      -7.807  10.969  66.674  1.00  0.00    -0.153 A  
HETATM   20 CL   UNL     1      -6.369  11.760  67.224  1.00  0.00    -0.117 Cl 
HETATM   21  C   UNL     1      -8.835   8.859  66.074  1.00  0.00    -0.206 A  
HETATM   22  C   UNL     1      -7.730   9.580  66.514  1.00  0.00    -0.097 A  
HETATM   23  C   UNL     1     -10.014   9.534  65.769  1.00  0.00    -0.316 A  
HETATM   24  C   UNL     1     -10.093  10.920  65.924  1.00  0.00    -0.252 A  
HETATM   25 CL   UNL     1     -11.601  11.668  65.514  1.00  0.00    -0.187 Cl 
ENDBRANCH  17  18
ENDBRANCH  16  17
ENDBRANCH   9  16
ENDBRANCH   6   9
TORSDOF 6
ENDMDL
MODEL      243
REMARK 921   NORMALIZED FREE ENERGY PREDICTED BY IDOCK:   -4.09 KCAL/MOL
REMARK 922        TOTAL FREE ENERGY PREDICTED BY IDOCK:   -6.55 KCAL/MOL
REMARK 923 INTER-LIGAND FREE ENERGY PREDICTED BY IDOCK:   -5.72 KCAL/MOL
REMARK 924 INTRA-LIGAND FREE ENERGY PREDICTED BY IDOCK:   -0.83 KCAL/MOL
REMARK 927      BINDING AFFINITY PREDICTED BY RF-SCORE:    0.00 PKD
ROOT
HETATM    1 CL   UNL     1      -5.975  18.694  65.154  1.00  0.00    -0.287 Cl 
HETATM    2  C   UNL     1      -6.903  17.728  66.232  1.00  0.00    -0.272 A  
HETATM    3  C   UNL     1      -6.293  17.148  67.342  1.00  0.00    -0.174 A  
HETATM    4  C   UNL     1      -7.056  16.403  68.247  1.00  0.00    -0.142 A  
HETATM    5 CL   UNL     1      -6.235  15.711  69.601  1.00  0.00    -0.155 Cl 
HETATM    6  C   UNL     1      -8.437  16.239  68.052  1.00  0.00    -0.174 A  
HETATM    7  C   UNL     1      -9.019  16.807  66.901  1.00  0.00    -0.244 A  
HETATM    8  C   UNL     1      -8.261  17.549  65.998  1.00  0.00    -0.138 A  
ENDROOT
BRANCH   6   9
HETATM    9  C   UNL     1      -9.328  15.535  69.068  1.00  0.00    -0.235 C  
BRANCH   9  10
HETATM   10  C   UNL     1     -10.825  15.877  68.860  1.00  0.00    -0.274 C  
BRANCH  10  11
HETATM   11  N   UNL     1     -11.663  15.791  70.042  1.00  0.00    -0.346 NA 
HETATM   12  C   UNL     1     -11.314  16.166  71.311  1.00  0.00    -0.288 A  
HETATM   13  C   UNL     1     -12.966  15.381  70.089  1.00  0.00    -0.066 A  
HETATM   14  N   UNL     1     -13.417  15.342  71.322  1.00  0.00    -0.489 NA 
HETATM   15  C   UNL     1     -12.395  15.833  72.091  1.00  0.00    -0.456 A  
ENDBRANCH  10  11
ENDBRANCH   9  10
BRANCH   9  16
HETATM   16  O   UNL     1      -9.155  14.108  69.031  1.00  0.00    -0.052 OA 
BRANCH  16  17
HETATM   17  C   UNL     1      -9.022  13.588  67.706  1.00  0.00    -0.201 C  
BRANCH  17  18
HETATM   18  C   UNL     1      -9.385  12.127  67.721  1.00  0.00    -0.193 A  
HETATM   19  C   UNL     1      -8.417  11.113  67.843  1.00  0.00    -0.131 A  
HETATM   20 CL   UNL     1      -6.723  11.450  67.948  1.00  0.00    -0.062 Cl 
HETATM   21  C   UNL     1     -10.126   9.396  67.810  1.00  0.00    -0.246 A  
HETATM   22  C   UNL     1      -8.787   9.763  67.890  1.00  0.00    -0.122 A  
HETATM   23  C   UNL     1     -11.097  10.382  67.658  1.00  0.00    -0.361 A  
HETATM   24  C   UNL     1     -10.732  11.730  67.608  1.00  0.00    -0.214 A  
HETATM   25 CL   UNL     1     -12.012  12.881  67.412  1.00  0.00    -0.401 Cl 
ENDBRANCH  17  18
ENDBRANCH  16  17
ENDBRANCH   9  16
ENDBRANCH   6   9
TORSDOF 6
ENDMDL
MODEL      244
REMARK 921   NORMALIZED FREE ENERGY PREDICTED BY IDOCK:   -4.09 KCAL/MOL
REMARK 922        TOTAL FREE ENERGY PREDICTED BY IDOCK:   -6.54 KCAL/MOL
REMARK 923 INTER-LIGAND FREE ENERGY PREDICTED BY IDOCK:   -5.93 KCAL/MOL
REMARK 924 INTRA-LIGAND FREE ENERGY PREDICTED BY IDOCK:   -0.61 KCAL/MOL
REMARK 927      BINDING AFFINITY PREDICTED BY RF-SCORE:    0.00 PKD
ROOT
HETATM    1 CL   UNL     1     -12.474  13.859  66.080  1.00  0.00    -0.493 Cl 
HETATM    2  C   UNL     1     -11.663  12.525  66.802  1.00  0.00    -0.384 A  
HETATM    3  C   UNL     1     -11.825  12.270  68.162  1.00  0.00    -0.372 A  
HETATM    4  C   UNL     1     -11.207  11.158  68.741  1.00  0.00    -0.253 A  
HETATM    5 CL   UNL     1     -11.449  10.902  70.433  1.00  0.00    -0.390 Cl 
HETATM    6  C   UNL     1     -10.428  10.287  67.962  1.00  0.00    -0.234 A  
HETATM    7  C   UNL     1     -10.253  10.591  66.597  1.00  0.00    -0.289 A  
HETATM    8  C   UNL     1     -10.867  11.700  66.018  1.00  0.00    -0.339 A  
ENDROOT
BRANCH   6   9
HETATM    9  C   UNL     1      -9.830   9.002  68.523  1.00  0.00    -0.169 C  
BRANCH   9  10
HETATM   10  C   UNL     1      -8.489   9.260  69.255  1.00  0.00    -0.137 C  
BRANCH  10  11
HETATM   11  N   UNL     1      -7.424   9.822  68.443  1.00  0.00    -0.082 NA 
HETATM   12  C   UNL     1      -6.804   9.213  67.387  1.00  0.00    -0.077 A  
HETATM   13  C   UNL     1      -6.896  11.078  68.548  1.00  0.00    -0.064 A  
HETATM   14  N   UNL     1      -5.892  11.253  67.721  1.00  0.00    -0.046 NA 
HETATM   15  C   UNL     1      -5.828  10.096  66.990  1.00  0.00    -0.050 A  
ENDBRANCH  10  11
ENDBRANCH   9  10
BRANCH   9  16
HETATM   16  O   UNL     1     -10.740   8.335  69.413  1.00  0.00    -0.221 OA 
BRANCH  16  17
HETATM   17  C   UNL     1     -10.875   6.937  69.142  1.00  0.00    -0.228 C  
BRANCH  17  18
HETATM   18  C   UNL     1     -10.686   6.175  70.426  1.00  0.00    -0.347 A  
HETATM   19  C   UNL     1     -11.618   6.232  71.478  1.00  0.00    -0.287 A  
HETATM   20 CL   UNL     1     -13.043   7.211  71.409  1.00  0.00    -0.435 Cl 
HETATM   21  C   UNL     1     -10.316   4.671  72.796  1.00  0.00    -0.244 A  
HETATM   22  C   UNL     1     -11.434   5.485  72.648  1.00  0.00    -0.331 A  
HETATM   23  C   UNL     1      -9.366   4.623  71.779  1.00  0.00    -0.190 A  
HETATM   24  C   UNL     1      -9.545   5.370  70.612  1.00  0.00    -0.172 A  
HETATM   25 CL   UNL     1      -8.306   5.247  69.407  1.00  0.00    -0.094 Cl 
ENDBRANCH  17  18
ENDBRANCH  16  17
ENDBRANCH   9  16
ENDBRANCH   6   9
TORSDOF 6
ENDMDL
MODEL      245
REMARK 921   NORMALIZED FREE ENERGY PREDICTED BY IDOCK:   -4.07 KCAL/MOL
REMARK 922        TOTAL FREE ENERGY PREDICTED BY IDOCK:   -6.52 KCAL/MOL
REMARK 923 INTER-LIGAND FREE ENERGY PREDICTED BY IDOCK:   -6.02 KCAL/MOL
REMARK 924 INTRA-LIGAND FREE ENERGY PREDICTED BY IDOCK:   -0.50 KCAL/MOL
REMARK 927      BINDING AFFINITY PREDICTED BY RF-SCORE:    0.00 PKD
ROOT
HETATM    1 CL   UNL     1      -7.278   8.707  64.386  1.00  0.00    -0.094 Cl 
HETATM    2  C   UNL     1      -8.326   8.767  65.748  1.00  0.00    -0.134 A  
HETATM    3  C   UNL     1      -9.243   7.740  65.961  1.00  0.00    -0.139 A  
HETATM    4  C   UNL     1     -10.062   7.762  67.094  1.00  0.00    -0.258 A  
HETATM    5 CL   UNL     1     -11.179   6.458  67.296  1.00  0.00    -0.397 Cl 
HETATM    6  C   UNL     1      -9.964   8.807  68.027  1.00  0.00    -0.220 A  
HETATM    7  C   UNL     1      -9.052   9.850  67.766  1.00  0.00    -0.138 A  
HETATM    8  C   UNL     1      -8.236   9.830  66.637  1.00  0.00    -0.120 A  
ENDROOT
BRANCH   6   9
HETATM    9  C   UNL     1     -10.752   8.815  69.332  1.00  0.00    -0.169 C  
BRANCH   9  10
HETATM   10  C   UNL     1     -10.207   7.777  70.343  1.00  0.00    -0.197 C  
BRANCH  10  11
HETATM   11  N   UNL     1      -8.770   7.793  70.552  1.00  0.00    -0.139 NA 
HETATM   12  C   UNL     1      -7.861   6.938  69.991  1.00  0.00    -0.110 A  
HETATM   13  C   UNL     1      -8.064   8.699  71.293  1.00  0.00    -0.147 A  
HETATM   14  N   UNL     1      -6.789   8.391  71.348  1.00  0.00    -0.062 NA 
HETATM   15  C   UNL     1      -6.651   7.296  70.537  1.00  0.00    -0.047 A  
ENDBRANCH  10  11
ENDBRANCH   9  10
BRANCH   9  16
HETATM   16  O   UNL     1     -10.761  10.117  69.941  1.00  0.00    -0.255 OA 
BRANCH  16  17
HETATM   17  C   UNL     1     -11.644  11.039  69.296  1.00  0.00    -0.314 C  
BRANCH  17  18
HETATM   18  C   UNL     1     -12.202  11.978  70.332  1.00  0.00    -0.379 A  
HETATM   19  C   UNL     1     -12.975  11.528  71.417  1.00  0.00    -0.348 A  
HETATM   20 CL   UNL     1     -13.386   9.862  71.640  1.00  0.00    -0.479 Cl 
HETATM   21  C   UNL     1     -13.174  13.780  72.287  1.00  0.00    -0.563 A  
HETATM   22  C   UNL     1     -13.452  12.421  72.385  1.00  0.00    -0.294 A  
HETATM   23  C   UNL     1     -12.437  14.251  71.204  1.00  0.00    -0.433 A  
HETATM   24  C   UNL     1     -11.962  13.363  70.235  1.00  0.00    -0.308 A  
HETATM   25 CL   UNL     1     -11.058  14.046  68.924  1.00  0.00    -0.279 Cl 
ENDBRANCH  17  18
ENDBRANCH  16  17
ENDBRANCH   9  16
ENDBRANCH   6   9
TORSDOF 6
ENDMDL
MODEL      246
REMARK 921   NORMALIZED FREE ENERGY PREDICTED BY IDOCK:   -4.07 KCAL/MOL
REMARK 922        TOTAL FREE ENERGY PREDICTED BY IDOCK:   -6.52 KCAL/MOL
REMARK 923 INTER-LIGAND FREE ENERGY PREDICTED BY IDOCK:   -6.44 KCAL/MOL
REMARK 924 INTRA-LIGAND FREE ENERGY PREDICTED BY IDOCK:   -0.07 KCAL/MOL
REMARK 927      BINDING AFFINITY PREDICTED BY RF-SCORE:    0.00 PKD
ROOT
HETATM    1 CL   UNL     1     -11.682   5.360  72.641  1.00  0.00    -0.288 Cl 
HETATM    2  C   UNL     1     -11.254   6.822  71.842  1.00  0.00    -0.260 A  
HETATM    3  C   UNL     1     -12.034   7.963  72.022  1.00  0.00    -0.364 A  
HETATM    4  C   UNL     1     -11.660   9.165  71.414  1.00  0.00    -0.341 A  
HETATM    5 CL   UNL     1     -12.673  10.540  71.677  1.00  0.00    -0.541 Cl 
HETATM    6  C   UNL     1     -10.499   9.237  70.627  1.00  0.00    -0.325 A  
HETATM    7  C   UNL     1      -9.750   8.058  70.435  1.00  0.00    -0.178 A  
HETATM    8  C   UNL     1     -10.122   6.859  71.039  1.00  0.00    -0.206 A  
ENDROOT
BRANCH   6   9
HETATM    9  C   UNL     1      -9.989  10.548  70.039  1.00  0.00     0.167 C  
BRANCH   9  10
HETATM   10  C   UNL     1      -8.776  10.328  69.102  1.00  0.00    -0.172 C  
BRANCH  10  11
HETATM   11  N   UNL     1      -7.571  11.061  69.445  1.00  0.00    -0.101 NA 
HETATM   12  C   UNL     1      -6.576  10.635  70.282  1.00  0.00    -0.125 A  
HETATM   13  C   UNL     1      -7.186  12.275  68.948  1.00  0.00    -0.069 A  
HETATM   14  N   UNL     1      -6.084  12.704  69.519  1.00  0.00    -0.111 NA 
HETATM   15  C   UNL     1      -5.694  11.688  70.351  1.00  0.00    -0.158 A  
ENDBRANCH  10  11
ENDBRANCH   9  10
BRANCH   9  16
HETATM   16  O   UNL     1     -11.022  11.250  69.327  1.00  0.00    -0.232 OA 
BRANCH  16  17
HETATM   17  C   UNL     1     -11.136  10.854  67.958  1.00  0.00    -0.293 C  
BRANCH  17  18
HETATM   18  C   UNL     1     -11.316  12.086  67.112  1.00  0.00    -0.396 A  
HETATM   19  C   UNL     1     -11.781  13.303  67.645  1.00  0.00    -0.366 A  
HETATM   20 CL   UNL     1     -12.223  13.483  69.308  1.00  0.00    -0.314 Cl 
HETATM   21  C   UNL     1     -11.576  14.393  65.491  1.00  0.00    -0.347 A  
HETATM   22  C   UNL     1     -11.906  14.443  66.841  1.00  0.00    -0.433 A  
HETATM   23  C   UNL     1     -11.144  13.191  64.937  1.00  0.00    -0.335 A  
HETATM   24  C   UNL     1     -11.021  12.051  65.735  1.00  0.00    -0.307 A  
HETATM   25 CL   UNL     1     -10.479  10.603  64.953  1.00  0.00    -0.350 Cl 
ENDBRANCH  17  18
ENDBRANCH  16  17
ENDBRANCH   9  16
ENDBRANCH   6   9
TORSDOF 6
ENDMDL
MODEL      247
REMARK 921   NORMALIZED FREE ENERGY PREDICTED BY IDOCK:   -4.07 KCAL/MOL
REMARK 922        TOTAL FREE ENERGY PREDICTED BY IDOCK:   -6.51 KCAL/MOL
REMARK 923 INTER-LIGAND FREE ENERGY PREDICTED BY IDOCK:   -5.68 KCAL/MOL
REMARK 924 INTRA-LIGAND FREE ENERGY PREDICTED BY IDOCK:   -0.84 KCAL/MOL
REMARK 927      BINDING AFFINITY PREDICTED BY RF-SCORE:    0.00 PKD
ROOT
HETATM    1 CL   UNL     1      -7.246   8.244  64.104  1.00  0.00    -0.086 Cl 
HETATM    2  C   UNL     1      -8.267   8.588  65.444  1.00  0.00    -0.145 A  
HETATM    3  C   UNL     1      -9.069   7.582  65.979  1.00  0.00    -0.139 A  
HETATM    4  C   UNL     1      -9.862   7.846  67.100  1.00  0.00    -0.208 A  
HETATM    5 CL   UNL     1     -10.834   6.554  67.710  1.00  0.00    -0.359 Cl 
HETATM    6  C   UNL     1      -9.854   9.116  67.699  1.00  0.00    -0.217 A  
HETATM    7  C   UNL     1      -9.059  10.123  67.113  1.00  0.00    -0.149 A  
HETATM    8  C   UNL     1      -8.268   9.862  65.996  1.00  0.00    -0.119 A  
ENDROOT
BRANCH   6   9
HETATM    9  C   UNL     1     -10.611   9.419  68.986  1.00  0.00    -0.213 C  
BRANCH   9  10
HETATM   10  C   UNL     1      -9.985   8.701  70.208  1.00  0.00    -0.186 C  
BRANCH  10  11
HETATM   11  N   UNL     1      -8.534   8.649  70.235  1.00  0.00    -0.124 NA 
HETATM   12  C   UNL     1      -7.691   9.696  70.489  1.00  0.00    -0.128 A  
HETATM   13  C   UNL     1      -7.756   7.537  70.075  1.00  0.00    -0.094 A  
HETATM   14  N   UNL     1      -6.477   7.837  70.073  1.00  0.00    -0.034 NA 
HETATM   15  C   UNL     1      -6.427   9.181  70.333  1.00  0.00    -0.051 A  
ENDBRANCH  10  11
ENDBRANCH   9  10
BRANCH   9  16
HETATM   16  O   UNL     1     -10.680  10.831  69.245  1.00  0.00    -0.205 OA 
BRANCH  16  17
HETATM   17  C   UNL     1     -11.969  11.393  68.982  1.00  0.00    -0.320 C  
BRANCH  17  18
HETATM   18  C   UNL     1     -12.149  12.613  69.845  1.00  0.00    -0.322 A  
HETATM   19  C   UNL     1     -11.797  13.903  69.408  1.00  0.00    -0.334 A  
HETATM   20 CL   UNL     1     -11.091  14.200  67.857  1.00  0.00    -0.274 Cl 
HETATM   21  C   UNL     1     -12.570  14.882  71.485  1.00  0.00    -0.397 A  
HETATM   22  C   UNL     1     -12.009  15.024  70.220  1.00  0.00    -0.362 A  
HETATM   23  C   UNL     1     -12.897  13.611  71.950  1.00  0.00    -0.381 A  
HETATM   24  C   UNL     1     -12.684  12.490  71.143  1.00  0.00    -0.245 A  
HETATM   25 CL   UNL     1     -13.119  10.952  71.812  1.00  0.00    -0.586 Cl 
ENDBRANCH  17  18
ENDBRANCH  16  17
ENDBRANCH   9  16
ENDBRANCH   6   9
TORSDOF 6
ENDMDL
MODEL      248
REMARK 921   NORMALIZED FREE ENERGY PREDICTED BY IDOCK:   -4.06 KCAL/MOL
REMARK 922        TOTAL FREE ENERGY PREDICTED BY IDOCK:   -6.50 KCAL/MOL
REMARK 923 INTER-LIGAND FREE ENERGY PREDICTED BY IDOCK:   -5.75 KCAL/MOL
REMARK 924 INTRA-LIGAND FREE ENERGY PREDICTED BY IDOCK:   -0.76 KCAL/MOL
REMARK 927      BINDING AFFINITY PREDICTED BY RF-SCORE:    0.00 PKD
ROOT
HETATM    1 CL   UNL     1     -13.275   8.814  72.601  1.00  0.00    -0.400 Cl 
HETATM    2  C   UNL     1     -12.282   9.538  71.398  1.00  0.00    -0.371 A  
HETATM    3  C   UNL     1     -10.913   9.280  71.383  1.00  0.00    -0.429 A  
HETATM    4  C   UNL     1     -10.112   9.827  70.376  1.00  0.00    -0.252 A  
HETATM    5 CL   UNL     1      -8.421   9.468  70.419  1.00  0.00    -0.233 Cl 
HETATM    6  C   UNL     1     -10.674  10.632  69.372  1.00  0.00    -0.281 A  
HETATM    7  C   UNL     1     -12.056  10.905  69.435  1.00  0.00    -0.362 A  
HETATM    8  C   UNL     1     -12.856  10.361  70.437  1.00  0.00    -0.249 A  
ENDROOT
BRANCH   6   9
HETATM    9  C   UNL     1      -9.863  11.156  68.193  1.00  0.00    -0.180 C  
BRANCH   9  10
HETATM   10  C   UNL     1      -9.586  12.675  68.312  1.00  0.00    -0.208 C  
BRANCH  10  11
HETATM   11  N   UNL     1     -10.130  13.502  67.250  1.00  0.00    -0.233 NA 
HETATM   12  C   UNL     1      -9.435  14.401  66.487  1.00  0.00    -0.289 A  
HETATM   13  C   UNL     1     -11.413  13.485  66.780  1.00  0.00    -0.346 A  
HETATM   14  N   UNL     1     -11.608  14.409  65.868  1.00  0.00    -0.356 NA 
HETATM   15  C   UNL     1     -10.380  14.984  65.676  1.00  0.00    -0.353 A  
ENDBRANCH  10  11
ENDBRANCH   9  10
BRANCH   9  16
HETATM   16  O   UNL     1      -8.618  10.452  68.048  1.00  0.00    -0.121 OA 
BRANCH  16  17
HETATM   17  C   UNL     1      -8.545   9.670  66.853  1.00  0.00    -0.128 C  
BRANCH  17  18
HETATM   18  C   UNL     1      -8.194   8.254  67.224  1.00  0.00    -0.120 A  
HETATM   19  C   UNL     1      -6.866   7.836  67.424  1.00  0.00    -0.069 A  
HETATM   20 CL   UNL     1      -5.515   8.900  67.227  1.00  0.00    -0.037 Cl 
HETATM   21  C   UNL     1      -7.593   5.593  67.982  1.00  0.00    -0.085 A  
HETATM   22  C   UNL     1      -6.571   6.520  67.803  1.00  0.00    -0.061 A  
HETATM   23  C   UNL     1      -8.912   5.978  67.759  1.00  0.00    -0.111 A  
HETATM   24  C   UNL     1      -9.209   7.289  67.379  1.00  0.00    -0.128 A  
HETATM   25 CL   UNL     1     -10.880   7.669  67.120  1.00  0.00    -0.347 Cl 
ENDBRANCH  17  18
ENDBRANCH  16  17
ENDBRANCH   9  16
ENDBRANCH   6   9
TORSDOF 6
ENDMDL
MODEL      249
REMARK 921   NORMALIZED FREE ENERGY PREDICTED BY IDOCK:   -4.06 KCAL/MOL
REMARK 922        TOTAL FREE ENERGY PREDICTED BY IDOCK:   -6.50 KCAL/MOL
REMARK 923 INTER-LIGAND FREE ENERGY PREDICTED BY IDOCK:   -5.92 KCAL/MOL
REMARK 924 INTRA-LIGAND FREE ENERGY PREDICTED BY IDOCK:   -0.57 KCAL/MOL
REMARK 927      BINDING AFFINITY PREDICTED BY RF-SCORE:    0.00 PKD
ROOT
HETATM    1 CL   UNL     1     -10.758  18.770  67.491  1.00  0.00    -0.494 Cl 
HETATM    2  C   UNL     1     -10.484  17.097  67.779  1.00  0.00    -0.362 A  
HETATM    3  C   UNL     1     -11.409  16.360  68.516  1.00  0.00    -0.289 A  
HETATM    4  C   UNL     1     -11.213  14.990  68.709  1.00  0.00    -0.277 A  
HETATM    5 CL   UNL     1     -12.399  14.138  69.634  1.00  0.00    -0.354 Cl 
HETATM    6  C   UNL     1     -10.094  14.343  68.160  1.00  0.00    -0.226 A  
HETATM    7  C   UNL     1      -9.157  15.121  67.450  1.00  0.00    -0.199 A  
HETATM    8  C   UNL     1      -9.350  16.488  67.257  1.00  0.00    -0.227 A  
ENDROOT
BRANCH   6   9
HETATM    9  C   UNL     1      -9.897  12.834  68.246  1.00  0.00    -0.224 C  
BRANCH   9  10
HETATM   10  C   UNL     1     -10.920  12.067  67.371  1.00  0.00    -0.261 C  
BRANCH  10  11
HETATM   11  N   UNL     1     -10.937  12.419  65.963  1.00  0.00    -0.278 NA 
HETATM   12  C   UNL     1     -10.300  11.750  64.954  1.00  0.00    -0.289 A  
HETATM   13  C   UNL     1     -11.639  13.440  65.387  1.00  0.00    -0.314 A  
HETATM   14  N   UNL     1     -11.379  13.544  64.104  1.00  0.00    -0.369 NA 
HETATM   15  C   UNL     1     -10.547  12.492  63.823  1.00  0.00    -0.436 A  
ENDBRANCH  10  11
ENDBRANCH   9  10
BRANCH   9  16
HETATM   16  O   UNL     1      -8.564  12.448  67.872  1.00  0.00    -0.153 OA 
BRANCH  16  17
HETATM   17  C   UNL     1      -8.274  11.075  68.147  1.00  0.00    -0.124 C  
BRANCH  17  18
HETATM   18  C   UNL     1      -7.734  10.436  66.896  1.00  0.00    -0.111 A  
HETATM   19  C   UNL     1      -6.549  10.876  66.277  1.00  0.00    -0.126 A  
HETATM   20 CL   UNL     1      -5.627  12.212  66.875  1.00  0.00    -0.083 Cl 
HETATM   21  C   UNL     1      -6.727   9.156  64.579  1.00  0.00    -0.079 A  
HETATM   22  C   UNL     1      -6.051  10.239  65.133  1.00  0.00    -0.130 A  
HETATM   23  C   UNL     1      -7.917   8.725  65.158  1.00  0.00    -0.125 A  
HETATM   24  C   UNL     1      -8.418   9.359  66.297  1.00  0.00    -0.126 A  
HETATM   25 CL   UNL     1      -9.908   8.752  66.939  1.00  0.00    -0.269 Cl 
ENDBRANCH  17  18
ENDBRANCH  16  17
ENDBRANCH   9  16
ENDBRANCH   6   9
TORSDOF 6
ENDMDL
MODEL      250
REMARK 921   NORMALIZED FREE ENERGY PREDICTED BY IDOCK:   -4.06 KCAL/MOL
REMARK 922        TOTAL FREE ENERGY PREDICTED BY IDOCK:   -6.50 KCAL/MOL
REMARK 923 INTER-LIGAND FREE ENERGY PREDICTED BY IDOCK:   -5.96 KCAL/MOL
REMARK 924 INTRA-LIGAND FREE ENERGY PREDICTED BY IDOCK:   -0.54 KCAL/MOL
REMARK 927      BINDING AFFINITY PREDICTED BY RF-SCORE:    0.00 PKD
ROOT
HETATM    1 CL   UNL     1      -5.877   9.605  71.451  1.00  0.00    -0.071 Cl 
HETATM    2  C   UNL     1      -6.966   9.144  70.203  1.00  0.00    -0.056 A  
HETATM    3  C   UNL     1      -8.339   9.283  70.396  1.00  0.00    -0.224 A  
HETATM    4  C   UNL     1      -9.224   8.956  69.365  1.00  0.00    -0.146 A  
HETATM    5 CL   UNL     1     -10.914   9.152  69.673  1.00  0.00    -0.206 Cl 
HETATM    6  C   UNL     1      -8.744   8.494  68.129  1.00  0.00    -0.142 A  
HETATM    7  C   UNL     1      -7.352   8.329  67.976  1.00  0.00    -0.096 A  
HETATM    8  C   UNL     1      -6.468   8.653  69.003  1.00  0.00    -0.048 A  
ENDROOT
BRANCH   6   9
HETATM    9  C   UNL     1      -9.661   8.234  66.940  1.00  0.00    -0.207 C  
BRANCH   9  10
HETATM   10  C   UNL     1     -10.562   6.995  67.165  1.00  0.00    -0.341 C  
BRANCH  10  11
HETATM   11  N   UNL     1      -9.993   5.719  66.771  1.00  0.00    -0.160 NA 
HETATM   12  C   UNL     1      -8.814   5.186  67.218  1.00  0.00    -0.105 A  
HETATM   13  C   UNL     1     -10.558   4.796  65.936  1.00  0.00    -0.244 A  
HETATM   14  N   UNL     1      -9.754   3.781  65.719  1.00  0.00    -0.166 NA 
HETATM   15  C   UNL     1      -8.665   4.014  66.516  1.00  0.00    -0.116 A  
ENDBRANCH  10  11
ENDBRANCH   9  10
BRANCH   9  16
HETATM   16  O   UNL     1     -10.483   9.375  66.641  1.00  0.00    -0.233 OA 
BRANCH  16  17
HETATM   17  C   UNL     1      -9.740  10.497  66.157  1.00  0.00    -0.209 C  
BRANCH  17  18
HETATM   18  C   UNL     1     -10.681  11.426  65.439  1.00  0.00    -0.313 A  
HETATM   19  C   UNL     1     -10.748  11.492  64.035  1.00  0.00    -0.384 A  
HETATM   20 CL   UNL     1      -9.730  10.541  63.008  1.00  0.00    -0.357 Cl 
HETATM   21  C   UNL     1     -12.516  13.145  64.137  1.00  0.00    -0.348 A  
HETATM   22  C   UNL     1     -11.659  12.341  63.394  1.00  0.00    -0.530 A  
HETATM   23  C   UNL     1     -12.445  13.118  65.527  1.00  0.00    -0.516 A  
HETATM   24  C   UNL     1     -11.536  12.274  66.170  1.00  0.00    -0.374 A  
HETATM   25 CL   UNL     1     -11.520  12.316  67.902  1.00  0.00    -0.364 Cl 
ENDBRANCH  17  18
ENDBRANCH  16  17
ENDBRANCH   9  16
ENDBRANCH   6   9
TORSDOF 6
ENDMDL
MODEL      251
REMARK 921   NORMALIZED FREE ENERGY PREDICTED BY IDOCK:   -4.05 KCAL/MOL
REMARK 922        TOTAL FREE ENERGY PREDICTED BY IDOCK:   -6.48 KCAL/MOL
REMARK 923 INTER-LIGAND FREE ENERGY PREDICTED BY IDOCK:   -5.61 KCAL/MOL
REMARK 924 INTRA-LIGAND FREE ENERGY PREDICTED BY IDOCK:   -0.87 KCAL/MOL
REMARK 927      BINDING AFFINITY PREDICTED BY RF-SCORE:    0.00 PKD
ROOT
HETATM    1 CL   UNL     1      -7.106   9.094  69.310  1.00  0.00    -0.057 Cl 
HETATM    2  C   UNL     1      -7.531  10.541  68.483  1.00  0.00    -0.091 A  
HETATM    3  C   UNL     1      -8.095  10.472  67.211  1.00  0.00    -0.115 A  
HETATM    4  C   UNL     1      -8.486  11.644  66.557  1.00  0.00    -0.141 A  
HETATM    5 CL   UNL     1      -9.177  11.485  64.981  1.00  0.00    -0.102 Cl 
HETATM    6  C   UNL     1      -8.324  12.895  67.174  1.00  0.00    -0.158 A  
HETATM    7  C   UNL     1      -7.717  12.936  68.447  1.00  0.00    -0.133 A  
HETATM    8  C   UNL     1      -7.326  11.769  69.099  1.00  0.00    -0.005 A  
ENDROOT
BRANCH   6   9
HETATM    9  C   UNL     1      -8.839  14.187  66.552  1.00  0.00    -0.041 C  
BRANCH   9  10
HETATM   10  C   UNL     1     -10.332  14.433  66.881  1.00  0.00    -0.265 C  
BRANCH  10  11
HETATM   11  N   UNL     1     -11.258  14.271  65.775  1.00  0.00    -0.312 NA 
HETATM   12  C   UNL     1     -12.077  13.198  65.555  1.00  0.00    -0.442 A  
HETATM   13  C   UNL     1     -11.523  15.185  64.794  1.00  0.00    -0.383 A  
HETATM   14  N   UNL     1     -12.351  14.705  63.894  1.00  0.00    -0.744 NA 
HETATM   15  C   UNL     1     -12.704  13.467  64.362  1.00  0.00    -0.088 A  
ENDBRANCH  10  11
ENDBRANCH   9  10
BRANCH   9  16
HETATM   16  O   UNL     1      -8.064  15.325  66.968  1.00  0.00    -0.197 OA 
BRANCH  16  17
HETATM   17  C   UNL     1      -8.682  16.079  68.014  1.00  0.00    -0.171 C  
BRANCH  17  18
HETATM   18  C   UNL     1      -7.987  17.409  68.126  1.00  0.00    -0.233 A  
HETATM   19  C   UNL     1      -8.497  18.576  67.527  1.00  0.00    -0.261 A  
HETATM   20 CL   UNL     1      -9.944  18.582  66.579  1.00  0.00    -0.372 Cl 
HETATM   21  C   UNL     1      -6.675  19.901  68.421  1.00  0.00    -0.332 A  
HETATM   22  C   UNL     1      -7.847  19.808  67.678  1.00  0.00    -0.326 A  
HETATM   23  C   UNL     1      -6.137  18.752  68.996  1.00  0.00    -0.242 A  
HETATM   24  C   UNL     1      -6.781  17.521  68.846  1.00  0.00    -0.239 A  
HETATM   25 CL   UNL     1      -6.032  16.150  69.594  1.00  0.00    -0.161 Cl 
ENDBRANCH  17  18
ENDBRANCH  16  17
ENDBRANCH   9  16
ENDBRANCH   6   9
TORSDOF 6
ENDMDL
MODEL      252
REMARK 921   NORMALIZED FREE ENERGY PREDICTED BY IDOCK:   -4.04 KCAL/MOL
REMARK 922        TOTAL FREE ENERGY PREDICTED BY IDOCK:   -6.47 KCAL/MOL
REMARK 923 INTER-LIGAND FREE ENERGY PREDICTED BY IDOCK:   -6.18 KCAL/MOL
REMARK 924 INTRA-LIGAND FREE ENERGY PREDICTED BY IDOCK:   -0.29 KCAL/MOL
REMARK 927      BINDING AFFINITY PREDICTED BY RF-SCORE:    0.00 PKD
ROOT
HETATM    1 CL   UNL     1      -7.161   7.369  63.490  1.00  0.00    -0.062 Cl 
HETATM    2  C   UNL     1      -7.687   8.231  64.882  1.00  0.00    -0.115 A  
HETATM    3  C   UNL     1      -8.841   7.826  65.551  1.00  0.00    -0.048 A  
HETATM    4  C   UNL     1      -9.243   8.494  66.712  1.00  0.00    -0.172 A  
HETATM    5 CL   UNL     1     -10.684   7.941  67.490  1.00  0.00    -0.293 Cl 
HETATM    6  C   UNL     1      -8.491   9.567  67.216  1.00  0.00    -0.128 A  
HETATM    7  C   UNL     1      -7.349   9.977  66.497  1.00  0.00    -0.101 A  
HETATM    8  C   UNL     1      -6.947   9.313  65.340  1.00  0.00    -0.085 A  
ENDROOT
BRANCH   6   9
HETATM    9  C   UNL     1      -8.826  10.251  68.537  1.00  0.00    -0.127 C  
BRANCH   9  10
HETATM   10  C   UNL     1      -8.850  11.794  68.399  1.00  0.00    -0.161 C  
BRANCH  10  11
HETATM   11  N   UNL     1     -10.096  12.365  67.920  1.00  0.00    -0.203 NA 
HETATM   12  C   UNL     1     -10.876  13.274  68.581  1.00  0.00    -0.259 A  
HETATM   13  C   UNL     1     -10.677  12.148  66.702  1.00  0.00    -0.246 A  
HETATM   14  N   UNL     1     -11.840  12.750  66.606  1.00  0.00    -0.409 NA 
HETATM   15  C   UNL     1     -11.972  13.457  67.772  1.00  0.00    -0.324 A  
ENDBRANCH  10  11
ENDBRANCH   9  10
BRANCH   9  16
HETATM   16  O   UNL     1     -10.083   9.799  69.068  1.00  0.00    -0.171 OA 
BRANCH  16  17
HETATM   17  C   UNL     1     -10.077   9.655  70.491  1.00  0.00    -0.274 C  
BRANCH  17  18
HETATM   18  C   UNL     1     -11.362   8.995  70.914  1.00  0.00    -0.351 A  
HETATM   19  C   UNL     1     -12.515   9.733  71.238  1.00  0.00    -0.367 A  
HETATM   20 CL   UNL     1     -12.551  11.463  71.215  1.00  0.00    -0.498 Cl 
HETATM   21  C   UNL     1     -13.773   7.702  71.644  1.00  0.00    -0.454 A  
HETATM   22  C   UNL     1     -13.707   9.091  71.595  1.00  0.00    -0.442 A  
HETATM   23  C   UNL     1     -12.635   6.954  71.357  1.00  0.00    -0.400 A  
HETATM   24  C   UNL     1     -11.443   7.591  71.003  1.00  0.00    -0.278 A  
HETATM   25 CL   UNL     1     -10.081   6.573  70.670  1.00  0.00    -0.204 Cl 
ENDBRANCH  17  18
ENDBRANCH  16  17
ENDBRANCH   9  16
ENDBRANCH   6   9
TORSDOF 6
ENDMDL
MODEL      253
REMARK 921   NORMALIZED FREE ENERGY PREDICTED BY IDOCK:   -4.03 KCAL/MOL
REMARK 922        TOTAL FREE ENERGY PREDICTED BY IDOCK:   -6.46 KCAL/MOL
REMARK 923 INTER-LIGAND FREE ENERGY PREDICTED BY IDOCK:   -5.24 KCAL/MOL
REMARK 924 INTRA-LIGAND FREE ENERGY PREDICTED BY IDOCK:   -1.22 KCAL/MOL
REMARK 927      BINDING AFFINITY PREDICTED BY RF-SCORE:    0.00 PKD
ROOT
HETATM    1 CL   UNL     1     -12.923   9.685  71.716  1.00  0.00    -0.473 Cl 
HETATM    2  C   UNL     1     -11.841  10.322  70.540  1.00  0.00    -0.329 A  
HETATM    3  C   UNL     1     -12.280  11.309  69.660  1.00  0.00    -0.340 A  
HETATM    4  C   UNL     1     -11.389  11.864  68.736  1.00  0.00    -0.274 A  
HETATM    5 CL   UNL     1     -12.000  13.082  67.673  1.00  0.00    -0.385 Cl 
HETATM    6  C   UNL     1     -10.050  11.442  68.691  1.00  0.00    -0.217 A  
HETATM    7  C   UNL     1      -9.645  10.417  69.571  1.00  0.00    -0.182 A  
HETATM    8  C   UNL     1     -10.532   9.862  70.491  1.00  0.00    -0.330 A  
ENDROOT
BRANCH   6   9
HETATM    9  C   UNL     1      -9.016  12.096  67.783  1.00  0.00    -0.179 C  
BRANCH   9  10
HETATM   10  C   UNL     1      -8.148  13.128  68.545  1.00  0.00    -0.087 C  
BRANCH  10  11
HETATM   11  N   UNL     1      -8.489  14.523  68.329  1.00  0.00    -0.154 NA 
HETATM   12  C   UNL     1      -7.901  15.371  67.431  1.00  0.00    -0.188 A  
HETATM   13  C   UNL     1      -9.497  15.218  68.937  1.00  0.00    -0.218 A  
HETATM   14  N   UNL     1      -9.494  16.483  68.584  1.00  0.00    -0.234 NA 
HETATM   15  C   UNL     1      -8.504  16.588  67.643  1.00  0.00    -0.173 A  
ENDBRANCH  10  11
ENDBRANCH   9  10
BRANCH   9  16
HETATM   16  O   UNL     1      -8.163  11.122  67.158  1.00  0.00    -0.128 OA 
BRANCH  16  17
HETATM   17  C   UNL     1      -8.597  10.747  65.848  1.00  0.00    -0.179 C  
BRANCH  17  18
HETATM   18  C   UNL     1      -8.191   9.319  65.596  1.00  0.00    -0.119 A  
HETATM   19  C   UNL     1      -8.982   8.230  66.003  1.00  0.00    -0.181 A  
HETATM   20 CL   UNL     1     -10.470   8.428  66.863  1.00  0.00    -0.386 Cl 
HETATM   21  C   UNL     1      -7.413   6.655  65.039  1.00  0.00    -0.089 A  
HETATM   22  C   UNL     1      -8.596   6.913  65.723  1.00  0.00    -0.139 A  
HETATM   23  C   UNL     1      -6.601   7.717  64.654  1.00  0.00    -0.044 A  
HETATM   24  C   UNL     1      -6.981   9.033  64.933  1.00  0.00    -0.077 A  
HETATM   25 CL   UNL     1      -5.900  10.285  64.418  1.00  0.00    -0.135 Cl 
ENDBRANCH  17  18
ENDBRANCH  16  17
ENDBRANCH   9  16
ENDBRANCH   6   9
TORSDOF 6
ENDMDL
MODEL      254
REMARK 921   NORMALIZED FREE ENERGY PREDICTED BY IDOCK:   -4.02 KCAL/MOL
REMARK 922        TOTAL FREE ENERGY PREDICTED BY IDOCK:   -6.45 KCAL/MOL
REMARK 923 INTER-LIGAND FREE ENERGY PREDICTED BY IDOCK:   -5.30 KCAL/MOL
REMARK 924 INTRA-LIGAND FREE ENERGY PREDICTED BY IDOCK:   -1.16 KCAL/MOL
REMARK 927      BINDING AFFINITY PREDICTED BY RF-SCORE:    0.00 PKD
ROOT
HETATM    1 CL   UNL     1     -13.576   8.601  72.755  1.00  0.00    -0.269 Cl 
HETATM    2  C   UNL     1     -12.376   8.147  71.610  1.00  0.00    -0.314 A  
HETATM    3  C   UNL     1     -11.218   8.911  71.482  1.00  0.00    -0.396 A  
HETATM    4  C   UNL     1     -10.218   8.515  70.588  1.00  0.00    -0.197 A  
HETATM    5 CL   UNL     1      -8.809   9.509  70.478  1.00  0.00    -0.279 Cl 
HETATM    6  C   UNL     1     -10.367   7.349  69.819  1.00  0.00    -0.226 A  
HETATM    7  C   UNL     1     -11.565   6.618  69.944  1.00  0.00    -0.393 A  
HETATM    8  C   UNL     1     -12.562   7.010  70.835  1.00  0.00    -0.273 A  
ENDROOT
BRANCH   6   9
HETATM    9  C   UNL     1      -9.259   6.818  68.918  1.00  0.00    -0.131 C  
BRANCH   9  10
HETATM   10  C   UNL     1      -9.253   5.270  68.860  1.00  0.00    -0.118 C  
BRANCH  10  11
HETATM   11  N   UNL     1      -8.641   4.683  67.682  1.00  0.00    -0.103 NA 
HETATM   12  C   UNL     1      -7.301   4.619  67.413  1.00  0.00    -0.074 A  
HETATM   13  C   UNL     1      -9.286   4.038  66.664  1.00  0.00    -0.184 A  
HETATM   14  N   UNL     1      -8.457   3.692  65.706  1.00  0.00    -0.109 NA 
HETATM   15  C   UNL     1      -7.216   4.048  66.165  1.00  0.00    -0.068 A  
ENDBRANCH  10  11
ENDBRANCH   9  10
BRANCH   9  16
HETATM   16  O   UNL     1      -9.359   7.345  67.584  1.00  0.00    -0.132 OA 
BRANCH  16  17
HETATM   17  C   UNL     1      -8.424   8.393  67.317  1.00  0.00    -0.124 C  
BRANCH  17  18
HETATM   18  C   UNL     1      -8.865   9.133  66.083  1.00  0.00    -0.187 A  
HETATM   19  C   UNL     1      -8.290   8.899  64.821  1.00  0.00    -0.175 A  
HETATM   20 CL   UNL     1      -7.000   7.772  64.578  1.00  0.00    -0.058 Cl 
HETATM   21  C   UNL     1      -9.777  10.505  63.780  1.00  0.00    -0.385 A  
HETATM   22  C   UNL     1      -8.745   9.577  63.683  1.00  0.00    -0.239 A  
HETATM   23  C   UNL     1     -10.339  10.773  65.025  1.00  0.00    -0.357 A  
HETATM   24  C   UNL     1      -9.886  10.101  66.163  1.00  0.00    -0.237 A  
HETATM   25 CL   UNL     1     -10.645  10.508  67.667  1.00  0.00    -0.271 Cl 
ENDBRANCH  17  18
ENDBRANCH  16  17
ENDBRANCH   9  16
ENDBRANCH   6   9
TORSDOF 6
ENDMDL
MODEL      255
REMARK 921   NORMALIZED FREE ENERGY PREDICTED BY IDOCK:   -4.02 KCAL/MOL
REMARK 922        TOTAL FREE ENERGY PREDICTED BY IDOCK:   -6.45 KCAL/MOL
REMARK 923 INTER-LIGAND FREE ENERGY PREDICTED BY IDOCK:   -5.35 KCAL/MOL
REMARK 924 INTRA-LIGAND FREE ENERGY PREDICTED BY IDOCK:   -1.10 KCAL/MOL
REMARK 927      BINDING AFFINITY PREDICTED BY RF-SCORE:    0.00 PKD
ROOT
HETATM    1 CL   UNL     1     -10.276   3.332  72.444  1.00  0.00    -0.223 Cl 
HETATM    2  C   UNL     1      -9.894   4.750  71.551  1.00  0.00    -0.187 A  
HETATM    3  C   UNL     1      -9.670   5.951  72.221  1.00  0.00    -0.178 A  
HETATM    4  C   UNL     1      -9.310   7.094  71.501  1.00  0.00    -0.153 A  
HETATM    5 CL   UNL     1      -9.050   8.550  72.396  1.00  0.00    -0.323 Cl 
HETATM    6  C   UNL     1      -9.165   7.044  70.105  1.00  0.00    -0.152 A  
HETATM    7  C   UNL     1      -9.433   5.824  69.452  1.00  0.00    -0.162 A  
HETATM    8  C   UNL     1      -9.792   4.684  70.167  1.00  0.00    -0.306 A  
ENDROOT
BRANCH   6   9
HETATM    9  C   UNL     1      -8.665   8.232  69.292  1.00  0.00    -0.139 C  
BRANCH   9  10
HETATM   10  C   UNL     1      -7.121   8.239  69.167  1.00  0.00    -0.064 C  
BRANCH  10  11
HETATM   11  N   UNL     1      -6.410   9.023  70.161  1.00  0.00    -0.041 NA 
HETATM   12  C   UNL     1      -5.495   8.550  71.062  1.00  0.00    -0.032 A  
HETATM   13  C   UNL     1      -6.480  10.377  70.334  1.00  0.00    -0.125 A  
HETATM   14  N   UNL     1      -5.776  10.770  71.370  1.00  0.00    -0.339 NA 
HETATM   15  C   UNL     1      -5.156   9.639  71.830  1.00  0.00    -0.073 A  
ENDBRANCH  10  11
ENDBRANCH   9  10
BRANCH   9  16
HETATM   16  O   UNL     1      -9.250   8.263  67.979  1.00  0.00    -0.137 OA 
BRANCH  16  17
HETATM   17  C   UNL     1     -10.660   8.499  67.993  1.00  0.00    -0.137 C  
BRANCH  17  18
HETATM   18  C   UNL     1     -10.903   9.983  67.942  1.00  0.00    -0.323 A  
HETATM   19  C   UNL     1     -10.602  10.755  66.805  1.00  0.00    -0.250 A  
HETATM   20 CL   UNL     1      -9.893  10.077  65.379  1.00  0.00    -0.368 Cl 
HETATM   21  C   UNL     1     -11.438  12.763  67.873  1.00  0.00    -0.365 A  
HETATM   22  C   UNL     1     -10.871  12.129  66.772  1.00  0.00    -0.289 A  
HETATM   23  C   UNL     1     -11.715  12.023  69.020  1.00  0.00    -0.382 A  
HETATM   24  C   UNL     1     -11.446  10.653  69.057  1.00  0.00    -0.274 A  
HETATM   25 CL   UNL     1     -11.821   9.821  70.530  1.00  0.00    -0.326 Cl 
ENDBRANCH  17  18
ENDBRANCH  16  17
ENDBRANCH   9  16
ENDBRANCH   6   9
TORSDOF 6
ENDMDL
MODEL      256
REMARK 921   NORMALIZED FREE ENERGY PREDICTED BY IDOCK:   -4.02 KCAL/MOL
REMARK 922        TOTAL FREE ENERGY PREDICTED BY IDOCK:   -6.44 KCAL/MOL
REMARK 923 INTER-LIGAND FREE ENERGY PREDICTED BY IDOCK:   -5.28 KCAL/MOL
REMARK 924 INTRA-LIGAND FREE ENERGY PREDICTED BY IDOCK:   -1.17 KCAL/MOL
REMARK 927      BINDING AFFINITY PREDICTED BY RF-SCORE:    0.00 PKD
ROOT
HETATM    1 CL   UNL     1     -13.816   8.663  72.697  1.00  0.00    -0.347 Cl 
HETATM    2  C   UNL     1     -12.554   8.145  71.651  1.00  0.00    -0.320 A  
HETATM    3  C   UNL     1     -11.341   8.829  71.638  1.00  0.00    -0.390 A  
HETATM    4  C   UNL     1     -10.296   8.379  70.825  1.00  0.00    -0.195 A  
HETATM    5 CL   UNL     1      -8.819   9.276  70.857  1.00  0.00    -0.278 Cl 
HETATM    6  C   UNL     1     -10.454   7.237  70.023  1.00  0.00    -0.234 A  
HETATM    7  C   UNL     1     -11.706   6.587  70.030  1.00  0.00    -0.388 A  
HETATM    8  C   UNL     1     -12.748   7.034  70.839  1.00  0.00    -0.226 A  
ENDROOT
BRANCH   6   9
HETATM    9  C   UNL     1      -9.311   6.644  69.209  1.00  0.00    -0.142 C  
BRANCH   9  10
HETATM   10  C   UNL     1      -9.329   5.095  69.230  1.00  0.00    -0.123 C  
BRANCH  10  11
HETATM   11  N   UNL     1      -8.895   4.474  70.469  1.00  0.00    -0.096 NA 
HETATM   12  C   UNL     1      -9.542   3.476  71.144  1.00  0.00    -0.170 A  
HETATM   13  C   UNL     1      -7.736   4.730  71.146  1.00  0.00    -0.082 A  
HETATM   14  N   UNL     1      -7.675   4.060  72.273  1.00  0.00    -0.077 NA 
HETATM   15  C   UNL     1      -8.796   3.273  72.280  1.00  0.00    -0.087 A  
ENDBRANCH  10  11
ENDBRANCH   9  10
BRANCH   9  16
HETATM   16  O   UNL     1      -9.331   7.104  67.847  1.00  0.00    -0.129 OA 
BRANCH  16  17
HETATM   17  C   UNL     1      -8.397   8.156  67.591  1.00  0.00    -0.127 C  
BRANCH  17  18
HETATM   18  C   UNL     1      -8.817   8.881  66.340  1.00  0.00    -0.178 A  
HETATM   19  C   UNL     1      -9.878   9.805  66.327  1.00  0.00    -0.250 A  
HETATM   20 CL   UNL     1     -10.819  10.164  67.734  1.00  0.00    -0.328 Cl 
HETATM   21  C   UNL     1      -9.525  10.265  63.974  1.00  0.00    -0.356 A  
HETATM   22  C   UNL     1     -10.224  10.491  65.156  1.00  0.00    -0.358 A  
HETATM   23  C   UNL     1      -8.492   9.332  63.959  1.00  0.00    -0.202 A  
HETATM   24  C   UNL     1      -8.146   8.644  65.124  1.00  0.00    -0.143 A  
HETATM   25 CL   UNL     1      -6.850   7.500  65.002  1.00  0.00    -0.047 Cl 
ENDBRANCH  17  18
ENDBRANCH  16  17
ENDBRANCH   9  16
ENDBRANCH   6   9
TORSDOF 6
ENDMDL
MODEL      257
REMARK 921   NORMALIZED FREE ENERGY PREDICTED BY IDOCK:   -4.00 KCAL/MOL
REMARK 922        TOTAL FREE ENERGY PREDICTED BY IDOCK:   -6.43 KCAL/MOL
REMARK 923 INTER-LIGAND FREE ENERGY PREDICTED BY IDOCK:   -5.44 KCAL/MOL
REMARK 924 INTRA-LIGAND FREE ENERGY PREDICTED BY IDOCK:   -0.99 KCAL/MOL
REMARK 927      BINDING AFFINITY PREDICTED BY RF-SCORE:    0.00 PKD
ROOT
HETATM    1 CL   UNL     1      -6.461  16.446  68.802  1.00  0.00    -0.136 Cl 
HETATM    2  C   UNL     1      -7.452  15.227  68.102  1.00  0.00    -0.112 A  
HETATM    3  C   UNL     1      -7.156  13.884  68.322  1.00  0.00    -0.108 A  
HETATM    4  C   UNL     1      -7.989  12.892  67.795  1.00  0.00    -0.162 A  
HETATM    5 CL   UNL     1      -7.562  11.246  68.104  1.00  0.00    -0.099 Cl 
HETATM    6  C   UNL     1      -9.128  13.236  67.050  1.00  0.00    -0.232 A  
HETATM    7  C   UNL     1      -9.381  14.603  66.813  1.00  0.00    -0.275 A  
HETATM    8  C   UNL     1      -8.552  15.593  67.337  1.00  0.00    -0.192 A  
ENDROOT
BRANCH   6   9
HETATM    9  C   UNL     1     -10.126  12.197  66.553  1.00  0.00    -0.209 C  
BRANCH   9  10
HETATM   10  C   UNL     1     -11.562  12.487  67.056  1.00  0.00    -0.368 C  
BRANCH  10  11
HETATM   11  N   UNL     1     -11.869  12.019  68.396  1.00  0.00    -0.384 NA 
HETATM   12  C   UNL     1     -12.023  10.716  68.783  1.00  0.00     0.001 A  
HETATM   13  C   UNL     1     -11.995  12.789  69.519  1.00  0.00    -0.276 A  
HETATM   14  N   UNL     1     -12.355  12.072  70.559  1.00  0.00    -0.319 NA 
HETATM   15  C   UNL     1     -12.372  10.778  70.111  1.00  0.00    -0.325 A  
ENDBRANCH  10  11
ENDBRANCH   9  10
BRANCH   9  16
HETATM   16  O   UNL     1     -10.131  12.106  65.118  1.00  0.00    -0.262 OA 
BRANCH  16  17
HETATM   17  C   UNL     1     -10.606  10.847  64.633  1.00  0.00    -0.262 C  
BRANCH  17  18
HETATM   18  C   UNL     1      -9.460   9.871  64.620  1.00  0.00    -0.343 A  
HETATM   19  C   UNL     1      -9.320   8.862  65.590  1.00  0.00    -0.191 A  
HETATM   20 CL   UNL     1     -10.429   8.675  66.906  1.00  0.00    -0.357 Cl 
HETATM   21  C   UNL     1      -7.320   8.020  64.513  1.00  0.00    -0.089 A  
HETATM   22  C   UNL     1      -8.263   7.946  65.533  1.00  0.00    -0.140 A  
HETATM   23  C   UNL     1      -7.422   9.030  63.560  1.00  0.00    -0.103 A  
HETATM   24  C   UNL     1      -8.475   9.948  63.615  1.00  0.00    -0.181 A  
HETATM   25 CL   UNL     1      -8.513  11.169  62.387  1.00  0.00    -0.313 Cl 
ENDBRANCH  17  18
ENDBRANCH  16  17
ENDBRANCH   9  16
ENDBRANCH   6   9
TORSDOF 6
ENDMDL
MODEL      258
REMARK 921   NORMALIZED FREE ENERGY PREDICTED BY IDOCK:   -3.99 KCAL/MOL
REMARK 922        TOTAL FREE ENERGY PREDICTED BY IDOCK:   -6.41 KCAL/MOL
REMARK 923 INTER-LIGAND FREE ENERGY PREDICTED BY IDOCK:   -5.46 KCAL/MOL
REMARK 924 INTRA-LIGAND FREE ENERGY PREDICTED BY IDOCK:   -0.95 KCAL/MOL
REMARK 927      BINDING AFFINITY PREDICTED BY RF-SCORE:    0.00 PKD
ROOT
HETATM    1 CL   UNL     1      -6.165  15.224  68.437  1.00  0.00    -0.100 Cl 
HETATM    2  C   UNL     1      -7.133  13.810  68.301  1.00  0.00    -0.109 A  
HETATM    3  C   UNL     1      -8.427  13.903  67.792  1.00  0.00    -0.183 A  
HETATM    4  C   UNL     1      -9.198  12.747  67.634  1.00  0.00    -0.192 A  
HETATM    5 CL   UNL     1     -10.795  12.936  67.000  1.00  0.00    -0.272 Cl 
HETATM    6  C   UNL     1      -8.679  11.488  67.976  1.00  0.00    -0.151 A  
HETATM    7  C   UNL     1      -7.380  11.430  68.521  1.00  0.00    -0.105 A  
HETATM    8  C   UNL     1      -6.610  12.580  68.680  1.00  0.00    -0.083 A  
ENDROOT
BRANCH   6   9
HETATM    9  C   UNL     1      -9.437  10.192  67.715  1.00  0.00    -0.144 C  
BRANCH   9  10
HETATM   10  C   UNL     1      -8.525   8.949  67.865  1.00  0.00    -0.125 C  
BRANCH  10  11
HETATM   11  N   UNL     1      -7.999   8.398  66.630  1.00  0.00    -0.096 NA 
HETATM   12  C   UNL     1      -8.533   7.362  65.913  1.00  0.00    -0.150 A  
HETATM   13  C   UNL     1      -6.917   8.854  65.930  1.00  0.00    -0.080 A  
HETATM   14  N   UNL     1      -6.652   8.090  64.895  1.00  0.00    -0.051 NA 
HETATM   15  C   UNL     1      -7.655   7.158  64.875  1.00  0.00    -0.103 A  
ENDBRANCH  10  11
ENDBRANCH   9  10
BRANCH   9  16
HETATM   16  O   UNL     1     -10.576  10.057  68.582  1.00  0.00    -0.194 OA 
BRANCH  16  17
HETATM   17  C   UNL     1     -10.231  10.024  69.969  1.00  0.00    -0.255 C  
BRANCH  17  18
HETATM   18  C   UNL     1     -11.451   9.637  70.761  1.00  0.00    -0.399 A  
HETATM   19  C   UNL     1     -11.707   8.308  71.145  1.00  0.00    -0.280 A  
HETATM   20 CL   UNL     1     -10.667   6.995  70.710  1.00  0.00    -0.244 Cl 
HETATM   21  C   UNL     1     -13.728   8.971  72.306  1.00  0.00    -0.550 A  
HETATM   22  C   UNL     1     -12.833   7.982  71.912  1.00  0.00    -0.343 A  
HETATM   23  C   UNL     1     -13.509  10.288  71.911  1.00  0.00    -0.403 A  
HETATM   24  C   UNL     1     -12.389  10.617  71.143  1.00  0.00    -0.400 A  
HETATM   25 CL   UNL     1     -12.207  12.281  70.698  1.00  0.00    -0.445 Cl 
ENDBRANCH  17  18
ENDBRANCH  16  17
ENDBRANCH   9  16
ENDBRANCH   6   9
TORSDOF 6
ENDMDL
MODEL      259
REMARK 921   NORMALIZED FREE ENERGY PREDICTED BY IDOCK:   -3.99 KCAL/MOL
REMARK 922        TOTAL FREE ENERGY PREDICTED BY IDOCK:   -6.41 KCAL/MOL
REMARK 923 INTER-LIGAND FREE ENERGY PREDICTED BY IDOCK:   -6.21 KCAL/MOL
REMARK 924 INTRA-LIGAND FREE ENERGY PREDICTED BY IDOCK:   -0.20 KCAL/MOL
REMARK 927      BINDING AFFINITY PREDICTED BY RF-SCORE:    0.00 PKD
ROOT
HETATM    1 CL   UNL     1      -6.890   7.174  63.750  1.00  0.00    -0.047 Cl 
HETATM    2  C   UNL     1      -7.610   8.462  64.633  1.00  0.00    -0.104 A  
HETATM    3  C   UNL     1      -8.830   8.264  65.275  1.00  0.00    -0.074 A  
HETATM    4  C   UNL     1      -9.393   9.295  66.035  1.00  0.00    -0.223 A  
HETATM    5 CL   UNL     1     -10.910   8.982  66.803  1.00  0.00    -0.092 Cl 
HETATM    6  C   UNL     1      -8.735  10.529  66.164  1.00  0.00    -0.167 A  
HETATM    7  C   UNL     1      -7.520  10.711  65.474  1.00  0.00    -0.063 A  
HETATM    8  C   UNL     1      -6.958   9.686  64.716  1.00  0.00    -0.111 A  
ENDROOT
BRANCH   6   9
HETATM    9  C   UNL     1      -9.251  11.639  67.072  1.00  0.00    -0.183 C  
BRANCH   9  10
HETATM   10  C   UNL     1      -9.764  12.856  66.262  1.00  0.00    -0.268 C  
BRANCH  10  11
HETATM   11  N   UNL     1     -10.773  12.568  65.260  1.00  0.00    -0.278 NA 
HETATM   12  C   UNL     1     -12.129  12.584  65.447  1.00  0.00    -0.435 A  
HETATM   13  C   UNL     1     -10.555  12.292  63.939  1.00  0.00    -0.427 A  
HETATM   14  N   UNL     1     -11.672  11.998  63.314  1.00  0.00    -0.384 NA 
HETATM   15  C   UNL     1     -12.659  12.180  64.246  1.00  0.00    -0.331 A  
ENDBRANCH  10  11
ENDBRANCH   9  10
BRANCH   9  16
HETATM   16  O   UNL     1     -10.294  11.173  67.945  1.00  0.00    -0.176 OA 
BRANCH  16  17
HETATM   17  C   UNL     1      -9.845  10.922  69.279  1.00  0.00    -0.090 C  
BRANCH  17  18
HETATM   18  C   UNL     1     -11.023  10.496  70.113  1.00  0.00    -0.338 A  
HETATM   19  C   UNL     1     -11.999  11.406  70.557  1.00  0.00    -0.356 A  
HETATM   20 CL   UNL     1     -11.914  13.101  70.219  1.00  0.00    -0.396 Cl 
HETATM   21  C   UNL     1     -13.255   9.631  71.626  1.00  0.00    -0.499 A  
HETATM   22  C   UNL     1     -13.104  10.976  71.303  1.00  0.00    -0.381 A  
HETATM   23  C   UNL     1     -12.285   8.718  71.223  1.00  0.00    -0.332 A  
HETATM   24  C   UNL     1     -11.180   9.144  70.481  1.00  0.00    -0.264 A  
HETATM   25 CL   UNL     1     -10.026   7.933  70.031  1.00  0.00    -0.189 Cl 
ENDBRANCH  17  18
ENDBRANCH  16  17
ENDBRANCH   9  16
ENDBRANCH   6   9
TORSDOF 6
ENDMDL
MODEL      260
REMARK 921   NORMALIZED FREE ENERGY PREDICTED BY IDOCK:   -3.99 KCAL/MOL
REMARK 922        TOTAL FREE ENERGY PREDICTED BY IDOCK:   -6.41 KCAL/MOL
REMARK 923 INTER-LIGAND FREE ENERGY PREDICTED BY IDOCK:   -5.62 KCAL/MOL
REMARK 924 INTRA-LIGAND FREE ENERGY PREDICTED BY IDOCK:   -0.79 KCAL/MOL
REMARK 927      BINDING AFFINITY PREDICTED BY RF-SCORE:    0.00 PKD
ROOT
HETATM    1 CL   UNL     1     -12.381  15.528  63.973  1.00  0.00    -0.105 Cl 
HETATM    2  C   UNL     1     -11.464  14.195  64.555  1.00  0.00    -0.372 A  
HETATM    3  C   UNL     1     -10.641  14.355  65.668  1.00  0.00    -0.339 A  
HETATM    4  C   UNL     1      -9.933  13.261  66.173  1.00  0.00    -0.293 A  
HETATM    5 CL   UNL     1      -8.929  13.530  67.554  1.00  0.00    -0.199 Cl 
HETATM    6  C   UNL     1     -10.049  11.996  65.575  1.00  0.00    -0.281 A  
HETATM    7  C   UNL     1     -10.861  11.873  64.429  1.00  0.00    -0.384 A  
HETATM    8  C   UNL     1     -11.567  12.963  63.923  1.00  0.00    -0.515 A  
ENDROOT
BRANCH   6   9
HETATM    9  C   UNL     1      -9.388  10.751  66.157  1.00  0.00    -0.183 C  
BRANCH   9  10
HETATM   10  C   UNL     1      -7.843  10.833  66.092  1.00  0.00    -0.155 C  
BRANCH  10  11
HETATM   11  N   UNL     1      -7.214  10.073  65.027  1.00  0.00    -0.135 NA 
HETATM   12  C   UNL     1      -7.806   9.671  63.861  1.00  0.00    -0.136 A  
HETATM   13  C   UNL     1      -5.906   9.680  64.969  1.00  0.00    -0.070 A  
HETATM   14  N   UNL     1      -5.670   8.938  63.911  1.00  0.00    -0.070 NA 
HETATM   15  C   UNL     1      -6.848   8.930  63.212  1.00  0.00    -0.089 A  
ENDBRANCH  10  11
ENDBRANCH   9  10
BRANCH   9  16
HETATM   16  O   UNL     1      -9.798  10.516  67.515  1.00  0.00    -0.163 OA 
BRANCH  16  17
HETATM   17  C   UNL     1      -8.984   9.557  68.194  1.00  0.00    -0.123 C  
BRANCH  17  18
HETATM   18  C   UNL     1      -9.858   8.421  68.655  1.00  0.00    -0.180 A  
HETATM   19  C   UNL     1     -10.198   7.345  67.815  1.00  0.00    -0.196 A  
HETATM   20 CL   UNL     1      -9.676   7.248  66.168  1.00  0.00    -0.057 Cl 
HETATM   21  C   UNL     1     -11.452   6.278  69.592  1.00  0.00    -0.425 A  
HETATM   22  C   UNL     1     -10.984   6.285  68.282  1.00  0.00    -0.408 A  
HETATM   23  C   UNL     1     -11.153   7.348  70.430  1.00  0.00    -0.284 A  
HETATM   24  C   UNL     1     -10.371   8.409  69.967  1.00  0.00    -0.211 A  
HETATM   25 CL   UNL     1     -10.057   9.696  71.084  1.00  0.00    -0.247 Cl 
ENDBRANCH  17  18
ENDBRANCH  16  17
ENDBRANCH   9  16
ENDBRANCH   6   9
TORSDOF 6
ENDMDL
MODEL      261
REMARK 921   NORMALIZED FREE ENERGY PREDICTED BY IDOCK:   -3.99 KCAL/MOL
REMARK 922        TOTAL FREE ENERGY PREDICTED BY IDOCK:   -6.41 KCAL/MOL
REMARK 923 INTER-LIGAND FREE ENERGY PREDICTED BY IDOCK:   -5.60 KCAL/MOL
REMARK 924 INTRA-LIGAND FREE ENERGY PREDICTED BY IDOCK:   -0.81 KCAL/MOL
REMARK 927      BINDING AFFINITY PREDICTED BY RF-SCORE:    0.00 PKD
ROOT
HETATM    1 CL   UNL     1      -9.046   1.880  65.322  1.00  0.00    -0.122 Cl 
HETATM    2  C   UNL     1      -9.202   3.504  65.866  1.00  0.00    -0.162 A  
HETATM    3  C   UNL     1      -9.768   3.765  67.112  1.00  0.00    -0.145 A  
HETATM    4  C   UNL     1      -9.850   5.080  67.578  1.00  0.00    -0.165 A  
HETATM    5 CL   UNL     1     -10.566   5.332  69.131  1.00  0.00    -0.235 Cl 
HETATM    6  C   UNL     1      -9.360   6.145  66.805  1.00  0.00    -0.152 A  
HETATM    7  C   UNL     1      -8.826   5.853  65.533  1.00  0.00    -0.100 A  
HETATM    8  C   UNL     1      -8.743   4.543  65.067  1.00  0.00    -0.138 A  
ENDROOT
BRANCH   6   9
HETATM    9  C   UNL     1      -9.324   7.580  67.317  1.00  0.00    -0.140 C  
BRANCH   9  10
HETATM   10  C   UNL     1      -7.873   8.097  67.485  1.00  0.00    -0.110 C  
BRANCH  10  11
HETATM   11  N   UNL     1      -7.572   8.730  68.757  1.00  0.00    -0.094 NA 
HETATM   12  C   UNL     1      -6.374   9.282  69.122  1.00  0.00    -0.042 A  
HETATM   13  C   UNL     1      -8.443   8.944  69.788  1.00  0.00    -0.131 A  
HETATM   14  N   UNL     1      -7.841   9.469  70.830  1.00  0.00    -0.322 NA 
HETATM   15  C   UNL     1      -6.551   9.686  70.424  1.00  0.00    -0.096 A  
ENDBRANCH  10  11
ENDBRANCH   9  10
BRANCH   9  16
HETATM   16  O   UNL     1     -10.053   8.472  66.457  1.00  0.00    -0.274 OA 
BRANCH  16  17
HETATM   17  C   UNL     1      -9.233   9.484  65.866  1.00  0.00    -0.206 C  
BRANCH  17  18
HETATM   18  C   UNL     1     -10.122  10.584  65.350  1.00  0.00    -0.358 A  
HETATM   19  C   UNL     1     -10.236  10.876  63.978  1.00  0.00    -0.357 A  
HETATM   20 CL   UNL     1      -9.341  10.025  62.766  1.00  0.00    -0.307 Cl 
HETATM   21  C   UNL     1     -11.856  12.622  64.425  1.00  0.00    -0.452 A  
HETATM   22  C   UNL     1     -11.098  11.882  63.523  1.00  0.00    -0.506 A  
HETATM   23  C   UNL     1     -11.735  12.369  65.789  1.00  0.00    -0.470 A  
HETATM   24  C   UNL     1     -10.874  11.368  66.246  1.00  0.00    -0.263 A  
HETATM   25 CL   UNL     1     -10.789  11.134  67.961  1.00  0.00    -0.250 Cl 
ENDBRANCH  17  18
ENDBRANCH  16  17
ENDBRANCH   9  16
ENDBRANCH   6   9
TORSDOF 6
ENDMDL
MODEL      262
REMARK 921   NORMALIZED FREE ENERGY PREDICTED BY IDOCK:   -3.98 KCAL/MOL
REMARK 922        TOTAL FREE ENERGY PREDICTED BY IDOCK:   -6.40 KCAL/MOL
REMARK 923 INTER-LIGAND FREE ENERGY PREDICTED BY IDOCK:   -5.22 KCAL/MOL
REMARK 924 INTRA-LIGAND FREE ENERGY PREDICTED BY IDOCK:   -1.18 KCAL/MOL
REMARK 927      BINDING AFFINITY PREDICTED BY RF-SCORE:    0.00 PKD
ROOT
HETATM    1 CL   UNL     1     -10.074   4.695  66.722  1.00  0.00    -0.247 Cl 
HETATM    2  C   UNL     1      -9.854   6.395  66.578  1.00  0.00    -0.116 A  
HETATM    3  C   UNL     1      -8.761   6.895  65.873  1.00  0.00    -0.146 A  
HETATM    4  C   UNL     1      -8.608   8.275  65.712  1.00  0.00    -0.161 A  
HETATM    5 CL   UNL     1      -7.229   8.826  64.828  1.00  0.00    -0.090 Cl 
HETATM    6  C   UNL     1      -9.551   9.166  66.249  1.00  0.00    -0.321 A  
HETATM    7  C   UNL     1     -10.627   8.632  66.988  1.00  0.00    -0.293 A  
HETATM    8  C   UNL     1     -10.781   7.257  67.150  1.00  0.00    -0.413 A  
ENDROOT
BRANCH   6   9
HETATM    9  C   UNL     1      -9.489  10.669  66.003  1.00  0.00    -0.193 C  
BRANCH   9  10
HETATM   10  C   UNL     1     -10.889  11.267  65.721  1.00  0.00    -0.194 C  
BRANCH  10  11
HETATM   11  N   UNL     1     -10.954  12.716  65.642  1.00  0.00    -0.274 NA 
HETATM   12  C   UNL     1     -11.503  13.553  66.574  1.00  0.00    -0.339 A  
HETATM   13  C   UNL     1     -10.424  13.503  64.658  1.00  0.00    -0.421 A  
HETATM   14  N   UNL     1     -10.722  14.769  64.837  1.00  0.00    -0.421 NA 
HETATM   15  C   UNL     1     -11.392  14.811  66.031  1.00  0.00    -0.332 A  
ENDBRANCH  10  11
ENDBRANCH   9  10
BRANCH   9  16
HETATM   16  O   UNL     1      -8.886  11.365  67.107  1.00  0.00    -0.149 OA 
BRANCH  16  17
HETATM   17  C   UNL     1      -7.559  11.822  66.831  1.00  0.00    -0.119 C  
BRANCH  17  18
HETATM   18  C   UNL     1      -6.970  12.387  68.096  1.00  0.00    -0.087 A  
HETATM   19  C   UNL     1      -6.959  13.767  68.369  1.00  0.00    -0.103 A  
HETATM   20 CL   UNL     1      -7.586  14.941  67.262  1.00  0.00    -0.231 Cl 
HETATM   21  C   UNL     1      -5.908  13.394  70.520  1.00  0.00    -0.159 A  
HETATM   22  C   UNL     1      -6.436  14.262  69.570  1.00  0.00    -0.132 A  
HETATM   23  C   UNL     1      -5.880  12.028  70.256  1.00  0.00    -0.164 A  
HETATM   24  C   UNL     1      -6.399  11.530  69.058  1.00  0.00    -0.069 A  
HETATM   25 CL   UNL     1      -6.315   9.816  68.821  1.00  0.00    -0.046 Cl 
ENDBRANCH  17  18
ENDBRANCH  16  17
ENDBRANCH   9  16
ENDBRANCH   6   9
TORSDOF 6
ENDMDL
MODEL      263
REMARK 921   NORMALIZED FREE ENERGY PREDICTED BY IDOCK:   -3.97 KCAL/MOL
REMARK 922        TOTAL FREE ENERGY PREDICTED BY IDOCK:   -6.39 KCAL/MOL
REMARK 923 INTER-LIGAND FREE ENERGY PREDICTED BY IDOCK:   -5.58 KCAL/MOL
REMARK 924 INTRA-LIGAND FREE ENERGY PREDICTED BY IDOCK:   -0.81 KCAL/MOL
REMARK 927      BINDING AFFINITY PREDICTED BY RF-SCORE:    0.00 PKD
ROOT
HETATM    1 CL   UNL     1     -12.993   9.918  72.282  1.00  0.00    -0.448 Cl 
HETATM    2  C   UNL     1     -12.111  10.517  70.932  1.00  0.00    -0.383 A  
HETATM    3  C   UNL     1     -12.447  11.751  70.380  1.00  0.00    -0.280 A  
HETATM    4  C   UNL     1     -11.700  12.264  69.315  1.00  0.00    -0.330 A  
HETATM    5 CL   UNL     1     -12.171  13.799  68.676  1.00  0.00    -0.318 Cl 
HETATM    6  C   UNL     1     -10.607  11.549  68.799  1.00  0.00    -0.241 A  
HETATM    7  C   UNL     1     -10.314  10.286  69.355  1.00  0.00    -0.256 A  
HETATM    8  C   UNL     1     -11.058   9.774  70.416  1.00  0.00    -0.367 A  
ENDROOT
BRANCH   6   9
HETATM    9  C   UNL     1      -9.695  12.116  67.717  1.00  0.00    -0.197 C  
BRANCH   9  10
HETATM   10  C   UNL     1      -8.557  12.980  68.315  1.00  0.00    -0.167 C  
BRANCH  10  11
HETATM   11  N   UNL     1      -7.246  12.358  68.357  1.00  0.00    -0.102 NA 
HETATM   12  C   UNL     1      -6.292  12.412  67.378  1.00  0.00    -0.157 A  
HETATM   13  C   UNL     1      -6.708  11.662  69.403  1.00  0.00    -0.110 A  
HETATM   14  N   UNL     1      -5.535  11.157  69.097  1.00  0.00    -0.040 NA 
HETATM   15  C   UNL     1      -5.265  11.622  67.837  1.00  0.00    -0.048 A  
ENDBRANCH  10  11
ENDBRANCH   9  10
BRANCH   9  16
HETATM   16  O   UNL     1      -9.128  11.079  66.900  1.00  0.00    -0.153 OA 
BRANCH  16  17
HETATM   17  C   UNL     1     -10.037  10.568  65.921  1.00  0.00    -0.260 C  
BRANCH  17  18
HETATM   18  C   UNL     1      -9.282   9.660  64.988  1.00  0.00    -0.310 A  
HETATM   19  C   UNL     1      -8.696   8.456  65.420  1.00  0.00    -0.141 A  
HETATM   20 CL   UNL     1      -8.755   7.930  67.067  1.00  0.00    -0.126 Cl 
HETATM   21  C   UNL     1      -7.928   7.955  63.177  1.00  0.00    -0.130 A  
HETATM   22  C   UNL     1      -8.029   7.614  64.522  1.00  0.00    -0.130 A  
HETATM   23  C   UNL     1      -8.474   9.157  62.734  1.00  0.00    -0.211 A  
HETATM   24  C   UNL     1      -9.138  10.001  63.628  1.00  0.00    -0.268 A  
HETATM   25 CL   UNL     1      -9.779  11.476  62.982  1.00  0.00    -0.406 Cl 
ENDBRANCH  17  18
ENDBRANCH  16  17
ENDBRANCH   9  16
ENDBRANCH   6   9
TORSDOF 6
ENDMDL
MODEL      264
REMARK 921   NORMALIZED FREE ENERGY PREDICTED BY IDOCK:   -3.97 KCAL/MOL
REMARK 922        TOTAL FREE ENERGY PREDICTED BY IDOCK:   -6.38 KCAL/MOL
REMARK 923 INTER-LIGAND FREE ENERGY PREDICTED BY IDOCK:   -5.74 KCAL/MOL
REMARK 924 INTRA-LIGAND FREE ENERGY PREDICTED BY IDOCK:   -0.64 KCAL/MOL
REMARK 927      BINDING AFFINITY PREDICTED BY RF-SCORE:    0.00 PKD
ROOT
HETATM    1 CL   UNL     1     -12.506  14.655  64.104  1.00  0.00    -0.358 Cl 
HETATM    2  C   UNL     1     -11.670  13.377  64.895  1.00  0.00    -0.351 A  
HETATM    3  C   UNL     1     -11.934  13.103  66.236  1.00  0.00    -0.473 A  
HETATM    4  C   UNL     1     -11.293  12.033  66.867  1.00  0.00    -0.341 A  
HETATM    5 CL   UNL     1     -11.665  11.750  68.531  1.00  0.00    -0.375 Cl 
HETATM    6  C   UNL     1     -10.389  11.224  66.161  1.00  0.00    -0.300 A  
HETATM    7  C   UNL     1     -10.115  11.548  64.816  1.00  0.00    -0.316 A  
HETATM    8  C   UNL     1     -10.752  12.614  64.185  1.00  0.00    -0.435 A  
ENDROOT
BRANCH   6   9
HETATM    9  C   UNL     1      -9.754   9.980  66.772  1.00  0.00    -0.189 C  
BRANCH   9  10
HETATM   10  C   UNL     1      -8.525  10.330  67.648  1.00  0.00    -0.118 C  
BRANCH  10  11
HETATM   11  N   UNL     1      -7.307  10.653  66.927  1.00  0.00    -0.108 NA 
HETATM   12  C   UNL     1      -6.790   9.967  65.862  1.00  0.00    -0.108 A  
HETATM   13  C   UNL     1      -6.496  11.732  67.141  1.00  0.00    -0.146 A  
HETATM   14  N   UNL     1      -5.430  11.697  66.375  1.00  0.00    -0.289 NA 
HETATM   15  C   UNL     1      -5.605  10.601  65.572  1.00  0.00    -0.135 A  
ENDBRANCH  10  11
ENDBRANCH   9  10
BRANCH   9  16
HETATM   16  O   UNL     1     -10.698   9.228  67.552  1.00  0.00    -0.277 OA 
BRANCH  16  17
HETATM   17  C   UNL     1     -10.668   7.825  67.279  1.00  0.00    -0.255 C  
BRANCH  17  18
HETATM   18  C   UNL     1      -9.699   7.169  68.226  1.00  0.00    -0.148 A  
HETATM   19  C   UNL     1      -9.953   7.060  69.606  1.00  0.00    -0.173 A  
HETATM   20 CL   UNL     1     -11.380   7.702  70.344  1.00  0.00    -0.267 Cl 
HETATM   21  C   UNL     1      -7.872   5.869  69.955  1.00  0.00    -0.096 A  
HETATM   22  C   UNL     1      -9.049   6.414  70.458  1.00  0.00    -0.155 A  
HETATM   23  C   UNL     1      -7.587   5.992  68.598  1.00  0.00    -0.091 A  
HETATM   24  C   UNL     1      -8.485   6.639  67.745  1.00  0.00    -0.122 A  
HETATM   25 CL   UNL     1      -8.039   6.746  66.074  1.00  0.00    -0.113 Cl 
ENDBRANCH  17  18
ENDBRANCH  16  17
ENDBRANCH   9  16
ENDBRANCH   6   9
TORSDOF 6
ENDMDL
MODEL      265
REMARK 921   NORMALIZED FREE ENERGY PREDICTED BY IDOCK:   -3.97 KCAL/MOL
REMARK 922        TOTAL FREE ENERGY PREDICTED BY IDOCK:   -6.38 KCAL/MOL
REMARK 923 INTER-LIGAND FREE ENERGY PREDICTED BY IDOCK:   -5.45 KCAL/MOL
REMARK 924 INTRA-LIGAND FREE ENERGY PREDICTED BY IDOCK:   -0.93 KCAL/MOL
REMARK 927      BINDING AFFINITY PREDICTED BY RF-SCORE:    0.00 PKD
ROOT
HETATM    1 CL   UNL     1      -7.699   5.772  73.289  1.00  0.00    -0.099 Cl 
HETATM    2  C   UNL     1      -8.264   5.946  71.674  1.00  0.00    -0.119 A  
HETATM    3  C   UNL     1      -9.626   6.105  71.431  1.00  0.00    -0.177 A  
HETATM    4  C   UNL     1     -10.083   6.296  70.123  1.00  0.00    -0.179 A  
HETATM    5 CL   UNL     1     -11.785   6.485  69.893  1.00  0.00    -0.436 Cl 
HETATM    6  C   UNL     1      -9.179   6.337  69.049  1.00  0.00    -0.127 A  
HETATM    7  C   UNL     1      -7.810   6.137  69.323  1.00  0.00    -0.104 A  
HETATM    8  C   UNL     1      -7.354   5.946  70.625  1.00  0.00    -0.085 A  
ENDROOT
BRANCH   6   9
HETATM    9  C   UNL     1      -9.616   6.657  67.625  1.00  0.00    -0.124 C  
BRANCH   9  10
HETATM   10  C   UNL     1     -10.487   5.527  67.020  1.00  0.00    -0.274 C  
BRANCH  10  11
HETATM   11  N   UNL     1      -9.928   4.846  65.867  1.00  0.00    -0.200 NA 
HETATM   12  C   UNL     1      -8.621   4.882  65.461  1.00  0.00    -0.135 A  
HETATM   13  C   UNL     1     -10.588   4.001  65.020  1.00  0.00    -0.097 A  
HETATM   14  N   UNL     1      -9.820   3.611  64.028  1.00  0.00    -0.165 NA 
HETATM   15  C   UNL     1      -8.591   4.153  64.296  1.00  0.00    -0.112 A  
ENDBRANCH  10  11
ENDBRANCH   9  10
BRANCH   9  16
HETATM   16  O   UNL     1     -10.330   7.902  67.553  1.00  0.00    -0.218 OA 
BRANCH  16  17
HETATM   17  C   UNL     1      -9.483   9.048  67.662  1.00  0.00    -0.140 C  
BRANCH  17  18
HETATM   18  C   UNL     1     -10.344  10.279  67.759  1.00  0.00    -0.246 A  
HETATM   19  C   UNL     1     -10.860  10.741  68.984  1.00  0.00    -0.235 A  
HETATM   20 CL   UNL     1     -10.583   9.918  70.481  1.00  0.00    -0.362 Cl 
HETATM   21  C   UNL     1     -11.907  12.636  67.897  1.00  0.00    -0.388 A  
HETATM   22  C   UNL     1     -11.630  11.909  69.050  1.00  0.00    -0.376 A  
HETATM   23  C   UNL     1     -11.432  12.179  66.670  1.00  0.00    -0.426 A  
HETATM   24  C   UNL     1     -10.666  11.013  66.601  1.00  0.00    -0.249 A  
HETATM   25 CL   UNL     1     -10.126  10.525  65.029  1.00  0.00    -0.383 Cl 
ENDBRANCH  17  18
ENDBRANCH  16  17
ENDBRANCH   9  16
ENDBRANCH   6   9
TORSDOF 6
ENDMDL
MODEL      266
REMARK 921   NORMALIZED FREE ENERGY PREDICTED BY IDOCK:   -3.97 KCAL/MOL
REMARK 922        TOTAL FREE ENERGY PREDICTED BY IDOCK:   -6.38 KCAL/MOL
REMARK 923 INTER-LIGAND FREE ENERGY PREDICTED BY IDOCK:   -5.52 KCAL/MOL
REMARK 924 INTRA-LIGAND FREE ENERGY PREDICTED BY IDOCK:   -0.86 KCAL/MOL
REMARK 927      BINDING AFFINITY PREDICTED BY RF-SCORE:    0.00 PKD
ROOT
HETATM    1 CL   UNL     1      -5.604   7.383  73.173  1.00  0.00    -0.044 Cl 
HETATM    2  C   UNL     1      -6.654   7.611  71.831  1.00  0.00    -0.043 A  
HETATM    3  C   UNL     1      -6.812   6.590  70.896  1.00  0.00    -0.063 A  
HETATM    4  C   UNL     1      -7.703   6.753  69.831  1.00  0.00    -0.109 A  
HETATM    5 CL   UNL     1      -7.850   5.448  68.707  1.00  0.00    -0.086 Cl 
HETATM    6  C   UNL     1      -8.448   7.936  69.696  1.00  0.00    -0.132 A  
HETATM    7  C   UNL     1      -8.239   8.965  70.638  1.00  0.00    -0.183 A  
HETATM    8  C   UNL     1      -7.351   8.804  71.699  1.00  0.00    -0.098 A  
ENDROOT
BRANCH   6   9
HETATM    9  C   UNL     1      -9.512   8.115  68.620  1.00  0.00    -0.147 C  
BRANCH   9  10
HETATM   10  C   UNL     1     -10.769   7.254  68.901  1.00  0.00    -0.150 C  
BRANCH  10  11
HETATM   11  N   UNL     1     -11.183   7.174  70.290  1.00  0.00    -0.276 NA 
HETATM   12  C   UNL     1     -11.855   8.138  70.991  1.00  0.00    -0.260 A  
HETATM   13  C   UNL     1     -11.032   6.103  71.126  1.00  0.00    -0.284 A  
HETATM   14  N   UNL     1     -11.440   6.377  72.344  1.00  0.00    -0.284 NA 
HETATM   15  C   UNL     1     -11.957   7.643  72.269  1.00  0.00    -0.285 A  
ENDBRANCH  10  11
ENDBRANCH   9  10
BRANCH   9  16
HETATM   16  O   UNL     1      -9.900   9.492  68.477  1.00  0.00    -0.152 OA 
BRANCH  16  17
HETATM   17  C   UNL     1     -11.011   9.680  67.597  1.00  0.00    -0.124 C  
BRANCH  17  18
HETATM   18  C   UNL     1     -11.162  11.151  67.316  1.00  0.00    -0.347 A  
HETATM   19  C   UNL     1     -11.641  12.055  68.280  1.00  0.00    -0.334 A  
HETATM   20 CL   UNL     1     -12.137  11.556  69.861  1.00  0.00    -0.387 Cl 
HETATM   21  C   UNL     1     -11.366  13.918  66.755  1.00  0.00    -0.347 A  
HETATM   22  C   UNL     1     -11.738  13.425  68.001  1.00  0.00    -0.391 A  
HETATM   23  C   UNL     1     -10.917  13.036  65.777  1.00  0.00    -0.299 A  
HETATM   24  C   UNL     1     -10.822  11.669  66.050  1.00  0.00    -0.289 A  
HETATM   25 CL   UNL     1     -10.258  10.652  64.766  1.00  0.00    -0.408 Cl 
ENDBRANCH  17  18
ENDBRANCH  16  17
ENDBRANCH   9  16
ENDBRANCH   6   9
TORSDOF 6
ENDMDL
MODEL      267
REMARK 921   NORMALIZED FREE ENERGY PREDICTED BY IDOCK:   -3.96 KCAL/MOL
REMARK 922        TOTAL FREE ENERGY PREDICTED BY IDOCK:   -6.37 KCAL/MOL
REMARK 923 INTER-LIGAND FREE ENERGY PREDICTED BY IDOCK:   -5.45 KCAL/MOL
REMARK 924 INTRA-LIGAND FREE ENERGY PREDICTED BY IDOCK:   -0.92 KCAL/MOL
REMARK 927      BINDING AFFINITY PREDICTED BY RF-SCORE:    0.00 PKD
ROOT
HETATM    1 CL   UNL     1      -5.426   7.958  73.529  1.00  0.00    -0.045 Cl 
HETATM    2  C   UNL     1      -6.834   7.431  72.695  1.00  0.00    -0.067 A  
HETATM    3  C   UNL     1      -7.166   6.077  72.685  1.00  0.00    -0.086 A  
HETATM    4  C   UNL     1      -8.337   5.652  72.050  1.00  0.00    -0.122 A  
HETATM    5 CL   UNL     1      -8.687   3.960  72.073  1.00  0.00    -0.113 Cl 
HETATM    6  C   UNL     1      -9.189   6.578  71.426  1.00  0.00    -0.148 A  
HETATM    7  C   UNL     1      -8.808   7.936  71.422  1.00  0.00    -0.158 A  
HETATM    8  C   UNL     1      -7.641   8.361  72.054  1.00  0.00    -0.152 A  
ENDROOT
BRANCH   6   9
HETATM    9  C   UNL     1     -10.530   6.179  70.822  1.00  0.00    -0.230 C  
BRANCH   9  10
HETATM   10  C   UNL     1     -11.647   6.106  71.892  1.00  0.00    -0.296 C  
BRANCH  10  11
HETATM   11  N   UNL     1     -12.543   7.246  71.948  1.00  0.00    -0.311 NA 
HETATM   12  C   UNL     1     -13.870   7.251  71.614  1.00  0.00    -0.349 A  
HETATM   13  C   UNL     1     -12.240   8.499  72.403  1.00  0.00    -0.366 A  
HETATM   14  N   UNL     1     -13.248   9.328  72.248  1.00  0.00    -0.445 NA 
HETATM   15  C   UNL     1     -14.270   8.558  71.760  1.00  0.00    -0.446 A  
ENDBRANCH  10  11
ENDBRANCH   9  10
BRANCH   9  16
HETATM   16  O   UNL     1     -10.930   7.076  69.773  1.00  0.00    -0.245 OA 
BRANCH  16  17
HETATM   17  C   UNL     1     -11.224   6.412  68.541  1.00  0.00    -0.228 C  
BRANCH  17  18
HETATM   18  C   UNL     1     -10.222   6.848  67.506  1.00  0.00    -0.249 A  
HETATM   19  C   UNL     1     -10.056   8.197  67.141  1.00  0.00    -0.264 A  
HETATM   20 CL   UNL     1     -11.012   9.470  67.820  1.00  0.00    -0.252 Cl 
HETATM   21  C   UNL     1      -8.277   7.623  65.599  1.00  0.00    -0.136 A  
HETATM   22  C   UNL     1      -9.091   8.578  66.200  1.00  0.00    -0.245 A  
HETATM   23  C   UNL     1      -8.446   6.280  65.923  1.00  0.00    -0.146 A  
HETATM   24  C   UNL     1      -9.410   5.896  66.859  1.00  0.00    -0.129 A  
HETATM   25 CL   UNL     1      -9.546   4.201  67.191  1.00  0.00    -0.218 Cl 
ENDBRANCH  17  18
ENDBRANCH  16  17
ENDBRANCH   9  16
ENDBRANCH   6   9
TORSDOF 6
ENDMDL
MODEL      268
REMARK 921   NORMALIZED FREE ENERGY PREDICTED BY IDOCK:   -3.96 KCAL/MOL
REMARK 922        TOTAL FREE ENERGY PREDICTED BY IDOCK:   -6.37 KCAL/MOL
REMARK 923 INTER-LIGAND FREE ENERGY PREDICTED BY IDOCK:   -5.77 KCAL/MOL
REMARK 924 INTRA-LIGAND FREE ENERGY PREDICTED BY IDOCK:   -0.60 KCAL/MOL
REMARK 927      BINDING AFFINITY PREDICTED BY RF-SCORE:    0.00 PKD
ROOT
HETATM    1 CL   UNL     1      -5.942  15.381  68.829  1.00  0.00    -0.093 Cl 
HETATM    2  C   UNL     1      -7.087  14.169  68.408  1.00  0.00    -0.104 A  
HETATM    3  C   UNL     1      -6.645  12.912  68.001  1.00  0.00    -0.107 A  
HETATM    4  C   UNL     1      -7.574  11.909  67.706  1.00  0.00    -0.130 A  
HETATM    5 CL   UNL     1      -6.957  10.374  67.205  1.00  0.00    -0.086 Cl 
HETATM    6  C   UNL     1      -8.952  12.153  67.824  1.00  0.00    -0.179 A  
HETATM    7  C   UNL     1      -9.369  13.446  68.204  1.00  0.00    -0.217 A  
HETATM    8  C   UNL     1      -8.445  14.446  68.497  1.00  0.00    -0.170 A  
ENDROOT
BRANCH   6   9
HETATM    9  C   UNL     1      -9.996  11.061  67.625  1.00  0.00    -0.173 C  
BRANCH   9  10
HETATM   10  C   UNL     1     -10.062  10.587  66.152  1.00  0.00    -0.246 C  
BRANCH  10  11
HETATM   11  N   UNL     1     -10.830  11.427  65.251  1.00  0.00    -0.265 NA 
HETATM   12  C   UNL     1     -11.836  12.284  65.604  1.00  0.00    -0.360 A  
HETATM   13  C   UNL     1     -10.644  11.561  63.903  1.00  0.00    -0.391 A  
HETATM   14  N   UNL     1     -11.554  12.338  63.363  1.00  0.00    -0.458 NA 
HETATM   15  C   UNL     1     -12.301  12.797  64.416  1.00  0.00    -0.424 A  
ENDBRANCH  10  11
ENDBRANCH   9  10
BRANCH   9  16
HETATM   16  O   UNL     1      -9.756   9.932  68.481  1.00  0.00    -0.149 OA 
BRANCH  16  17
HETATM   17  C   UNL     1     -10.925   9.145  68.721  1.00  0.00     0.030 C  
BRANCH  17  18
HETATM   18  C   UNL     1     -10.506   7.820  69.299  1.00  0.00    -0.221 A  
HETATM   19  C   UNL     1     -10.062   7.685  70.627  1.00  0.00    -0.187 A  
HETATM   20 CL   UNL     1      -9.922   9.033  71.704  1.00  0.00    -0.394 Cl 
HETATM   21  C   UNL     1      -9.789   5.293  70.356  1.00  0.00    -0.281 A  
HETATM   22  C   UNL     1      -9.711   6.434  71.149  1.00  0.00    -0.191 A  
HETATM   23  C   UNL     1     -10.196   5.408  69.030  1.00  0.00    -0.291 A  
HETATM   24  C   UNL     1     -10.544   6.656  68.506  1.00  0.00    -0.233 A  
HETATM   25 CL   UNL     1     -11.033   6.697  66.844  1.00  0.00    -0.451 Cl 
ENDBRANCH  17  18
ENDBRANCH  16  17
ENDBRANCH   9  16
ENDBRANCH   6   9
TORSDOF 6
ENDMDL
MODEL      269
REMARK 921   NORMALIZED FREE ENERGY PREDICTED BY IDOCK:   -3.94 KCAL/MOL
REMARK 922        TOTAL FREE ENERGY PREDICTED BY IDOCK:   -6.35 KCAL/MOL
REMARK 923 INTER-LIGAND FREE ENERGY PREDICTED BY IDOCK:   -5.96 KCAL/MOL
REMARK 924 INTRA-LIGAND FREE ENERGY PREDICTED BY IDOCK:   -0.39 KCAL/MOL
REMARK 927      BINDING AFFINITY PREDICTED BY RF-SCORE:    0.00 PKD
ROOT
HETATM    1 CL   UNL     1      -6.943  17.903  65.970  1.00  0.00    -0.333 Cl 
HETATM    2  C   UNL     1      -7.727  16.431  66.390  1.00  0.00    -0.214 A  
HETATM    3  C   UNL     1      -9.046  16.212  65.995  1.00  0.00    -0.354 A  
HETATM    4  C   UNL     1      -9.669  14.996  66.292  1.00  0.00    -0.291 A  
HETATM    5 CL   UNL     1     -11.305  14.792  65.774  1.00  0.00    -0.342 Cl 
HETATM    6  C   UNL     1      -8.976  13.987  66.980  1.00  0.00    -0.248 A  
HETATM    7  C   UNL     1      -7.655  14.251  67.397  1.00  0.00    -0.185 A  
HETATM    8  C   UNL     1      -7.033  15.462  67.103  1.00  0.00    -0.085 A  
ENDROOT
BRANCH   6   9
HETATM    9  C   UNL     1      -9.573  12.606  67.225  1.00  0.00    -0.203 C  
BRANCH   9  10
HETATM   10  C   UNL     1     -10.297  12.524  68.592  1.00  0.00    -0.177 C  
BRANCH  10  11
HETATM   11  N   UNL     1     -10.347  11.208  69.202  1.00  0.00    -0.195 NA 
HETATM   12  C   UNL     1      -9.355  10.265  69.175  1.00  0.00    -0.204 A  
HETATM   13  C   UNL     1     -11.362  10.700  69.964  1.00  0.00    -0.324 A  
HETATM   14  N   UNL     1     -11.136   9.452  70.302  1.00  0.00    -0.248 NA 
HETATM   15  C   UNL     1      -9.886   9.172  69.818  1.00  0.00    -0.181 A  
ENDBRANCH  10  11
ENDBRANCH   9  10
BRANCH   9  16
HETATM   16  O   UNL     1     -10.482  12.225  66.179  1.00  0.00    -0.232 OA 
BRANCH  16  17
HETATM   17  C   UNL     1     -10.438  10.830  65.870  1.00  0.00    -0.204 C  
BRANCH  17  18
HETATM   18  C   UNL     1      -9.538  10.626  64.680  1.00  0.00    -0.334 A  
HETATM   19  C   UNL     1      -9.802  11.213  63.429  1.00  0.00    -0.361 A  
HETATM   20 CL   UNL     1     -11.200  12.188  63.133  1.00  0.00    -0.360 Cl 
HETATM   21  C   UNL     1      -7.779  10.265  62.492  1.00  0.00    -0.158 A  
HETATM   22  C   UNL     1      -8.928  11.035  62.349  1.00  0.00    -0.345 A  
HETATM   23  C   UNL     1      -7.515   9.650  63.713  1.00  0.00    -0.122 A  
HETATM   24  C   UNL     1      -8.386   9.823  64.792  1.00  0.00    -0.155 A  
HETATM   25 CL   UNL     1      -7.974   9.014  66.267  1.00  0.00    -0.102 Cl 
ENDBRANCH  17  18
ENDBRANCH  16  17
ENDBRANCH   9  16
ENDBRANCH   6   9
TORSDOF 6
ENDMDL
MODEL      270
REMARK 921   NORMALIZED FREE ENERGY PREDICTED BY IDOCK:   -3.94 KCAL/MOL
REMARK 922        TOTAL FREE ENERGY PREDICTED BY IDOCK:   -6.34 KCAL/MOL
REMARK 923 INTER-LIGAND FREE ENERGY PREDICTED BY IDOCK:   -5.14 KCAL/MOL
REMARK 924 INTRA-LIGAND FREE ENERGY PREDICTED BY IDOCK:   -1.19 KCAL/MOL
REMARK 927      BINDING AFFINITY PREDICTED BY RF-SCORE:    0.00 PKD
ROOT
HETATM    1 CL   UNL     1     -13.665   9.428  72.538  1.00  0.00    -0.479 Cl 
HETATM    2  C   UNL     1     -12.263   9.587  71.554  1.00  0.00    -0.386 A  
HETATM    3  C   UNL     1     -11.045   9.077  71.998  1.00  0.00    -0.371 A  
HETATM    4  C   UNL     1      -9.915   9.161  71.179  1.00  0.00    -0.307 A  
HETATM    5 CL   UNL     1      -8.436   8.511  71.792  1.00  0.00    -0.221 Cl 
HETATM    6  C   UNL     1      -9.997   9.747  69.905  1.00  0.00    -0.282 A  
HETATM    7  C   UNL     1     -11.235  10.285  69.499  1.00  0.00    -0.314 A  
HETATM    8  C   UNL     1     -12.362  10.204  70.314  1.00  0.00    -0.211 A  
ENDROOT
BRANCH   6   9
HETATM    9  C   UNL     1      -8.824   9.758  68.933  1.00  0.00    -0.140 C  
BRANCH   9  10
HETATM   10  C   UNL     1      -7.768  10.827  69.313  1.00  0.00    -0.129 C  
BRANCH  10  11
HETATM   11  N   UNL     1      -7.740  12.012  68.475  1.00  0.00    -0.130 NA 
HETATM   12  C   UNL     1      -6.630  12.735  68.133  1.00  0.00    -0.088 A  
HETATM   13  C   UNL     1      -8.803  12.580  67.830  1.00  0.00    -0.185 A  
HETATM   14  N   UNL     1      -8.461  13.690  67.217  1.00  0.00    -0.197 NA 
HETATM   15  C   UNL     1      -7.107  13.794  67.398  1.00  0.00    -0.073 A  
ENDBRANCH  10  11
ENDBRANCH   9  10
BRANCH   9  16
HETATM   16  O   UNL     1      -8.190   8.470  68.847  1.00  0.00    -0.114 OA 
BRANCH  16  17
HETATM   17  C   UNL     1      -8.984   7.493  68.169  1.00  0.00    -0.129 C  
BRANCH  17  18
HETATM   18  C   UNL     1      -8.865   6.183  68.899  1.00  0.00    -0.122 A  
HETATM   19  C   UNL     1      -7.669   5.441  68.924  1.00  0.00    -0.083 A  
HETATM   20 CL   UNL     1      -6.241   5.948  68.088  1.00  0.00    -0.031 Cl 
HETATM   21  C   UNL     1      -8.676   3.754  70.342  1.00  0.00    -0.129 A  
HETATM   22  C   UNL     1      -7.578   4.242  69.641  1.00  0.00    -0.054 A  
HETATM   23  C   UNL     1      -9.877   4.456  70.305  1.00  0.00    -0.284 A  
HETATM   24  C   UNL     1      -9.973   5.652  69.588  1.00  0.00    -0.203 A  
HETATM   25 CL   UNL     1     -11.512   6.449  69.599  1.00  0.00    -0.485 Cl 
ENDBRANCH  17  18
ENDBRANCH  16  17
ENDBRANCH   9  16
ENDBRANCH   6   9
TORSDOF 6
ENDMDL
MODEL      271
REMARK 921   NORMALIZED FREE ENERGY PREDICTED BY IDOCK:   -3.93 KCAL/MOL
REMARK 922        TOTAL FREE ENERGY PREDICTED BY IDOCK:   -6.32 KCAL/MOL
REMARK 923 INTER-LIGAND FREE ENERGY PREDICTED BY IDOCK:   -5.22 KCAL/MOL
REMARK 924 INTRA-LIGAND FREE ENERGY PREDICTED BY IDOCK:   -1.10 KCAL/MOL
REMARK 927      BINDING AFFINITY PREDICTED BY RF-SCORE:    0.00 PKD
ROOT
HETATM    1 CL   UNL     1      -9.027   4.482  66.257  1.00  0.00    -0.116 Cl 
HETATM    2  C   UNL     1      -9.501   5.841  67.199  1.00  0.00    -0.117 A  
HETATM    3  C   UNL     1      -8.531   6.698  67.714  1.00  0.00    -0.122 A  
HETATM    4  C   UNL     1      -8.916   7.831  68.437  1.00  0.00    -0.132 A  
HETATM    5 CL   UNL     1      -7.661   8.850  69.050  1.00  0.00    -0.089 Cl 
HETATM    6  C   UNL     1     -10.275   8.120  68.645  1.00  0.00    -0.226 A  
HETATM    7  C   UNL     1     -11.232   7.215  68.142  1.00  0.00     0.098 A  
HETATM    8  C   UNL     1     -10.850   6.085  67.421  1.00  0.00    -0.394 A  
ENDROOT
BRANCH   6   9
HETATM    9  C   UNL     1     -10.744   9.399  69.326  1.00  0.00    -0.211 C  
BRANCH   9  10
HETATM   10  C   UNL     1     -11.405  10.379  68.325  1.00  0.00    -0.224 C  
BRANCH  10  11
HETATM   11  N   UNL     1     -10.496  11.084  67.439  1.00  0.00    -0.206 NA 
HETATM   12  C   UNL     1      -9.291  11.632  67.784  1.00  0.00    -0.178 A  
HETATM   13  C   UNL     1     -10.650  11.271  66.094  1.00  0.00    -0.258 A  
HETATM   14  N   UNL     1      -9.692  12.018  65.595  1.00  0.00    -0.240 NA 
HETATM   15  C   UNL     1      -8.838  12.246  66.641  1.00  0.00    -0.167 A  
ENDBRANCH  10  11
ENDBRANCH   9  10
BRANCH   9  16
HETATM   16  O   UNL     1     -11.660   9.126  70.401  1.00  0.00    -0.242 OA 
BRANCH  16  17
HETATM   17  C   UNL     1     -11.055   9.204  71.694  1.00  0.00    -0.375 C  
BRANCH  17  18
HETATM   18  C   UNL     1     -10.735   7.810  72.163  1.00  0.00    -0.302 A  
HETATM   19  C   UNL     1      -9.452   7.442  72.607  1.00  0.00    -0.153 A  
HETATM   20 CL   UNL     1      -8.118   8.544  72.619  1.00  0.00    -0.163 Cl 
HETATM   21  C   UNL     1     -10.202   5.190  73.096  1.00  0.00    -0.214 A  
HETATM   22  C   UNL     1      -9.192   6.146  73.071  1.00  0.00    -0.133 A  
HETATM   23  C   UNL     1     -11.471   5.525  72.632  1.00  0.00    -0.331 A  
HETATM   24  C   UNL     1     -11.734   6.816  72.166  1.00  0.00    -0.297 A  
HETATM   25 CL   UNL     1     -13.342   7.134  71.605  1.00  0.00    -0.429 Cl 
ENDBRANCH  17  18
ENDBRANCH  16  17
ENDBRANCH   9  16
ENDBRANCH   6   9
TORSDOF 6
ENDMDL
MODEL      272
REMARK 921   NORMALIZED FREE ENERGY PREDICTED BY IDOCK:   -3.93 KCAL/MOL
REMARK 922        TOTAL FREE ENERGY PREDICTED BY IDOCK:   -6.32 KCAL/MOL
REMARK 923 INTER-LIGAND FREE ENERGY PREDICTED BY IDOCK:   -4.90 KCAL/MOL
REMARK 924 INTRA-LIGAND FREE ENERGY PREDICTED BY IDOCK:   -1.42 KCAL/MOL
REMARK 927      BINDING AFFINITY PREDICTED BY RF-SCORE:    0.00 PKD
ROOT
HETATM    1 CL   UNL     1     -10.758  16.036  66.014  1.00  0.00    -0.302 Cl 
HETATM    2  C   UNL     1     -10.542  14.382  66.431  1.00  0.00    -0.297 A  
HETATM    3  C   UNL     1      -9.299  13.937  66.879  1.00  0.00    -0.265 A  
HETATM    4  C   UNL     1      -9.135  12.604  67.266  1.00  0.00    -0.191 A  
HETATM    5 CL   UNL     1      -7.567  12.120  67.809  1.00  0.00    -0.119 Cl 
HETATM    6  C   UNL     1     -10.213  11.706  67.216  1.00  0.00    -0.226 A  
HETATM    7  C   UNL     1     -11.449  12.177  66.725  1.00  0.00    -0.418 A  
HETATM    8  C   UNL     1     -11.614  13.505  66.338  1.00  0.00    -0.381 A  
ENDROOT
BRANCH   6   9
HETATM    9  C   UNL     1     -10.112  10.277  67.734  1.00  0.00    -0.180 C  
BRANCH   9  10
HETATM   10  C   UNL     1     -11.080  10.020  68.916  1.00  0.00    -0.176 C  
BRANCH  10  11
HETATM   11  N   UNL     1     -10.555   9.207  69.997  1.00  0.00    -0.218 NA 
HETATM   12  C   UNL     1     -10.880   7.905  70.262  1.00  0.00    -0.241 A  
HETATM   13  C   UNL     1      -9.600   9.574  70.903  1.00  0.00    -0.146 A  
HETATM   14  N   UNL     1      -9.401   8.639  71.804  1.00  0.00    -0.251 NA 
HETATM   15  C   UNL     1     -10.193   7.593  71.411  1.00  0.00    -0.185 A  
ENDBRANCH  10  11
ENDBRANCH   9  10
BRANCH   9  16
HETATM   16  O   UNL     1     -10.361   9.315  66.695  1.00  0.00    -0.259 OA 
BRANCH  16  17
HETATM   17  C   UNL     1      -9.425   8.233  66.688  1.00  0.00    -0.209 C  
BRANCH  17  18
HETATM   18  C   UNL     1      -8.045   8.791  66.467  1.00  0.00    -0.103 A  
HETATM   19  C   UNL     1      -7.018   8.657  67.419  1.00  0.00    -0.078 A  
HETATM   20 CL   UNL     1      -7.258   7.876  68.944  1.00  0.00    -0.074 Cl 
HETATM   21  C   UNL     1      -5.447   9.802  65.973  1.00  0.00    -0.047 A  
HETATM   22  C   UNL     1      -5.733   9.156  67.171  1.00  0.00    -0.045 A  
HETATM   23  C   UNL     1      -6.456   9.972  65.030  1.00  0.00    -0.117 A  
HETATM   24  C   UNL     1      -7.740   9.478  65.275  1.00  0.00    -0.111 A  
HETATM   25 CL   UNL     1      -8.929   9.744  64.042  1.00  0.00    -0.260 Cl 
ENDBRANCH  17  18
ENDBRANCH  16  17
ENDBRANCH   9  16
ENDBRANCH   6   9
TORSDOF 6
ENDMDL
MODEL      273
REMARK 921   NORMALIZED FREE ENERGY PREDICTED BY IDOCK:   -3.92 KCAL/MOL
REMARK 922        TOTAL FREE ENERGY PREDICTED BY IDOCK:   -6.31 KCAL/MOL
REMARK 923 INTER-LIGAND FREE ENERGY PREDICTED BY IDOCK:   -6.33 KCAL/MOL
REMARK 924 INTRA-LIGAND FREE ENERGY PREDICTED BY IDOCK:    0.02 KCAL/MOL
REMARK 927      BINDING AFFINITY PREDICTED BY RF-SCORE:    0.00 PKD
ROOT
HETATM    1 CL   UNL     1     -10.463   7.685  70.348  1.00  0.00    -0.216 Cl 
HETATM    2  C   UNL     1     -10.471   9.308  69.781  1.00  0.00    -0.222 A  
HETATM    3  C   UNL     1      -9.268   9.993  69.623  1.00  0.00    -0.236 A  
HETATM    4  C   UNL     1      -9.269  11.295  69.115  1.00  0.00     0.114 A  
HETATM    5 CL   UNL     1      -7.742  12.087  68.947  1.00  0.00    -0.045 Cl 
HETATM    6  C   UNL     1     -10.473  11.921  68.753  1.00  0.00    -0.207 A  
HETATM    7  C   UNL     1     -11.677  11.216  68.958  1.00  0.00    -0.408 A  
HETATM    8  C   UNL     1     -11.678   9.918  69.465  1.00  0.00     0.024 A  
ENDROOT
BRANCH   6   9
HETATM    9  C   UNL     1     -10.516  13.292  68.090  1.00  0.00    -0.245 C  
BRANCH   9  10
HETATM   10  C   UNL     1     -10.435  14.439  69.128  1.00  0.00    -0.189 C  
BRANCH  10  11
HETATM   11  N   UNL     1     -11.626  14.650  69.931  1.00  0.00    -0.271 NA 
HETATM   12  C   UNL     1     -12.059  13.859  70.960  1.00  0.00    -0.277 A  
HETATM   13  C   UNL     1     -12.491  15.705  69.845  1.00  0.00    -0.161 A  
HETATM   14  N   UNL     1     -13.513  15.561  70.656  1.00  0.00    -0.400 NA 
HETATM   15  C   UNL     1     -13.252  14.414  71.358  1.00  0.00    -0.348 A  
ENDBRANCH  10  11
ENDBRANCH   9  10
BRANCH   9  16
HETATM   16  O   UNL     1      -9.464  13.449  67.122  1.00  0.00    -0.227 OA 
BRANCH  16  17
HETATM   17  C   UNL     1      -9.843  14.249  65.999  1.00  0.00    -0.314 C  
BRANCH  17  18
HETATM   18  C   UNL     1     -10.596  13.386  65.023  1.00  0.00    -0.370 A  
HETATM   19  C   UNL     1     -10.274  12.033  64.811  1.00  0.00    -0.279 A  
HETATM   20 CL   UNL     1      -8.962  11.250  65.623  1.00  0.00    -0.201 Cl 
HETATM   21  C   UNL     1     -12.086  11.789  63.221  1.00  0.00    -0.375 A  
HETATM   22  C   UNL     1     -11.015  11.245  63.922  1.00  0.00    -0.382 A  
HETATM   23  C   UNL     1     -12.403  13.134  63.393  1.00  0.00    -0.443 A  
HETATM   24  C   UNL     1     -11.664  13.924  64.277  1.00  0.00    -0.380 A  
HETATM   25 CL   UNL     1     -12.132  15.587  64.418  1.00  0.00    -0.271 Cl 
ENDBRANCH  17  18
ENDBRANCH  16  17
ENDBRANCH   9  16
ENDBRANCH   6   9
TORSDOF 6
ENDMDL
MODEL      274
REMARK 921   NORMALIZED FREE ENERGY PREDICTED BY IDOCK:   -3.90 KCAL/MOL
REMARK 922        TOTAL FREE ENERGY PREDICTED BY IDOCK:   -6.28 KCAL/MOL
REMARK 923 INTER-LIGAND FREE ENERGY PREDICTED BY IDOCK:   -5.62 KCAL/MOL
REMARK 924 INTRA-LIGAND FREE ENERGY PREDICTED BY IDOCK:   -0.66 KCAL/MOL
REMARK 927      BINDING AFFINITY PREDICTED BY RF-SCORE:    0.00 PKD
ROOT
HETATM    1 CL   UNL     1     -11.378  16.410  64.595  1.00  0.00    -0.320 Cl 
HETATM    2  C   UNL     1     -10.970  14.908  65.325  1.00  0.00    -0.380 A  
HETATM    3  C   UNL     1     -11.011  13.738  64.570  1.00  0.00    -0.399 A  
HETATM    4  C   UNL     1     -10.632  12.523  65.148  1.00  0.00    -0.293 A  
HETATM    5 CL   UNL     1     -10.708  11.110  64.156  1.00  0.00    -0.441 Cl 
HETATM    6  C   UNL     1     -10.201  12.469  66.484  1.00  0.00    -0.255 A  
HETATM    7  C   UNL     1     -10.205  13.664  67.233  1.00  0.00    -0.246 A  
HETATM    8  C   UNL     1     -10.583  14.876  66.659  1.00  0.00    -0.305 A  
ENDROOT
BRANCH   6   9
HETATM    9  C   UNL     1      -9.671  11.191  67.122  1.00  0.00    -0.177 C  
BRANCH   9  10
HETATM   10  C   UNL     1     -10.815  10.233  67.536  1.00  0.00    -0.298 C  
BRANCH  10  11
HETATM   11  N   UNL     1     -11.294  10.372  68.899  1.00  0.00    -0.241 NA 
HETATM   12  C   UNL     1     -12.156  11.329  69.361  1.00  0.00    -0.315 A  
HETATM   13  C   UNL     1     -11.021   9.539  69.948  1.00  0.00    -0.238 A  
HETATM   14  N   UNL     1     -11.542   9.984  71.068  1.00  0.00    -0.372 NA 
HETATM   15  C   UNL     1     -12.254  11.098  70.712  1.00  0.00    -0.385 A  
ENDBRANCH  10  11
ENDBRANCH   9  10
BRANCH   9  16
HETATM   16  O   UNL     1      -8.759  10.500  66.252  1.00  0.00    -0.143 OA 
BRANCH  16  17
HETATM   17  C   UNL     1      -7.785   9.723  66.954  1.00  0.00    -0.098 C  
BRANCH  17  18
HETATM   18  C   UNL     1      -7.592   8.419  66.227  1.00  0.00    -0.086 A  
HETATM   19  C   UNL     1      -8.092   7.201  66.723  1.00  0.00    -0.113 A  
HETATM   20 CL   UNL     1      -8.938   7.084  68.228  1.00  0.00    -0.128 Cl 
HETATM   21  C   UNL     1      -7.258   6.003  64.789  1.00  0.00    -0.063 A  
HETATM   22  C   UNL     1      -7.927   6.007  66.008  1.00  0.00    -0.109 A  
HETATM   23  C   UNL     1      -6.729   7.192  64.295  1.00  0.00    -0.043 A  
HETATM   24  C   UNL     1      -6.888   8.384  65.007  1.00  0.00    -0.067 A  
HETATM   25 CL   UNL     1      -6.190   9.809  64.312  1.00  0.00    -0.107 Cl 
ENDBRANCH  17  18
ENDBRANCH  16  17
ENDBRANCH   9  16
ENDBRANCH   6   9
TORSDOF 6
ENDMDL
MODEL      275
REMARK 921   NORMALIZED FREE ENERGY PREDICTED BY IDOCK:   -3.89 KCAL/MOL
REMARK 922        TOTAL FREE ENERGY PREDICTED BY IDOCK:   -6.28 KCAL/MOL
REMARK 923 INTER-LIGAND FREE ENERGY PREDICTED BY IDOCK:   -5.50 KCAL/MOL
REMARK 924 INTRA-LIGAND FREE ENERGY PREDICTED BY IDOCK:   -0.78 KCAL/MOL
REMARK 927      BINDING AFFINITY PREDICTED BY RF-SCORE:    0.00 PKD
ROOT
HETATM    1 CL   UNL     1     -13.291   9.315  72.318  1.00  0.00    -0.517 Cl 
HETATM    2  C   UNL     1     -12.151   9.772  71.115  1.00  0.00    -0.370 A  
HETATM    3  C   UNL     1     -10.815   9.401  71.250  1.00  0.00    -0.431 A  
HETATM    4  C   UNL     1      -9.896   9.728  70.249  1.00  0.00    -0.240 A  
HETATM    5 CL   UNL     1      -8.255   9.239  70.482  1.00  0.00    -0.198 Cl 
HETATM    6  C   UNL     1     -10.308  10.423  69.100  1.00  0.00    -0.241 A  
HETATM    7  C   UNL     1     -11.659  10.816  69.008  1.00  0.00    -0.370 A  
HETATM    8  C   UNL     1     -12.576  10.491  70.005  1.00  0.00    -0.192 A  
ENDROOT
BRANCH   6   9
HETATM    9  C   UNL     1      -9.369  10.701  67.932  1.00  0.00    -0.148 C  
BRANCH   9  10
HETATM   10  C   UNL     1      -8.808  12.144  67.972  1.00  0.00    -0.181 C  
BRANCH  10  11
HETATM   11  N   UNL     1      -9.413  13.084  67.046  1.00  0.00    -0.229 NA 
HETATM   12  C   UNL     1     -10.496  12.845  66.243  1.00  0.00    -0.270 A  
HETATM   13  C   UNL     1      -9.053  14.388  66.857  1.00  0.00    -0.251 A  
HETATM   14  N   UNL     1      -9.745  14.947  65.891  1.00  0.00    -0.325 NA 
HETATM   15  C   UNL     1     -10.649  13.993  65.503  1.00  0.00    -0.318 A  
ENDBRANCH  10  11
ENDBRANCH   9  10
BRANCH   9  16
HETATM   16  O   UNL     1      -8.278   9.765  67.890  1.00  0.00    -0.112 OA 
BRANCH  16  17
HETATM   17  C   UNL     1      -8.408   8.790  66.852  1.00  0.00    -0.108 C  
BRANCH  17  18
HETATM   18  C   UNL     1      -8.397   7.419  67.473  1.00  0.00    -0.113 A  
HETATM   19  C   UNL     1      -9.555   6.626  67.567  1.00  0.00    -0.126 A  
HETATM   20 CL   UNL     1     -11.103   7.168  67.014  1.00  0.00    -0.332 Cl 
HETATM   21  C   UNL     1      -8.307   4.820  68.592  1.00  0.00    -0.083 A  
HETATM   22  C   UNL     1      -9.507   5.340  68.118  1.00  0.00    -0.151 A  
HETATM   23  C   UNL     1      -7.155   5.599  68.536  1.00  0.00    -0.070 A  
HETATM   24  C   UNL     1      -7.200   6.884  67.990  1.00  0.00    -0.091 A  
HETATM   25 CL   UNL     1      -5.715   7.777  67.970  1.00  0.00    -0.032 Cl 
ENDBRANCH  17  18
ENDBRANCH  16  17
ENDBRANCH   9  16
ENDBRANCH   6   9
TORSDOF 6
ENDMDL
MODEL      276
REMARK 921   NORMALIZED FREE ENERGY PREDICTED BY IDOCK:   -3.89 KCAL/MOL
REMARK 922        TOTAL FREE ENERGY PREDICTED BY IDOCK:   -6.27 KCAL/MOL
REMARK 923 INTER-LIGAND FREE ENERGY PREDICTED BY IDOCK:   -5.84 KCAL/MOL
REMARK 924 INTRA-LIGAND FREE ENERGY PREDICTED BY IDOCK:   -0.42 KCAL/MOL
REMARK 927      BINDING AFFINITY PREDICTED BY RF-SCORE:    0.00 PKD
ROOT
HETATM    1 CL   UNL     1      -5.254  18.035  70.113  1.00  0.00    -0.217 Cl 
HETATM    2  C   UNL     1      -6.464  16.984  69.491  1.00  0.00    -0.219 A  
HETATM    3  C   UNL     1      -7.429  17.480  68.617  1.00  0.00    -0.265 A  
HETATM    4  C   UNL     1      -8.384  16.617  68.071  1.00  0.00    -0.187 A  
HETATM    5 CL   UNL     1      -9.552  17.300  66.995  1.00  0.00    -0.254 Cl 
HETATM    6  C   UNL     1      -8.377  15.249  68.389  1.00  0.00    -0.149 A  
HETATM    7  C   UNL     1      -7.411  14.784  69.304  1.00  0.00    -0.168 A  
HETATM    8  C   UNL     1      -6.459  15.642  69.850  1.00  0.00    -0.137 A  
ENDROOT
BRANCH   6   9
HETATM    9  C   UNL     1      -9.323  14.252  67.732  1.00  0.00    -0.198 C  
BRANCH   9  10
HETATM   10  C   UNL     1      -8.587  13.334  66.724  1.00  0.00    -0.026 C  
BRANCH  10  11
HETATM   11  N   UNL     1      -7.634  12.402  67.298  1.00  0.00    -0.153 NA 
HETATM   12  C   UNL     1      -6.271  12.500  67.241  1.00  0.00    -0.122 A  
HETATM   13  C   UNL     1      -7.925  11.298  68.050  1.00  0.00    -0.119 A  
HETATM   14  N   UNL     1      -6.843  10.619  68.353  1.00  0.00    -0.063 NA 
HETATM   15  C   UNL     1      -5.805  11.362  67.855  1.00  0.00    -0.044 A  
ENDBRANCH  10  11
ENDBRANCH   9  10
BRANCH   9  16
HETATM   16  O   UNL     1     -10.005  13.443  68.706  1.00  0.00    -0.174 OA 
BRANCH  16  17
HETATM   17  C   UNL     1     -11.427  13.461  68.561  1.00  0.00    -0.310 C  
BRANCH  17  18
HETATM   18  C   UNL     1     -12.053  13.327  69.924  1.00  0.00    -0.377 A  
HETATM   19  C   UNL     1     -12.351  14.442  70.727  1.00  0.00    -0.347 A  
HETATM   20 CL   UNL     1     -11.993  16.064  70.241  1.00  0.00    -0.297 Cl 
HETATM   21  C   UNL     1     -13.289  13.023  72.453  1.00  0.00    -0.563 A  
HETATM   22  C   UNL     1     -12.966  14.289  71.977  1.00  0.00    -0.437 A  
HETATM   23  C   UNL     1     -12.974  11.904  71.687  1.00  0.00    -0.447 A  
HETATM   24  C   UNL     1     -12.359  12.053  70.441  1.00  0.00    -0.233 A  
HETATM   25 CL   UNL     1     -12.003  10.600  69.566  1.00  0.00    -0.341 Cl 
ENDBRANCH  17  18
ENDBRANCH  16  17
ENDBRANCH   9  16
ENDBRANCH   6   9
TORSDOF 6
ENDMDL
MODEL      277
REMARK 921   NORMALIZED FREE ENERGY PREDICTED BY IDOCK:   -3.88 KCAL/MOL
REMARK 922        TOTAL FREE ENERGY PREDICTED BY IDOCK:   -6.25 KCAL/MOL
REMARK 923 INTER-LIGAND FREE ENERGY PREDICTED BY IDOCK:   -5.79 KCAL/MOL
REMARK 924 INTRA-LIGAND FREE ENERGY PREDICTED BY IDOCK:   -0.46 KCAL/MOL
REMARK 927      BINDING AFFINITY PREDICTED BY RF-SCORE:    0.00 PKD
ROOT
HETATM    1 CL   UNL     1     -10.604   8.097  69.059  1.00  0.00    -0.204 Cl 
HETATM    2  C   UNL     1     -10.499   9.792  68.787  1.00  0.00    -0.218 A  
HETATM    3  C   UNL     1      -9.260  10.427  68.845  1.00  0.00    -0.179 A  
HETATM    4  C   UNL     1      -9.166  11.795  68.575  1.00  0.00    -0.151 A  
HETATM    5 CL   UNL     1      -7.599  12.520  68.667  1.00  0.00    -0.108 Cl 
HETATM    6  C   UNL     1     -10.309  12.538  68.237  1.00  0.00    -0.241 A  
HETATM    7  C   UNL     1     -11.553  11.875  68.221  1.00  0.00    -0.390 A  
HETATM    8  C   UNL     1     -11.649  10.512  68.491  1.00  0.00    -0.222 A  
ENDROOT
BRANCH   6   9
HETATM    9  C   UNL     1     -10.239  14.004  67.824  1.00  0.00    -0.240 C  
BRANCH   9  10
HETATM   10  C   UNL     1     -10.024  14.938  69.040  1.00  0.00    -0.235 C  
BRANCH  10  11
HETATM   11  N   UNL     1      -9.272  16.152  68.779  1.00  0.00    -0.213 NA 
HETATM   12  C   UNL     1      -9.771  17.317  68.263  1.00  0.00    -0.294 A  
HETATM   13  C   UNL     1      -7.952  16.370  69.059  1.00  0.00    -0.227 A  
HETATM   14  N   UNL     1      -7.553  17.545  68.628  1.00  0.00    -0.265 NA 
HETATM   15  C   UNL     1      -8.681  18.144  68.132  1.00  0.00    -0.277 A  
ENDBRANCH  10  11
ENDBRANCH   9  10
BRANCH   9  16
HETATM   16  O   UNL     1      -9.203  14.235  66.854  1.00  0.00    -0.233 OA 
BRANCH  16  17
HETATM   17  C   UNL     1      -9.700  14.690  65.593  1.00  0.00    -0.266 C  
BRANCH  17  18
HETATM   18  C   UNL     1     -10.459  13.567  64.938  1.00  0.00    -0.417 A  
HETATM   19  C   UNL     1      -9.949  12.258  64.865  1.00  0.00    -0.195 A  
HETATM   20 CL   UNL     1      -8.392  11.828  65.485  1.00  0.00     0.438 Cl 
HETATM   21  C   UNL     1     -11.955  11.476  63.753  1.00  0.00    -0.196 A  
HETATM   22  C   UNL     1     -10.693  11.225  64.281  1.00  0.00    -0.416 A  
HETATM   23  C   UNL     1     -12.465  12.771  63.788  1.00  0.00    -0.474 A  
HETATM   24  C   UNL     1     -11.725  13.805  64.367  1.00  0.00    -0.408 A  
HETATM   25 CL   UNL     1     -12.443  15.382  64.357  1.00  0.00    -0.157 Cl 
ENDBRANCH  17  18
ENDBRANCH  16  17
ENDBRANCH   9  16
ENDBRANCH   6   9
TORSDOF 6
ENDMDL
MODEL      278
REMARK 921   NORMALIZED FREE ENERGY PREDICTED BY IDOCK:   -3.86 KCAL/MOL
REMARK 922        TOTAL FREE ENERGY PREDICTED BY IDOCK:   -6.23 KCAL/MOL
REMARK 923 INTER-LIGAND FREE ENERGY PREDICTED BY IDOCK:   -5.12 KCAL/MOL
REMARK 924 INTRA-LIGAND FREE ENERGY PREDICTED BY IDOCK:   -1.12 KCAL/MOL
REMARK 927      BINDING AFFINITY PREDICTED BY RF-SCORE:    0.00 PKD
ROOT
HETATM    1 CL   UNL     1      -9.733  17.942  68.395  1.00  0.00    -0.323 Cl 
HETATM    2  C   UNL     1      -9.789  16.242  68.144  1.00  0.00    -0.229 A  
HETATM    3  C   UNL     1      -8.608  15.537  67.916  1.00  0.00    -0.156 A  
HETATM    4  C   UNL     1      -8.645  14.148  67.763  1.00  0.00    -0.184 A  
HETATM    5 CL   UNL     1      -7.145  13.337  67.481  1.00  0.00    -0.166 Cl 
HETATM    6  C   UNL     1      -9.862  13.451  67.843  1.00  0.00    -0.237 A  
HETATM    7  C   UNL     1     -11.044  14.196  68.038  1.00  0.00    -0.285 A  
HETATM    8  C   UNL     1     -11.009  15.580  68.191  1.00  0.00    -0.312 A  
ENDROOT
BRANCH   6   9
HETATM    9  C   UNL     1      -9.939  11.930  67.795  1.00  0.00    -0.186 C  
BRANCH   9  10
HETATM   10  C   UNL     1      -9.785  11.299  69.202  1.00  0.00     0.031 C  
BRANCH  10  11
HETATM   11  N   UNL     1      -8.866  10.180  69.295  1.00  0.00    -0.173 NA 
HETATM   12  C   UNL     1      -9.205   8.855  69.329  1.00  0.00    -0.145 A  
HETATM   13  C   UNL     1      -7.501  10.245  69.302  1.00  0.00    -0.112 A  
HETATM   14  N   UNL     1      -6.960   9.061  69.477  1.00  0.00    -0.050 NA 
HETATM   15  C   UNL     1      -8.015   8.187  69.492  1.00  0.00    -0.113 A  
ENDBRANCH  10  11
ENDBRANCH   9  10
BRANCH   9  16
HETATM   16  O   UNL     1     -11.166  11.476  67.200  1.00  0.00    -0.280 OA 
BRANCH  16  17
HETATM   17  C   UNL     1     -11.023  10.258  66.466  1.00  0.00     0.096 C  
BRANCH  17  18
HETATM   18  C   UNL     1     -10.349  10.560  65.154  1.00  0.00    -0.310 A  
HETATM   19  C   UNL     1      -9.143   9.948  64.770  1.00  0.00    -0.237 A  
HETATM   20 CL   UNL     1      -8.305   8.823  65.783  1.00  0.00    -0.127 Cl 
HETATM   21  C   UNL     1      -9.156  11.117  62.647  1.00  0.00    -0.366 A  
HETATM   22  C   UNL     1      -8.556  10.223  63.528  1.00  0.00    -0.195 A  
HETATM   23  C   UNL     1     -10.335  11.757  63.021  1.00  0.00    -0.237 A  
HETATM   24  C   UNL     1     -10.921  11.487  64.260  1.00  0.00    -0.341 A  
HETATM   25 CL   UNL     1     -12.384  12.338  64.635  1.00  0.00    -0.481 Cl 
ENDBRANCH  17  18
ENDBRANCH  16  17
ENDBRANCH   9  16
ENDBRANCH   6   9
TORSDOF 6
ENDMDL
MODEL      279
REMARK 921   NORMALIZED FREE ENERGY PREDICTED BY IDOCK:   -3.85 KCAL/MOL
REMARK 922        TOTAL FREE ENERGY PREDICTED BY IDOCK:   -6.22 KCAL/MOL
REMARK 923 INTER-LIGAND FREE ENERGY PREDICTED BY IDOCK:   -5.63 KCAL/MOL
REMARK 924 INTRA-LIGAND FREE ENERGY PREDICTED BY IDOCK:   -0.59 KCAL/MOL
REMARK 927      BINDING AFFINITY PREDICTED BY RF-SCORE:    0.00 PKD
ROOT
HETATM    1 CL   UNL     1     -13.434  13.441  72.008  1.00  0.00    -0.548 Cl 
HETATM    2  C   UNL     1     -12.430  13.349  70.615  1.00  0.00    -0.311 A  
HETATM    3  C   UNL     1     -11.605  14.422  70.285  1.00  0.00    -0.311 A  
HETATM    4  C   UNL     1     -10.751  14.329  69.182  1.00  0.00    -0.220 A  
HETATM    5 CL   UNL     1      -9.756  15.698  68.828  1.00  0.00    -0.203 Cl 
HETATM    6  C   UNL     1     -10.710  13.161  68.404  1.00  0.00    -0.270 A  
HETATM    7  C   UNL     1     -11.583  12.106  68.742  1.00  0.00    -0.380 A  
HETATM    8  C   UNL     1     -12.435  12.196  69.841  1.00  0.00     0.005 A  
ENDROOT
BRANCH   6   9
HETATM    9  C   UNL     1      -9.717  12.970  67.264  1.00  0.00    -0.225 C  
BRANCH   9  10
HETATM   10  C   UNL     1     -10.027  13.901  66.066  1.00  0.00    -0.310 C  
BRANCH  10  11
HETATM   11  N   UNL     1     -10.859  13.331  65.022  1.00  0.00    -0.308 NA 
HETATM   12  C   UNL     1     -10.940  12.007  64.684  1.00  0.00    -0.317 A  
HETATM   13  C   UNL     1     -11.753  14.000  64.235  1.00  0.00    -0.367 A  
HETATM   14  N   UNL     1     -12.290  13.212  63.332  1.00  0.00    -0.746 NA 
HETATM   15  C   UNL     1     -11.791  11.966  63.606  1.00  0.00    -0.473 A  
ENDBRANCH  10  11
ENDBRANCH   9  10
BRANCH   9  16
HETATM   16  O   UNL     1      -8.362  13.184  67.697  1.00  0.00    -0.149 OA 
BRANCH  16  17
HETATM   17  C   UNL     1      -7.990  12.372  68.814  1.00  0.00     0.048 C  
BRANCH  17  18
HETATM   18  C   UNL     1      -7.553  11.024  68.307  1.00  0.00    -0.106 A  
HETATM   19  C   UNL     1      -6.512  10.873  67.373  1.00  0.00    -0.065 A  
HETATM   20 CL   UNL     1      -5.667  12.222  66.693  1.00  0.00     0.227 Cl 
HETATM   21  C   UNL     1      -6.726   8.460  67.435  1.00  0.00    -0.063 A  
HETATM   22  C   UNL     1      -6.103   9.604  66.945  1.00  0.00    -0.063 A  
HETATM   23  C   UNL     1      -7.778   8.589  68.337  1.00  0.00    -0.101 A  
HETATM   24  C   UNL     1      -8.191   9.854  68.764  1.00  0.00    -0.114 A  
HETATM   25 CL   UNL     1      -9.512   9.909  69.884  1.00  0.00    -0.258 Cl 
ENDBRANCH  17  18
ENDBRANCH  16  17
ENDBRANCH   9  16
ENDBRANCH   6   9
TORSDOF 6
ENDMDL
MODEL      280
REMARK 921   NORMALIZED FREE ENERGY PREDICTED BY IDOCK:   -3.84 KCAL/MOL
REMARK 922        TOTAL FREE ENERGY PREDICTED BY IDOCK:   -6.20 KCAL/MOL
REMARK 923 INTER-LIGAND FREE ENERGY PREDICTED BY IDOCK:   -5.71 KCAL/MOL
REMARK 924 INTRA-LIGAND FREE ENERGY PREDICTED BY IDOCK:   -0.49 KCAL/MOL
REMARK 927      BINDING AFFINITY PREDICTED BY RF-SCORE:    0.00 PKD
ROOT
HETATM    1 CL   UNL     1     -14.324  13.602  72.053  1.00  0.00    -0.394 Cl 
HETATM    2  C   UNL     1     -12.991  13.733  70.974  1.00  0.00    -0.253 A  
HETATM    3  C   UNL     1     -12.513  14.991  70.614  1.00  0.00    -0.422 A  
HETATM    4  C   UNL     1     -11.399  15.099  69.777  1.00  0.00    -0.285 A  
HETATM    5 CL   UNL     1     -10.860  16.690  69.368  1.00  0.00    -0.318 Cl 
HETATM    6  C   UNL     1     -10.749  13.949  69.298  1.00  0.00    -0.117 A  
HETATM    7  C   UNL     1     -11.278  12.691  69.651  1.00  0.00    -0.077 A  
HETATM    8  C   UNL     1     -12.389  12.581  70.484  1.00  0.00    -0.345 A  
ENDROOT
BRANCH   6   9
HETATM    9  C   UNL     1      -9.466  14.016  68.479  1.00  0.00    -0.191 C  
BRANCH   9  10
HETATM   10  C   UNL     1      -8.941  12.606  68.111  1.00  0.00    -0.199 C  
BRANCH  10  11
HETATM   11  N   UNL     1      -7.591  12.301  68.548  1.00  0.00    -0.120 NA 
HETATM   12  C   UNL     1      -6.472  13.050  68.305  1.00  0.00    -0.093 A  
HETATM   13  C   UNL     1      -7.206  11.249  69.332  1.00  0.00    -0.063 A  
HETATM   14  N   UNL     1      -5.902  11.209  69.483  1.00  0.00    -0.054 NA 
HETATM   15  C   UNL     1      -5.436  12.330  68.848  1.00  0.00    -0.054 A  
ENDBRANCH  10  11
ENDBRANCH   9  10
BRANCH   9  16
HETATM   16  O   UNL     1      -9.640  14.789  67.279  1.00  0.00    -0.216 OA 
BRANCH  16  17
HETATM   17  C   UNL     1      -9.190  14.115  66.101  1.00  0.00    -0.055 C  
BRANCH  17  18
HETATM   18  C   UNL     1     -10.377  13.842  65.217  1.00  0.00    -0.378 A  
HETATM   19  C   UNL     1     -10.657  12.560  64.709  1.00  0.00    -0.305 A  
HETATM   20 CL   UNL     1      -9.645  11.192  65.021  1.00  0.00    -0.263 Cl 
HETATM   21  C   UNL     1     -12.660  13.369  63.610  1.00  0.00    -0.166 A  
HETATM   22  C   UNL     1     -11.789  12.328  63.917  1.00  0.00    -0.553 A  
HETATM   23  C   UNL     1     -12.384  14.651  64.077  1.00  0.00    -0.167 A  
HETATM   24  C   UNL     1     -11.255  14.887  64.865  1.00  0.00    -0.410 A  
HETATM   25 CL   UNL     1     -10.996  16.516  65.394  1.00  0.00    -0.213 Cl 
ENDBRANCH  17  18
ENDBRANCH  16  17
ENDBRANCH   9  16
ENDBRANCH   6   9
TORSDOF 6
ENDMDL
MODEL      281
REMARK 921   NORMALIZED FREE ENERGY PREDICTED BY IDOCK:   -3.83 KCAL/MOL
REMARK 922        TOTAL FREE ENERGY PREDICTED BY IDOCK:   -6.19 KCAL/MOL
REMARK 923 INTER-LIGAND FREE ENERGY PREDICTED BY IDOCK:   -5.42 KCAL/MOL
REMARK 924 INTRA-LIGAND FREE ENERGY PREDICTED BY IDOCK:   -0.77 KCAL/MOL
REMARK 927      BINDING AFFINITY PREDICTED BY RF-SCORE:    0.00 PKD
ROOT
HETATM    1 CL   UNL     1     -10.315  10.282  65.134  1.00  0.00    -0.297 Cl 
HETATM    2  C   UNL     1      -9.935   9.617  66.674  1.00  0.00    -0.236 A  
HETATM    3  C   UNL     1      -8.980  10.236  67.478  1.00  0.00    -0.138 A  
HETATM    4  C   UNL     1      -8.706   9.726  68.751  1.00  0.00    -0.128 A  
HETATM    5 CL   UNL     1      -7.510  10.542  69.695  1.00  0.00    -0.153 Cl 
HETATM    6  C   UNL     1      -9.390   8.598  69.232  1.00  0.00    -0.153 A  
HETATM    7  C   UNL     1     -10.324   7.972  68.381  1.00  0.00    -0.236 A  
HETATM    8  C   UNL     1     -10.598   8.478  67.112  1.00  0.00    -0.314 A  
ENDROOT
BRANCH   6   9
HETATM    9  C   UNL     1      -9.208   8.075  70.652  1.00  0.00    -0.154 C  
BRANCH   9  10
HETATM   10  C   UNL     1      -9.764   9.064  71.707  1.00  0.00    -0.241 C  
BRANCH  10  11
HETATM   11  N   UNL     1     -11.204   9.247  71.704  1.00  0.00    -0.370 NA 
HETATM   12  C   UNL     1     -11.888  10.270  71.105  1.00  0.00    -0.362 A  
HETATM   13  C   UNL     1     -12.135   8.403  72.241  1.00  0.00    -0.392 A  
HETATM   14  N   UNL     1     -13.349   8.893  72.142  1.00  0.00    -0.408 NA 
HETATM   15  C   UNL     1     -13.206  10.056  71.433  1.00  0.00    -0.395 A  
ENDBRANCH  10  11
ENDBRANCH   9  10
BRANCH   9  16
HETATM   16  O   UNL     1      -9.826   6.789  70.830  1.00  0.00    -0.182 OA 
BRANCH  16  17
HETATM   17  C   UNL     1      -9.136   5.954  71.763  1.00  0.00    -0.142 C  
BRANCH  17  18
HETATM   18  C   UNL     1      -9.278   4.521  71.326  1.00  0.00    -0.195 A  
HETATM   19  C   UNL     1      -9.937   3.557  72.110  1.00  0.00    -0.164 A  
HETATM   20 CL   UNL     1     -10.609   3.920  73.663  1.00  0.00    -0.261 Cl 
HETATM   21  C   UNL     1      -9.573   1.852  70.427  1.00  0.00    -0.108 A  
HETATM   22  C   UNL     1     -10.084   2.238  71.662  1.00  0.00    -0.089 A  
HETATM   23  C   UNL     1      -8.890   2.783  69.649  1.00  0.00    -0.147 A  
HETATM   24  C   UNL     1      -8.739   4.099  70.094  1.00  0.00    -0.074 A  
HETATM   25 CL   UNL     1      -7.871   5.181  69.056  1.00  0.00    -0.081 Cl 
ENDBRANCH  17  18
ENDBRANCH  16  17
ENDBRANCH   9  16
ENDBRANCH   6   9
TORSDOF 6
ENDMDL
MODEL      282
REMARK 921   NORMALIZED FREE ENERGY PREDICTED BY IDOCK:   -3.82 KCAL/MOL
REMARK 922        TOTAL FREE ENERGY PREDICTED BY IDOCK:   -6.18 KCAL/MOL
REMARK 923 INTER-LIGAND FREE ENERGY PREDICTED BY IDOCK:   -5.51 KCAL/MOL
REMARK 924 INTRA-LIGAND FREE ENERGY PREDICTED BY IDOCK:   -0.67 KCAL/MOL
REMARK 927      BINDING AFFINITY PREDICTED BY RF-SCORE:    0.00 PKD
ROOT
HETATM    1 CL   UNL     1     -11.002   5.427  70.460  1.00  0.00    -0.203 Cl 
HETATM    2  C   UNL     1     -10.484   6.904  69.747  1.00  0.00    -0.217 A  
HETATM    3  C   UNL     1     -11.024   8.111  70.185  1.00  0.00    -0.223 A  
HETATM    4  C   UNL     1     -10.569   9.316  69.642  1.00  0.00    -0.229 A  
HETATM    5 CL   UNL     1     -11.283  10.776  70.230  1.00  0.00    -0.360 Cl 
HETATM    6  C   UNL     1      -9.564   9.324  68.661  1.00  0.00    -0.152 A  
HETATM    7  C   UNL     1      -9.063   8.084  68.212  1.00  0.00    -0.135 A  
HETATM    8  C   UNL     1      -9.516   6.883  68.751  1.00  0.00    -0.135 A  
ENDROOT
BRANCH   6   9
HETATM    9  C   UNL     1      -8.956  10.613  68.123  1.00  0.00    -0.141 C  
BRANCH   9  10
HETATM   10  C   UNL     1      -7.447  10.723  68.455  1.00  0.00    -0.095 C  
BRANCH  10  11
HETATM   11  N   UNL     1      -6.538  10.493  67.346  1.00  0.00    -0.066 NA 
HETATM   12  C   UNL     1      -5.864  11.452  66.639  1.00  0.00    -0.144 A  
HETATM   13  C   UNL     1      -6.144   9.281  66.853  1.00  0.00    -0.064 A  
HETATM   14  N   UNL     1      -5.376   9.413  65.796  1.00  0.00    -0.039 NA 
HETATM   15  C   UNL     1      -5.194  10.764  65.656  1.00  0.00    -0.132 A  
ENDBRANCH  10  11
ENDBRANCH   9  10
BRANCH   9  16
HETATM   16  O   UNL     1      -9.143  10.739  66.703  1.00  0.00    -0.155 OA 
BRANCH  16  17
HETATM   17  C   UNL     1      -9.195  12.096  66.257  1.00  0.00    -0.183 C  
BRANCH  17  18
HETATM   18  C   UNL     1     -10.463  12.299  65.471  1.00  0.00    -0.296 A  
HETATM   19  C   UNL     1     -10.589  11.896  64.130  1.00  0.00    -0.350 A  
HETATM   20 CL   UNL     1      -9.289  11.167  63.250  1.00  0.00    -0.292 Cl 
HETATM   21  C   UNL     1     -12.892  12.645  64.059  1.00  0.00    -0.262 A  
HETATM   22  C   UNL     1     -11.793  12.065  63.434  1.00  0.00    -0.542 A  
HETATM   23  C   UNL     1     -12.779  13.079  65.377  1.00  0.00    -0.369 A  
HETATM   24  C   UNL     1     -11.579  12.914  66.073  1.00  0.00    -0.375 A  
HETATM   25 CL   UNL     1     -11.537  13.490  67.706  1.00  0.00    -0.353 Cl 
ENDBRANCH  17  18
ENDBRANCH  16  17
ENDBRANCH   9  16
ENDBRANCH   6   9
TORSDOF 6
ENDMDL
MODEL      283
REMARK 921   NORMALIZED FREE ENERGY PREDICTED BY IDOCK:   -3.82 KCAL/MOL
REMARK 922        TOTAL FREE ENERGY PREDICTED BY IDOCK:   -6.17 KCAL/MOL
REMARK 923 INTER-LIGAND FREE ENERGY PREDICTED BY IDOCK:   -5.85 KCAL/MOL
REMARK 924 INTRA-LIGAND FREE ENERGY PREDICTED BY IDOCK:   -0.32 KCAL/MOL
REMARK 927      BINDING AFFINITY PREDICTED BY RF-SCORE:    0.00 PKD
ROOT
HETATM    1 CL   UNL     1      -7.564   4.793  71.754  1.00  0.00    -0.092 Cl 
HETATM    2  C   UNL     1      -8.030   6.085  70.719  1.00  0.00    -0.114 A  
HETATM    3  C   UNL     1      -9.250   6.030  70.049  1.00  0.00    -0.160 A  
HETATM    4  C   UNL     1      -9.653   7.101  69.246  1.00  0.00    -0.155 A  
HETATM    5 CL   UNL     1     -11.177   6.965  68.443  1.00  0.00    -0.124 Cl 
HETATM    6  C   UNL     1      -8.842   8.239  69.112  1.00  0.00    -0.143 A  
HETATM    7  C   UNL     1      -7.596   8.250  69.774  1.00  0.00    -0.092 A  
HETATM    8  C   UNL     1      -7.193   7.184  70.574  1.00  0.00    -0.067 A  
ENDROOT
BRANCH   6   9
HETATM    9  C   UNL     1      -9.288   9.476  68.342  1.00  0.00    -0.133 C  
BRANCH   9  10
HETATM   10  C   UNL     1     -10.173   9.111  67.125  1.00  0.00    -0.261 C  
BRANCH  10  11
HETATM   11  N   UNL     1      -9.621   9.437  65.822  1.00  0.00    -0.259 NA 
HETATM   12  C   UNL     1      -8.644   8.744  65.161  1.00  0.00    -0.182 A  
HETATM   13  C   UNL     1     -10.021  10.451  64.998  1.00  0.00    -0.330 A  
HETATM   14  N   UNL     1      -9.268  10.529  63.924  1.00  0.00    -0.233 NA 
HETATM   15  C   UNL     1      -8.408   9.466  64.015  1.00  0.00    -0.174 A  
ENDBRANCH  10  11
ENDBRANCH   9  10
BRANCH   9  16
HETATM   16  O   UNL     1      -9.994  10.403  69.185  1.00  0.00    -0.202 OA 
BRANCH  16  17
HETATM   17  C   UNL     1     -11.341  10.635  68.767  1.00  0.00    -0.277 C  
BRANCH  17  18
HETATM   18  C   UNL     1     -12.052  11.417  69.839  1.00  0.00    -0.404 A  
HETATM   19  C   UNL     1     -12.555  10.811  71.005  1.00  0.00    -0.420 A  
HETATM   20 CL   UNL     1     -12.437   9.109  71.294  1.00  0.00    -0.366 Cl 
HETATM   21  C   UNL     1     -13.324  12.945  71.856  1.00  0.00    -0.530 A  
HETATM   22  C   UNL     1     -13.181  11.569  72.002  1.00  0.00    -0.443 A  
HETATM   23  C   UNL     1     -12.860  13.561  70.696  1.00  0.00    -0.189 A  
HETATM   24  C   UNL     1     -12.238  12.807  69.698  1.00  0.00    -0.126 A  
HETATM   25 CL   UNL     1     -11.700  13.664  68.291  1.00  0.00    -0.378 Cl 
ENDBRANCH  17  18
ENDBRANCH  16  17
ENDBRANCH   9  16
ENDBRANCH   6   9
TORSDOF 6
ENDMDL
MODEL      284
REMARK 921   NORMALIZED FREE ENERGY PREDICTED BY IDOCK:   -3.80 KCAL/MOL
REMARK 922        TOTAL FREE ENERGY PREDICTED BY IDOCK:   -6.15 KCAL/MOL
REMARK 923 INTER-LIGAND FREE ENERGY PREDICTED BY IDOCK:   -4.67 KCAL/MOL
REMARK 924 INTRA-LIGAND FREE ENERGY PREDICTED BY IDOCK:   -1.47 KCAL/MOL
REMARK 927      BINDING AFFINITY PREDICTED BY RF-SCORE:    0.00 PKD
ROOT
HETATM    1 CL   UNL     1     -10.100  11.908  65.064  1.00  0.00    -0.288 Cl 
HETATM    2  C   UNL     1      -9.537  10.525  65.916  1.00  0.00    -0.204 A  
HETATM    3  C   UNL     1     -10.391   9.442  66.117  1.00  0.00    -0.162 A  
HETATM    4  C   UNL     1      -9.921   8.296  66.766  1.00  0.00    -0.285 A  
HETATM    5 CL   UNL     1     -11.033   6.991  66.985  1.00  0.00    -0.435 Cl 
HETATM    6  C   UNL     1      -8.591   8.221  67.211  1.00  0.00    -0.124 A  
HETATM    7  C   UNL     1      -7.762   9.346  67.025  1.00  0.00    -0.091 A  
HETATM    8  C   UNL     1      -8.229  10.489  66.379  1.00  0.00    -0.140 A  
ENDROOT
BRANCH   6   9
HETATM    9  C   UNL     1      -8.002   6.954  67.820  1.00  0.00    -0.114 C  
BRANCH   9  10
HETATM   10  C   UNL     1      -7.193   6.137  66.782  1.00  0.00    -0.074 C  
BRANCH  10  11
HETATM   11  N   UNL     1      -7.971   5.280  65.906  1.00  0.00    -0.103 NA 
HETATM   12  C   UNL     1      -8.159   5.453  64.562  1.00  0.00    -0.122 A  
HETATM   13  C   UNL     1      -8.601   4.117  66.253  1.00  0.00    -0.113 A  
HETATM   14  N   UNL     1      -9.287   3.620  65.250  1.00  0.00    -0.151 NA 
HETATM   15  C   UNL     1      -9.016   4.444  64.190  1.00  0.00    -0.151 A  
ENDBRANCH  10  11
ENDBRANCH   9  10
BRANCH   9  16
HETATM   16  O   UNL     1      -7.169   7.245  68.954  1.00  0.00    -0.084 OA 
BRANCH  16  17
HETATM   17  C   UNL     1      -7.563   6.549  70.140  1.00  0.00    -0.096 C  
BRANCH  17  18
HETATM   18  C   UNL     1      -9.032   6.783  70.371  1.00  0.00    -0.152 A  
HETATM   19  C   UNL     1      -9.982   5.750  70.275  1.00  0.00    -0.198 A  
HETATM   20 CL   UNL     1      -9.555   4.128  69.846  1.00  0.00    -0.269 Cl 
HETATM   21  C   UNL     1     -11.775   7.263  70.880  1.00  0.00    -0.348 A  
HETATM   22  C   UNL     1     -11.338   5.989  70.530  1.00  0.00    -0.310 A  
HETATM   23  C   UNL     1     -10.856   8.306  70.950  1.00  0.00    -0.261 A  
HETATM   24  C   UNL     1      -9.503   8.071  70.694  1.00  0.00    -0.162 A  
HETATM   25 CL   UNL     1      -8.438   9.434  70.802  1.00  0.00    -0.234 Cl 
ENDBRANCH  17  18
ENDBRANCH  16  17
ENDBRANCH   9  16
ENDBRANCH   6   9
TORSDOF 6
ENDMDL
MODEL      285
REMARK 921   NORMALIZED FREE ENERGY PREDICTED BY IDOCK:   -3.79 KCAL/MOL
REMARK 922        TOTAL FREE ENERGY PREDICTED BY IDOCK:   -6.13 KCAL/MOL
REMARK 923 INTER-LIGAND FREE ENERGY PREDICTED BY IDOCK:   -5.30 KCAL/MOL
REMARK 924 INTRA-LIGAND FREE ENERGY PREDICTED BY IDOCK:   -0.83 KCAL/MOL
REMARK 927      BINDING AFFINITY PREDICTED BY RF-SCORE:    0.00 PKD
ROOT
HETATM    1 CL   UNL     1     -12.708  13.897  65.265  1.00  0.00    -0.501 Cl 
HETATM    2  C   UNL     1     -11.775  12.729  66.114  1.00  0.00    -0.403 A  
HETATM    3  C   UNL     1     -11.987  12.531  67.477  1.00  0.00    -0.287 A  
HETATM    4  C   UNL     1     -11.265  11.547  68.159  1.00  0.00    -0.271 A  
HETATM    5 CL   UNL     1     -11.576  11.357  69.848  1.00  0.00    -0.391 Cl 
HETATM    6  C   UNL     1     -10.329  10.748  67.481  1.00  0.00    -0.244 A  
HETATM    7  C   UNL     1     -10.111  10.996  66.111  1.00  0.00    -0.286 A  
HETATM    8  C   UNL     1     -10.829  11.976  65.429  1.00  0.00    -0.336 A  
ENDROOT
BRANCH   6   9
HETATM    9  C   UNL     1      -9.603   9.590  68.155  1.00  0.00    -0.137 C  
BRANCH   9  10
HETATM   10  C   UNL     1      -8.530  10.085  69.157  1.00  0.00    -0.156 C  
BRANCH  10  11
HETATM   11  N   UNL     1      -7.365  10.723  68.571  1.00  0.00    -0.090 NA 
HETATM   12  C   UNL     1      -6.558  10.198  67.599  1.00  0.00    -0.067 A  
HETATM   13  C   UNL     1      -6.904  11.982  68.839  1.00  0.00    -0.103 A  
HETATM   14  N   UNL     1      -5.783  12.232  68.203  1.00  0.00    -0.051 NA 
HETATM   15  C   UNL     1      -5.560  11.127  67.425  1.00  0.00    -0.051 A  
ENDBRANCH  10  11
ENDBRANCH   9  10
BRANCH   9  16
HETATM   16  O   UNL     1     -10.516   8.708  68.829  1.00  0.00    -0.214 OA 
BRANCH  16  17
HETATM   17  C   UNL     1     -10.409   7.348  68.402  1.00  0.00    -0.194 C  
BRANCH  17  18
HETATM   18  C   UNL     1      -9.819   6.534  69.522  1.00  0.00    -0.167 A  
HETATM   19  C   UNL     1      -8.483   6.094  69.508  1.00  0.00    -0.120 A  
HETATM   20 CL   UNL     1      -7.409   6.416  68.190  1.00  0.00    -0.087 Cl 
HETATM   21  C   UNL     1      -8.739   5.060  71.684  1.00  0.00    -0.141 A  
HETATM   22  C   UNL     1      -7.950   5.368  70.581  1.00  0.00    -0.105 A  
HETATM   23  C   UNL     1     -10.072   5.459  71.704  1.00  0.00    -0.259 A  
HETATM   24  C   UNL     1     -10.608   6.181  70.635  1.00  0.00    -0.249 A  
HETATM   25 CL   UNL     1     -12.278   6.627  70.750  1.00  0.00    -0.393 Cl 
ENDBRANCH  17  18
ENDBRANCH  16  17
ENDBRANCH   9  16
ENDBRANCH   6   9
TORSDOF 6
ENDMDL
MODEL      286
REMARK 921   NORMALIZED FREE ENERGY PREDICTED BY IDOCK:   -3.78 KCAL/MOL
REMARK 922        TOTAL FREE ENERGY PREDICTED BY IDOCK:   -6.12 KCAL/MOL
REMARK 923 INTER-LIGAND FREE ENERGY PREDICTED BY IDOCK:   -4.95 KCAL/MOL
REMARK 924 INTRA-LIGAND FREE ENERGY PREDICTED BY IDOCK:   -1.17 KCAL/MOL
REMARK 927      BINDING AFFINITY PREDICTED BY RF-SCORE:    0.00 PKD
ROOT
HETATM    1 CL   UNL     1     -11.645  15.479  64.473  1.00  0.00    -0.355 Cl 
HETATM    2  C   UNL     1     -11.097  14.151  65.418  1.00  0.00    -0.321 A  
HETATM    3  C   UNL     1     -10.056  14.331  66.326  1.00  0.00    -0.308 A  
HETATM    4  C   UNL     1      -9.642  13.265  67.131  1.00  0.00    -0.240 A  
HETATM    5 CL   UNL     1      -8.344  13.556  68.235  1.00  0.00    -0.162 Cl 
HETATM    6  C   UNL     1     -10.272  12.013  67.039  1.00  0.00    -0.224 A  
HETATM    7  C   UNL     1     -11.298  11.852  66.086  1.00  0.00    -0.383 A  
HETATM    8  C   UNL     1     -11.711  12.913  65.282  1.00  0.00    -0.399 A  
ENDROOT
BRANCH   6   9
HETATM    9  C   UNL     1      -9.934  10.857  67.973  1.00  0.00    -0.171 C  
BRANCH   9  10
HETATM   10  C   UNL     1     -11.207  10.178  68.538  1.00  0.00    -0.168 C  
BRANCH  10  11
HETATM   11  N   UNL     1     -11.013   9.349  69.713  1.00  0.00    -0.235 NA 
HETATM   12  C   UNL     1     -10.857   7.990  69.728  1.00  0.00    -0.194 A  
HETATM   13  C   UNL     1     -10.887   9.781  71.004  1.00  0.00    -0.308 A  
HETATM   14  N   UNL     1     -10.801   8.777  71.845  1.00  0.00    -0.339 NA 
HETATM   15  C   UNL     1     -10.779   7.655  71.059  1.00  0.00    -0.228 A  
ENDBRANCH  10  11
ENDBRANCH   9  10
BRANCH   9  16
HETATM   16  O   UNL     1      -9.114   9.870  67.324  1.00  0.00    -0.134 OA 
BRANCH  16  17
HETATM   17  C   UNL     1      -7.780   9.816  67.837  1.00  0.00    -0.087 C  
BRANCH  17  18
HETATM   18  C   UNL     1      -7.490   8.408  68.282  1.00  0.00    -0.096 A  
HETATM   19  C   UNL     1      -7.317   8.068  69.636  1.00  0.00    -0.085 A  
HETATM   20 CL   UNL     1      -7.383   9.240  70.907  1.00  0.00    -0.128 Cl 
HETATM   21  C   UNL     1      -7.010   5.731  69.072  1.00  0.00    -0.067 A  
HETATM   22  C   UNL     1      -7.082   6.743  70.024  1.00  0.00    -0.071 A  
HETATM   23  C   UNL     1      -7.148   6.051  67.724  1.00  0.00    -0.074 A  
HETATM   24  C   UNL     1      -7.379   7.372  67.333  1.00  0.00    -0.102 A  
HETATM   25 CL   UNL     1      -7.533   7.669  65.633  1.00  0.00    -0.076 Cl 
ENDBRANCH  17  18
ENDBRANCH  16  17
ENDBRANCH   9  16
ENDBRANCH   6   9
TORSDOF 6
ENDMDL
MODEL      287
REMARK 921   NORMALIZED FREE ENERGY PREDICTED BY IDOCK:   -3.78 KCAL/MOL
REMARK 922        TOTAL FREE ENERGY PREDICTED BY IDOCK:   -6.12 KCAL/MOL
REMARK 923 INTER-LIGAND FREE ENERGY PREDICTED BY IDOCK:   -5.42 KCAL/MOL
REMARK 924 INTRA-LIGAND FREE ENERGY PREDICTED BY IDOCK:   -0.70 KCAL/MOL
REMARK 927      BINDING AFFINITY PREDICTED BY RF-SCORE:    0.00 PKD
ROOT
HETATM    1 CL   UNL     1     -10.225  13.728  65.655  1.00  0.00    -0.315 Cl 
HETATM    2  C   UNL     1      -9.870  12.085  66.020  1.00  0.00    -0.237 A  
HETATM    3  C   UNL     1      -9.200  11.768  67.199  1.00  0.00    -0.179 A  
HETATM    4  C   UNL     1      -8.954  10.430  67.522  1.00  0.00    -0.135 A  
HETATM    5 CL   UNL     1      -8.117  10.107  68.999  1.00  0.00    -0.115 Cl 
HETATM    6  C   UNL     1      -9.382   9.398  66.670  1.00  0.00    -0.211 A  
HETATM    7  C   UNL     1     -10.025   9.753  65.466  1.00  0.00    -0.329 A  
HETATM    8  C   UNL     1     -10.271  11.086  65.143  1.00  0.00    -0.352 A  
ENDROOT
BRANCH   6   9
HETATM    9  C   UNL     1      -9.239   7.925  67.033  1.00  0.00    -0.148 C  
BRANCH   9  10
HETATM   10  C   UNL     1      -7.892   7.338  66.543  1.00  0.00    -0.109 C  
BRANCH  10  11
HETATM   11  N   UNL     1      -7.985   6.157  65.704  1.00  0.00    -0.108 NA 
HETATM   12  C   UNL     1      -8.117   6.141  64.342  1.00  0.00    -0.102 A  
HETATM   13  C   UNL     1      -7.895   4.856  66.113  1.00  0.00    -0.099 A  
HETATM   14  N   UNL     1      -8.100   4.020  65.121  1.00  0.00    -0.096 NA 
HETATM   15  C   UNL     1      -8.236   4.812  64.011  1.00  0.00    -0.119 A  
ENDBRANCH  10  11
ENDBRANCH   9  10
BRANCH   9  16
HETATM   16  O   UNL     1      -9.367   7.710  68.449  1.00  0.00    -0.146 OA 
BRANCH  16  17
HETATM   17  C   UNL     1     -10.623   7.137  68.822  1.00  0.00    -0.196 C  
BRANCH  17  18
HETATM   18  C   UNL     1     -10.744   7.175  70.322  1.00  0.00    -0.258 A  
HETATM   19  C   UNL     1     -11.053   8.355  71.023  1.00  0.00    -0.258 A  
HETATM   20 CL   UNL     1     -11.284   9.876  70.230  1.00  0.00    -0.334 Cl 
HETATM   21  C   UNL     1     -11.023   7.177  73.140  1.00  0.00    -0.344 A  
HETATM   22  C   UNL     1     -11.194   8.353  72.416  1.00  0.00    -0.438 A  
HETATM   23  C   UNL     1     -10.687   6.004  72.469  1.00  0.00    -0.264 A  
HETATM   24  C   UNL     1     -10.543   6.003  71.079  1.00  0.00    -0.246 A  
HETATM   25 CL   UNL     1     -10.118   4.496  70.338  1.00  0.00    -0.277 Cl 
ENDBRANCH  17  18
ENDBRANCH  16  17
ENDBRANCH   9  16
ENDBRANCH   6   9
TORSDOF 6
ENDMDL
MODEL      288
REMARK 921   NORMALIZED FREE ENERGY PREDICTED BY IDOCK:   -3.77 KCAL/MOL
REMARK 922        TOTAL FREE ENERGY PREDICTED BY IDOCK:   -6.12 KCAL/MOL
REMARK 923 INTER-LIGAND FREE ENERGY PREDICTED BY IDOCK:   -5.83 KCAL/MOL
REMARK 924 INTRA-LIGAND FREE ENERGY PREDICTED BY IDOCK:   -0.29 KCAL/MOL
REMARK 927      BINDING AFFINITY PREDICTED BY RF-SCORE:    0.00 PKD
ROOT
HETATM    1 CL   UNL     1      -5.330   9.073  73.139  1.00  0.00    -0.082 Cl 
HETATM    2  C   UNL     1      -6.945   8.778  72.627  1.00  0.00     0.113 A  
HETATM    3  C   UNL     1      -7.834   8.128  73.481  1.00  0.00    -0.235 A  
HETATM    4  C   UNL     1      -9.160   7.932  73.087  1.00  0.00    -0.260 A  
HETATM    5 CL   UNL     1     -10.208   7.117  74.194  1.00  0.00    -0.283 Cl 
HETATM    6  C   UNL     1      -9.611   8.391  71.839  1.00  0.00    -0.324 A  
HETATM    7  C   UNL     1      -8.680   9.013  70.982  1.00  0.00    -0.280 A  
HETATM    8  C   UNL     1      -7.357   9.209  71.373  1.00  0.00    -0.015 A  
ENDROOT
BRANCH   6   9
HETATM    9  C   UNL     1     -11.072   8.303  71.413  1.00  0.00    -0.251 C  
BRANCH   9  10
HETATM   10  C   UNL     1     -11.797   9.665  71.549  1.00  0.00    -0.407 C  
BRANCH  10  11
HETATM   11  N   UNL     1     -11.777  10.512  70.371  1.00  0.00    -0.317 NA 
HETATM   12  C   UNL     1     -11.862  11.878  70.354  1.00  0.00    -0.239 A  
HETATM   13  C   UNL     1     -11.605  10.105  69.077  1.00  0.00    -0.011 A  
HETATM   14  N   UNL     1     -11.715  11.107  68.235  1.00  0.00    -0.515 NA 
HETATM   15  C   UNL     1     -11.873  12.217  69.022  1.00  0.00    -0.305 A  
ENDBRANCH  10  11
ENDBRANCH   9  10
BRANCH   9  16
HETATM   16  O   UNL     1     -11.206   7.823  70.065  1.00  0.00    -0.224 OA 
BRANCH  16  17
HETATM   17  C   UNL     1     -11.754   6.505  69.985  1.00  0.00    -0.322 C  
BRANCH  17  18
HETATM   18  C   UNL     1     -10.722   5.587  69.386  1.00  0.00    -0.312 A  
HETATM   19  C   UNL     1     -10.060   4.604  70.144  1.00  0.00    -0.213 A  
HETATM   20 CL   UNL     1     -10.342   4.386  71.837  1.00  0.00    -0.214 Cl 
HETATM   21  C   UNL     1      -8.834   3.844  68.197  1.00  0.00    -0.140 A  
HETATM   22  C   UNL     1      -9.128   3.741  69.553  1.00  0.00    -0.200 A  
HETATM   23  C   UNL     1      -9.455   4.830  67.436  1.00  0.00    -0.166 A  
HETATM   24  C   UNL     1     -10.383   5.695  68.023  1.00  0.00    -0.202 A  
HETATM   25 CL   UNL     1     -11.098   6.891  66.994  1.00  0.00    -0.427 Cl 
ENDBRANCH  17  18
ENDBRANCH  16  17
ENDBRANCH   9  16
ENDBRANCH   6   9
TORSDOF 6
ENDMDL
MODEL      289
REMARK 921   NORMALIZED FREE ENERGY PREDICTED BY IDOCK:   -3.77 KCAL/MOL
REMARK 922        TOTAL FREE ENERGY PREDICTED BY IDOCK:   -6.11 KCAL/MOL
REMARK 923 INTER-LIGAND FREE ENERGY PREDICTED BY IDOCK:   -4.93 KCAL/MOL
REMARK 924 INTRA-LIGAND FREE ENERGY PREDICTED BY IDOCK:   -1.18 KCAL/MOL
REMARK 927      BINDING AFFINITY PREDICTED BY RF-SCORE:    0.00 PKD
ROOT
HETATM    1 CL   UNL     1      -5.568   7.693  63.725  1.00  0.00    -0.044 Cl 
HETATM    2  C   UNL     1      -6.407   8.839  64.695  1.00  0.00    -0.066 A  
HETATM    3  C   UNL     1      -7.761   9.077  64.471  1.00  0.00    -0.116 A  
HETATM    4  C   UNL     1      -8.457   9.970  65.290  1.00  0.00    -0.154 A  
HETATM    5 CL   UNL     1     -10.134  10.220  64.955  1.00  0.00    -0.396 Cl 
HETATM    6  C   UNL     1      -7.805  10.629  66.346  1.00  0.00    -0.144 A  
HETATM    7  C   UNL     1      -6.426  10.395  66.526  1.00  0.00    -0.089 A  
HETATM    8  C   UNL     1      -5.731   9.505  65.710  1.00  0.00    -0.053 A  
ENDROOT
BRANCH   6   9
HETATM    9  C   UNL     1      -8.545  11.522  67.334  1.00  0.00    -0.145 C  
BRANCH   9  10
HETATM   10  C   UNL     1      -8.162  11.203  68.801  1.00  0.00    -0.135 C  
BRANCH  10  11
HETATM   11  N   UNL     1      -8.854  10.078  69.404  1.00  0.00    -0.178 NA 
HETATM   12  C   UNL     1     -10.092   9.610  69.058  1.00  0.00    -0.186 A  
HETATM   13  C   UNL     1      -8.369   9.249  70.376  1.00  0.00    -0.199 A  
HETATM   14  N   UNL     1      -9.271   8.377  70.764  1.00  0.00    -0.152 NA 
HETATM   15  C   UNL     1     -10.348   8.591  69.945  1.00  0.00    -0.210 A  
ENDBRANCH  10  11
ENDBRANCH   9  10
BRANCH   9  16
HETATM   16  O   UNL     1      -8.310  12.916  67.072  1.00  0.00    -0.174 OA 
BRANCH  16  17
HETATM   17  C   UNL     1      -9.422  13.571  66.457  1.00  0.00    -0.256 C  
BRANCH  17  18
HETATM   18  C   UNL     1     -10.184  14.326  67.514  1.00  0.00    -0.240 A  
HETATM   19  C   UNL     1     -11.335  13.802  68.129  1.00  0.00    -0.284 A  
HETATM   20 CL   UNL     1     -12.002  12.263  67.701  1.00  0.00    -0.322 Cl 
HETATM   21  C   UNL     1     -11.542  15.758  69.543  1.00  0.00    -0.368 A  
HETATM   22  C   UNL     1     -12.003  14.511  69.135  1.00  0.00    -0.344 A  
HETATM   23  C   UNL     1     -10.422  16.309  68.926  1.00  0.00    -0.273 A  
HETATM   24  C   UNL     1      -9.755  15.605  67.920  1.00  0.00    -0.211 A  
HETATM   25 CL   UNL     1      -8.375  16.376  67.210  1.00  0.00    -0.189 Cl 
ENDBRANCH  17  18
ENDBRANCH  16  17
ENDBRANCH   9  16
ENDBRANCH   6   9
TORSDOF 6
ENDMDL
MODEL      290
REMARK 921   NORMALIZED FREE ENERGY PREDICTED BY IDOCK:   -3.73 KCAL/MOL
REMARK 922        TOTAL FREE ENERGY PREDICTED BY IDOCK:   -6.06 KCAL/MOL
REMARK 923 INTER-LIGAND FREE ENERGY PREDICTED BY IDOCK:   -4.79 KCAL/MOL
REMARK 924 INTRA-LIGAND FREE ENERGY PREDICTED BY IDOCK:   -1.28 KCAL/MOL
REMARK 927      BINDING AFFINITY PREDICTED BY RF-SCORE:    0.00 PKD
ROOT
HETATM    1 CL   UNL     1     -10.549  12.758  67.639  1.00  0.00    -0.222 Cl 
HETATM    2  C   UNL     1     -10.343  11.089  67.996  1.00  0.00    -0.185 A  
HETATM    3  C   UNL     1      -9.949  10.698  69.274  1.00  0.00    -0.215 A  
HETATM    4  C   UNL     1      -9.829   9.340  69.581  1.00  0.00    -0.186 A  
HETATM    5 CL   UNL     1      -9.334   8.925  71.184  1.00  0.00    -0.297 Cl 
HETATM    6  C   UNL     1     -10.109   8.360  68.614  1.00  0.00    -0.210 A  
HETATM    7  C   UNL     1     -10.471   8.787  67.320  1.00  0.00    -0.353 A  
HETATM    8  C   UNL     1     -10.590  10.141  67.012  1.00  0.00    -0.290 A  
ENDROOT
BRANCH   6   9
HETATM    9  C   UNL     1     -10.104   6.870  68.933  1.00  0.00    -0.170 C  
BRANCH   9  10
HETATM   10  C   UNL     1     -11.316   6.462  69.808  1.00  0.00    -0.427 C  
BRANCH  10  11
HETATM   11  N   UNL     1     -10.996   5.923  71.117  1.00  0.00    -0.274 NA 
HETATM   12  C   UNL     1     -11.730   6.087  72.261  1.00  0.00    -0.284 A  
HETATM   13  C   UNL     1      -9.946   5.106  71.428  1.00  0.00    -0.189 A  
HETATM   14  N   UNL     1      -9.890   4.857  72.717  1.00  0.00    -0.154 NA 
HETATM   15  C   UNL     1     -11.000   5.462  73.244  1.00  0.00    -0.307 A  
ENDBRANCH  10  11
ENDBRANCH   9  10
BRANCH   9  16
HETATM   16  O   UNL     1     -10.085   6.069  67.739  1.00  0.00    -0.132 OA 
BRANCH  16  17
HETATM   17  C   UNL     1      -8.801   5.508  67.455  1.00  0.00    -0.105 C  
BRANCH  17  18
HETATM   18  C   UNL     1      -8.521   5.663  65.984  1.00  0.00    -0.132 A  
HETATM   19  C   UNL     1      -8.956   4.722  65.033  1.00  0.00    -0.153 A  
HETATM   20 CL   UNL     1      -9.817   3.286  65.469  1.00  0.00     0.017 Cl 
HETATM   21  C   UNL     1      -8.024   6.034  63.221  1.00  0.00    -0.109 A  
HETATM   22  C   UNL     1      -8.711   4.910  63.666  1.00  0.00    -0.107 A  
HETATM   23  C   UNL     1      -7.558   6.962  64.149  1.00  0.00    -0.112 A  
HETATM   24  C   UNL     1      -7.797   6.776  65.513  1.00  0.00    -0.112 A  
HETATM   25 CL   UNL     1      -7.173   7.983  66.588  1.00  0.00    -0.079 Cl 
ENDBRANCH  17  18
ENDBRANCH  16  17
ENDBRANCH   9  16
ENDBRANCH   6   9
TORSDOF 6
ENDMDL
MODEL      291
REMARK 921   NORMALIZED FREE ENERGY PREDICTED BY IDOCK:   -3.73 KCAL/MOL
REMARK 922        TOTAL FREE ENERGY PREDICTED BY IDOCK:   -6.06 KCAL/MOL
REMARK 923 INTER-LIGAND FREE ENERGY PREDICTED BY IDOCK:   -4.94 KCAL/MOL
REMARK 924 INTRA-LIGAND FREE ENERGY PREDICTED BY IDOCK:   -1.12 KCAL/MOL
REMARK 927      BINDING AFFINITY PREDICTED BY RF-SCORE:    0.00 PKD
ROOT
HETATM    1 CL   UNL     1      -8.497  17.310  67.130  1.00  0.00    -0.214 Cl 
HETATM    2  C   UNL     1      -8.685  15.601  67.160  1.00  0.00    -0.210 A  
HETATM    3  C   UNL     1      -7.563  14.782  67.263  1.00  0.00    -0.195 A  
HETATM    4  C   UNL     1      -7.717  13.395  67.339  1.00  0.00    -0.137 A  
HETATM    5 CL   UNL     1      -6.282  12.439  67.463  1.00  0.00    -0.134 Cl 
HETATM    6  C   UNL     1      -8.996  12.815  67.319  1.00  0.00    -0.199 A  
HETATM    7  C   UNL     1     -10.111  13.667  67.178  1.00  0.00    -0.245 A  
HETATM    8  C   UNL     1      -9.959  15.050  67.102  1.00  0.00    -0.237 A  
ENDROOT
BRANCH   6   9
HETATM    9  C   UNL     1      -9.220  11.320  67.513  1.00  0.00    -0.158 C  
BRANCH   9  10
HETATM   10  C   UNL     1      -9.381  10.949  69.008  1.00  0.00    -0.131 C  
BRANCH  10  11
HETATM   11  N   UNL     1      -8.508   9.897  69.496  1.00  0.00    -0.162 NA 
HETATM   12  C   UNL     1      -8.609   8.563  69.209  1.00  0.00    -0.129 A  
HETATM   13  C   UNL     1      -7.396  10.057  70.274  1.00  0.00    -0.141 A  
HETATM   14  N   UNL     1      -6.869   8.901  70.610  1.00  0.00    -0.049 NA 
HETATM   15  C   UNL     1      -7.618   7.964  69.949  1.00  0.00    -0.089 A  
ENDBRANCH  10  11
ENDBRANCH   9  10
BRANCH   9  16
HETATM   16  O   UNL     1     -10.364  10.853  66.778  1.00  0.00    -0.222 OA 
BRANCH  16  17
HETATM   17  C   UNL     1     -10.116   9.646  66.053  1.00  0.00    -0.248 C  
BRANCH  17  18
HETATM   18  C   UNL     1      -9.432   9.993  64.758  1.00  0.00    -0.366 A  
HETATM   19  C   UNL     1      -9.958  10.937  63.858  1.00  0.00    -0.343 A  
HETATM   20 CL   UNL     1     -11.456  11.758  64.139  1.00  0.00    -0.421 Cl 
HETATM   21  C   UNL     1      -8.071  10.655  62.365  1.00  0.00    -0.233 A  
HETATM   22  C   UNL     1      -9.282  11.266  62.677  1.00  0.00    -0.330 A  
HETATM   23  C   UNL     1      -7.548   9.695  63.226  1.00  0.00    -0.119 A  
HETATM   24  C   UNL     1      -8.222   9.363  64.404  1.00  0.00    -0.147 A  
HETATM   25 CL   UNL     1      -7.493   8.153  65.408  1.00  0.00    -0.079 Cl 
ENDBRANCH  17  18
ENDBRANCH  16  17
ENDBRANCH   9  16
ENDBRANCH   6   9
TORSDOF 6
ENDMDL
MODEL      292
REMARK 921   NORMALIZED FREE ENERGY PREDICTED BY IDOCK:   -3.71 KCAL/MOL
REMARK 922        TOTAL FREE ENERGY PREDICTED BY IDOCK:   -6.03 KCAL/MOL
REMARK 923 INTER-LIGAND FREE ENERGY PREDICTED BY IDOCK:   -5.25 KCAL/MOL
REMARK 924 INTRA-LIGAND FREE ENERGY PREDICTED BY IDOCK:   -0.78 KCAL/MOL
REMARK 927      BINDING AFFINITY PREDICTED BY RF-SCORE:    0.00 PKD
ROOT
HETATM    1 CL   UNL     1      -9.960  10.014  65.311  1.00  0.00    -0.394 Cl 
HETATM    2  C   UNL     1      -9.848   9.247  66.846  1.00  0.00    -0.214 A  
HETATM    3  C   UNL     1      -9.024   9.787  67.831  1.00  0.00    -0.119 A  
HETATM    4  C   UNL     1      -8.970   9.194  69.096  1.00  0.00    -0.144 A  
HETATM    5 CL   UNL     1      -7.926   9.914  70.270  1.00  0.00    -0.190 Cl 
HETATM    6  C   UNL     1      -9.746   8.060  69.388  1.00  0.00    -0.170 A  
HETATM    7  C   UNL     1     -10.542   7.515  68.360  1.00  0.00    -0.177 A  
HETATM    8  C   UNL     1     -10.597   8.105  67.099  1.00  0.00    -0.355 A  
ENDROOT
BRANCH   6   9
HETATM    9  C   UNL     1      -9.808   7.448  70.782  1.00  0.00    -0.178 C  
BRANCH   9  10
HETATM   10  C   UNL     1     -10.280   8.473  71.843  1.00  0.00    -0.299 C  
BRANCH  10  11
HETATM   11  N   UNL     1     -11.655   8.920  71.722  1.00  0.00    -0.328 NA 
HETATM   12  C   UNL     1     -12.762   8.272  72.199  1.00  0.00    -0.329 A  
HETATM   13  C   UNL     1     -12.085  10.093  71.167  1.00  0.00    -0.388 A  
HETATM   14  N   UNL     1     -13.396  10.165  71.139  1.00  0.00    -0.351 NA 
HETATM   15  C   UNL     1     -13.828   9.035  71.783  1.00  0.00    -0.399 A  
ENDBRANCH  10  11
ENDBRANCH   9  10
BRANCH   9  16
HETATM   16  O   UNL     1     -10.663   6.293  70.820  1.00  0.00    -0.230 OA 
BRANCH  16  17
HETATM   17  C   UNL     1     -10.243   5.308  71.767  1.00  0.00    -0.210 C  
BRANCH  17  18
HETATM   18  C   UNL     1      -8.802   4.964  71.500  1.00  0.00    -0.152 A  
HETATM   19  C   UNL     1      -8.396   4.271  70.346  1.00  0.00    -0.065 A  
HETATM   20 CL   UNL     1      -9.516   3.718  69.148  1.00  0.00    -0.246 Cl 
HETATM   21  C   UNL     1      -6.071   4.398  71.015  1.00  0.00    -0.018 A  
HETATM   22  C   UNL     1      -7.044   3.995  70.106  1.00  0.00    -0.042 A  
HETATM   23  C   UNL     1      -6.454   5.059  72.179  1.00  0.00    -0.039 A  
HETATM   24  C   UNL     1      -7.802   5.333  72.422  1.00  0.00    -0.102 A  
HETATM   25 CL   UNL     1      -8.179   6.154  73.901  1.00  0.00    -0.110 Cl 
ENDBRANCH  17  18
ENDBRANCH  16  17
ENDBRANCH   9  16
ENDBRANCH   6   9
TORSDOF 6
ENDMDL
MODEL      293
REMARK 921   NORMALIZED FREE ENERGY PREDICTED BY IDOCK:   -3.71 KCAL/MOL
REMARK 922        TOTAL FREE ENERGY PREDICTED BY IDOCK:   -6.03 KCAL/MOL
REMARK 923 INTER-LIGAND FREE ENERGY PREDICTED BY IDOCK:   -6.20 KCAL/MOL
REMARK 924 INTRA-LIGAND FREE ENERGY PREDICTED BY IDOCK:    0.17 KCAL/MOL
REMARK 927      BINDING AFFINITY PREDICTED BY RF-SCORE:    0.00 PKD
ROOT
HETATM    1 CL   UNL     1     -12.407  12.794  63.306  1.00  0.00    -0.546 Cl 
HETATM    2  C   UNL     1     -11.359  12.110  64.485  1.00  0.00    -0.334 A  
HETATM    3  C   UNL     1     -11.556  12.395  65.835  1.00  0.00    -0.449 A  
HETATM    4  C   UNL     1     -10.736  11.801  66.799  1.00  0.00    -0.253 A  
HETATM    5 CL   UNL     1     -11.034  12.200  68.454  1.00  0.00    -0.250 Cl 
HETATM    6  C   UNL     1      -9.717  10.911  66.421  1.00  0.00    -0.240 A  
HETATM    7  C   UNL     1      -9.520  10.670  65.046  1.00  0.00    -0.293 A  
HETATM    8  C   UNL     1     -10.335  11.261  64.084  1.00  0.00    -0.410 A  
ENDROOT
BRANCH   6   9
HETATM    9  C   UNL     1      -8.875  10.152  67.440  1.00  0.00    -0.131 C  
BRANCH   9  10
HETATM   10  C   UNL     1      -8.804  10.893  68.798  1.00  0.00    -0.161 C  
BRANCH  10  11
HETATM   11  N   UNL     1      -7.631  10.618  69.608  1.00  0.00    -0.131 NA 
HETATM   12  C   UNL     1      -7.396   9.481  70.332  1.00  0.00    -0.141 A  
HETATM   13  C   UNL     1      -6.527  11.413  69.740  1.00  0.00    -0.133 A  
HETATM   14  N   UNL     1      -5.674  10.918  70.607  1.00  0.00    -0.151 NA 
HETATM   15  C   UNL     1      -6.206   9.712  70.980  1.00  0.00    -0.069 A  
ENDBRANCH  10  11
ENDBRANCH   9  10
BRANCH   9  16
HETATM   16  O   UNL     1      -9.365   8.817  67.649  1.00  0.00    -0.136 OA 
BRANCH  16  17
HETATM   17  C   UNL     1     -10.637   8.776  68.302  1.00  0.00    -0.142 C  
BRANCH  17  18
HETATM   18  C   UNL     1     -10.620   7.669  69.322  1.00  0.00    -0.206 A  
HETATM   19  C   UNL     1     -10.713   7.918  70.704  1.00  0.00    -0.228 A  
HETATM   20 CL   UNL     1     -10.816   9.517  71.357  1.00  0.00    -0.420 Cl 
HETATM   21  C   UNL     1     -10.650   5.547  71.196  1.00  0.00    -0.303 A  
HETATM   22  C   UNL     1     -10.731   6.866  71.628  1.00  0.00    -0.246 A  
HETATM   23  C   UNL     1     -10.526   5.280  69.835  1.00  0.00    -0.351 A  
HETATM   24  C   UNL     1     -10.506   6.327  68.910  1.00  0.00    -0.232 A  
HETATM   25 CL   UNL     1     -10.344   5.893  67.241  1.00  0.00    -0.237 Cl 
ENDBRANCH  17  18
ENDBRANCH  16  17
ENDBRANCH   9  16
ENDBRANCH   6   9
TORSDOF 6
ENDMDL
MODEL      294
REMARK 921   NORMALIZED FREE ENERGY PREDICTED BY IDOCK:   -3.69 KCAL/MOL
REMARK 922        TOTAL FREE ENERGY PREDICTED BY IDOCK:   -6.00 KCAL/MOL
REMARK 923 INTER-LIGAND FREE ENERGY PREDICTED BY IDOCK:   -5.59 KCAL/MOL
REMARK 924 INTRA-LIGAND FREE ENERGY PREDICTED BY IDOCK:   -0.41 KCAL/MOL
REMARK 927      BINDING AFFINITY PREDICTED BY RF-SCORE:    0.00 PKD
ROOT
HETATM    1 CL   UNL     1      -5.206  16.558  70.275  1.00  0.00    -0.180 Cl 
HETATM    2  C   UNL     1      -6.286  15.599  69.342  1.00  0.00    -0.150 A  
HETATM    3  C   UNL     1      -6.995  16.178  68.291  1.00  0.00    -0.126 A  
HETATM    4  C   UNL     1      -7.835  15.390  67.500  1.00  0.00    -0.170 A  
HETATM    5 CL   UNL     1      -8.685  16.173  66.215  1.00  0.00    -0.357 Cl 
HETATM    6  C   UNL     1      -7.969  14.014  67.749  1.00  0.00    -0.175 A  
HETATM    7  C   UNL     1      -7.268  13.464  68.842  1.00  0.00    -0.062 A  
HETATM    8  C   UNL     1      -6.430  14.249  69.631  1.00  0.00    -0.140 A  
ENDROOT
BRANCH   6   9
HETATM    9  C   UNL     1      -8.783  13.095  66.846  1.00  0.00    -0.148 C  
BRANCH   9  10
HETATM   10  C   UNL     1      -8.445  11.602  67.086  1.00  0.00    -0.162 C  
BRANCH  10  11
HETATM   11  N   UNL     1      -7.438  11.033  66.210  1.00  0.00    -0.133 NA 
HETATM   12  C   UNL     1      -7.660  10.453  64.991  1.00  0.00    -0.086 A  
HETATM   13  C   UNL     1      -6.086  11.032  66.415  1.00  0.00    -0.141 A  
HETATM   14  N   UNL     1      -5.454  10.368  65.474  1.00  0.00    -0.084 NA 
HETATM   15  C   UNL     1      -6.427  10.006  64.580  1.00  0.00    -0.130 A  
ENDBRANCH  10  11
ENDBRANCH   9  10
BRANCH   9  16
HETATM   16  O   UNL     1     -10.196  13.298  67.013  1.00  0.00    -0.240 OA 
BRANCH  16  17
HETATM   17  C   UNL     1     -10.874  12.156  67.544  1.00  0.00    -0.243 C  
BRANCH  17  18
HETATM   18  C   UNL     1     -11.541  12.547  68.835  1.00  0.00    -0.364 A  
HETATM   19  C   UNL     1     -11.796  11.619  69.861  1.00  0.00    -0.358 A  
HETATM   20 CL   UNL     1     -11.401   9.940  69.718  1.00  0.00    -0.259 Cl 
HETATM   21  C   UNL     1     -12.741  13.348  71.271  1.00  0.00    -0.424 A  
HETATM   22  C   UNL     1     -12.387  12.018  71.066  1.00  0.00    -0.340 A  
HETATM   23  C   UNL     1     -12.526  14.277  70.257  1.00  0.00    -0.422 A  
HETATM   24  C   UNL     1     -11.939  13.881  69.052  1.00  0.00    -0.364 A  
HETATM   25 CL   UNL     1     -11.717  15.110  67.850  1.00  0.00    -0.330 Cl 
ENDBRANCH  17  18
ENDBRANCH  16  17
ENDBRANCH   9  16
ENDBRANCH   6   9
TORSDOF 6
ENDMDL
MODEL      295
REMARK 921   NORMALIZED FREE ENERGY PREDICTED BY IDOCK:   -3.68 KCAL/MOL
REMARK 922        TOTAL FREE ENERGY PREDICTED BY IDOCK:   -5.99 KCAL/MOL
REMARK 923 INTER-LIGAND FREE ENERGY PREDICTED BY IDOCK:   -5.74 KCAL/MOL
REMARK 924 INTRA-LIGAND FREE ENERGY PREDICTED BY IDOCK:   -0.25 KCAL/MOL
REMARK 927      BINDING AFFINITY PREDICTED BY RF-SCORE:    0.00 PKD
ROOT
HETATM    1 CL   UNL     1      -5.838   8.577  64.459  1.00  0.00    -0.063 Cl 
HETATM    2  C   UNL     1      -6.801   9.613  65.437  1.00  0.00    -0.094 A  
HETATM    3  C   UNL     1      -8.160   9.756  65.164  1.00  0.00    -0.132 A  
HETATM    4  C   UNL     1      -8.955  10.559  65.988  1.00  0.00    -0.167 A  
HETATM    5 CL   UNL     1     -10.632  10.694  65.591  1.00  0.00    -0.231 Cl 
HETATM    6  C   UNL     1      -8.398  11.220  67.095  1.00  0.00    -0.151 A  
HETATM    7  C   UNL     1      -7.013  11.085  67.323  1.00  0.00    -0.096 A  
HETATM    8  C   UNL     1      -6.220  10.286  66.504  1.00  0.00    -0.073 A  
ENDROOT
BRANCH   6   9
HETATM    9  C   UNL     1      -9.244  12.012  68.085  1.00  0.00    -0.195 C  
BRANCH   9  10
HETATM   10  C   UNL     1     -10.411  12.752  67.386  1.00  0.00    -0.228 C  
BRANCH  10  11
HETATM   11  N   UNL     1     -10.190  14.159  67.105  1.00  0.00    -0.256 NA 
HETATM   12  C   UNL     1      -8.981  14.759  66.880  1.00  0.00    -0.253 A  
HETATM   13  C   UNL     1     -11.149  15.121  66.954  1.00  0.00    -0.314 A  
HETATM   14  N   UNL     1     -10.620  16.311  66.785  1.00  0.00    -0.290 NA 
HETATM   15  C   UNL     1      -9.268  16.096  66.735  1.00  0.00    -0.231 A  
ENDBRANCH  10  11
ENDBRANCH   9  10
BRANCH   9  16
HETATM   16  O   UNL     1      -9.767  11.174  69.129  1.00  0.00    -0.149 OA 
BRANCH  16  17
HETATM   17  C   UNL     1     -11.189  11.034  69.085  1.00  0.00    -0.255 C  
BRANCH  17  18
HETATM   18  C   UNL     1     -11.598   9.946  70.041  1.00  0.00    -0.235 A  
HETATM   19  C   UNL     1     -12.421  10.193  71.154  1.00  0.00    -0.387 A  
HETATM   20 CL   UNL     1     -13.007  11.773  71.547  1.00  0.00    -0.504 Cl 
HETATM   21  C   UNL     1     -12.390   7.851  71.773  1.00  0.00    -0.352 A  
HETATM   22  C   UNL     1     -12.814   9.154  72.008  1.00  0.00    -0.483 A  
HETATM   23  C   UNL     1     -11.549   7.589  70.694  1.00  0.00    -0.272 A  
HETATM   24  C   UNL     1     -11.153   8.623  69.842  1.00  0.00    -0.116 A  
HETATM   25 CL   UNL     1     -10.103   8.198  68.532  1.00  0.00    -0.209 Cl 
ENDBRANCH  17  18
ENDBRANCH  16  17
ENDBRANCH   9  16
ENDBRANCH   6   9
TORSDOF 6
ENDMDL
MODEL      296
REMARK 921   NORMALIZED FREE ENERGY PREDICTED BY IDOCK:   -3.65 KCAL/MOL
REMARK 922        TOTAL FREE ENERGY PREDICTED BY IDOCK:   -5.94 KCAL/MOL
REMARK 923 INTER-LIGAND FREE ENERGY PREDICTED BY IDOCK:   -5.67 KCAL/MOL
REMARK 924 INTRA-LIGAND FREE ENERGY PREDICTED BY IDOCK:   -0.27 KCAL/MOL
REMARK 927      BINDING AFFINITY PREDICTED BY RF-SCORE:    0.00 PKD
ROOT
HETATM    1 CL   UNL     1      -5.471  13.446  69.774  1.00  0.00    -0.092 Cl 
HETATM    2  C   UNL     1      -6.783  12.547  69.121  1.00  0.00    -0.089 A  
HETATM    3  C   UNL     1      -7.739  13.188  68.336  1.00  0.00    -0.138 A  
HETATM    4  C   UNL     1      -8.779  12.450  67.763  1.00  0.00    -0.176 A  
HETATM    5 CL   UNL     1      -9.931  13.308  66.802  1.00  0.00    -0.256 Cl 
HETATM    6  C   UNL     1      -8.867  11.063  67.965  1.00  0.00    -0.138 A  
HETATM    7  C   UNL     1      -7.906  10.448  68.794  1.00  0.00    -0.108 A  
HETATM    8  C   UNL     1      -6.869  11.182  69.366  1.00  0.00    -0.125 A  
ENDROOT
BRANCH   6   9
HETATM    9  C   UNL     1      -9.913  10.200  67.270  1.00  0.00    -0.195 C  
BRANCH   9  10
HETATM   10  C   UNL     1      -9.283   8.950  66.605  1.00  0.00    -0.170 C  
BRANCH  10  11
HETATM   11  N   UNL     1      -8.748   9.147  65.270  1.00  0.00    -0.177 NA 
HETATM   12  C   UNL     1      -8.253   8.174  64.445  1.00  0.00    -0.101 A  
HETATM   13  C   UNL     1      -8.702  10.323  64.576  1.00  0.00    -0.192 A  
HETATM   14  N   UNL     1      -8.085  10.183  63.425  1.00  0.00    -0.157 NA 
HETATM   15  C   UNL     1      -7.804   8.846  63.333  1.00  0.00    -0.144 A  
ENDBRANCH  10  11
ENDBRANCH   9  10
BRANCH   9  16
HETATM   16  O   UNL     1     -10.951   9.787  68.176  1.00  0.00    -0.239 OA 
BRANCH  16  17
HETATM   17  C   UNL     1     -10.452   9.178  69.369  1.00  0.00    -0.219 C  
BRANCH  17  18
HETATM   18  C   UNL     1     -11.492   9.305  70.449  1.00  0.00    -0.255 A  
HETATM   19  C   UNL     1     -12.089  10.536  70.777  1.00  0.00    -0.370 A  
HETATM   20 CL   UNL     1     -11.654  12.019  69.998  1.00  0.00    -0.325 Cl 
HETATM   21  C   UNL     1     -13.493   9.480  72.445  1.00  0.00    -0.475 A  
HETATM   22  C   UNL     1     -13.080  10.619  71.763  1.00  0.00    -0.571 A  
HETATM   23  C   UNL     1     -12.894   8.256  72.157  1.00  0.00    -0.348 A  
HETATM   24  C   UNL     1     -11.902   8.170  71.176  1.00  0.00    -0.279 A  
HETATM   25 CL   UNL     1     -11.215   6.605  70.894  1.00  0.00    -0.330 Cl 
ENDBRANCH  17  18
ENDBRANCH  16  17
ENDBRANCH   9  16
ENDBRANCH   6   9
TORSDOF 6
ENDMDL
MODEL      297
REMARK 921   NORMALIZED FREE ENERGY PREDICTED BY IDOCK:   -3.63 KCAL/MOL
REMARK 922        TOTAL FREE ENERGY PREDICTED BY IDOCK:   -5.92 KCAL/MOL
REMARK 923 INTER-LIGAND FREE ENERGY PREDICTED BY IDOCK:   -5.68 KCAL/MOL
REMARK 924 INTRA-LIGAND FREE ENERGY PREDICTED BY IDOCK:   -0.24 KCAL/MOL
REMARK 927      BINDING AFFINITY PREDICTED BY RF-SCORE:    0.00 PKD
ROOT
HETATM    1 CL   UNL     1     -13.746   9.522  72.473  1.00  0.00    -0.439 Cl 
HETATM    2  C   UNL     1     -12.378   9.203  71.481  1.00  0.00    -0.347 A  
HETATM    3  C   UNL     1     -11.693   7.996  71.615  1.00  0.00    -0.325 A  
HETATM    4  C   UNL     1     -10.611   7.713  70.776  1.00  0.00    -0.221 A  
HETATM    5 CL   UNL     1      -9.806   6.200  70.998  1.00  0.00    -0.204 Cl 
HETATM    6  C   UNL     1     -10.210   8.631  69.792  1.00  0.00    -0.206 A  
HETATM    7  C   UNL     1     -10.899   9.858  69.705  1.00  0.00    -0.300 A  
HETATM    8  C   UNL     1     -11.977  10.142  70.540  1.00  0.00    -0.400 A  
ENDROOT
BRANCH   6   9
HETATM    9  C   UNL     1      -9.112   8.319  68.782  1.00  0.00    -0.144 C  
BRANCH   9  10
HETATM   10  C   UNL     1      -8.797   6.804  68.719  1.00  0.00    -0.131 C  
BRANCH  10  11
HETATM   11  N   UNL     1      -9.280   6.107  67.541  1.00  0.00    -0.113 NA 
HETATM   12  C   UNL     1     -10.575   5.747  67.287  1.00  0.00    -0.279 A  
HETATM   13  C   UNL     1      -8.541   5.742  66.450  1.00  0.00    -0.125 A  
HETATM   14  N   UNL     1      -9.256   5.056  65.588  1.00  0.00    -0.156 NA 
HETATM   15  C   UNL     1     -10.526   5.055  66.100  1.00  0.00    -0.286 A  
ENDBRANCH  10  11
ENDBRANCH   9  10
BRANCH   9  16
HETATM   16  O   UNL     1      -9.448   8.792  67.466  1.00  0.00    -0.137 OA 
BRANCH  16  17
HETATM   17  C   UNL     1      -8.431   9.608  66.881  1.00  0.00    -0.120 C  
BRANCH  17  18
HETATM   18  C   UNL     1      -8.859  11.049  66.964  1.00  0.00    -0.143 A  
HETATM   19  C   UNL     1      -8.422  11.904  67.992  1.00  0.00    -0.162 A  
HETATM   20 CL   UNL     1      -7.387  11.371  69.272  1.00  0.00    -0.084 Cl 
HETATM   21  C   UNL     1      -9.643  13.768  67.040  1.00  0.00    -0.251 A  
HETATM   22  C   UNL     1      -8.809  13.250  68.025  1.00  0.00    -0.190 A  
HETATM   23  C   UNL     1     -10.111  12.931  66.031  1.00  0.00    -0.290 A  
HETATM   24  C   UNL     1      -9.729  11.587  65.996  1.00  0.00    -0.226 A  
HETATM   25 CL   UNL     1     -10.368  10.626  64.704  1.00  0.00    -0.404 Cl 
ENDBRANCH  17  18
ENDBRANCH  16  17
ENDBRANCH   9  16
ENDBRANCH   6   9
TORSDOF 6
ENDMDL
MODEL      298
REMARK 921   NORMALIZED FREE ENERGY PREDICTED BY IDOCK:   -3.63 KCAL/MOL
REMARK 922        TOTAL FREE ENERGY PREDICTED BY IDOCK:   -5.91 KCAL/MOL
REMARK 923 INTER-LIGAND FREE ENERGY PREDICTED BY IDOCK:   -5.13 KCAL/MOL
REMARK 924 INTRA-LIGAND FREE ENERGY PREDICTED BY IDOCK:   -0.78 KCAL/MOL
REMARK 927      BINDING AFFINITY PREDICTED BY RF-SCORE:    0.00 PKD
ROOT
HETATM    1 CL   UNL     1      -9.584   5.148  74.557  1.00  0.00    -0.147 Cl 
HETATM    2  C   UNL     1      -9.485   5.227  72.842  1.00  0.00    -0.144 A  
HETATM    3  C   UNL     1     -10.574   5.691  72.107  1.00  0.00    -0.274 A  
HETATM    4  C   UNL     1     -10.479   5.803  70.717  1.00  0.00    -0.258 A  
HETATM    5 CL   UNL     1     -11.867   6.385  69.867  1.00  0.00    -0.340 Cl 
HETATM    6  C   UNL     1      -9.291   5.458  70.051  1.00  0.00    -0.192 A  
HETATM    7  C   UNL     1      -8.220   4.957  70.818  1.00  0.00    -0.094 A  
HETATM    8  C   UNL     1      -8.313   4.844  72.204  1.00  0.00    -0.123 A  
ENDROOT
BRANCH   6   9
HETATM    9  C   UNL     1      -9.102   5.671  68.554  1.00  0.00    -0.114 C  
BRANCH   9  10
HETATM   10  C   UNL     1      -9.741   4.531  67.723  1.00  0.00    -0.145 C  
BRANCH  10  11
HETATM   11  N   UNL     1      -9.074   4.209  66.474  1.00  0.00    -0.125 NA 
HETATM   12  C   UNL     1      -7.818   3.683  66.339  1.00  0.00    -0.089 A  
HETATM   13  C   UNL     1      -9.602   4.314  65.218  1.00  0.00    -0.185 A  
HETATM   14  N   UNL     1      -8.716   4.020  64.294  1.00  0.00    -0.114 NA 
HETATM   15  C   UNL     1      -7.601   3.623  64.983  1.00  0.00    -0.074 A  
ENDBRANCH  10  11
ENDBRANCH   9  10
BRANCH   9  16
HETATM   16  O   UNL     1      -9.636   6.934  68.123  1.00  0.00    -0.126 OA 
BRANCH  16  17
HETATM   17  C   UNL     1      -8.952   8.059  68.683  1.00  0.00    -0.134 C  
BRANCH  17  18
HETATM   18  C   UNL     1      -9.895   9.232  68.712  1.00  0.00    -0.174 A  
HETATM   19  C   UNL     1     -10.425   9.800  67.539  1.00  0.00    -0.251 A  
HETATM   20 CL   UNL     1     -10.013   9.228  65.959  1.00  0.00    -0.362 Cl 
HETATM   21  C   UNL     1     -11.715  11.397  68.824  1.00  0.00    -0.404 A  
HETATM   22  C   UNL     1     -11.327  10.869  67.598  1.00  0.00    -0.345 A  
HETATM   23  C   UNL     1     -11.179  10.870  69.996  1.00  0.00    -0.340 A  
HETATM   24  C   UNL     1     -10.276   9.805  69.941  1.00  0.00    -0.254 A  
HETATM   25 CL   UNL     1      -9.662   9.222  71.453  1.00  0.00    -0.327 Cl 
ENDBRANCH  17  18
ENDBRANCH  16  17
ENDBRANCH   9  16
ENDBRANCH   6   9
TORSDOF 6
ENDMDL
MODEL      299
REMARK 921   NORMALIZED FREE ENERGY PREDICTED BY IDOCK:   -3.62 KCAL/MOL
REMARK 922        TOTAL FREE ENERGY PREDICTED BY IDOCK:   -5.91 KCAL/MOL
REMARK 923 INTER-LIGAND FREE ENERGY PREDICTED BY IDOCK:   -5.61 KCAL/MOL
REMARK 924 INTRA-LIGAND FREE ENERGY PREDICTED BY IDOCK:   -0.30 KCAL/MOL
REMARK 927      BINDING AFFINITY PREDICTED BY RF-SCORE:    0.00 PKD
ROOT
HETATM    1 CL   UNL     1      -7.781   7.695  64.256  1.00  0.00    -0.125 Cl 
HETATM    2  C   UNL     1      -8.572   8.509  65.548  1.00  0.00    -0.180 A  
HETATM    3  C   UNL     1      -7.935   9.567  66.192  1.00  0.00    -0.107 A  
HETATM    4  C   UNL     1      -8.596  10.263  67.209  1.00  0.00    -0.125 A  
HETATM    5 CL   UNL     1      -7.746  11.563  67.968  1.00  0.00    -0.112 Cl 
HETATM    6  C   UNL     1      -9.902   9.910  67.585  1.00  0.00    -0.198 A  
HETATM    7  C   UNL     1     -10.507   8.812  66.939  1.00  0.00    -0.319 A  
HETATM    8  C   UNL     1      -9.850   8.118  65.926  1.00  0.00     0.192 A  
ENDROOT
BRANCH   6   9
HETATM    9  C   UNL     1     -10.704  10.709  68.606  1.00  0.00    -0.207 C  
BRANCH   9  10
HETATM   10  C   UNL     1     -11.883  11.469  67.949  1.00  0.00    -0.184 C  
BRANCH  10  11
HETATM   11  N   UNL     1     -11.526  12.657  67.194  1.00  0.00    -0.325 NA 
HETATM   12  C   UNL     1     -11.499  12.773  65.831  1.00  0.00    -0.356 A  
HETATM   13  C   UNL     1     -11.217  13.886  67.707  1.00  0.00    -0.293 A  
HETATM   14  N   UNL     1     -10.863  14.729  66.765  1.00  0.00    -0.310 NA 
HETATM   15  C   UNL     1     -11.037  14.045  65.591  1.00  0.00    -0.302 A  
ENDBRANCH  10  11
ENDBRANCH   9  10
BRANCH   9  16
HETATM   16  O   UNL     1     -11.205   9.872  69.662  1.00  0.00    -0.240 OA 
BRANCH  16  17
HETATM   17  C   UNL     1     -10.658   8.551  69.646  1.00  0.00    -0.220 C  
BRANCH  17  18
HETATM   18  C   UNL     1     -10.338   8.143  71.059  1.00  0.00    -0.229 A  
HETATM   19  C   UNL     1      -9.081   8.382  71.644  1.00  0.00    -0.205 A  
HETATM   20 CL   UNL     1      -7.780   9.131  70.783  1.00  0.00    -0.145 Cl 
HETATM   21  C   UNL     1      -9.807   7.413  73.742  1.00  0.00    -0.331 A  
HETATM   22  C   UNL     1      -8.822   8.023  72.973  1.00  0.00    -0.302 A  
HETATM   23  C   UNL     1     -11.048   7.139  73.173  1.00  0.00    -0.302 A  
HETATM   24  C   UNL     1     -11.309   7.494  71.847  1.00  0.00    -0.260 A  
HETATM   25 CL   UNL     1     -12.880   7.107  71.229  1.00  0.00    -0.425 Cl 
ENDBRANCH  17  18
ENDBRANCH  16  17
ENDBRANCH   9  16
ENDBRANCH   6   9
TORSDOF 6
ENDMDL
MODEL      300
REMARK 921   NORMALIZED FREE ENERGY PREDICTED BY IDOCK:   -3.59 KCAL/MOL
REMARK 922        TOTAL FREE ENERGY PREDICTED BY IDOCK:   -5.87 KCAL/MOL
REMARK 923 INTER-LIGAND FREE ENERGY PREDICTED BY IDOCK:   -4.63 KCAL/MOL
REMARK 924 INTRA-LIGAND FREE ENERGY PREDICTED BY IDOCK:   -1.24 KCAL/MOL
REMARK 927      BINDING AFFINITY PREDICTED BY RF-SCORE:    0.00 PKD
ROOT
HETATM    1 CL   UNL     1     -14.397   8.407  72.029  1.00  0.00    -0.537 Cl 
HETATM    2  C   UNL     1     -12.754   8.199  71.567  1.00  0.00    -0.308 A  
HETATM    3  C   UNL     1     -12.335   6.986  71.024  1.00  0.00    -0.402 A  
HETATM    4  C   UNL     1     -11.012   6.832  70.602  1.00  0.00    -0.267 A  
HETATM    5 CL   UNL     1     -10.560   5.300  69.940  1.00  0.00    -0.355 Cl 
HETATM    6  C   UNL     1     -10.097   7.891  70.713  1.00  0.00    -0.201 A  
HETATM    7  C   UNL     1     -10.540   9.094  71.300  1.00  0.00    -0.399 A  
HETATM    8  C   UNL     1     -11.859   9.250  71.722  1.00  0.00    -0.454 A  
ENDROOT
BRANCH   6   9
HETATM    9  C   UNL     1      -8.678   7.809  70.164  1.00  0.00    -0.140 C  
BRANCH   9  10
HETATM   10  C   UNL     1      -8.536   8.555  68.814  1.00  0.00    -0.131 C  
BRANCH  10  11
HETATM   11  N   UNL     1      -7.493   9.563  68.756  1.00  0.00    -0.074 NA 
HETATM   12  C   UNL     1      -7.517  10.789  69.362  1.00  0.00    -0.124 A  
HETATM   13  C   UNL     1      -6.278   9.443  68.141  1.00  0.00    -0.053 A  
HETATM   14  N   UNL     1      -5.592  10.561  68.202  1.00  0.00    -0.037 NA 
HETATM   15  C   UNL     1      -6.355  11.406  68.964  1.00  0.00    -0.063 A  
ENDBRANCH  10  11
ENDBRANCH   9  10
BRANCH   9  16
HETATM   16  O   UNL     1      -7.714   8.323  71.098  1.00  0.00    -0.079 OA 
BRANCH  16  17
HETATM   17  C   UNL     1      -6.784   7.336  71.552  1.00  0.00    -0.051 C  
BRANCH  17  18
HETATM   18  C   UNL     1      -7.504   6.377  72.462  1.00  0.00    -0.095 A  
HETATM   19  C   UNL     1      -7.964   6.751  73.738  1.00  0.00    -0.101 A  
HETATM   20 CL   UNL     1      -7.712   8.333  74.392  1.00  0.00    -0.281 Cl 
HETATM   21  C   UNL     1      -8.909   4.551  74.108  1.00  0.00    -0.106 A  
HETATM   22  C   UNL     1      -8.661   5.847  74.548  1.00  0.00    -0.120 A  
HETATM   23  C   UNL     1      -8.436   4.151  72.861  1.00  0.00    -0.100 A  
HETATM   24  C   UNL     1      -7.737   5.049  72.051  1.00  0.00    -0.104 A  
HETATM   25 CL   UNL     1      -7.184   4.455  70.520  1.00  0.00    -0.047 Cl 
ENDBRANCH  17  18
ENDBRANCH  16  17
ENDBRANCH   9  16
ENDBRANCH   6   9
TORSDOF 6
ENDMDL
MODEL      301
REMARK 921   NORMALIZED FREE ENERGY PREDICTED BY IDOCK:   -3.58 KCAL/MOL
REMARK 922        TOTAL FREE ENERGY PREDICTED BY IDOCK:   -5.85 KCAL/MOL
REMARK 923 INTER-LIGAND FREE ENERGY PREDICTED BY IDOCK:   -5.89 KCAL/MOL
REMARK 924 INTRA-LIGAND FREE ENERGY PREDICTED BY IDOCK:    0.04 KCAL/MOL
REMARK 927      BINDING AFFINITY PREDICTED BY RF-SCORE:    0.00 PKD
ROOT
HETATM    1 CL   UNL     1     -12.871  14.782  71.551  1.00  0.00    -0.377 Cl 
HETATM    2  C   UNL     1     -12.374  13.394  70.666  1.00  0.00    -0.348 A  
HETATM    3  C   UNL     1     -11.734  13.549  69.438  1.00  0.00    -0.381 A  
HETATM    4  C   UNL     1     -11.284  12.424  68.741  1.00  0.00    -0.273 A  
HETATM    5 CL   UNL     1     -10.500  12.688  67.223  1.00  0.00    -0.232 Cl 
HETATM    6  C   UNL     1     -11.464  11.135  69.269  1.00  0.00    -0.363 A  
HETATM    7  C   UNL     1     -12.147  11.008  70.496  1.00  0.00    -0.470 A  
HETATM    8  C   UNL     1     -12.596  12.128  71.193  1.00  0.00    -0.360 A  
ENDROOT
BRANCH   6   9
HETATM    9  C   UNL     1     -10.891   9.890  68.602  1.00  0.00    -0.209 C  
BRANCH   9  10
HETATM   10  C   UNL     1     -10.656  10.103  67.086  1.00  0.00    -0.246 C  
BRANCH  10  11
HETATM   11  N   UNL     1      -9.443   9.515  66.547  1.00  0.00    -0.169 NA 
HETATM   12  C   UNL     1      -9.284   8.219  66.136  1.00  0.00    -0.192 A  
HETATM   13  C   UNL     1      -8.266  10.162  66.293  1.00  0.00    -0.127 A  
HETATM   14  N   UNL     1      -7.335   9.333  65.881  1.00  0.00    -0.093 NA 
HETATM   15  C   UNL     1      -7.961   8.119  65.778  1.00  0.00    -0.105 A  
ENDBRANCH  10  11
ENDBRANCH   9  10
BRANCH   9  16
HETATM   16  O   UNL     1      -9.664   9.470  69.222  1.00  0.00    -0.163 OA 
BRANCH  16  17
HETATM   17  C   UNL     1      -9.680   8.104  69.642  1.00  0.00    -0.170 C  
BRANCH  17  18
HETATM   18  C   UNL     1      -9.285   8.039  71.093  1.00  0.00    -0.174 A  
HETATM   19  C   UNL     1     -10.230   7.891  72.124  1.00  0.00    -0.227 A  
HETATM   20 CL   UNL     1     -11.932   7.808  71.823  1.00  0.00    -0.310 Cl 
HETATM   21  C   UNL     1      -8.482   7.859  73.802  1.00  0.00    -0.309 A  
HETATM   22  C   UNL     1      -9.830   7.799  73.463  1.00  0.00    -0.298 A  
HETATM   23  C   UNL     1      -7.533   8.036  72.800  1.00  0.00    -0.145 A  
HETATM   24  C   UNL     1      -7.928   8.131  71.463  1.00  0.00    -0.117 A  
HETATM   25 CL   UNL     1      -6.673   8.356  70.290  1.00  0.00    -0.036 Cl 
ENDBRANCH  17  18
ENDBRANCH  16  17
ENDBRANCH   9  16
ENDBRANCH   6   9
TORSDOF 6
ENDMDL
MODEL      302
REMARK 921   NORMALIZED FREE ENERGY PREDICTED BY IDOCK:   -3.57 KCAL/MOL
REMARK 922        TOTAL FREE ENERGY PREDICTED BY IDOCK:   -5.85 KCAL/MOL
REMARK 923 INTER-LIGAND FREE ENERGY PREDICTED BY IDOCK:   -4.65 KCAL/MOL
REMARK 924 INTRA-LIGAND FREE ENERGY PREDICTED BY IDOCK:   -1.19 KCAL/MOL
REMARK 927      BINDING AFFINITY PREDICTED BY RF-SCORE:    0.00 PKD
ROOT
HETATM    1 CL   UNL     1     -10.320  12.789  67.488  1.00  0.00    -0.218 Cl 
HETATM    2  C   UNL     1     -10.101  11.114  67.810  1.00  0.00    -0.178 A  
HETATM    3  C   UNL     1      -9.389  10.713  68.938  1.00  0.00    -0.191 A  
HETATM    4  C   UNL     1      -9.252   9.353  69.229  1.00  0.00    -0.159 A  
HETATM    5 CL   UNL     1      -8.355   8.926  70.644  1.00  0.00    -0.165 Cl 
HETATM    6  C   UNL     1      -9.833   8.382  68.397  1.00  0.00    -0.192 A  
HETATM    7  C   UNL     1     -10.517   8.816  67.243  1.00  0.00    -0.353 A  
HETATM    8  C   UNL     1     -10.653  10.172  66.952  1.00  0.00    -0.267 A  
ENDROOT
BRANCH   6   9
HETATM    9  C   UNL     1      -9.808   6.895  68.734  1.00  0.00    -0.149 C  
BRANCH   9  10
HETATM   10  C   UNL     1     -11.104   6.444  69.453  1.00  0.00    -0.387 C  
BRANCH  10  11
HETATM   11  N   UNL     1     -11.278   6.935  70.809  1.00  0.00    -0.277 NA 
HETATM   12  C   UNL     1     -12.147   7.913  71.210  1.00  0.00    -0.296 A  
HETATM   13  C   UNL     1     -10.654   6.468  71.931  1.00  0.00    -0.210 A  
HETATM   14  N   UNL     1     -10.968   7.176  72.991  1.00  0.00    -0.315 NA 
HETATM   15  C   UNL     1     -11.901   8.078  72.552  1.00  0.00    -0.361 A  
ENDBRANCH  10  11
ENDBRANCH   9  10
BRANCH   9  16
HETATM   16  O   UNL     1      -9.606   6.087  67.563  1.00  0.00    -0.112 OA 
BRANCH  16  17
HETATM   17  C   UNL     1     -10.077   4.745  67.713  1.00  0.00    -0.069 C  
BRANCH  17  18
HETATM   18  C   UNL     1      -8.913   3.804  67.557  1.00  0.00    -0.157 A  
HETATM   19  C   UNL     1      -8.388   3.458  66.298  1.00  0.00    -0.103 A  
HETATM   20 CL   UNL     1      -9.056   4.050  64.816  1.00  0.00    -0.133 Cl 
HETATM   21  C   UNL     1      -6.680   2.079  67.323  1.00  0.00    -0.039 A  
HETATM   22  C   UNL     1      -7.282   2.607  66.186  1.00  0.00    -0.066 A  
HETATM   23  C   UNL     1      -7.202   2.384  68.577  1.00  0.00    -0.047 A  
HETATM   24  C   UNL     1      -8.307   3.231  68.693  1.00  0.00    -0.072 A  
HETATM   25 CL   UNL     1      -8.886   3.547  70.296  1.00  0.00    -0.136 Cl 
ENDBRANCH  17  18
ENDBRANCH  16  17
ENDBRANCH   9  16
ENDBRANCH   6   9
TORSDOF 6
ENDMDL
MODEL      303
REMARK 921   NORMALIZED FREE ENERGY PREDICTED BY IDOCK:   -3.57 KCAL/MOL
REMARK 922        TOTAL FREE ENERGY PREDICTED BY IDOCK:   -5.84 KCAL/MOL
REMARK 923 INTER-LIGAND FREE ENERGY PREDICTED BY IDOCK:   -5.03 KCAL/MOL
REMARK 924 INTRA-LIGAND FREE ENERGY PREDICTED BY IDOCK:   -0.81 KCAL/MOL
REMARK 927      BINDING AFFINITY PREDICTED BY RF-SCORE:    0.00 PKD
ROOT
HETATM    1 CL   UNL     1      -5.854   9.913  71.502  1.00  0.00    -0.010 Cl 
HETATM    2  C   UNL     1      -6.949   9.650  70.203  1.00  0.00    -0.105 A  
HETATM    3  C   UNL     1      -8.318   9.579  70.454  1.00  0.00    -0.226 A  
HETATM    4  C   UNL     1      -9.214   9.415  69.394  1.00  0.00    -0.165 A  
HETATM    5 CL   UNL     1     -10.897   9.332  69.777  1.00  0.00    -0.241 Cl 
HETATM    6  C   UNL     1      -8.748   9.330  68.071  1.00  0.00    -0.125 A  
HETATM    7  C   UNL     1      -7.356   9.369  67.852  1.00  0.00    -0.083 A  
HETATM    8  C   UNL     1      -6.462   9.531  68.908  1.00  0.00    -0.046 A  
ENDROOT
BRANCH   6   9
HETATM    9  C   UNL     1      -9.690   9.266  66.875  1.00  0.00    -0.190 C  
BRANCH   9  10
HETATM   10  C   UNL     1     -10.710   8.107  67.003  1.00  0.00    -0.177 C  
BRANCH  10  11
HETATM   11  N   UNL     1     -10.191   6.777  66.743  1.00  0.00    -0.215 NA 
HETATM   12  C   UNL     1      -9.151   6.463  65.911  1.00  0.00    -0.051 A  
HETATM   13  C   UNL     1     -10.603   5.612  67.327  1.00  0.00    -0.254 A  
HETATM   14  N   UNL     1      -9.987   4.570  66.817  1.00  0.00    -0.221 NA 
HETATM   15  C   UNL     1      -9.077   5.090  65.935  1.00  0.00    -0.150 A  
ENDBRANCH  10  11
ENDBRANCH   9  10
BRANCH   9  16
HETATM   16  O   UNL     1     -10.396  10.505  66.686  1.00  0.00    -0.228 OA 
BRANCH  16  17
HETATM   17  C   UNL     1      -9.733  11.403  65.793  1.00  0.00    -0.233 C  
BRANCH  17  18
HETATM   18  C   UNL     1      -9.955  12.812  66.273  1.00  0.00    -0.269 A  
HETATM   19  C   UNL     1      -8.985  13.518  67.008  1.00  0.00    -0.231 A  
HETATM   20 CL   UNL     1      -7.468  12.818  67.460  1.00  0.00    -0.145 Cl 
HETATM   21  C   UNL     1     -10.396  15.485  67.096  1.00  0.00    -0.272 A  
HETATM   22  C   UNL     1      -9.204  14.841  67.412  1.00  0.00    -0.200 A  
HETATM   23  C   UNL     1     -11.381  14.795  66.395  1.00  0.00    -0.339 A  
HETATM   24  C   UNL     1     -11.167  13.474  65.994  1.00  0.00    -0.295 A  
HETATM   25 CL   UNL     1     -12.455  12.700  65.131  1.00  0.00    -0.560 Cl 
ENDBRANCH  17  18
ENDBRANCH  16  17
ENDBRANCH   9  16
ENDBRANCH   6   9
TORSDOF 6
ENDMDL
MODEL      304
REMARK 921   NORMALIZED FREE ENERGY PREDICTED BY IDOCK:   -3.56 KCAL/MOL
REMARK 922        TOTAL FREE ENERGY PREDICTED BY IDOCK:   -5.83 KCAL/MOL
REMARK 923 INTER-LIGAND FREE ENERGY PREDICTED BY IDOCK:   -4.86 KCAL/MOL
REMARK 924 INTRA-LIGAND FREE ENERGY PREDICTED BY IDOCK:   -0.97 KCAL/MOL
REMARK 927      BINDING AFFINITY PREDICTED BY RF-SCORE:    0.00 PKD
ROOT
HETATM    1 CL   UNL     1      -9.800  12.870  67.852  1.00  0.00    -0.220 Cl 
HETATM    2  C   UNL     1      -9.762  11.152  67.912  1.00  0.00    -0.174 A  
HETATM    3  C   UNL     1      -9.311  10.509  69.063  1.00  0.00    -0.205 A  
HETATM    4  C   UNL     1      -9.326   9.113  69.132  1.00  0.00    -0.152 A  
HETATM    5 CL   UNL     1      -8.751   8.381  70.588  1.00  0.00    -0.143 Cl 
HETATM    6  C   UNL     1      -9.800   8.348  68.053  1.00  0.00    -0.202 A  
HETATM    7  C   UNL     1     -10.215   9.026  66.889  1.00  0.00    -0.339 A  
HETATM    8  C   UNL     1     -10.200  10.417  66.818  1.00  0.00    -0.282 A  
ENDROOT
BRANCH   6   9
HETATM    9  C   UNL     1      -9.942   6.833  68.125  1.00  0.00    -0.149 C  
BRANCH   9  10
HETATM   10  C   UNL     1     -11.238   6.408  68.859  1.00  0.00    -0.307 C  
BRANCH  10  11
HETATM   11  N   UNL     1     -11.073   5.980  70.236  1.00  0.00    -0.347 NA 
HETATM   12  C   UNL     1     -11.746   6.469  71.323  1.00  0.00    -0.331 A  
HETATM   13  C   UNL     1     -10.266   4.972  70.685  1.00  0.00    -0.235 A  
HETATM   14  N   UNL     1     -10.281   4.886  71.995  1.00  0.00    -0.195 NA 
HETATM   15  C   UNL     1     -11.203   5.813  72.402  1.00  0.00    -0.290 A  
ENDBRANCH  10  11
ENDBRANCH   9  10
BRANCH   9  16
HETATM   16  O   UNL     1      -9.914   6.232  66.819  1.00  0.00    -0.157 OA 
BRANCH  16  17
HETATM   17  C   UNL     1     -10.252   4.843  66.827  1.00  0.00    -0.235 C  
BRANCH  17  18
HETATM   18  C   UNL     1      -9.134   4.070  66.179  1.00  0.00    -0.141 A  
HETATM   19  C   UNL     1      -7.887   3.886  66.803  1.00  0.00    -0.089 A  
HETATM   20 CL   UNL     1      -7.511   4.561  68.352  1.00  0.00    -0.064 Cl 
HETATM   21  C   UNL     1      -7.087   2.553  64.945  1.00  0.00    -0.053 A  
HETATM   22  C   UNL     1      -6.877   3.133  66.192  1.00  0.00    -0.052 A  
HETATM   23  C   UNL     1      -8.303   2.749  64.296  1.00  0.00    -0.083 A  
HETATM   24  C   UNL     1      -9.312   3.502  64.902  1.00  0.00    -0.153 A  
HETATM   25 CL   UNL     1     -10.787   3.692  64.013  1.00  0.00    -0.262 Cl 
ENDBRANCH  17  18
ENDBRANCH  16  17
ENDBRANCH   9  16
ENDBRANCH   6   9
TORSDOF 6
ENDMDL
MODEL      305
REMARK 921   NORMALIZED FREE ENERGY PREDICTED BY IDOCK:   -3.55 KCAL/MOL
REMARK 922        TOTAL FREE ENERGY PREDICTED BY IDOCK:   -5.82 KCAL/MOL
REMARK 923 INTER-LIGAND FREE ENERGY PREDICTED BY IDOCK:   -5.36 KCAL/MOL
REMARK 924 INTRA-LIGAND FREE ENERGY PREDICTED BY IDOCK:   -0.45 KCAL/MOL
REMARK 927      BINDING AFFINITY PREDICTED BY RF-SCORE:    0.00 PKD
ROOT
HETATM    1 CL   UNL     1     -10.295   4.600  66.840  1.00  0.00    -0.199 Cl 
HETATM    2  C   UNL     1      -9.681   6.204  66.925  1.00  0.00    -0.149 A  
HETATM    3  C   UNL     1      -8.306   6.415  67.012  1.00  0.00    -0.112 A  
HETATM    4  C   UNL     1      -7.802   7.719  67.030  1.00  0.00    -0.112 A  
HETATM    5 CL   UNL     1      -6.087   7.908  67.141  1.00  0.00    -0.052 Cl 
HETATM    6  C   UNL     1      -8.668   8.822  66.955  1.00  0.00    -0.136 A  
HETATM    7  C   UNL     1     -10.055   8.577  66.904  1.00  0.00    -0.364 A  
HETATM    8  C   UNL     1     -10.560   7.279  66.886  1.00  0.00    -0.375 A  
ENDROOT
BRANCH   6   9
HETATM    9  C   UNL     1      -8.159  10.255  66.857  1.00  0.00    -0.119 C  
BRANCH   9  10
HETATM   10  C   UNL     1      -7.390  10.507  65.536  1.00  0.00    -0.106 C  
BRANCH  10  11
HETATM   11  N   UNL     1      -8.092  10.145  64.317  1.00  0.00    -0.157 NA 
HETATM   12  C   UNL     1      -7.775   9.113  63.477  1.00  0.00    -0.121 A  
HETATM   13  C   UNL     1      -9.227  10.728  63.827  1.00  0.00    -0.244 A  
HETATM   14  N   UNL     1      -9.567  10.222  62.663  1.00  0.00    -0.284 NA 
HETATM   15  C   UNL     1      -8.670   9.212  62.438  1.00  0.00    -0.222 A  
ENDBRANCH  10  11
ENDBRANCH   9  10
BRANCH   9  16
HETATM   16  O   UNL     1      -9.229  11.209  66.976  1.00  0.00    -0.160 OA 
BRANCH  16  17
HETATM   17  C   UNL     1      -8.775  12.535  67.264  1.00  0.00    -0.193 C  
BRANCH  17  18
HETATM   18  C   UNL     1      -9.935  13.339  67.787  1.00  0.00    -0.223 A  
HETATM   19  C   UNL     1     -10.869  12.809  68.696  1.00  0.00    -0.253 A  
HETATM   20 CL   UNL     1     -10.791  11.177  69.266  1.00  0.00    -0.270 Cl 
HETATM   21  C   UNL     1     -12.063  14.916  68.789  1.00  0.00    -0.212 A  
HETATM   22  C   UNL     1     -11.918  13.592  69.193  1.00  0.00    -0.394 A  
HETATM   23  C   UNL     1     -11.168  15.450  67.867  1.00  0.00    -0.329 A  
HETATM   24  C   UNL     1     -10.121  14.671  67.366  1.00  0.00    -0.232 A  
HETATM   25 CL   UNL     1      -9.064  15.425  66.219  1.00  0.00    -0.344 Cl 
ENDBRANCH  17  18
ENDBRANCH  16  17
ENDBRANCH   9  16
ENDBRANCH   6   9
TORSDOF 6
ENDMDL
MODEL      306
REMARK 921   NORMALIZED FREE ENERGY PREDICTED BY IDOCK:   -3.53 KCAL/MOL
REMARK 922        TOTAL FREE ENERGY PREDICTED BY IDOCK:   -5.78 KCAL/MOL
REMARK 923 INTER-LIGAND FREE ENERGY PREDICTED BY IDOCK:   -4.86 KCAL/MOL
REMARK 924 INTRA-LIGAND FREE ENERGY PREDICTED BY IDOCK:   -0.93 KCAL/MOL
REMARK 927      BINDING AFFINITY PREDICTED BY RF-SCORE:    0.00 PKD
ROOT
HETATM    1 CL   UNL     1     -12.844  12.611  63.039  1.00  0.00     0.077 Cl 
HETATM    2  C   UNL     1     -11.843  12.764  64.429  1.00  0.00    -0.384 A  
HETATM    3  C   UNL     1     -12.387  13.228  65.625  1.00  0.00    -0.521 A  
HETATM    4  C   UNL     1     -11.587  13.305  66.769  1.00  0.00    -0.365 A  
HETATM    5 CL   UNL     1     -12.325  13.892  68.219  1.00  0.00    -0.167 Cl 
HETATM    6  C   UNL     1     -10.240  12.913  66.729  1.00  0.00    -0.243 A  
HETATM    7  C   UNL     1      -9.709  12.482  65.495  1.00  0.00    -0.133 A  
HETATM    8  C   UNL     1     -10.504  12.404  64.354  1.00  0.00    -0.371 A  
ENDROOT
BRANCH   6   9
HETATM    9  C   UNL     1      -9.361  12.872  67.973  1.00  0.00    -0.213 C  
BRANCH   9  10
HETATM   10  C   UNL     1      -9.319  14.241  68.696  1.00  0.00    -0.172 C  
BRANCH  10  11
HETATM   11  N   UNL     1      -8.002  14.832  68.852  1.00  0.00    -0.155 NA 
HETATM   12  C   UNL     1      -7.659  16.128  68.575  1.00  0.00    -0.170 A  
HETATM   13  C   UNL     1      -6.889  14.223  69.360  1.00  0.00    -0.122 A  
HETATM   14  N   UNL     1      -5.836  15.003  69.293  1.00  0.00    -0.101 NA 
HETATM   15  C   UNL     1      -6.306  16.195  68.808  1.00  0.00    -0.119 A  
ENDBRANCH  10  11
ENDBRANCH   9  10
BRANCH   9  16
HETATM   16  O   UNL     1      -9.792  11.857  68.896  1.00  0.00    -0.116 OA 
BRANCH  16  17
HETATM   17  C   UNL     1      -8.826  10.821  69.090  1.00  0.00    -0.086 C  
BRANCH  17  18
HETATM   18  C   UNL     1      -9.178   9.659  68.199  1.00  0.00    -0.130 A  
HETATM   19  C   UNL     1     -10.213   8.758  68.511  1.00  0.00    -0.195 A  
HETATM   20 CL   UNL     1     -11.147   8.879  69.963  1.00  0.00    -0.219 Cl 
HETATM   21  C   UNL     1      -9.843   7.529  66.457  1.00  0.00    -0.226 A  
HETATM   22  C   UNL     1     -10.541   7.707  67.646  1.00  0.00    -0.294 A  
HETATM   23  C   UNL     1      -8.796   8.391  66.143  1.00  0.00    -0.198 A  
HETATM   24  C   UNL     1      -8.463   9.439  67.005  1.00  0.00    -0.127 A  
HETATM   25 CL   UNL     1      -7.142  10.454  66.529  1.00  0.00    -0.107 Cl 
ENDBRANCH  17  18
ENDBRANCH  16  17
ENDBRANCH   9  16
ENDBRANCH   6   9
TORSDOF 6
ENDMDL
MODEL      307
REMARK 921   NORMALIZED FREE ENERGY PREDICTED BY IDOCK:   -3.52 KCAL/MOL
REMARK 922        TOTAL FREE ENERGY PREDICTED BY IDOCK:   -5.78 KCAL/MOL
REMARK 923 INTER-LIGAND FREE ENERGY PREDICTED BY IDOCK:   -4.84 KCAL/MOL
REMARK 924 INTRA-LIGAND FREE ENERGY PREDICTED BY IDOCK:   -0.94 KCAL/MOL
REMARK 927      BINDING AFFINITY PREDICTED BY RF-SCORE:    0.00 PKD
ROOT
HETATM    1 CL   UNL     1     -11.486   7.973  72.826  1.00  0.00    -0.465 Cl 
HETATM    2  C   UNL     1     -10.711   8.122  71.298  1.00  0.00    -0.227 A  
HETATM    3  C   UNL     1     -11.099   7.300  70.243  1.00  0.00    -0.289 A  
HETATM    4  C   UNL     1     -10.506   7.453  68.986  1.00  0.00    -0.210 A  
HETATM    5 CL   UNL     1     -11.033   6.399  67.722  1.00  0.00    -0.408 Cl 
HETATM    6  C   UNL     1      -9.525   8.435  68.773  1.00  0.00    -0.147 A  
HETATM    7  C   UNL     1      -9.127   9.227  69.870  1.00  0.00    -0.203 A  
HETATM    8  C   UNL     1      -9.717   9.076  71.123  1.00  0.00    -0.369 A  
ENDROOT
BRANCH   6   9
HETATM    9  C   UNL     1      -8.933   8.715  67.398  1.00  0.00    -0.133 C  
BRANCH   9  10
HETATM   10  C   UNL     1      -8.169   7.490  66.836  1.00  0.00    -0.124 C  
BRANCH  10  11
HETATM   11  N   UNL     1      -7.145   6.933  67.701  1.00  0.00    -0.083 NA 
HETATM   12  C   UNL     1      -6.087   7.611  68.242  1.00  0.00    -0.036 A  
HETATM   13  C   UNL     1      -7.088   5.654  68.178  1.00  0.00    -0.071 A  
HETATM   14  N   UNL     1      -5.993   5.443  68.871  1.00  0.00    -0.023 NA 
HETATM   15  C   UNL     1      -5.363   6.659  68.919  1.00  0.00    -0.016 A  
ENDBRANCH  10  11
ENDBRANCH   9  10
BRANCH   9  16
HETATM   16  O   UNL     1      -9.940   9.123  66.457  1.00  0.00    -0.248 OA 
BRANCH  16  17
HETATM   17  C   UNL     1      -9.553  10.248  65.664  1.00  0.00    -0.232 C  
BRANCH  17  18
HETATM   18  C   UNL     1      -9.039  11.329  66.577  1.00  0.00    -0.193 A  
HETATM   19  C   UNL     1      -7.666  11.598  66.725  1.00  0.00    -0.116 A  
HETATM   20 CL   UNL     1      -6.444  10.690  65.902  1.00  0.00    -0.126 Cl 
HETATM   21  C   UNL     1      -8.127  13.415  68.259  1.00  0.00    -0.152 A  
HETATM   22  C   UNL     1      -7.218  12.633  67.555  1.00  0.00    -0.155 A  
HETATM   23  C   UNL     1      -9.489  13.146  68.151  1.00  0.00    -0.222 A  
HETATM   24  C   UNL     1      -9.939  12.112  67.326  1.00  0.00    -0.203 A  
HETATM   25 CL   UNL     1     -11.651  11.852  67.262  1.00  0.00    -0.385 Cl 
ENDBRANCH  17  18
ENDBRANCH  16  17
ENDBRANCH   9  16
ENDBRANCH   6   9
TORSDOF 6
ENDMDL
MODEL      308
REMARK 921   NORMALIZED FREE ENERGY PREDICTED BY IDOCK:   -3.51 KCAL/MOL
REMARK 922        TOTAL FREE ENERGY PREDICTED BY IDOCK:   -5.76 KCAL/MOL
REMARK 923 INTER-LIGAND FREE ENERGY PREDICTED BY IDOCK:   -5.02 KCAL/MOL
REMARK 924 INTRA-LIGAND FREE ENERGY PREDICTED BY IDOCK:   -0.74 KCAL/MOL
REMARK 927      BINDING AFFINITY PREDICTED BY RF-SCORE:    0.00 PKD
ROOT
HETATM    1 CL   UNL     1      -8.221   5.244  73.466  1.00  0.00    -0.110 Cl 
HETATM    2  C   UNL     1      -8.647   5.919  71.943  1.00  0.00    -0.137 A  
HETATM    3  C   UNL     1      -9.989   6.010  71.578  1.00  0.00    -0.212 A  
HETATM    4  C   UNL     1     -10.341   6.604  70.362  1.00  0.00    -0.199 A  
HETATM    5 CL   UNL     1     -12.022   6.683  69.971  1.00  0.00    -0.322 Cl 
HETATM    6  C   UNL     1      -9.354   7.117  69.505  1.00  0.00    -0.148 A  
HETATM    7  C   UNL     1      -8.003   6.977  69.885  1.00  0.00    -0.123 A  
HETATM    8  C   UNL     1      -7.651   6.386  71.096  1.00  0.00    -0.090 A  
ENDROOT
BRANCH   6   9
HETATM    9  C   UNL     1      -9.694   7.873  68.226  1.00  0.00    -0.160 C  
BRANCH   9  10
HETATM   10  C   UNL     1     -10.453   6.982  67.212  1.00  0.00    -0.293 C  
BRANCH  10  11
HETATM   11  N   UNL     1      -9.826   5.712  66.894  1.00  0.00    -0.146 NA 
HETATM   12  C   UNL     1     -10.283   4.472  67.248  1.00  0.00    -0.017 A  
HETATM   13  C   UNL     1      -8.706   5.523  66.133  1.00  0.00    -0.133 A  
HETATM   14  N   UNL     1      -8.349   4.260  66.100  1.00  0.00    -0.109 NA 
HETATM   15  C   UNL     1      -9.328   3.596  66.790  1.00  0.00    -0.190 A  
ENDBRANCH  10  11
ENDBRANCH   9  10
BRANCH   9  16
HETATM   16  O   UNL     1     -10.467   9.055  68.495  1.00  0.00    -0.211 OA 
BRANCH  16  17
HETATM   17  C   UNL     1      -9.708  10.101  69.107  1.00  0.00    -0.215 C  
BRANCH  17  18
HETATM   18  C   UNL     1     -10.389  11.415  68.835  1.00  0.00    -0.203 A  
HETATM   19  C   UNL     1      -9.996  12.263  67.784  1.00  0.00    -0.200 A  
HETATM   20 CL   UNL     1      -8.672  11.893  66.733  1.00  0.00    -0.191 Cl 
HETATM   21  C   UNL     1     -11.747  13.848  68.327  1.00  0.00    -0.396 A  
HETATM   22  C   UNL     1     -10.671  13.465  67.533  1.00  0.00    -0.263 A  
HETATM   23  C   UNL     1     -12.133  13.038  69.392  1.00  0.00    -0.267 A  
HETATM   24  C   UNL     1     -11.460  11.840  69.647  1.00  0.00    -0.270 A  
HETATM   25 CL   UNL     1     -12.012  10.905  70.997  1.00  0.00    -0.412 Cl 
ENDBRANCH  17  18
ENDBRANCH  16  17
ENDBRANCH   9  16
ENDBRANCH   6   9
TORSDOF 6
ENDMDL
MODEL      309
REMARK 921   NORMALIZED FREE ENERGY PREDICTED BY IDOCK:   -3.50 KCAL/MOL
REMARK 922        TOTAL FREE ENERGY PREDICTED BY IDOCK:   -5.75 KCAL/MOL
REMARK 923 INTER-LIGAND FREE ENERGY PREDICTED BY IDOCK:   -5.05 KCAL/MOL
REMARK 924 INTRA-LIGAND FREE ENERGY PREDICTED BY IDOCK:   -0.69 KCAL/MOL
REMARK 927      BINDING AFFINITY PREDICTED BY RF-SCORE:    0.00 PKD
ROOT
HETATM    1 CL   UNL     1      -8.974   2.890  67.845  1.00  0.00    -0.169 Cl 
HETATM    2  C   UNL     1      -9.245   4.578  68.032  1.00  0.00    -0.132 A  
HETATM    3  C   UNL     1     -10.386   5.027  68.695  1.00  0.00    -0.098 A  
HETATM    4  C   UNL     1     -10.584   6.396  68.892  1.00  0.00    -0.252 A  
HETATM    5 CL   UNL     1     -12.021   6.883  69.720  1.00  0.00    -0.075 Cl 
HETATM    6  C   UNL     1      -9.639   7.329  68.434  1.00  0.00    -0.139 A  
HETATM    7  C   UNL     1      -8.513   6.847  67.735  1.00  0.00    -0.123 A  
HETATM    8  C   UNL     1      -8.314   5.482  67.537  1.00  0.00    -0.100 A  
ENDROOT
BRANCH   6   9
HETATM    9  C   UNL     1      -9.753   8.820  68.725  1.00  0.00    -0.165 C  
BRANCH   9  10
HETATM   10  C   UNL     1      -8.809   9.260  69.871  1.00  0.00    -0.185 C  
BRANCH  10  11
HETATM   11  N   UNL     1      -8.980   8.564  71.133  1.00  0.00    -0.169 NA 
HETATM   12  C   UNL     1     -10.045   8.682  71.984  1.00  0.00    -0.331 A  
HETATM   13  C   UNL     1      -8.144   7.623  71.666  1.00  0.00    -0.102 A  
HETATM   14  N   UNL     1      -8.539   7.242  72.858  1.00  0.00    -0.119 NA 
HETATM   15  C   UNL     1      -9.726   7.895  73.065  1.00  0.00    -0.283 A  
ENDBRANCH  10  11
ENDBRANCH   9  10
BRANCH   9  16
HETATM   16  O   UNL     1      -9.487   9.613  67.555  1.00  0.00    -0.132 OA 
BRANCH  16  17
HETATM   17  C   UNL     1     -10.549   9.584  66.598  1.00  0.00    -0.104 C  
BRANCH  17  18
HETATM   18  C   UNL     1     -10.065  10.218  65.321  1.00  0.00    -0.359 A  
HETATM   19  C   UNL     1      -9.001   9.683  64.572  1.00  0.00    -0.235 A  
HETATM   20 CL   UNL     1      -8.127   8.274  65.069  1.00  0.00    -0.141 Cl 
HETATM   21  C   UNL     1      -9.236  11.412  62.891  1.00  0.00    -0.313 A  
HETATM   22  C   UNL     1      -8.595  10.274  63.369  1.00  0.00    -0.194 A  
HETATM   23  C   UNL     1     -10.272  11.975  63.632  1.00  0.00    -0.470 A  
HETATM   24  C   UNL     1     -10.678  11.390  64.834  1.00  0.00    -0.286 A  
HETATM   25 CL   UNL     1     -11.971  12.167  65.685  1.00  0.00    -0.375 Cl 
ENDBRANCH  17  18
ENDBRANCH  16  17
ENDBRANCH   9  16
ENDBRANCH   6   9
TORSDOF 6
ENDMDL
MODEL      310
REMARK 921   NORMALIZED FREE ENERGY PREDICTED BY IDOCK:   -3.48 KCAL/MOL
REMARK 922        TOTAL FREE ENERGY PREDICTED BY IDOCK:   -5.72 KCAL/MOL
REMARK 923 INTER-LIGAND FREE ENERGY PREDICTED BY IDOCK:   -4.94 KCAL/MOL
REMARK 924 INTRA-LIGAND FREE ENERGY PREDICTED BY IDOCK:   -0.79 KCAL/MOL
REMARK 927      BINDING AFFINITY PREDICTED BY RF-SCORE:    0.00 PKD
ROOT
HETATM    1 CL   UNL     1     -14.403   8.538  71.985  1.00  0.00    -0.528 Cl 
HETATM    2  C   UNL     1     -12.770   8.361  71.479  1.00  0.00    -0.308 A  
HETATM    3  C   UNL     1     -12.335   7.144  70.957  1.00  0.00    -0.376 A  
HETATM    4  C   UNL     1     -11.021   7.013  70.499  1.00  0.00    -0.265 A  
HETATM    5 CL   UNL     1     -10.547   5.475  69.866  1.00  0.00    -0.388 Cl 
HETATM    6  C   UNL     1     -10.133   8.100  70.551  1.00  0.00    -0.201 A  
HETATM    7  C   UNL     1     -10.591   9.307  71.117  1.00  0.00    -0.402 A  
HETATM    8  C   UNL     1     -11.900   9.440  71.575  1.00  0.00    -0.456 A  
ENDROOT
BRANCH   6   9
HETATM    9  C   UNL     1      -8.730   8.039  69.960  1.00  0.00    -0.135 C  
BRANCH   9  10
HETATM   10  C   UNL     1      -7.822   7.044  70.726  1.00  0.00    -0.096 C  
BRANCH  10  11
HETATM   11  N   UNL     1      -7.165   7.570  71.909  1.00  0.00    -0.063 NA 
HETATM   12  C   UNL     1      -7.743   7.775  73.132  1.00  0.00    -0.119 A  
HETATM   13  C   UNL     1      -5.843   7.894  72.031  1.00  0.00    -0.036 A  
HETATM   14  N   UNL     1      -5.579   8.419  73.205  1.00  0.00    -0.059 NA 
HETATM   15  C   UNL     1      -6.757   8.346  73.900  1.00  0.00    -0.117 A  
ENDBRANCH  10  11
ENDBRANCH   9  10
BRANCH   9  16
HETATM   16  O   UNL     1      -8.753   7.688  68.566  1.00  0.00    -0.128 OA 
BRANCH  16  17
HETATM   17  C   UNL     1      -7.677   8.262  67.819  1.00  0.00    -0.103 C  
BRANCH  17  18
HETATM   18  C   UNL     1      -7.979   9.717  67.579  1.00  0.00    -0.106 A  
HETATM   19  C   UNL     1      -9.018  10.140  66.731  1.00  0.00    -0.132 A  
HETATM   20 CL   UNL     1     -10.019   9.030  65.859  1.00  0.00    -0.285 Cl 
HETATM   21  C   UNL     1      -8.545  12.467  67.213  1.00  0.00    -0.191 A  
HETATM   22  C   UNL     1      -9.298  11.501  66.554  1.00  0.00    -0.210 A  
HETATM   23  C   UNL     1      -7.492  12.071  68.032  1.00  0.00    -0.113 A  
HETATM   24  C   UNL     1      -7.208  10.714  68.209  1.00  0.00    -0.083 A  
HETATM   25 CL   UNL     1      -5.875  10.322  69.245  1.00  0.00    -0.037 Cl 
ENDBRANCH  17  18
ENDBRANCH  16  17
ENDBRANCH   9  16
ENDBRANCH   6   9
TORSDOF 6
ENDMDL
MODEL      311
REMARK 921   NORMALIZED FREE ENERGY PREDICTED BY IDOCK:   -3.48 KCAL/MOL
REMARK 922        TOTAL FREE ENERGY PREDICTED BY IDOCK:   -5.72 KCAL/MOL
REMARK 923 INTER-LIGAND FREE ENERGY PREDICTED BY IDOCK:   -4.90 KCAL/MOL
REMARK 924 INTRA-LIGAND FREE ENERGY PREDICTED BY IDOCK:   -0.82 KCAL/MOL
REMARK 927      BINDING AFFINITY PREDICTED BY RF-SCORE:    0.00 PKD
ROOT
HETATM    1 CL   UNL     1     -13.054   6.886  71.693  1.00  0.00    -0.389 Cl 
HETATM    2  C   UNL     1     -11.644   7.653  71.077  1.00  0.00    -0.282 A  
HETATM    3  C   UNL     1     -11.129   7.266  69.842  1.00  0.00    -0.233 A  
HETATM    4  C   UNL     1     -10.012   7.923  69.316  1.00  0.00    -0.190 A  
HETATM    5 CL   UNL     1      -9.424   7.391  67.781  1.00  0.00    -0.146 Cl 
HETATM    6  C   UNL     1      -9.405   8.976  70.019  1.00  0.00    -0.198 A  
HETATM    7  C   UNL     1      -9.927   9.321  71.283  1.00  0.00    -0.341 A  
HETATM    8  C   UNL     1     -11.040   8.668  71.808  1.00  0.00    -0.396 A  
ENDROOT
BRANCH   6   9
HETATM    9  C   UNL     1      -8.259   9.795  69.437  1.00  0.00    -0.135 C  
BRANCH   9  10
HETATM   10  C   UNL     1      -7.101   8.896  68.939  1.00  0.00    -0.066 C  
BRANCH  10  11
HETATM   11  N   UNL     1      -6.444   8.092  69.954  1.00  0.00    -0.036 NA 
HETATM   12  C   UNL     1      -5.799   8.560  71.066  1.00  0.00    -0.034 A  
HETATM   13  C   UNL     1      -6.407   6.727  70.014  1.00  0.00    -0.039 A  
HETATM   14  N   UNL     1      -5.665   6.306  71.013  1.00  0.00    -0.025 NA 
HETATM   15  C   UNL     1      -5.284   7.442  71.676  1.00  0.00    -0.035 A  
ENDBRANCH  10  11
ENDBRANCH   9  10
BRANCH   9  16
HETATM   16  O   UNL     1      -8.701  10.643  68.363  1.00  0.00    -0.128 OA 
BRANCH  16  17
HETATM   17  C   UNL     1      -9.054  11.961  68.791  1.00  0.00     0.051 C  
BRANCH  17  18
HETATM   18  C   UNL     1      -9.793  12.650  67.675  1.00  0.00    -0.210 A  
HETATM   19  C   UNL     1      -9.222  13.697  66.929  1.00  0.00    -0.250 A  
HETATM   20 CL   UNL     1      -7.637  14.314  67.250  1.00  0.00    -0.179 Cl 
HETATM   21  C   UNL     1     -11.202  13.868  65.543  1.00  0.00    -0.307 A  
HETATM   22  C   UNL     1      -9.920  14.296  65.873  1.00  0.00    -0.340 A  
HETATM   23  C   UNL     1     -11.797  12.854  66.288  1.00  0.00    -0.477 A  
HETATM   24  C   UNL     1     -11.105  12.256  67.344  1.00  0.00    -0.282 A  
HETATM   25 CL   UNL     1     -11.932  11.007  68.214  1.00  0.00    -0.233 Cl 
ENDBRANCH  17  18
ENDBRANCH  16  17
ENDBRANCH   9  16
ENDBRANCH   6   9
TORSDOF 6
ENDMDL
MODEL      312
REMARK 921   NORMALIZED FREE ENERGY PREDICTED BY IDOCK:   -3.48 KCAL/MOL
REMARK 922        TOTAL FREE ENERGY PREDICTED BY IDOCK:   -5.72 KCAL/MOL
REMARK 923 INTER-LIGAND FREE ENERGY PREDICTED BY IDOCK:   -5.02 KCAL/MOL
REMARK 924 INTRA-LIGAND FREE ENERGY PREDICTED BY IDOCK:   -0.69 KCAL/MOL
REMARK 927      BINDING AFFINITY PREDICTED BY RF-SCORE:    0.00 PKD
ROOT
HETATM    1 CL   UNL     1     -10.756   7.210  72.406  1.00  0.00    -0.254 Cl 
HETATM    2  C   UNL     1     -10.024   7.224  70.851  1.00  0.00    -0.185 A  
HETATM    3  C   UNL     1     -10.695   6.664  69.765  1.00  0.00    -0.304 A  
HETATM    4  C   UNL     1     -10.124   6.719  68.490  1.00  0.00    -0.162 A  
HETATM    5 CL   UNL     1     -11.009   6.003  67.189  1.00  0.00    -0.395 Cl 
HETATM    6  C   UNL     1      -8.881   7.340  68.289  1.00  0.00    -0.127 A  
HETATM    7  C   UNL     1      -8.210   7.866  69.413  1.00  0.00    -0.130 A  
HETATM    8  C   UNL     1      -8.777   7.812  70.684  1.00  0.00    -0.139 A  
ENDROOT
BRANCH   6   9
HETATM    9  C   UNL     1      -8.273   7.525  66.904  1.00  0.00    -0.124 C  
BRANCH   9  10
HETATM   10  C   UNL     1      -8.116   6.177  66.157  1.00  0.00    -0.115 C  
BRANCH  10  11
HETATM   11  N   UNL     1      -7.263   5.194  66.800  1.00  0.00    -0.076 NA 
HETATM   12  C   UNL     1      -5.916   5.305  67.012  1.00  0.00    -0.026 A  
HETATM   13  C   UNL     1      -7.661   4.014  67.364  1.00  0.00    -0.080 A  
HETATM   14  N   UNL     1      -6.638   3.312  67.793  1.00  0.00    -0.037 NA 
HETATM   15  C   UNL     1      -5.545   4.110  67.580  1.00  0.00    -0.021 A  
ENDBRANCH  10  11
ENDBRANCH   9  10
BRANCH   9  16
HETATM   16  O   UNL     1      -9.046   8.430  66.099  1.00  0.00    -0.168 OA 
BRANCH  16  17
HETATM   17  C   UNL     1      -8.554   9.773  66.124  1.00  0.00    -0.127 C  
BRANCH  17  18
HETATM   18  C   UNL     1      -9.578  10.675  65.489  1.00  0.00    -0.271 A  
HETATM   19  C   UNL     1     -10.425  11.503  66.248  1.00  0.00    -0.251 A  
HETATM   20 CL   UNL     1     -10.395  11.532  67.978  1.00  0.00    -0.198 Cl 
HETATM   21  C   UNL     1     -11.443  12.401  64.241  1.00  0.00    -0.427 A  
HETATM   22  C   UNL     1     -11.345  12.358  65.628  1.00  0.00    -0.387 A  
HETATM   23  C   UNL     1     -10.635  11.568  63.472  1.00  0.00    -0.487 A  
HETATM   24  C   UNL     1      -9.719  10.711  64.087  1.00  0.00    -0.320 A  
HETATM   25 CL   UNL     1      -8.763   9.710  63.046  1.00  0.00    -0.211 Cl 
ENDBRANCH  17  18
ENDBRANCH  16  17
ENDBRANCH   9  16
ENDBRANCH   6   9
TORSDOF 6
ENDMDL
MODEL      313
REMARK 921   NORMALIZED FREE ENERGY PREDICTED BY IDOCK:   -3.48 KCAL/MOL
REMARK 922        TOTAL FREE ENERGY PREDICTED BY IDOCK:   -5.71 KCAL/MOL
REMARK 923 INTER-LIGAND FREE ENERGY PREDICTED BY IDOCK:   -5.34 KCAL/MOL
REMARK 924 INTRA-LIGAND FREE ENERGY PREDICTED BY IDOCK:   -0.38 KCAL/MOL
REMARK 927      BINDING AFFINITY PREDICTED BY RF-SCORE:    0.00 PKD
ROOT
HETATM    1 CL   UNL     1     -11.819  16.369  73.295  1.00  0.00    -0.486 Cl 
HETATM    2  C   UNL     1     -11.895  15.617  71.750  1.00  0.00    -0.444 A  
HETATM    3  C   UNL     1     -10.721  15.389  71.033  1.00  0.00    -0.081 A  
HETATM    4  C   UNL     1     -10.775  14.733  69.800  1.00  0.00    -0.154 A  
HETATM    5 CL   UNL     1      -9.283  14.485  68.964  1.00  0.00    -0.117 Cl 
HETATM    6  C   UNL     1     -12.002  14.294  69.276  1.00  0.00    -0.375 A  
HETATM    7  C   UNL     1     -13.175  14.571  70.008  1.00  0.00     0.407 A  
HETATM    8  C   UNL     1     -13.124  15.225  71.237  1.00  0.00    -0.540 A  
ENDROOT
BRANCH   6   9
HETATM    9  C   UNL     1     -12.098  13.476  67.994  1.00  0.00    -0.262 C  
BRANCH   9  10
HETATM   10  C   UNL     1     -12.350  14.371  66.755  1.00  0.00    -0.170 C  
BRANCH  10  11
HETATM   11  N   UNL     1     -11.234  15.200  66.337  1.00  0.00    -0.317 NA 
HETATM   12  C   UNL     1     -11.036  16.514  66.663  1.00  0.00     0.060 A  
HETATM   13  C   UNL     1     -10.155  14.802  65.600  1.00  0.00    -0.366 A  
HETATM   14  N   UNL     1      -9.359  15.810  65.322  1.00  0.00    -0.136 NA 
HETATM   15  C   UNL     1      -9.899  16.881  65.984  1.00  0.00    -0.258 A  
ENDBRANCH  10  11
ENDBRANCH   9  10
BRANCH   9  16
HETATM   16  O   UNL     1     -10.919  12.682  67.778  1.00  0.00    -0.220 OA 
BRANCH  16  17
HETATM   17  C   UNL     1     -11.204  11.352  67.339  1.00  0.00    -0.305 C  
BRANCH  17  18
HETATM   18  C   UNL     1      -9.912  10.681  66.959  1.00  0.00    -0.243 A  
HETATM   19  C   UNL     1      -9.018  10.172  67.919  1.00  0.00    -0.128 A  
HETATM   20 CL   UNL     1      -9.304  10.304  69.621  1.00  0.00    -0.204 Cl 
HETATM   21  C   UNL     1      -7.523   9.369  66.190  1.00  0.00    -0.096 A  
HETATM   22  C   UNL     1      -7.839   9.521  67.536  1.00  0.00    -0.102 A  
HETATM   23  C   UNL     1      -8.379   9.893  65.224  1.00  0.00    -0.153 A  
HETATM   24  C   UNL     1      -9.555  10.545  65.603  1.00  0.00    -0.226 A  
HETATM   25 CL   UNL     1     -10.551  11.166  64.328  1.00  0.00    -0.421 Cl 
ENDBRANCH  17  18
ENDBRANCH  16  17
ENDBRANCH   9  16
ENDBRANCH   6   9
TORSDOF 6
ENDMDL
MODEL      314
REMARK 921   NORMALIZED FREE ENERGY PREDICTED BY IDOCK:   -3.47 KCAL/MOL
REMARK 922        TOTAL FREE ENERGY PREDICTED BY IDOCK:   -5.70 KCAL/MOL
REMARK 923 INTER-LIGAND FREE ENERGY PREDICTED BY IDOCK:   -4.87 KCAL/MOL
REMARK 924 INTRA-LIGAND FREE ENERGY PREDICTED BY IDOCK:   -0.84 KCAL/MOL
REMARK 927      BINDING AFFINITY PREDICTED BY RF-SCORE:    0.00 PKD
ROOT
HETATM    1 CL   UNL     1     -13.524   9.736  72.407  1.00  0.00    -0.449 Cl 
HETATM    2  C   UNL     1     -12.004   9.149  71.855  1.00  0.00    -0.373 A  
HETATM    3  C   UNL     1     -11.396   8.079  72.509  1.00  0.00    -0.469 A  
HETATM    4  C   UNL     1     -10.186   7.568  72.032  1.00  0.00    -0.196 A  
HETATM    5 CL   UNL     1      -9.486   6.242  72.892  1.00  0.00    -0.146 Cl 
HETATM    6  C   UNL     1      -9.577   8.119  70.892  1.00  0.00    -0.187 A  
HETATM    7  C   UNL     1     -10.197   9.223  70.274  1.00  0.00    -0.270 A  
HETATM    8  C   UNL     1     -11.403   9.734  70.748  1.00  0.00    -0.416 A  
ENDROOT
BRANCH   6   9
HETATM    9  C   UNL     1      -8.319   7.524  70.269  1.00  0.00    -0.133 C  
BRANCH   9  10
HETATM   10  C   UNL     1      -7.173   7.383  71.302  1.00  0.00    -0.067 C  
BRANCH  10  11
HETATM   11  N   UNL     1      -6.454   8.604  71.618  1.00  0.00    -0.067 NA 
HETATM   12  C   UNL     1      -6.233   9.656  70.771  1.00  0.00    -0.092 A  
HETATM   13  C   UNL     1      -5.926   8.948  72.831  1.00  0.00    -0.039 A  
HETATM   14  N   UNL     1      -5.268  10.083  72.769  1.00  0.00    -0.292 NA 
HETATM   15  C   UNL     1      -5.456  10.534  71.489  1.00  0.00     0.055 A  
ENDBRANCH  10  11
ENDBRANCH   9  10
BRANCH   9  16
HETATM   16  O   UNL     1      -8.577   6.246  69.664  1.00  0.00    -0.130 OA 
BRANCH  16  17
HETATM   17  C   UNL     1      -8.071   6.138  68.331  1.00  0.00    -0.108 C  
BRANCH  17  18
HETATM   18  C   UNL     1      -8.496   7.354  67.553  1.00  0.00    -0.116 A  
HETATM   19  C   UNL     1      -7.588   8.359  67.173  1.00  0.00    -0.093 A  
HETATM   20 CL   UNL     1      -5.911   8.308  67.598  1.00  0.00    -0.042 Cl 
HETATM   21  C   UNL     1      -9.335   9.591  66.034  1.00  0.00    -0.273 A  
HETATM   22  C   UNL     1      -8.005   9.463  66.419  1.00  0.00    -0.108 A  
HETATM   23  C   UNL     1     -10.256   8.623  66.425  1.00  0.00    -0.224 A  
HETATM   24  C   UNL     1      -9.844   7.522  67.180  1.00  0.00    -0.201 A  
HETATM   25 CL   UNL     1     -11.066   6.376  67.622  1.00  0.00    -0.429 Cl 
ENDBRANCH  17  18
ENDBRANCH  16  17
ENDBRANCH   9  16
ENDBRANCH   6   9
TORSDOF 6
ENDMDL
MODEL      315
REMARK 921   NORMALIZED FREE ENERGY PREDICTED BY IDOCK:   -3.46 KCAL/MOL
REMARK 922        TOTAL FREE ENERGY PREDICTED BY IDOCK:   -5.69 KCAL/MOL
REMARK 923 INTER-LIGAND FREE ENERGY PREDICTED BY IDOCK:   -5.00 KCAL/MOL
REMARK 924 INTRA-LIGAND FREE ENERGY PREDICTED BY IDOCK:   -0.69 KCAL/MOL
REMARK 927      BINDING AFFINITY PREDICTED BY RF-SCORE:    0.00 PKD
ROOT
HETATM    1 CL   UNL     1      -6.363  15.293  67.219  1.00  0.00    -0.022 Cl 
HETATM    2  C   UNL     1      -7.545  14.147  67.716  1.00  0.00    -0.166 A  
HETATM    3  C   UNL     1      -8.896  14.402  67.487  1.00  0.00    -0.197 A  
HETATM    4  C   UNL     1      -9.855  13.449  67.845  1.00  0.00    -0.237 A  
HETATM    5 CL   UNL     1     -11.512  13.831  67.535  1.00  0.00    -0.338 Cl 
HETATM    6  C   UNL     1      -9.470  12.231  68.429  1.00  0.00    -0.175 A  
HETATM    7  C   UNL     1      -8.099  12.017  68.681  1.00  0.00    -0.069 A  
HETATM    8  C   UNL     1      -7.142  12.965  68.325  1.00  0.00    -0.102 A  
ENDROOT
BRANCH   6   9
HETATM    9  C   UNL     1     -10.466  11.118  68.730  1.00  0.00    -0.203 C  
BRANCH   9  10
HETATM   10  C   UNL     1     -10.870  10.341  67.452  1.00  0.00    -0.277 C  
BRANCH  10  11
HETATM   11  N   UNL     1      -9.784  10.000  66.551  1.00  0.00    -0.189 NA 
HETATM   12  C   UNL     1      -8.983   8.894  66.631  1.00  0.00    -0.136 A  
HETATM   13  C   UNL     1      -9.409  10.686  65.430  1.00  0.00    -0.210 A  
HETATM   14  N   UNL     1      -8.340  10.162  64.876  1.00  0.00    -0.158 NA 
HETATM   15  C   UNL     1      -8.068   9.043  65.617  1.00  0.00    -0.115 A  
ENDBRANCH  10  11
ENDBRANCH   9  10
BRANCH   9  16
HETATM   16  O   UNL     1      -9.956  10.197  69.709  1.00  0.00    -0.231 OA 
BRANCH  16  17
HETATM   17  C   UNL     1     -10.712   8.986  69.796  1.00  0.00    -0.225 C  
BRANCH  17  18
HETATM   18  C   UNL     1     -10.371   8.295  71.089  1.00  0.00    -0.247 A  
HETATM   19  C   UNL     1     -11.323   8.086  72.103  1.00  0.00    -0.328 A  
HETATM   20 CL   UNL     1     -12.959   8.636  71.974  1.00  0.00    -0.390 Cl 
HETATM   21  C   UNL     1      -9.694   6.932  73.476  1.00  0.00    -0.250 A  
HETATM   22  C   UNL     1     -10.986   7.408  73.282  1.00  0.00    -0.367 A  
HETATM   23  C   UNL     1      -8.729   7.156  72.498  1.00  0.00    -0.140 A  
HETATM   24  C   UNL     1      -9.061   7.834  71.322  1.00  0.00    -0.137 A  
HETATM   25 CL   UNL     1      -7.790   8.066  70.168  1.00  0.00    -0.097 Cl 
ENDBRANCH  17  18
ENDBRANCH  16  17
ENDBRANCH   9  16
ENDBRANCH   6   9
TORSDOF 6
ENDMDL
MODEL      316
REMARK 921   NORMALIZED FREE ENERGY PREDICTED BY IDOCK:   -3.45 KCAL/MOL
REMARK 922        TOTAL FREE ENERGY PREDICTED BY IDOCK:   -5.68 KCAL/MOL
REMARK 923 INTER-LIGAND FREE ENERGY PREDICTED BY IDOCK:   -5.49 KCAL/MOL
REMARK 924 INTRA-LIGAND FREE ENERGY PREDICTED BY IDOCK:   -0.20 KCAL/MOL
REMARK 927      BINDING AFFINITY PREDICTED BY RF-SCORE:    0.00 PKD
ROOT
HETATM    1 CL   UNL     1      -5.582  14.351  69.772  1.00  0.00    -0.095 Cl 
HETATM    2  C   UNL     1      -6.713  13.307  69.006  1.00  0.00    -0.107 A  
HETATM    3  C   UNL     1      -6.383  11.971  68.784  1.00  0.00    -0.071 A  
HETATM    4  C   UNL     1      -7.320  11.109  68.206  1.00  0.00    -0.090 A  
HETATM    5 CL   UNL     1      -6.843   9.466  67.958  1.00  0.00    -0.074 Cl 
HETATM    6  C   UNL     1      -8.597  11.573  67.853  1.00  0.00    -0.143 A  
HETATM    7  C   UNL     1      -8.889  12.937  68.057  1.00  0.00    -0.195 A  
HETATM    8  C   UNL     1      -7.957  13.798  68.632  1.00  0.00    -0.095 A  
ENDROOT
BRANCH   6   9
HETATM    9  C   UNL     1      -9.688  10.647  67.328  1.00  0.00    -0.168 C  
BRANCH   9  10
HETATM   10  C   UNL     1      -9.269   9.950  66.010  1.00  0.00    -0.170 C  
BRANCH  10  11
HETATM   11  N   UNL     1      -9.748  10.571  64.788  1.00  0.00    -0.277 NA 
HETATM   12  C   UNL     1     -10.810  11.427  64.677  1.00  0.00    -0.292 A  
HETATM   13  C   UNL     1      -9.188  10.464  63.546  1.00  0.00    -0.282 A  
HETATM   14  N   UNL     1      -9.906  11.082  62.636  1.00  0.00    -0.198 NA 
HETATM   15  C   UNL     1     -10.918  11.688  63.332  1.00  0.00    -0.362 A  
ENDBRANCH  10  11
ENDBRANCH   9  10
BRANCH   9  16
HETATM   16  O   UNL     1     -10.055   9.652  68.299  1.00  0.00    -0.164 OA 
BRANCH  16  17
HETATM   17  C   UNL     1     -10.004  10.129  69.646  1.00  0.00    -0.232 C  
BRANCH  17  18
HETATM   18  C   UNL     1     -10.696   9.133  70.538  1.00  0.00    -0.289 A  
HETATM   19  C   UNL     1     -10.223   7.819  70.707  1.00  0.00    -0.197 A  
HETATM   20 CL   UNL     1      -8.828   7.216  69.878  1.00  0.00    -0.142 Cl 
HETATM   21  C   UNL     1     -11.999   7.318  72.277  1.00  0.00    -0.259 A  
HETATM   22  C   UNL     1     -10.868   6.924  71.570  1.00  0.00    -0.257 A  
HETATM   23  C   UNL     1     -12.501   8.605  72.101  1.00  0.00    -0.453 A  
HETATM   24  C   UNL     1     -11.863   9.499  71.238  1.00  0.00    -0.373 A  
HETATM   25 CL   UNL     1     -12.567  11.074  71.083  1.00  0.00    -0.501 Cl 
ENDBRANCH  17  18
ENDBRANCH  16  17
ENDBRANCH   9  16
ENDBRANCH   6   9
TORSDOF 6
ENDMDL
MODEL      317
REMARK 921   NORMALIZED FREE ENERGY PREDICTED BY IDOCK:   -3.41 KCAL/MOL
REMARK 922        TOTAL FREE ENERGY PREDICTED BY IDOCK:   -5.63 KCAL/MOL
REMARK 923 INTER-LIGAND FREE ENERGY PREDICTED BY IDOCK:   -4.83 KCAL/MOL
REMARK 924 INTRA-LIGAND FREE ENERGY PREDICTED BY IDOCK:   -0.80 KCAL/MOL
REMARK 927      BINDING AFFINITY PREDICTED BY RF-SCORE:    0.00 PKD
ROOT
HETATM    1 CL   UNL     1     -11.601   8.328  72.444  1.00  0.00    -0.449 Cl 
HETATM    2  C   UNL     1     -10.717   8.514  70.981  1.00  0.00    -0.228 A  
HETATM    3  C   UNL     1     -11.055   7.750  69.866  1.00  0.00    -0.142 A  
HETATM    4  C   UNL     1     -10.370   7.935  68.661  1.00  0.00    -0.201 A  
HETATM    5 CL   UNL     1     -10.839   6.953  67.318  1.00  0.00    -0.413 Cl 
HETATM    6  C   UNL     1      -9.346   8.891  68.560  1.00  0.00    -0.141 A  
HETATM    7  C   UNL     1      -9.003   9.623  69.715  1.00  0.00    -0.226 A  
HETATM    8  C   UNL     1      -9.684   9.440  70.916  1.00  0.00    -0.320 A  
ENDROOT
BRANCH   6   9
HETATM    9  C   UNL     1      -8.651   9.208  67.242  1.00  0.00    -0.118 C  
BRANCH   9  10
HETATM   10  C   UNL     1      -7.972   7.957  66.630  1.00  0.00    -0.103 C  
BRANCH  10  11
HETATM   11  N   UNL     1      -7.164   8.191  65.447  1.00  0.00    -0.067 NA 
HETATM   12  C   UNL     1      -7.556   8.003  64.149  1.00  0.00    -0.122 A  
HETATM   13  C   UNL     1      -5.896   8.699  65.414  1.00  0.00    -0.048 A  
HETATM   14  N   UNL     1      -5.411   8.714  64.193  1.00  0.00    -0.059 NA 
HETATM   15  C   UNL     1      -6.440   8.284  63.397  1.00  0.00    -0.081 A  
ENDBRANCH  10  11
ENDBRANCH   9  10
BRANCH   9  16
HETATM   16  O   UNL     1      -9.559   9.776  66.283  1.00  0.00    -0.182 OA 
BRANCH  16  17
HETATM   17  C   UNL     1      -9.057  10.961  65.660  1.00  0.00    -0.204 C  
BRANCH  17  18
HETATM   18  C   UNL     1      -9.041  12.071  66.676  1.00  0.00    -0.205 A  
HETATM   19  C   UNL     1      -7.850  12.542  67.257  1.00  0.00    -0.160 A  
HETATM   20 CL   UNL     1      -6.302  11.864  66.888  1.00  0.00    -0.141 Cl 
HETATM   21  C   UNL     1      -9.061  14.207  68.534  1.00  0.00    -0.176 A  
HETATM   22  C   UNL     1      -7.862  13.601  68.174  1.00  0.00    -0.143 A  
HETATM   23  C   UNL     1     -10.255  13.737  67.994  1.00  0.00    -0.248 A  
HETATM   24  C   UNL     1     -10.247  12.679  67.081  1.00  0.00    -0.225 A  
HETATM   25 CL   UNL     1     -11.783  12.162  66.468  1.00  0.00    -0.426 Cl 
ENDBRANCH  17  18
ENDBRANCH  16  17
ENDBRANCH   9  16
ENDBRANCH   6   9
TORSDOF 6
ENDMDL
MODEL      318
REMARK 921   NORMALIZED FREE ENERGY PREDICTED BY IDOCK:   -3.39 KCAL/MOL
REMARK 922        TOTAL FREE ENERGY PREDICTED BY IDOCK:   -5.60 KCAL/MOL
REMARK 923 INTER-LIGAND FREE ENERGY PREDICTED BY IDOCK:   -4.19 KCAL/MOL
REMARK 924 INTRA-LIGAND FREE ENERGY PREDICTED BY IDOCK:   -1.41 KCAL/MOL
REMARK 927      BINDING AFFINITY PREDICTED BY RF-SCORE:    0.00 PKD
ROOT
HETATM    1 CL   UNL     1      -9.994   9.827  65.700  1.00  0.00    -0.375 Cl 
HETATM    2  C   UNL     1      -9.913   8.628  66.930  1.00  0.00    -0.260 A  
HETATM    3  C   UNL     1      -9.083   8.823  68.032  1.00  0.00    -0.144 A  
HETATM    4  C   UNL     1      -9.053   7.873  69.058  1.00  0.00    -0.144 A  
HETATM    5 CL   UNL     1      -8.000   8.175  70.394  1.00  0.00    -0.096 Cl 
HETATM    6  C   UNL     1      -9.859   6.725  68.993  1.00  0.00    -0.152 A  
HETATM    7  C   UNL     1     -10.662   6.539  67.848  1.00  0.00    -0.357 A  
HETATM    8  C   UNL     1     -10.692   7.484  66.825  1.00  0.00    -0.169 A  
ENDROOT
BRANCH   6   9
HETATM    9  C   UNL     1      -9.947   5.721  70.136  1.00  0.00    -0.198 C  
BRANCH   9  10
HETATM   10  C   UNL     1     -11.068   6.085  71.141  1.00  0.00    -0.271 C  
BRANCH  10  11
HETATM   11  N   UNL     1     -10.675   6.128  72.538  1.00  0.00    -0.213 NA 
HETATM   12  C   UNL     1     -10.475   7.255  73.288  1.00  0.00    -0.370 A  
HETATM   13  C   UNL     1     -10.497   5.057  73.368  1.00  0.00    -0.222 A  
HETATM   14  N   UNL     1     -10.064   5.427  74.551  1.00  0.00    -0.246 NA 
HETATM   15  C   UNL     1     -10.050   6.796  74.512  1.00  0.00    -0.160 A  
ENDBRANCH  10  11
ENDBRANCH   9  10
BRANCH   9  16
HETATM   16  O   UNL     1     -10.153   4.382  69.655  1.00  0.00    -0.202 OA 
BRANCH  16  17
HETATM   17  C   UNL     1      -9.023   3.528  69.854  1.00  0.00    -0.107 C  
BRANCH  17  18
HETATM   18  C   UNL     1      -7.869   4.058  69.044  1.00  0.00    -0.056 A  
HETATM   19  C   UNL     1      -6.743   4.654  69.640  1.00  0.00    -0.044 A  
HETATM   20 CL   UNL     1      -6.598   4.868  71.351  1.00  0.00    -0.036 Cl 
HETATM   21  C   UNL     1      -5.697   4.979  67.479  1.00  0.00    -0.017 A  
HETATM   22  C   UNL     1      -5.669   5.106  68.864  1.00  0.00    -0.015 A  
HETATM   23  C   UNL     1      -6.815   4.419  66.867  1.00  0.00    -0.052 A  
HETATM   24  C   UNL     1      -7.890   3.970  67.638  1.00  0.00    -0.090 A  
HETATM   25 CL   UNL     1      -9.237   3.293  66.784  1.00  0.00    -0.187 Cl 
ENDBRANCH  17  18
ENDBRANCH  16  17
ENDBRANCH   9  16
ENDBRANCH   6   9
TORSDOF 6
ENDMDL
MODEL      319
REMARK 921   NORMALIZED FREE ENERGY PREDICTED BY IDOCK:   -3.34 KCAL/MOL
REMARK 922        TOTAL FREE ENERGY PREDICTED BY IDOCK:   -5.53 KCAL/MOL
REMARK 923 INTER-LIGAND FREE ENERGY PREDICTED BY IDOCK:   -5.13 KCAL/MOL
REMARK 924 INTRA-LIGAND FREE ENERGY PREDICTED BY IDOCK:   -0.40 KCAL/MOL
REMARK 927      BINDING AFFINITY PREDICTED BY RF-SCORE:    0.00 PKD
ROOT
HETATM    1 CL   UNL     1     -13.566   9.367  72.702  1.00  0.00    -0.425 Cl 
HETATM    2  C   UNL     1     -12.404   9.743  71.492  1.00  0.00    -0.405 A  
HETATM    3  C   UNL     1     -11.093   9.291  71.627  1.00  0.00    -0.438 A  
HETATM    4  C   UNL     1     -10.159   9.553  70.620  1.00  0.00    -0.286 A  
HETATM    5 CL   UNL     1      -8.550   8.966  70.853  1.00  0.00    -0.218 Cl 
HETATM    6  C   UNL     1     -10.531  10.263  69.466  1.00  0.00    -0.268 A  
HETATM    7  C   UNL     1     -11.855  10.737  69.375  1.00  0.00    -0.370 A  
HETATM    8  C   UNL     1     -12.787  10.478  70.377  1.00  0.00    -0.274 A  
ENDROOT
BRANCH   6   9
HETATM    9  C   UNL     1      -9.581  10.473  68.293  1.00  0.00    -0.158 C  
BRANCH   9  10
HETATM   10  C   UNL     1      -8.978  11.900  68.286  1.00  0.00    -0.178 C  
BRANCH  10  11
HETATM   11  N   UNL     1      -9.579  12.834  67.351  1.00  0.00    -0.194 NA 
HETATM   12  C   UNL     1     -10.449  12.523  66.342  1.00  0.00    -0.247 A  
HETATM   13  C   UNL     1      -9.433  14.193  67.350  1.00  0.00    -0.220 A  
HETATM   14  N   UNL     1     -10.042  14.745  66.326  1.00  0.00    -0.272 NA 
HETATM   15  C   UNL     1     -10.681  13.712  65.693  1.00  0.00    -0.283 A  
ENDBRANCH  10  11
ENDBRANCH   9  10
BRANCH   9  16
HETATM   16  O   UNL     1      -8.517   9.505  68.289  1.00  0.00    -0.118 OA 
BRANCH  16  17
HETATM   17  C   UNL     1      -7.464   9.826  67.377  1.00  0.00    -0.091 C  
BRANCH  17  18
HETATM   18  C   UNL     1      -7.388   8.748  66.328  1.00  0.00    -0.087 A  
HETATM   19  C   UNL     1      -7.720   8.984  64.982  1.00  0.00    -0.109 A  
HETATM   20 CL   UNL     1      -8.281  10.520  64.416  1.00  0.00    -0.118 Cl 
HETATM   21  C   UNL     1      -7.165   6.702  64.384  1.00  0.00    -0.069 A  
HETATM   22  C   UNL     1      -7.606   7.971  64.021  1.00  0.00    -0.124 A  
HETATM   23  C   UNL     1      -6.861   6.440  65.716  1.00  0.00    -0.053 A  
HETATM   24  C   UNL     1      -6.976   7.447  66.678  1.00  0.00    -0.070 A  
HETATM   25 CL   UNL     1      -6.578   7.020  68.309  1.00  0.00    -0.056 Cl 
ENDBRANCH  17  18
ENDBRANCH  16  17
ENDBRANCH   9  16
ENDBRANCH   6   9
TORSDOF 6
ENDMDL
MODEL      320
REMARK 921   NORMALIZED FREE ENERGY PREDICTED BY IDOCK:   -3.34 KCAL/MOL
REMARK 922        TOTAL FREE ENERGY PREDICTED BY IDOCK:   -5.53 KCAL/MOL
REMARK 923 INTER-LIGAND FREE ENERGY PREDICTED BY IDOCK:   -5.77 KCAL/MOL
REMARK 924 INTRA-LIGAND FREE ENERGY PREDICTED BY IDOCK:    0.24 KCAL/MOL
REMARK 927      BINDING AFFINITY PREDICTED BY RF-SCORE:    0.00 PKD
ROOT
HETATM    1 CL   UNL     1     -13.224  12.211  72.205  1.00  0.00    -0.558 Cl 
HETATM    2  C   UNL     1     -12.412  11.506  70.863  1.00  0.00    -0.366 A  
HETATM    3  C   UNL     1     -12.604  12.027  69.585  1.00  0.00     0.248 A  
HETATM    4  C   UNL     1     -11.907  11.487  68.501  1.00  0.00    -0.297 A  
HETATM    5 CL   UNL     1     -12.195  12.180  66.944  1.00  0.00     0.072 Cl 
HETATM    6  C   UNL     1     -11.005  10.426  68.687  1.00  0.00    -0.288 A  
HETATM    7  C   UNL     1     -10.859   9.897  69.985  1.00  0.00    -0.339 A  
HETATM    8  C   UNL     1     -11.554  10.433  71.067  1.00  0.00    -0.384 A  
ENDROOT
BRANCH   6   9
HETATM    9  C   UNL     1     -10.139   9.882  67.557  1.00  0.00    -0.197 C  
BRANCH   9  10
HETATM   10  C   UNL     1     -10.509   8.421  67.198  1.00  0.00    -0.310 C  
BRANCH  10  11
HETATM   11  N   UNL     1      -9.393   7.543  66.896  1.00  0.00    -0.149 NA 
HETATM   12  C   UNL     1      -8.312   7.847  66.115  1.00  0.00    -0.127 A  
HETATM   13  C   UNL     1      -9.192   6.283  67.386  1.00  0.00    -0.116 A  
HETATM   14  N   UNL     1      -8.129   5.722  66.859  1.00  0.00    -0.102 NA 
HETATM   15  C   UNL     1      -7.571   6.690  66.067  1.00  0.00    -0.086 A  
ENDBRANCH  10  11
ENDBRANCH   9  10
BRANCH   9  16
HETATM   16  O   UNL     1     -10.223  10.700  66.378  1.00  0.00    -0.221 OA 
BRANCH  16  17
HETATM   17  C   UNL     1      -9.052  11.489  66.151  1.00  0.00    -0.209 C  
BRANCH  17  18
HETATM   18  C   UNL     1      -9.449  12.940  66.099  1.00  0.00    -0.161 A  
HETATM   19  C   UNL     1     -10.180  13.481  65.025  1.00  0.00    -0.325 A  
HETATM   20 CL   UNL     1     -10.655  12.540  63.653  1.00  0.00    -0.460 Cl 
HETATM   21  C   UNL     1     -10.226  15.662  66.080  1.00  0.00    -0.354 A  
HETATM   22  C   UNL     1     -10.565  14.828  65.020  1.00  0.00    -0.452 A  
HETATM   23  C   UNL     1      -9.477  15.154  67.137  1.00  0.00    -0.224 A  
HETATM   24  C   UNL     1      -9.088  13.812  67.145  1.00  0.00    -0.239 A  
HETATM   25 CL   UNL     1      -8.154  13.276  68.502  1.00  0.00    -0.129 Cl 
ENDBRANCH  17  18
ENDBRANCH  16  17
ENDBRANCH   9  16
ENDBRANCH   6   9
TORSDOF 6
ENDMDL
MODEL      321
REMARK 921   NORMALIZED FREE ENERGY PREDICTED BY IDOCK:   -3.33 KCAL/MOL
REMARK 922        TOTAL FREE ENERGY PREDICTED BY IDOCK:   -5.51 KCAL/MOL
REMARK 923 INTER-LIGAND FREE ENERGY PREDICTED BY IDOCK:   -5.00 KCAL/MOL
REMARK 924 INTRA-LIGAND FREE ENERGY PREDICTED BY IDOCK:   -0.51 KCAL/MOL
REMARK 927      BINDING AFFINITY PREDICTED BY RF-SCORE:    0.00 PKD
ROOT
HETATM    1 CL   UNL     1      -9.861   5.530  70.186  1.00  0.00    -0.243 Cl 
HETATM    2  C   UNL     1      -9.410   7.032  69.482  1.00  0.00    -0.148 A  
HETATM    3  C   UNL     1     -10.313   7.714  68.668  1.00  0.00    -0.220 A  
HETATM    4  C   UNL     1      -9.967   8.959  68.135  1.00  0.00    -0.176 A  
HETATM    5 CL   UNL     1     -11.133   9.749  67.133  1.00  0.00    -0.103 Cl 
HETATM    6  C   UNL     1      -8.718   9.536  68.417  1.00  0.00    -0.124 A  
HETATM    7  C   UNL     1      -7.812   8.806  69.214  1.00  0.00    -0.100 A  
HETATM    8  C   UNL     1      -8.155   7.565  69.746  1.00  0.00    -0.126 A  
ENDROOT
BRANCH   6   9
HETATM    9  C   UNL     1      -8.341  10.938  67.954  1.00  0.00    -0.119 C  
BRANCH   9  10
HETATM   10  C   UNL     1      -8.565  11.124  66.433  1.00  0.00    -0.172 C  
BRANCH  10  11
HETATM   11  N   UNL     1      -7.747  10.292  65.568  1.00  0.00    -0.145 NA 
HETATM   12  C   UNL     1      -6.398  10.409  65.372  1.00  0.00    -0.122 A  
HETATM   13  C   UNL     1      -8.165   9.209  64.847  1.00  0.00    -0.153 A  
HETATM   14  N   UNL     1      -7.199   8.720  64.103  1.00  0.00    -0.090 NA 
HETATM   15  C   UNL     1      -6.093   9.460  64.426  1.00  0.00    -0.078 A  
ENDBRANCH  10  11
ENDBRANCH   9  10
BRANCH   9  16
HETATM   16  O   UNL     1      -9.069  11.950  68.671  1.00  0.00    -0.144 OA 
BRANCH  16  17
HETATM   17  C   UNL     1      -9.825  12.815  67.819  1.00  0.00    -0.220 C  
BRANCH  17  18
HETATM   18  C   UNL     1     -10.596  13.783  68.675  1.00  0.00    -0.263 A  
HETATM   19  C   UNL     1     -10.274  15.151  68.741  1.00  0.00    -0.235 A  
HETATM   20 CL   UNL     1      -8.941  15.837  67.875  1.00  0.00    -0.180 Cl 
HETATM   21  C   UNL     1     -12.119  15.575  70.252  1.00  0.00    -0.415 A  
HETATM   22  C   UNL     1     -11.031  16.036  69.519  1.00  0.00    -0.326 A  
HETATM   23  C   UNL     1     -12.437  14.220  70.226  1.00  0.00    -0.422 A  
HETATM   24  C   UNL     1     -11.682  13.334  69.453  1.00  0.00    -0.325 A  
HETATM   25 CL   UNL     1     -12.153  11.667  69.489  1.00  0.00    -0.353 Cl 
ENDBRANCH  17  18
ENDBRANCH  16  17
ENDBRANCH   9  16
ENDBRANCH   6   9
TORSDOF 6
ENDMDL
MODEL      322
REMARK 921   NORMALIZED FREE ENERGY PREDICTED BY IDOCK:   -3.31 KCAL/MOL
REMARK 922        TOTAL FREE ENERGY PREDICTED BY IDOCK:   -5.49 KCAL/MOL
REMARK 923 INTER-LIGAND FREE ENERGY PREDICTED BY IDOCK:   -5.40 KCAL/MOL
REMARK 924 INTRA-LIGAND FREE ENERGY PREDICTED BY IDOCK:   -0.09 KCAL/MOL
REMARK 927      BINDING AFFINITY PREDICTED BY RF-SCORE:    0.00 PKD
ROOT
HETATM    1 CL   UNL     1      -5.184   8.913  64.710  1.00  0.00    -0.038 Cl 
HETATM    2  C   UNL     1      -6.283   9.679  65.789  1.00  0.00    -0.066 A  
HETATM    3  C   UNL     1      -7.634   9.760  65.459  1.00  0.00    -0.118 A  
HETATM    4  C   UNL     1      -8.537  10.337  66.357  1.00  0.00    -0.133 A  
HETATM    5 CL   UNL     1     -10.198  10.406  65.884  1.00  0.00    -0.316 Cl 
HETATM    6  C   UNL     1      -8.096  10.833  67.595  1.00  0.00    -0.114 A  
HETATM    7  C   UNL     1      -6.718  10.770  67.885  1.00  0.00    -0.064 A  
HETATM    8  C   UNL     1      -5.817  10.195  66.992  1.00  0.00    -0.050 A  
ENDROOT
BRANCH   6   9
HETATM    9  C   UNL     1      -9.057  11.366  68.651  1.00  0.00    -0.135 C  
BRANCH   9  10
HETATM   10  C   UNL     1     -10.282  12.069  68.016  1.00  0.00    -0.198 C  
BRANCH  10  11
HETATM   11  N   UNL     1     -10.164  13.505  67.837  1.00  0.00    -0.241 NA 
HETATM   12  C   UNL     1      -9.004  14.203  67.644  1.00  0.00    -0.192 A  
HETATM   13  C   UNL     1     -11.191  14.404  67.765  1.00  0.00    -0.300 A  
HETATM   14  N   UNL     1     -10.749  15.638  67.679  1.00  0.00    -0.296 NA 
HETATM   15  C   UNL     1      -9.386  15.523  67.600  1.00  0.00    -0.203 A  
ENDBRANCH  10  11
ENDBRANCH   9  10
BRANCH   9  16
HETATM   16  O   UNL     1      -9.508  10.325  69.535  1.00  0.00    -0.214 OA 
BRANCH  16  17
HETATM   17  C   UNL     1     -10.921  10.112  69.484  1.00  0.00    -0.256 C  
BRANCH  17  18
HETATM   18  C   UNL     1     -11.244   8.838  70.218  1.00  0.00    -0.212 A  
HETATM   19  C   UNL     1     -10.593   7.623  69.937  1.00  0.00    -0.235 A  
HETATM   20 CL   UNL     1      -9.392   7.473  68.700  1.00  0.00    -0.143 Cl 
HETATM   21  C   UNL     1     -11.844   6.484  71.672  1.00  0.00    -0.384 A  
HETATM   22  C   UNL     1     -10.890   6.460  70.660  1.00  0.00    -0.331 A  
HETATM   23  C   UNL     1     -12.521   7.669  71.945  1.00  0.00    -0.338 A  
HETATM   24  C   UNL     1     -12.231   8.830  71.224  1.00  0.00    -0.287 A  
HETATM   25 CL   UNL     1     -13.131  10.252  71.635  1.00  0.00    -0.528 Cl 
ENDBRANCH  17  18
ENDBRANCH  16  17
ENDBRANCH   9  16
ENDBRANCH   6   9
TORSDOF 6
ENDMDL
MODEL      323
REMARK 921   NORMALIZED FREE ENERGY PREDICTED BY IDOCK:   -3.30 KCAL/MOL
REMARK 922        TOTAL FREE ENERGY PREDICTED BY IDOCK:   -5.48 KCAL/MOL
REMARK 923 INTER-LIGAND FREE ENERGY PREDICTED BY IDOCK:   -4.94 KCAL/MOL
REMARK 924 INTRA-LIGAND FREE ENERGY PREDICTED BY IDOCK:   -0.54 KCAL/MOL
REMARK 927      BINDING AFFINITY PREDICTED BY RF-SCORE:    0.00 PKD
ROOT
HETATM    1 CL   UNL     1      -9.690  10.778  63.644  1.00  0.00    -0.339 Cl 
HETATM    2  C   UNL     1      -9.446   9.723  64.979  1.00  0.00    -0.272 A  
HETATM    3  C   UNL     1      -9.979  10.047  66.225  1.00  0.00    -0.310 A  
HETATM    4  C   UNL     1      -9.824   9.167  67.299  1.00  0.00    -0.189 A  
HETATM    5 CL   UNL     1     -10.509   9.633  68.816  1.00  0.00    -0.228 Cl 
HETATM    6  C   UNL     1      -9.141   7.951  67.135  1.00  0.00    -0.158 A  
HETATM    7  C   UNL     1      -8.581   7.667  65.872  1.00  0.00    -0.164 A  
HETATM    8  C   UNL     1      -8.734   8.544  64.800  1.00  0.00    -0.055 A  
ENDROOT
BRANCH   6   9
HETATM    9  C   UNL     1      -9.045   6.910  68.244  1.00  0.00    -0.125 C  
BRANCH   9  10
HETATM   10  C   UNL     1      -7.654   6.916  68.925  1.00  0.00    -0.105 C  
BRANCH  10  11
HETATM   11  N   UNL     1      -7.386   8.040  69.805  1.00  0.00    -0.072 NA 
HETATM   12  C   UNL     1      -6.833   9.238  69.443  1.00  0.00    -0.049 A  
HETATM   13  C   UNL     1      -7.695   8.125  71.133  1.00  0.00    -0.091 A  
HETATM   14  N   UNL     1      -7.249   9.241  71.664  1.00  0.00    -0.325 NA 
HETATM   15  C   UNL     1      -6.713   9.943  70.616  1.00  0.00    -0.094 A  
ENDBRANCH  10  11
ENDBRANCH   9  10
BRANCH   9  16
HETATM   16  O   UNL     1     -10.065   7.097  69.240  1.00  0.00    -0.168 OA 
BRANCH  16  17
HETATM   17  C   UNL     1     -10.795   5.903  69.534  1.00  0.00    -0.372 C  
BRANCH  17  18
HETATM   18  C   UNL     1     -10.535   5.519  70.967  1.00  0.00    -0.314 A  
HETATM   19  C   UNL     1     -11.172   6.161  72.044  1.00  0.00    -0.286 A  
HETATM   20 CL   UNL     1     -12.281   7.472  71.825  1.00  0.00    -0.327 Cl 
HETATM   21  C   UNL     1     -10.061   4.715  73.639  1.00  0.00    -0.204 A  
HETATM   22  C   UNL     1     -10.938   5.759  73.365  1.00  0.00    -0.261 A  
HETATM   23  C   UNL     1      -9.396   4.087  72.589  1.00  0.00    -0.153 A  
HETATM   24  C   UNL     1      -9.625   4.487  71.270  1.00  0.00    -0.172 A  
HETATM   25 CL   UNL     1      -8.748   3.648  70.034  1.00  0.00    -0.111 Cl 
ENDBRANCH  17  18
ENDBRANCH  16  17
ENDBRANCH   9  16
ENDBRANCH   6   9
TORSDOF 6
ENDMDL
MODEL      324
REMARK 921   NORMALIZED FREE ENERGY PREDICTED BY IDOCK:   -3.30 KCAL/MOL
REMARK 922        TOTAL FREE ENERGY PREDICTED BY IDOCK:   -5.48 KCAL/MOL
REMARK 923 INTER-LIGAND FREE ENERGY PREDICTED BY IDOCK:   -4.68 KCAL/MOL
REMARK 924 INTRA-LIGAND FREE ENERGY PREDICTED BY IDOCK:   -0.80 KCAL/MOL
REMARK 927      BINDING AFFINITY PREDICTED BY RF-SCORE:    0.00 PKD
ROOT
HETATM    1 CL   UNL     1      -5.473  14.213  70.389  1.00  0.00    -0.109 Cl 
HETATM    2  C   UNL     1      -6.195  12.805  69.715  1.00  0.00    -0.108 A  
HETATM    3  C   UNL     1      -6.005  11.568  70.329  1.00  0.00    -0.160 A  
HETATM    4  C   UNL     1      -6.631  10.430  69.812  1.00  0.00    -0.103 A  
HETATM    5 CL   UNL     1      -6.351   8.929  70.621  1.00  0.00    -0.040 Cl 
HETATM    6  C   UNL     1      -7.459  10.521  68.681  1.00  0.00    -0.095 A  
HETATM    7  C   UNL     1      -7.602  11.779  68.060  1.00  0.00    -0.116 A  
HETATM    8  C   UNL     1      -6.978  12.914  68.574  1.00  0.00    -0.098 A  
ENDROOT
BRANCH   6   9
HETATM    9  C   UNL     1      -8.252   9.333  68.150  1.00  0.00    -0.119 C  
BRANCH   9  10
HETATM   10  C   UNL     1      -7.325   8.204  67.634  1.00  0.00    -0.093 C  
BRANCH  10  11
HETATM   11  N   UNL     1      -7.992   6.991  67.195  1.00  0.00    -0.112 NA 
HETATM   12  C   UNL     1      -7.948   5.773  67.818  1.00  0.00    -0.098 A  
HETATM   13  C   UNL     1      -8.830   6.863  66.123  1.00  0.00    -0.147 A  
HETATM   14  N   UNL     1      -9.207   5.618  65.948  1.00  0.00    -0.156 NA 
HETATM   15  C   UNL     1      -8.664   4.930  67.001  1.00  0.00    -0.103 A  
ENDBRANCH  10  11
ENDBRANCH   9  10
BRANCH   9  16
HETATM   16  O   UNL     1      -9.145   8.802  69.143  1.00  0.00    -0.140 OA 
BRANCH  16  17
HETATM   17  C   UNL     1     -10.525   8.941  68.796  1.00  0.00    -0.200 C  
BRANCH  17  18
HETATM   18  C   UNL     1     -11.351   8.844  70.051  1.00  0.00    -0.050 A  
HETATM   19  C   UNL     1     -11.868   9.979  70.701  1.00  0.00    -0.325 A  
HETATM   20 CL   UNL     1     -11.571  11.589  70.141  1.00  0.00    -0.369 Cl 
HETATM   21  C   UNL     1     -12.953   8.601  72.373  1.00  0.00    -0.403 A  
HETATM   22  C   UNL     1     -12.663   9.856  71.848  1.00  0.00    -0.501 A  
HETATM   23  C   UNL     1     -12.426   7.467  71.763  1.00  0.00    -0.367 A  
HETATM   24  C   UNL     1     -11.630   7.585  70.621  1.00  0.00    -0.248 A  
HETATM   25 CL   UNL     1     -11.017   6.116  69.938  1.00  0.00    -0.419 Cl 
ENDBRANCH  17  18
ENDBRANCH  16  17
ENDBRANCH   9  16
ENDBRANCH   6   9
TORSDOF 6
ENDMDL
MODEL      325
REMARK 921   NORMALIZED FREE ENERGY PREDICTED BY IDOCK:   -3.28 KCAL/MOL
REMARK 922        TOTAL FREE ENERGY PREDICTED BY IDOCK:   -5.45 KCAL/MOL
REMARK 923 INTER-LIGAND FREE ENERGY PREDICTED BY IDOCK:   -4.18 KCAL/MOL
REMARK 924 INTRA-LIGAND FREE ENERGY PREDICTED BY IDOCK:   -1.27 KCAL/MOL
REMARK 927      BINDING AFFINITY PREDICTED BY RF-SCORE:    0.00 PKD
ROOT
HETATM    1 CL   UNL     1      -5.127  12.947  70.502  1.00  0.00    -0.098 Cl 
HETATM    2  C   UNL     1      -6.549  13.247  69.583  1.00  0.00     0.002 A  
HETATM    3  C   UNL     1      -6.984  12.304  68.653  1.00  0.00    -0.097 A  
HETATM    4  C   UNL     1      -8.167  12.523  67.941  1.00  0.00    -0.165 A  
HETATM    5 CL   UNL     1      -8.647  11.314  66.803  1.00  0.00    -0.153 Cl 
HETATM    6  C   UNL     1      -8.928  13.684  68.157  1.00  0.00    -0.191 A  
HETATM    7  C   UNL     1      -8.443  14.636  69.077  1.00  0.00    -0.095 A  
HETATM    8  C   UNL     1      -7.265  14.420  69.788  1.00  0.00     0.052 A  
ENDROOT
BRANCH   6   9
HETATM    9  C   UNL     1     -10.279  13.912  67.489  1.00  0.00    -0.245 C  
BRANCH   9  10
HETATM   10  C   UNL     1     -11.442  13.878  68.512  1.00  0.00    -0.311 C  
BRANCH  10  11
HETATM   11  N   UNL     1     -11.773  12.571  69.049  1.00  0.00    -0.306 NA 
HETATM   12  C   UNL     1     -11.965  12.263  70.368  1.00  0.00    -0.263 A  
HETATM   13  C   UNL     1     -12.013  11.432  68.332  1.00  0.00    -0.200 A  
HETATM   14  N   UNL     1     -12.208  10.397  69.117  1.00  0.00    -0.119 NA 
HETATM   15  C   UNL     1     -12.183  10.906  70.389  1.00  0.00    -0.365 A  
ENDBRANCH  10  11
ENDBRANCH   9  10
BRANCH   9  16
HETATM   16  O   UNL     1     -10.313  15.155  66.767  1.00  0.00    -0.263 OA 
BRANCH  16  17
HETATM   17  C   UNL     1     -11.346  16.039  67.210  1.00  0.00     0.053 C  
BRANCH  17  18
HETATM   18  C   UNL     1     -10.747  17.397  67.457  1.00  0.00    -0.278 A  
HETATM   19  C   UNL     1     -10.380  17.836  68.742  1.00  0.00    -0.332 A  
HETATM   20 CL   UNL     1     -10.619  16.871  70.159  1.00  0.00     0.012 Cl 
HETATM   21  C   UNL     1      -9.564  19.939  67.857  1.00  0.00    -0.490 A  
HETATM   22  C   UNL     1      -9.792  19.092  68.937  1.00  0.00    -0.487 A  
HETATM   23  C   UNL     1      -9.948  19.537  66.580  1.00  0.00    -0.509 A  
HETATM   24  C   UNL     1     -10.537  18.285  66.383  1.00  0.00    -0.293 A  
HETATM   25 CL   UNL     1     -10.983  17.879  64.759  1.00  0.00     0.959 Cl 
ENDBRANCH  17  18
ENDBRANCH  16  17
ENDBRANCH   9  16
ENDBRANCH   6   9
TORSDOF 6
ENDMDL
MODEL      326
REMARK 921   NORMALIZED FREE ENERGY PREDICTED BY IDOCK:   -3.27 KCAL/MOL
REMARK 922        TOTAL FREE ENERGY PREDICTED BY IDOCK:   -5.43 KCAL/MOL
REMARK 923 INTER-LIGAND FREE ENERGY PREDICTED BY IDOCK:   -4.48 KCAL/MOL
REMARK 924 INTRA-LIGAND FREE ENERGY PREDICTED BY IDOCK:   -0.95 KCAL/MOL
REMARK 927      BINDING AFFINITY PREDICTED BY RF-SCORE:    0.00 PKD
ROOT
HETATM    1 CL   UNL     1      -5.170   9.504  72.136  1.00  0.00    -0.076 Cl 
HETATM    2  C   UNL     1      -6.299   8.738  71.090  1.00  0.00    -0.054 A  
HETATM    3  C   UNL     1      -5.947   7.558  70.437  1.00  0.00    -0.027 A  
HETATM    4  C   UNL     1      -6.881   6.907  69.625  1.00  0.00    -0.051 A  
HETATM    5 CL   UNL     1      -6.377   5.450  68.843  1.00  0.00    -0.033 Cl 
HETATM    6  C   UNL     1      -8.176   7.426  69.465  1.00  0.00    -0.131 A  
HETATM    7  C   UNL     1      -8.490   8.640  70.109  1.00  0.00    -0.135 A  
HETATM    8  C   UNL     1      -7.562   9.291  70.919  1.00  0.00    -0.130 A  
ENDROOT
BRANCH   6   9
HETATM    9  C   UNL     1      -9.260   6.694  68.684  1.00  0.00    -0.128 C  
BRANCH   9  10
HETATM   10  C   UNL     1      -9.796   5.462  69.455  1.00  0.00    -0.196 C  
BRANCH  10  11
HETATM   11  N   UNL     1     -10.549   5.750  70.662  1.00  0.00    -0.261 NA 
HETATM   12  C   UNL     1     -10.196   5.406  71.938  1.00  0.00    -0.203 A  
HETATM   13  C   UNL     1     -11.708   6.469  70.746  1.00  0.00    -0.366 A  
HETATM   14  N   UNL     1     -12.182   6.483  71.971  1.00  0.00    -0.329 NA 
HETATM   15  C   UNL     1     -11.245   5.825  72.723  1.00  0.00    -0.292 A  
ENDBRANCH  10  11
ENDBRANCH   9  10
BRANCH   9  16
HETATM   16  O   UNL     1     -10.356   7.562  68.351  1.00  0.00    -0.189 OA 
BRANCH  16  17
HETATM   17  C   UNL     1     -10.670   7.569  66.956  1.00  0.00    -0.297 C  
BRANCH  17  18
HETATM   18  C   UNL     1      -9.788   8.575  66.267  1.00  0.00    -0.285 A  
HETATM   19  C   UNL     1      -8.716   8.194  65.440  1.00  0.00    -0.094 A  
HETATM   20 CL   UNL     1      -8.290   6.538  65.170  1.00  0.00    -0.130 Cl 
HETATM   21  C   UNL     1      -8.200  10.508  64.941  1.00  0.00    -0.117 A  
HETATM   22  C   UNL     1      -7.934   9.152  64.783  1.00  0.00    -0.126 A  
HETATM   23  C   UNL     1      -9.237  10.907  65.780  1.00  0.00    -0.224 A  
HETATM   24  C   UNL     1     -10.017   9.955  66.439  1.00  0.00    -0.244 A  
HETATM   25 CL   UNL     1     -11.281  10.551  67.463  1.00  0.00    -0.363 Cl 
ENDBRANCH  17  18
ENDBRANCH  16  17
ENDBRANCH   9  16
ENDBRANCH   6   9
TORSDOF 6
ENDMDL
MODEL      327
REMARK 921   NORMALIZED FREE ENERGY PREDICTED BY IDOCK:   -3.25 KCAL/MOL
REMARK 922        TOTAL FREE ENERGY PREDICTED BY IDOCK:   -5.40 KCAL/MOL
REMARK 923 INTER-LIGAND FREE ENERGY PREDICTED BY IDOCK:   -4.53 KCAL/MOL
REMARK 924 INTRA-LIGAND FREE ENERGY PREDICTED BY IDOCK:   -0.88 KCAL/MOL
REMARK 927      BINDING AFFINITY PREDICTED BY RF-SCORE:    0.00 PKD
ROOT
HETATM    1 CL   UNL     1      -9.572  11.631  65.856  1.00  0.00    -0.244 Cl 
HETATM    2  C   UNL     1      -9.298  10.140  66.667  1.00  0.00    -0.162 A  
HETATM    3  C   UNL     1     -10.177   9.076  66.476  1.00  0.00    -0.318 A  
HETATM    4  C   UNL     1      -9.928   7.847  67.095  1.00  0.00    -0.230 A  
HETATM    5 CL   UNL     1     -11.060   6.571  66.816  1.00  0.00    -0.363 Cl 
HETATM    6  C   UNL     1      -8.795   7.670  67.904  1.00  0.00    -0.126 A  
HETATM    7  C   UNL     1      -7.943   8.775  68.108  1.00  0.00    -0.106 A  
HETATM    8  C   UNL     1      -8.190  10.001  67.493  1.00  0.00    -0.114 A  
ENDROOT
BRANCH   6   9
HETATM    9  C   UNL     1      -8.422   6.320  68.506  1.00  0.00    -0.115 C  
BRANCH   9  10
HETATM   10  C   UNL     1      -6.968   5.915  68.158  1.00  0.00    -0.069 C  
BRANCH  10  11
HETATM   11  N   UNL     1      -6.808   5.088  66.975  1.00  0.00    -0.058 NA 
HETATM   12  C   UNL     1      -7.802   4.416  66.317  1.00  0.00    -0.095 A  
HETATM   13  C   UNL     1      -5.653   4.885  66.273  1.00  0.00    -0.017 A  
HETATM   14  N   UNL     1      -5.824   4.021  65.299  1.00  0.00    -0.022 NA 
HETATM   15  C   UNL     1      -7.162   3.725  65.317  1.00  0.00    -0.067 A  
ENDBRANCH  10  11
ENDBRANCH   9  10
BRANCH   9  16
HETATM   16  O   UNL     1      -8.593   6.307  69.933  1.00  0.00    -0.131 OA 
BRANCH  16  17
HETATM   17  C   UNL     1      -9.961   6.392  70.340  1.00  0.00    -0.183 C  
BRANCH  17  18
HETATM   18  C   UNL     1     -10.136   5.607  71.613  1.00  0.00    -0.245 A  
HETATM   19  C   UNL     1      -9.939   4.216  71.672  1.00  0.00    -0.170 A  
HETATM   20 CL   UNL     1      -9.516   3.275  70.283  1.00  0.00    -0.242 Cl 
HETATM   21  C   UNL     1     -10.415   4.189  74.048  1.00  0.00    -0.279 A  
HETATM   22  C   UNL     1     -10.075   3.517  72.878  1.00  0.00    -0.224 A  
HETATM   23  C   UNL     1     -10.645   5.562  74.005  1.00  0.00    -0.283 A  
HETATM   24  C   UNL     1     -10.513   6.262  72.803  1.00  0.00    -0.214 A  
HETATM   25 CL   UNL     1     -10.824   7.965  72.851  1.00  0.00    -0.450 Cl 
ENDBRANCH  17  18
ENDBRANCH  16  17
ENDBRANCH   9  16
ENDBRANCH   6   9
TORSDOF 6
ENDMDL
MODEL      328
REMARK 921   NORMALIZED FREE ENERGY PREDICTED BY IDOCK:   -3.24 KCAL/MOL
REMARK 922        TOTAL FREE ENERGY PREDICTED BY IDOCK:   -5.39 KCAL/MOL
REMARK 923 INTER-LIGAND FREE ENERGY PREDICTED BY IDOCK:   -4.73 KCAL/MOL
REMARK 924 INTRA-LIGAND FREE ENERGY PREDICTED BY IDOCK:   -0.66 KCAL/MOL
REMARK 927      BINDING AFFINITY PREDICTED BY RF-SCORE:    0.00 PKD
ROOT
HETATM    1 CL   UNL     1      -5.125   8.498  67.524  1.00  0.00    -0.033 Cl 
HETATM    2  C   UNL     1      -6.428   9.619  67.588  1.00  0.00    -0.061 A  
HETATM    3  C   UNL     1      -7.123   9.940  66.424  1.00  0.00    -0.096 A  
HETATM    4  C   UNL     1      -8.214  10.813  66.483  1.00  0.00    -0.148 A  
HETATM    5 CL   UNL     1      -9.029  11.169  65.001  1.00  0.00    -0.135 Cl 
HETATM    6  C   UNL     1      -8.623  11.365  67.707  1.00  0.00    -0.129 A  
HETATM    7  C   UNL     1      -7.878  11.050  68.862  1.00  0.00    -0.138 A  
HETATM    8  C   UNL     1      -6.790  10.181  68.806  1.00  0.00    -0.061 A  
ENDROOT
BRANCH   6   9
HETATM    9  C   UNL     1      -9.872  12.228  67.839  1.00  0.00    -0.201 C  
BRANCH   9  10
HETATM   10  C   UNL     1      -9.705  13.598  67.134  1.00  0.00    -0.245 C  
BRANCH  10  11
HETATM   11  N   UNL     1      -8.814  14.540  67.788  1.00  0.00    -0.176 NA 
HETATM   12  C   UNL     1      -9.057  15.204  68.959  1.00  0.00    -0.218 A  
HETATM   13  C   UNL     1      -7.554  14.883  67.386  1.00  0.00    -0.204 A  
HETATM   14  N   UNL     1      -7.040  15.821  68.148  1.00  0.00    -0.112 NA 
HETATM   15  C   UNL     1      -7.969  16.026  69.134  1.00  0.00    -0.238 A  
ENDBRANCH  10  11
ENDBRANCH   9  10
BRANCH   9  16
HETATM   16  O   UNL     1     -11.036  11.563  67.320  1.00  0.00    -0.260 OA 
BRANCH  16  17
HETATM   17  C   UNL     1     -12.024  11.292  68.318  1.00  0.00    -0.145 C  
BRANCH  17  18
HETATM   18  C   UNL     1     -11.503  10.218  69.234  1.00  0.00    -0.223 A  
HETATM   19  C   UNL     1     -10.877   9.055  68.751  1.00  0.00    -0.030 A  
HETATM   20 CL   UNL     1     -10.682   8.735  67.061  1.00  0.00    -0.279 Cl 
HETATM   21  C   UNL     1     -10.483   8.258  71.005  1.00  0.00    -0.241 A  
HETATM   22  C   UNL     1     -10.370   8.088  69.629  1.00  0.00    -0.220 A  
HETATM   23  C   UNL     1     -11.126   9.387  71.504  1.00  0.00    -0.446 A  
HETATM   24  C   UNL     1     -11.636  10.352  70.631  1.00  0.00    -0.349 A  
HETATM   25 CL   UNL     1     -12.424  11.718  71.348  1.00  0.00    -0.344 Cl 
ENDBRANCH  17  18
ENDBRANCH  16  17
ENDBRANCH   9  16
ENDBRANCH   6   9
TORSDOF 6
ENDMDL
MODEL      329
REMARK 921   NORMALIZED FREE ENERGY PREDICTED BY IDOCK:   -3.23 KCAL/MOL
REMARK 922        TOTAL FREE ENERGY PREDICTED BY IDOCK:   -5.38 KCAL/MOL
REMARK 923 INTER-LIGAND FREE ENERGY PREDICTED BY IDOCK:   -4.64 KCAL/MOL
REMARK 924 INTRA-LIGAND FREE ENERGY PREDICTED BY IDOCK:   -0.75 KCAL/MOL
REMARK 927      BINDING AFFINITY PREDICTED BY RF-SCORE:    0.00 PKD
ROOT
HETATM    1 CL   UNL     1      -6.454   8.171  71.099  1.00  0.00    -0.037 Cl 
HETATM    2  C   UNL     1      -7.018   9.126  69.786  1.00  0.00    -0.056 A  
HETATM    3  C   UNL     1      -8.233   9.799  69.892  1.00  0.00    -0.196 A  
HETATM    4  C   UNL     1      -8.670  10.616  68.845  1.00  0.00    -0.161 A  
HETATM    5 CL   UNL     1     -10.188  11.421  69.042  1.00  0.00    -0.180 Cl 
HETATM    6  C   UNL     1      -7.892  10.772  67.686  1.00  0.00    -0.109 A  
HETATM    7  C   UNL     1      -6.685  10.050  67.594  1.00  0.00    -0.075 A  
HETATM    8  C   UNL     1      -6.248   9.235  68.635  1.00  0.00    -0.045 A  
ENDROOT
BRANCH   6   9
HETATM    9  C   UNL     1      -8.271  11.739  66.570  1.00  0.00    -0.066 C  
BRANCH   9  10
HETATM   10  C   UNL     1      -9.614  11.353  65.903  1.00  0.00    -0.227 C  
BRANCH  10  11
HETATM   11  N   UNL     1      -9.554  11.072  64.480  1.00  0.00    -0.241 NA 
HETATM   12  C   UNL     1      -8.529  10.452  63.819  1.00  0.00    -0.162 A  
HETATM   13  C   UNL     1     -10.534  11.317  63.558  1.00  0.00    -0.395 A  
HETATM   14  N   UNL     1     -10.140  11.020  62.341  1.00  0.00     0.178 NA 
HETATM   15  C   UNL     1      -8.892  10.477  62.494  1.00  0.00    -0.261 A  
ENDBRANCH  10  11
ENDBRANCH   9  10
BRANCH   9  16
HETATM   16  O   UNL     1      -8.344  13.095  67.042  1.00  0.00    -0.166 OA 
BRANCH  16  17
HETATM   17  C   UNL     1      -9.198  13.924  66.250  1.00  0.00    -0.088 C  
BRANCH  17  18
HETATM   18  C   UNL     1      -9.730  15.036  67.115  1.00  0.00    -0.228 A  
HETATM   19  C   UNL     1     -11.013  14.993  67.689  1.00  0.00    -0.305 A  
HETATM   20 CL   UNL     1     -12.110  13.681  67.424  1.00  0.00    -0.404 Cl 
HETATM   21  C   UNL     1     -10.658  17.123  68.787  1.00  0.00    -0.336 A  
HETATM   22  C   UNL     1     -11.469  16.025  68.518  1.00  0.00    -0.357 A  
HETATM   23  C   UNL     1      -9.396  17.200  68.204  1.00  0.00    -0.264 A  
HETATM   24  C   UNL     1      -8.939  16.173  67.374  1.00  0.00    -0.191 A  
HETATM   25 CL   UNL     1      -7.358  16.363  66.692  1.00  0.00    -0.265 Cl 
ENDBRANCH  17  18
ENDBRANCH  16  17
ENDBRANCH   9  16
ENDBRANCH   6   9
TORSDOF 6
ENDMDL
MODEL      330
REMARK 921   NORMALIZED FREE ENERGY PREDICTED BY IDOCK:   -3.21 KCAL/MOL
REMARK 922        TOTAL FREE ENERGY PREDICTED BY IDOCK:   -5.35 KCAL/MOL
REMARK 923 INTER-LIGAND FREE ENERGY PREDICTED BY IDOCK:   -4.58 KCAL/MOL
REMARK 924 INTRA-LIGAND FREE ENERGY PREDICTED BY IDOCK:   -0.78 KCAL/MOL
REMARK 927      BINDING AFFINITY PREDICTED BY RF-SCORE:    0.00 PKD
ROOT
HETATM    1 CL   UNL     1      -5.135  15.772  70.733  1.00  0.00    -0.169 Cl 
HETATM    2  C   UNL     1      -6.287  15.249  69.569  1.00  0.00    -0.145 A  
HETATM    3  C   UNL     1      -6.482  15.991  68.406  1.00  0.00    -0.120 A  
HETATM    4  C   UNL     1      -7.382  15.542  67.435  1.00  0.00    -0.210 A  
HETATM    5 CL   UNL     1      -7.577  16.512  66.018  1.00  0.00     0.013 Cl 
HETATM    6  C   UNL     1      -8.089  14.342  67.617  1.00  0.00    -0.188 A  
HETATM    7  C   UNL     1      -7.898  13.632  68.820  1.00  0.00    -0.043 A  
HETATM    8  C   UNL     1      -7.002  14.079  69.788  1.00  0.00     0.088 A  
ENDROOT
BRANCH   6   9
HETATM    9  C   UNL     1      -8.993  13.754  66.540  1.00  0.00    -0.057 C  
BRANCH   9  10
HETATM   10  C   UNL     1      -9.729  12.483  67.032  1.00  0.00    -0.213 C  
BRANCH  10  11
HETATM   11  N   UNL     1      -9.179  11.219  66.577  1.00  0.00    -0.182 NA 
HETATM   12  C   UNL     1      -9.702  10.414  65.602  1.00  0.00    -0.236 A  
HETATM   13  C   UNL     1      -8.014  10.639  66.993  1.00  0.00    -0.121 A  
HETATM   14  N   UNL     1      -7.837   9.458  66.447  1.00  0.00    -0.100 NA 
HETATM   15  C   UNL     1      -8.884   9.309  65.576  1.00  0.00    -0.187 A  
ENDBRANCH  10  11
ENDBRANCH   9  10
BRANCH   9  16
HETATM   16  O   UNL     1      -9.957  14.713  66.071  1.00  0.00    -0.284 OA 
BRANCH  16  17
HETATM   17  C   UNL     1     -10.843  15.172  67.095  1.00  0.00    -0.320 C  
BRANCH  17  18
HETATM   18  C   UNL     1     -10.661  16.656  67.262  1.00  0.00    -0.281 A  
HETATM   19  C   UNL     1     -10.749  17.551  66.180  1.00  0.00    -0.098 A  
HETATM   20 CL   UNL     1     -11.038  17.026  64.557  1.00  0.00     0.180 Cl 
HETATM   21  C   UNL     1     -10.373  19.447  67.641  1.00  0.00    -0.550 A  
HETATM   22  C   UNL     1     -10.610  18.932  66.371  1.00  0.00    -0.460 A  
HETATM   23  C   UNL     1     -10.251  18.577  68.721  1.00  0.00    -0.326 A  
HETATM   24  C   UNL     1     -10.387  17.199  68.534  1.00  0.00    -0.364 A  
HETATM   25 CL   UNL     1     -10.214  16.198  69.937  1.00  0.00    -0.208 Cl 
ENDBRANCH  17  18
ENDBRANCH  16  17
ENDBRANCH   9  16
ENDBRANCH   6   9
TORSDOF 6
ENDMDL
MODEL      331
REMARK 921   NORMALIZED FREE ENERGY PREDICTED BY IDOCK:   -3.19 KCAL/MOL
REMARK 922        TOTAL FREE ENERGY PREDICTED BY IDOCK:   -5.33 KCAL/MOL
REMARK 923 INTER-LIGAND FREE ENERGY PREDICTED BY IDOCK:   -4.25 KCAL/MOL
REMARK 924 INTRA-LIGAND FREE ENERGY PREDICTED BY IDOCK:   -1.09 KCAL/MOL
REMARK 927      BINDING AFFINITY PREDICTED BY RF-SCORE:    0.00 PKD
ROOT
HETATM    1 CL   UNL     1      -5.351  12.068  69.020  1.00  0.00    -0.051 Cl 
HETATM    2  C   UNL     1      -6.118  10.548  69.263  1.00  0.00    -0.039 A  
HETATM    3  C   UNL     1      -6.602  10.211  70.525  1.00  0.00    -0.112 A  
HETATM    4  C   UNL     1      -7.270   8.997  70.713  1.00  0.00    -0.097 A  
HETATM    5 CL   UNL     1      -7.843   8.642  72.305  1.00  0.00    -0.116 Cl 
HETATM    6  C   UNL     1      -7.466   8.114  69.639  1.00  0.00    -0.086 A  
HETATM    7  C   UNL     1      -6.933   8.467  68.382  1.00  0.00    -0.069 A  
HETATM    8  C   UNL     1      -6.266   9.675  68.192  1.00  0.00    -0.055 A  
ENDROOT
BRANCH   6   9
HETATM    9  C   UNL     1      -8.285   6.836  69.770  1.00  0.00    -0.127 C  
BRANCH   9  10
HETATM   10  C   UNL     1      -7.427   5.648  70.271  1.00  0.00    -0.080 C  
BRANCH  10  11
HETATM   11  N   UNL     1      -8.021   4.838  71.319  1.00  0.00    -0.093 NA 
HETATM   12  C   UNL     1      -8.960   3.857  71.151  1.00  0.00    -0.104 A  
HETATM   13  C   UNL     1      -7.704   4.865  72.649  1.00  0.00    -0.093 A  
HETATM   14  N   UNL     1      -8.477   4.066  73.348  1.00  0.00    -0.089 NA 
HETATM   15  C   UNL     1      -9.262   3.431  72.422  1.00  0.00    -0.103 A  
ENDBRANCH  10  11
ENDBRANCH   9  10
BRANCH   9  16
HETATM   16  O   UNL     1      -9.413   7.013  70.644  1.00  0.00    -0.165 OA 
BRANCH  16  17
HETATM   17  C   UNL     1     -10.653   7.157  69.946  1.00  0.00    -0.230 C  
BRANCH  17  18
HETATM   18  C   UNL     1     -11.126   8.579  70.089  1.00  0.00    -0.192 A  
HETATM   19  C   UNL     1     -11.711   9.061  71.274  1.00  0.00    -0.313 A  
HETATM   20 CL   UNL     1     -11.974   8.057  72.659  1.00  0.00    -0.386 Cl 
HETATM   21  C   UNL     1     -11.940  11.280  70.329  1.00  0.00    -0.466 A  
HETATM   22  C   UNL     1     -12.110  10.398  71.391  1.00  0.00    -0.424 A  
HETATM   23  C   UNL     1     -11.391  10.816  69.137  1.00  0.00    -0.348 A  
HETATM   24  C   UNL     1     -10.995   9.481  69.015  1.00  0.00    -0.100 A  
HETATM   25 CL   UNL     1     -10.328   8.999  67.491  1.00  0.00    -0.308 Cl 
ENDBRANCH  17  18
ENDBRANCH  16  17
ENDBRANCH   9  16
ENDBRANCH   6   9
TORSDOF 6
ENDMDL
MODEL      332
REMARK 921   NORMALIZED FREE ENERGY PREDICTED BY IDOCK:   -3.18 KCAL/MOL
REMARK 922        TOTAL FREE ENERGY PREDICTED BY IDOCK:   -5.31 KCAL/MOL
REMARK 923 INTER-LIGAND FREE ENERGY PREDICTED BY IDOCK:   -5.34 KCAL/MOL
REMARK 924 INTRA-LIGAND FREE ENERGY PREDICTED BY IDOCK:    0.04 KCAL/MOL
REMARK 927      BINDING AFFINITY PREDICTED BY RF-SCORE:    0.00 PKD
ROOT
HETATM    1 CL   UNL     1     -10.536  20.216  65.538  1.00  0.00    -0.398 Cl 
HETATM    2  C   UNL     1     -10.625  18.688  66.323  1.00  0.00    -0.348 A  
HETATM    3  C   UNL     1     -10.319  17.528  65.615  1.00  0.00    -0.145 A  
HETATM    4  C   UNL     1     -10.343  16.290  66.264  1.00  0.00    -0.326 A  
HETATM    5 CL   UNL     1      -9.955  14.891  65.325  1.00  0.00    -0.373 Cl 
HETATM    6  C   UNL     1     -10.666  16.203  67.627  1.00  0.00    -0.318 A  
HETATM    7  C   UNL     1     -11.006  17.390  68.308  1.00  0.00    -0.148 A  
HETATM    8  C   UNL     1     -10.983  18.625  67.663  1.00  0.00    -0.213 A  
ENDROOT
BRANCH   6   9
HETATM    9  C   UNL     1     -10.594  14.893  68.403  1.00  0.00    -0.244 C  
BRANCH   9  10
HETATM   10  C   UNL     1     -11.289  13.734  67.647  1.00  0.00    -0.304 C  
BRANCH  10  11
HETATM   11  N   UNL     1     -11.420  12.489  68.382  1.00  0.00    -0.287 NA 
HETATM   12  C   UNL     1     -11.431  11.230  67.846  1.00  0.00    -0.288 A  
HETATM   13  C   UNL     1     -11.492  12.347  69.739  1.00  0.00    -0.149 A  
HETATM   14  N   UNL     1     -11.686  11.096  70.087  1.00  0.00    -0.331 NA 
HETATM   15  C   UNL     1     -11.647  10.391  68.913  1.00  0.00    -0.139 A  
ENDBRANCH  10  11
ENDBRANCH   9  10
BRANCH   9  16
HETATM   16  O   UNL     1      -9.236  14.523  68.700  1.00  0.00    -0.194 OA 
BRANCH  16  17
HETATM   17  C   UNL     1      -8.528  15.519  69.443  1.00  0.00    -0.256 C  
BRANCH  17  18
HETATM   18  C   UNL     1      -7.339  15.969  68.637  1.00  0.00    -0.159 A  
HETATM   19  C   UNL     1      -6.416  15.061  68.087  1.00  0.00    -0.131 A  
HETATM   20 CL   UNL     1      -6.540  13.351  68.319  1.00  0.00    -0.092 Cl 
HETATM   21  C   UNL     1      -5.156  16.865  67.073  1.00  0.00    -0.172 A  
HETATM   22  C   UNL     1      -5.339  15.506  67.311  1.00  0.00     0.240 A  
HETATM   23  C   UNL     1      -6.040  17.782  67.633  1.00  0.00    -0.164 A  
HETATM   24  C   UNL     1      -7.115  17.341  68.410  1.00  0.00    -0.209 A  
HETATM   25 CL   UNL     1      -8.157  18.560  69.067  1.00  0.00    -0.197 Cl 
ENDBRANCH  17  18
ENDBRANCH  16  17
ENDBRANCH   9  16
ENDBRANCH   6   9
TORSDOF 6
ENDMDL
MODEL      333
REMARK 921   NORMALIZED FREE ENERGY PREDICTED BY IDOCK:   -3.17 KCAL/MOL
REMARK 922        TOTAL FREE ENERGY PREDICTED BY IDOCK:   -5.30 KCAL/MOL
REMARK 923 INTER-LIGAND FREE ENERGY PREDICTED BY IDOCK:   -4.69 KCAL/MOL
REMARK 924 INTRA-LIGAND FREE ENERGY PREDICTED BY IDOCK:   -0.61 KCAL/MOL
REMARK 927      BINDING AFFINITY PREDICTED BY RF-SCORE:    0.00 PKD
ROOT
HETATM    1 CL   UNL     1      -6.005   8.024  71.518  1.00  0.00    -0.035 Cl 
HETATM    2  C   UNL     1      -6.742   9.016  70.321  1.00  0.00    -0.047 A  
HETATM    3  C   UNL     1      -8.130   9.108  70.258  1.00  0.00    -0.156 A  
HETATM    4  C   UNL     1      -8.730   9.952  69.319  1.00  0.00    -0.169 A  
HETATM    5 CL   UNL     1     -10.457  10.016  69.294  1.00  0.00    -0.223 Cl 
HETATM    6  C   UNL     1      -7.946  10.716  68.440  1.00  0.00    -0.120 A  
HETATM    7  C   UNL     1      -6.545  10.574  68.504  1.00  0.00    -0.055 A  
HETATM    8  C   UNL     1      -5.945   9.734  69.439  1.00  0.00    -0.033 A  
ENDROOT
BRANCH   6   9
HETATM    9  C   UNL     1      -8.550  11.733  67.479  1.00  0.00    -0.157 C  
BRANCH   9  10
HETATM   10  C   UNL     1      -9.155  11.055  66.225  1.00  0.00    -0.182 C  
BRANCH  10  11
HETATM   11  N   UNL     1     -10.174  11.816  65.525  1.00  0.00    -0.242 NA 
HETATM   12  C   UNL     1     -11.503  11.876  65.845  1.00  0.00    -0.278 A  
HETATM   13  C   UNL     1      -9.979  12.656  64.464  1.00  0.00    -0.160 A  
HETATM   14  N   UNL     1     -11.114  13.133  64.008  1.00  0.00    -0.387 NA 
HETATM   15  C   UNL     1     -12.070  12.655  64.864  1.00  0.00    -0.438 A  
ENDBRANCH  10  11
ENDBRANCH   9  10
BRANCH   9  16
HETATM   16  O   UNL     1      -9.554  12.540  68.118  1.00  0.00    -0.206 OA 
BRANCH  16  17
HETATM   17  C   UNL     1      -9.026  13.716  68.736  1.00  0.00     0.074 C  
BRANCH  17  18
HETATM   18  C   UNL     1      -9.360  14.905  67.876  1.00  0.00    -0.191 A  
HETATM   19  C   UNL     1      -8.374  15.633  67.184  1.00  0.00    -0.208 A  
HETATM   20 CL   UNL     1      -6.690  15.252  67.288  1.00  0.00    -0.149 Cl 
HETATM   21  C   UNL     1     -10.048  17.096  66.220  1.00  0.00    -0.329 A  
HETATM   22  C   UNL     1      -8.718  16.715  66.363  1.00  0.00    -0.345 A  
HETATM   23  C   UNL     1     -11.035  16.409  66.920  1.00  0.00    -0.018 A  
HETATM   24  C   UNL     1     -10.696  15.331  67.743  1.00  0.00    -0.286 A  
HETATM   25 CL   UNL     1     -11.995  14.543  68.575  1.00  0.00    -0.350 Cl 
ENDBRANCH  17  18
ENDBRANCH  16  17
ENDBRANCH   9  16
ENDBRANCH   6   9
TORSDOF 6
ENDMDL
MODEL      334
REMARK 921   NORMALIZED FREE ENERGY PREDICTED BY IDOCK:   -3.14 KCAL/MOL
REMARK 922        TOTAL FREE ENERGY PREDICTED BY IDOCK:   -5.26 KCAL/MOL
REMARK 923 INTER-LIGAND FREE ENERGY PREDICTED BY IDOCK:   -4.79 KCAL/MOL
REMARK 924 INTRA-LIGAND FREE ENERGY PREDICTED BY IDOCK:   -0.48 KCAL/MOL
REMARK 927      BINDING AFFINITY PREDICTED BY RF-SCORE:    0.00 PKD
ROOT
HETATM    1 CL   UNL     1     -13.980   8.010  71.642  1.00  0.00    -0.455 Cl 
HETATM    2  C   UNL     1     -12.317   7.884  71.223  1.00  0.00    -0.281 A  
HETATM    3  C   UNL     1     -11.860   6.760  70.537  1.00  0.00    -0.418 A  
HETATM    4  C   UNL     1     -10.518   6.678  70.151  1.00  0.00    -0.210 A  
HETATM    5 CL   UNL     1     -10.018   5.257  69.305  1.00  0.00    -0.265 Cl 
HETATM    6  C   UNL     1      -9.625   7.722  70.443  1.00  0.00    -0.175 A  
HETATM    7  C   UNL     1     -10.109   8.829  71.170  1.00  0.00    -0.317 A  
HETATM    8  C   UNL     1     -11.445   8.912  71.555  1.00  0.00    -0.391 A  
ENDROOT
BRANCH   6   9
HETATM    9  C   UNL     1      -8.185   7.729  69.945  1.00  0.00    -0.125 C  
BRANCH   9  10
HETATM   10  C   UNL     1      -7.307   6.698  70.698  1.00  0.00    -0.075 C  
BRANCH  10  11
HETATM   11  N   UNL     1      -7.232   6.864  72.138  1.00  0.00    -0.081 NA 
HETATM   12  C   UNL     1      -7.259   8.051  72.818  1.00  0.00    -0.095 A  
HETATM   13  C   UNL     1      -7.186   5.868  73.073  1.00  0.00    -0.093 A  
HETATM   14  N   UNL     1      -7.042   6.348  74.287  1.00  0.00    -0.089 NA 
HETATM   15  C   UNL     1      -7.090   7.709  74.139  1.00  0.00    -0.112 A  
ENDBRANCH  10  11
ENDBRANCH   9  10
BRANCH   9  16
HETATM   16  O   UNL     1      -8.108   7.479  68.531  1.00  0.00    -0.121 OA 
BRANCH  16  17
HETATM   17  C   UNL     1      -7.324   8.445  67.827  1.00  0.00    -0.093 C  
BRANCH  17  18
HETATM   18  C   UNL     1      -8.250   9.375  67.090  1.00  0.00    -0.113 A  
HETATM   19  C   UNL     1      -8.373  10.735  67.426  1.00  0.00    -0.119 A  
HETATM   20 CL   UNL     1      -7.502  11.454  68.737  1.00  0.00    -0.118 Cl 
HETATM   21  C   UNL     1      -9.959  11.096  65.630  1.00  0.00    -0.297 A  
HETATM   22  C   UNL     1      -9.216  11.585  66.700  1.00  0.00    -0.194 A  
HETATM   23  C   UNL     1      -9.875   9.746  65.300  1.00  0.00    -0.335 A  
HETATM   24  C   UNL     1      -9.036   8.895  66.024  1.00  0.00    -0.214 A  
HETATM   25 CL   UNL     1      -9.005   7.231  65.540  1.00  0.00     0.001 Cl 
ENDBRANCH  17  18
ENDBRANCH  16  17
ENDBRANCH   9  16
ENDBRANCH   6   9
TORSDOF 6
ENDMDL
MODEL      335
REMARK 921   NORMALIZED FREE ENERGY PREDICTED BY IDOCK:   -3.14 KCAL/MOL
REMARK 922        TOTAL FREE ENERGY PREDICTED BY IDOCK:   -5.26 KCAL/MOL
REMARK 923 INTER-LIGAND FREE ENERGY PREDICTED BY IDOCK:   -4.54 KCAL/MOL
REMARK 924 INTRA-LIGAND FREE ENERGY PREDICTED BY IDOCK:   -0.72 KCAL/MOL
REMARK 927      BINDING AFFINITY PREDICTED BY RF-SCORE:    0.00 PKD
ROOT
HETATM    1 CL   UNL     1     -13.910   9.714  72.339  1.00  0.00    -0.367 Cl 
HETATM    2  C   UNL     1     -12.512   9.350  71.407  1.00  0.00    -0.352 A  
HETATM    3  C   UNL     1     -12.042   8.039  71.346  1.00  0.00    -0.332 A  
HETATM    4  C   UNL     1     -10.935   7.732  70.549  1.00  0.00    -0.245 A  
HETATM    5 CL   UNL     1     -10.405   6.087  70.522  1.00  0.00    -0.263 Cl 
HETATM    6  C   UNL     1     -10.294   8.732  69.800  1.00  0.00    -0.214 A  
HETATM    7  C   UNL     1     -10.770  10.055  69.910  1.00  0.00    -0.328 A  
HETATM    8  C   UNL     1     -11.872  10.363  70.704  1.00  0.00    -0.445 A  
ENDROOT
BRANCH   6   9
HETATM    9  C   UNL     1      -9.158   8.426  68.831  1.00  0.00    -0.147 C  
BRANCH   9  10
HETATM   10  C   UNL     1      -7.867   7.994  69.570  1.00  0.00    -0.105 C  
BRANCH  10  11
HETATM   11  N   UNL     1      -7.023   9.073  70.050  1.00  0.00    -0.046 NA 
HETATM   12  C   UNL     1      -5.852   8.937  70.745  1.00  0.00    -0.036 A  
HETATM   13  C   UNL     1      -7.213  10.411  69.842  1.00  0.00    -0.153 A  
HETATM   14  N   UNL     1      -6.316  11.132  70.474  1.00  0.00    -0.318 NA 
HETATM   15  C   UNL     1      -5.461  10.222  71.038  1.00  0.00    -0.089 A  
ENDBRANCH  10  11
ENDBRANCH   9  10
BRANCH   9  16
HETATM   16  O   UNL     1      -9.527   7.412  67.881  1.00  0.00    -0.139 OA 
BRANCH  16  17
HETATM   17  C   UNL     1      -9.519   7.873  66.528  1.00  0.00    -0.214 C  
BRANCH  17  18
HETATM   18  C   UNL     1      -8.303   7.318  65.835  1.00  0.00    -0.144 A  
HETATM   19  C   UNL     1      -8.241   5.990  65.374  1.00  0.00    -0.141 A  
HETATM   20 CL   UNL     1      -9.537   4.866  65.595  1.00  0.00    -0.175 Cl 
HETATM   21  C   UNL     1      -6.016   6.342  64.480  1.00  0.00    -0.026 A  
HETATM   22  C   UNL     1      -7.110   5.511  64.702  1.00  0.00    -0.054 A  
HETATM   23  C   UNL     1      -6.045   7.650  64.955  1.00  0.00    -0.038 A  
HETATM   24  C   UNL     1      -7.171   8.131  65.629  1.00  0.00    -0.071 A  
HETATM   25 CL   UNL     1      -7.108   9.771  66.185  1.00  0.00    -0.096 Cl 
ENDBRANCH  17  18
ENDBRANCH  16  17
ENDBRANCH   9  16
ENDBRANCH   6   9
TORSDOF 6
ENDMDL
MODEL      336
REMARK 921   NORMALIZED FREE ENERGY PREDICTED BY IDOCK:   -3.13 KCAL/MOL
REMARK 922        TOTAL FREE ENERGY PREDICTED BY IDOCK:   -5.24 KCAL/MOL
REMARK 923 INTER-LIGAND FREE ENERGY PREDICTED BY IDOCK:   -4.42 KCAL/MOL
REMARK 924 INTRA-LIGAND FREE ENERGY PREDICTED BY IDOCK:   -0.83 KCAL/MOL
REMARK 927      BINDING AFFINITY PREDICTED BY RF-SCORE:    0.00 PKD
ROOT
HETATM    1 CL   UNL     1     -12.272   8.150  72.573  1.00  0.00    -0.374 Cl 
HETATM    2  C   UNL     1     -10.907   8.290  71.538  1.00  0.00    -0.249 A  
HETATM    3  C   UNL     1      -9.990   7.244  71.455  1.00  0.00    -0.193 A  
HETATM    4  C   UNL     1      -8.906   7.335  70.577  1.00  0.00    -0.153 A  
HETATM    5 CL   UNL     1      -7.807   6.002  70.526  1.00  0.00    -0.100 Cl 
HETATM    6  C   UNL     1      -8.734   8.471  69.768  1.00  0.00    -0.132 A  
HETATM    7  C   UNL     1      -9.658   9.528  69.900  1.00  0.00    -0.250 A  
HETATM    8  C   UNL     1     -10.738   9.439  70.776  1.00  0.00    -0.373 A  
ENDROOT
BRANCH   6   9
HETATM    9  C   UNL     1      -7.636   8.567  68.716  1.00  0.00    -0.097 C  
BRANCH   9  10
HETATM   10  C   UNL     1      -6.240   8.771  69.355  1.00  0.00    -0.041 C  
BRANCH  10  11
HETATM   11  N   UNL     1      -6.017  10.058  69.989  1.00  0.00    -0.047 NA 
HETATM   12  C   UNL     1      -6.288  11.285  69.447  1.00  0.00    -0.092 A  
HETATM   13  C   UNL     1      -5.560  10.273  71.258  1.00  0.00    -0.027 A  
HETATM   14  N   UNL     1      -5.393  11.552  71.504  1.00  0.00    -0.354 NA 
HETATM   15  C   UNL     1      -5.847  12.192  70.381  1.00  0.00    -0.154 A  
ENDBRANCH  10  11
ENDBRANCH   9  10
BRANCH   9  16
HETATM   16  O   UNL     1      -7.608   7.407  67.867  1.00  0.00    -0.108 OA 
BRANCH  16  17
HETATM   17  C   UNL     1      -7.704   7.722  66.475  1.00  0.00    -0.097 C  
BRANCH  17  18
HETATM   18  C   UNL     1      -8.560   8.949  66.315  1.00  0.00    -0.145 A  
HETATM   19  C   UNL     1      -8.016  10.212  66.020  1.00  0.00    -0.124 A  
HETATM   20 CL   UNL     1      -6.314  10.478  65.853  1.00  0.00    -0.119 Cl 
HETATM   21  C   UNL     1     -10.221  11.214  65.960  1.00  0.00    -0.300 A  
HETATM   22  C   UNL     1      -8.840  11.331  65.842  1.00  0.00    -0.174 A  
HETATM   23  C   UNL     1     -10.778   9.980  66.281  1.00  0.00    -0.018 A  
HETATM   24  C   UNL     1      -9.959   8.862  66.463  1.00  0.00    -0.288 A  
HETATM   25 CL   UNL     1     -10.746   7.372  66.865  1.00  0.00    -0.405 Cl 
ENDBRANCH  17  18
ENDBRANCH  16  17
ENDBRANCH   9  16
ENDBRANCH   6   9
TORSDOF 6
ENDMDL
MODEL      337
REMARK 921   NORMALIZED FREE ENERGY PREDICTED BY IDOCK:   -3.11 KCAL/MOL
REMARK 922        TOTAL FREE ENERGY PREDICTED BY IDOCK:   -5.22 KCAL/MOL
REMARK 923 INTER-LIGAND FREE ENERGY PREDICTED BY IDOCK:   -4.67 KCAL/MOL
REMARK 924 INTRA-LIGAND FREE ENERGY PREDICTED BY IDOCK:   -0.55 KCAL/MOL
REMARK 927      BINDING AFFINITY PREDICTED BY RF-SCORE:    0.00 PKD
ROOT
HETATM    1 CL   UNL     1     -13.308  10.645  71.927  1.00  0.00    -0.507 Cl 
HETATM    2  C   UNL     1     -12.020  10.255  70.858  1.00  0.00    -0.375 A  
HETATM    3  C   UNL     1     -10.895   9.589  71.342  1.00  0.00    -0.382 A  
HETATM    4  C   UNL     1      -9.869   9.227  70.464  1.00  0.00    -0.253 A  
HETATM    5 CL   UNL     1      -8.503   8.406  71.132  1.00  0.00    -0.157 Cl 
HETATM    6  C   UNL     1      -9.962   9.520  69.094  1.00  0.00    -0.185 A  
HETATM    7  C   UNL     1     -11.096  10.226  68.640  1.00  0.00    -0.290 A  
HETATM    8  C   UNL     1     -12.119  10.589  69.513  1.00  0.00    -0.208 A  
ENDROOT
BRANCH   6   9
HETATM    9  C   UNL     1      -8.925   9.046  68.084  1.00  0.00    -0.133 C  
BRANCH   9  10
HETATM   10  C   UNL     1      -8.340  10.221  67.261  1.00  0.00    -0.121 C  
BRANCH  10  11
HETATM   11  N   UNL     1      -8.523  10.138  65.823  1.00  0.00    -0.141 NA 
HETATM   12  C   UNL     1      -9.710  10.239  65.151  1.00  0.00    -0.300 A  
HETATM   13  C   UNL     1      -7.540  10.010  64.883  1.00  0.00    -0.139 A  
HETATM   14  N   UNL     1      -8.038   9.884  63.674  1.00  0.00    -0.144 NA 
HETATM   15  C   UNL     1      -9.392  10.028  63.831  1.00  0.00    -0.263 A  
ENDBRANCH  10  11
ENDBRANCH   9  10
BRANCH   9  16
HETATM   16  O   UNL     1      -7.854   8.326  68.717  1.00  0.00    -0.111 OA 
BRANCH  16  17
HETATM   17  C   UNL     1      -7.201   7.400  67.845  1.00  0.00    -0.091 C  
BRANCH  17  18
HETATM   18  C   UNL     1      -7.903   6.072  67.937  1.00  0.00    -0.105 A  
HETATM   19  C   UNL     1      -7.730   5.204  69.030  1.00  0.00    -0.081 A  
HETATM   20 CL   UNL     1      -6.669   5.565  70.348  1.00  0.00    -0.046 Cl 
HETATM   21  C   UNL     1      -9.297   3.613  68.090  1.00  0.00    -0.236 A  
HETATM   22  C   UNL     1      -8.424   3.989  69.105  1.00  0.00    -0.100 A  
HETATM   23  C   UNL     1      -9.459   4.443  66.985  1.00  0.00    -0.194 A  
HETATM   24  C   UNL     1      -8.767   5.654  66.905  1.00  0.00    -0.113 A  
HETATM   25 CL   UNL     1      -9.032   6.614  65.488  1.00  0.00     0.000 Cl 
ENDBRANCH  17  18
ENDBRANCH  16  17
ENDBRANCH   9  16
ENDBRANCH   6   9
TORSDOF 6
ENDMDL
MODEL      338
REMARK 921   NORMALIZED FREE ENERGY PREDICTED BY IDOCK:   -3.11 KCAL/MOL
REMARK 922        TOTAL FREE ENERGY PREDICTED BY IDOCK:   -5.22 KCAL/MOL
REMARK 923 INTER-LIGAND FREE ENERGY PREDICTED BY IDOCK:   -4.09 KCAL/MOL
REMARK 924 INTRA-LIGAND FREE ENERGY PREDICTED BY IDOCK:   -1.13 KCAL/MOL
REMARK 927      BINDING AFFINITY PREDICTED BY RF-SCORE:    0.00 PKD
ROOT
HETATM    1 CL   UNL     1      -8.117  11.073  62.830  1.00  0.00    -0.059 Cl 
HETATM    2  C   UNL     1      -8.294  10.380  64.394  1.00  0.00    -0.142 A  
HETATM    3  C   UNL     1      -8.768  11.160  65.447  1.00  0.00    -0.061 A  
HETATM    4  C   UNL     1      -8.960  10.586  66.707  1.00  0.00    -0.137 A  
HETATM    5 CL   UNL     1      -9.548  11.612  67.968  1.00  0.00    -0.178 Cl 
HETATM    6  C   UNL     1      -8.687   9.226  66.922  1.00  0.00    -0.136 A  
HETATM    7  C   UNL     1      -8.176   8.471  65.847  1.00  0.00    -0.125 A  
HETATM    8  C   UNL     1      -7.983   9.041  64.591  1.00  0.00    -0.128 A  
ENDROOT
BRANCH   6   9
HETATM    9  C   UNL     1      -8.989   8.530  68.245  1.00  0.00    -0.139 C  
BRANCH   9  10
HETATM   10  C   UNL     1      -9.274   7.020  68.052  1.00  0.00    -0.129 C  
BRANCH  10  11
HETATM   11  N   UNL     1      -8.387   6.114  68.758  1.00  0.00    -0.111 NA 
HETATM   12  C   UNL     1      -8.673   5.437  69.913  1.00  0.00    -0.121 A  
HETATM   13  C   UNL     1      -7.137   5.726  68.365  1.00  0.00    -0.077 A  
HETATM   14  N   UNL     1      -6.562   4.960  69.264  1.00  0.00    -0.039 NA 
HETATM   15  C   UNL     1      -7.513   4.772  70.231  1.00  0.00    -0.051 A  
ENDBRANCH  10  11
ENDBRANCH   9  10
BRANCH   9  16
HETATM   16  O   UNL     1      -7.919   8.697  69.191  1.00  0.00    -0.106 OA 
BRANCH  16  17
HETATM   17  C   UNL     1      -8.225   9.627  70.233  1.00  0.00    -0.191 C  
BRANCH  17  18
HETATM   18  C   UNL     1      -8.889   8.886  71.362  1.00  0.00    -0.283 A  
HETATM   19  C   UNL     1     -10.281   8.911  71.562  1.00  0.00    -0.328 A  
HETATM   20 CL   UNL     1     -11.351   9.824  70.554  1.00  0.00    -0.352 Cl 
HETATM   21  C   UNL     1     -10.095   7.422  73.464  1.00  0.00    -0.390 A  
HETATM   22  C   UNL     1     -10.875   8.183  72.601  1.00  0.00    -0.429 A  
HETATM   23  C   UNL     1      -8.712   7.408  73.303  1.00  0.00    -0.193 A  
HETATM   24  C   UNL     1      -8.115   8.135  72.270  1.00  0.00    -0.139 A  
HETATM   25 CL   UNL     1      -6.388   8.058  72.154  1.00  0.00    -0.047 Cl 
ENDBRANCH  17  18
ENDBRANCH  16  17
ENDBRANCH   9  16
ENDBRANCH   6   9
TORSDOF 6
ENDMDL
MODEL      339
REMARK 921   NORMALIZED FREE ENERGY PREDICTED BY IDOCK:   -3.10 KCAL/MOL
REMARK 922        TOTAL FREE ENERGY PREDICTED BY IDOCK:   -5.20 KCAL/MOL
REMARK 923 INTER-LIGAND FREE ENERGY PREDICTED BY IDOCK:   -4.13 KCAL/MOL
REMARK 924 INTRA-LIGAND FREE ENERGY PREDICTED BY IDOCK:   -1.07 KCAL/MOL
REMARK 927      BINDING AFFINITY PREDICTED BY RF-SCORE:    0.00 PKD
ROOT
HETATM    1 CL   UNL     1     -13.043  13.851  71.030  1.00  0.00    -0.352 Cl 
HETATM    2  C   UNL     1     -11.931  13.060  69.984  1.00  0.00    -0.312 A  
HETATM    3  C   UNL     1     -11.302  13.780  68.971  1.00  0.00    -0.333 A  
HETATM    4  C   UNL     1     -10.360  13.151  68.151  1.00  0.00    -0.244 A  
HETATM    5 CL   UNL     1      -9.619  14.103  66.913  1.00  0.00    -0.262 Cl 
HETATM    6  C   UNL     1     -10.034  11.799  68.344  1.00  0.00    -0.202 A  
HETATM    7  C   UNL     1     -10.713  11.088  69.354  1.00  0.00    -0.247 A  
HETATM    8  C   UNL     1     -11.653  11.712  70.171  1.00  0.00    -0.303 A  
ENDROOT
BRANCH   6   9
HETATM    9  C   UNL     1      -8.933  11.102  67.553  1.00  0.00    -0.139 C  
BRANCH   9  10
HETATM   10  C   UNL     1      -7.591  11.079  68.326  1.00  0.00    -0.106 C  
BRANCH  10  11
HETATM   11  N   UNL     1      -6.842  12.322  68.328  1.00  0.00    -0.068 NA 
HETATM   12  C   UNL     1      -6.508  13.064  69.428  1.00  0.00    -0.094 A  
HETATM   13  C   UNL     1      -6.282  12.937  67.244  1.00  0.00     0.005 A  
HETATM   14  N   UNL     1      -5.737  14.088  67.567  1.00  0.00    -0.353 NA 
HETATM   15  C   UNL     1      -5.871  14.175  68.928  1.00  0.00    -0.086 A  
ENDBRANCH  10  11
ENDBRANCH   9  10
BRANCH   9  16
HETATM   16  O   UNL     1      -9.303   9.759  67.195  1.00  0.00    -0.139 OA 
BRANCH  16  17
HETATM   17  C   UNL     1      -8.272   8.802  67.450  1.00  0.00    -0.109 C  
BRANCH  17  18
HETATM   18  C   UNL     1      -8.527   7.580  66.608  1.00  0.00    -0.130 A  
HETATM   19  C   UNL     1      -9.209   6.454  67.104  1.00  0.00    -0.123 A  
HETATM   20 CL   UNL     1      -9.780   6.355  68.735  1.00  0.00    -0.129 Cl 
HETATM   21  C   UNL     1      -9.039   5.334  64.963  1.00  0.00    -0.029 A  
HETATM   22  C   UNL     1      -9.464   5.346  66.287  1.00  0.00    -0.169 A  
HETATM   23  C   UNL     1      -8.336   6.426  64.460  1.00  0.00     0.017 A  
HETATM   24  C   UNL     1      -8.078   7.532  65.273  1.00  0.00    -0.130 A  
HETATM   25 CL   UNL     1      -7.192   8.838  64.559  1.00  0.00    -0.094 Cl 
ENDBRANCH  17  18
ENDBRANCH  16  17
ENDBRANCH   9  16
ENDBRANCH   6   9
TORSDOF 6
ENDMDL
MODEL      340
REMARK 921   NORMALIZED FREE ENERGY PREDICTED BY IDOCK:   -3.09 KCAL/MOL
REMARK 922        TOTAL FREE ENERGY PREDICTED BY IDOCK:   -5.19 KCAL/MOL
REMARK 923 INTER-LIGAND FREE ENERGY PREDICTED BY IDOCK:   -5.10 KCAL/MOL
REMARK 924 INTRA-LIGAND FREE ENERGY PREDICTED BY IDOCK:   -0.09 KCAL/MOL
REMARK 927      BINDING AFFINITY PREDICTED BY RF-SCORE:    0.00 PKD
ROOT
HETATM    1 CL   UNL     1      -5.867  14.138  69.365  1.00  0.00    -0.086 Cl 
HETATM    2  C   UNL     1      -7.011  12.965  68.841  1.00  0.00    -0.084 A  
HETATM    3  C   UNL     1      -6.740  11.609  69.011  1.00  0.00    -0.100 A  
HETATM    4  C   UNL     1      -7.689  10.656  68.631  1.00  0.00    -0.110 A  
HETATM    5 CL   UNL     1      -7.287   8.992  68.868  1.00  0.00    -0.073 Cl 
HETATM    6  C   UNL     1      -8.921  11.052  68.086  1.00  0.00    -0.152 A  
HETATM    7  C   UNL     1      -9.152  12.430  67.893  1.00  0.00    -0.191 A  
HETATM    8  C   UNL     1      -8.207  13.381  68.270  1.00  0.00    -0.160 A  
ENDROOT
BRANCH   6   9
HETATM    9  C   UNL     1     -10.031  10.058  67.763  1.00  0.00    -0.170 C  
BRANCH   9  10
HETATM   10  C   UNL     1      -9.605   9.053  66.664  1.00  0.00    -0.213 C  
BRANCH  10  11
HETATM   11  N   UNL     1      -9.585   9.572  65.308  1.00  0.00    -0.281 NA 
HETATM   12  C   UNL     1      -8.775   9.146  64.291  1.00  0.00    -0.150 A  
HETATM   13  C   UNL     1     -10.411  10.529  64.789  1.00  0.00    -0.230 A  
HETATM   14  N   UNL     1     -10.085  10.834  63.554  1.00  0.00    -0.334 NA 
HETATM   15  C   UNL     1      -9.068   9.974  63.233  1.00  0.00    -0.275 A  
ENDBRANCH  10  11
ENDBRANCH   9  10
BRANCH   9  16
HETATM   16  O   UNL     1     -10.455   9.336  68.932  1.00  0.00    -0.210 OA 
BRANCH  16  17
HETATM   17  C   UNL     1     -10.691   7.947  68.685  1.00  0.00    -0.035 C  
BRANCH  17  18
HETATM   18  C   UNL     1     -10.966   7.263  69.997  1.00  0.00    -0.273 A  
HETATM   19  C   UNL     1     -11.609   7.914  71.065  1.00  0.00    -0.282 A  
HETATM   20 CL   UNL     1     -12.109   9.569  70.982  1.00  0.00    -0.382 Cl 
HETATM   21  C   UNL     1     -11.515   5.910  72.423  1.00  0.00    -0.358 A  
HETATM   22  C   UNL     1     -11.883   7.242  72.263  1.00  0.00    -0.287 A  
HETATM   23  C   UNL     1     -10.850   5.255  71.390  1.00  0.00    -0.152 A  
HETATM   24  C   UNL     1     -10.573   5.924  70.195  1.00  0.00    -0.292 A  
HETATM   25 CL   UNL     1      -9.737   5.026  68.971  1.00  0.00    -0.220 Cl 
ENDBRANCH  17  18
ENDBRANCH  16  17
ENDBRANCH   9  16
ENDBRANCH   6   9
TORSDOF 6
ENDMDL
MODEL      341
REMARK 921   NORMALIZED FREE ENERGY PREDICTED BY IDOCK:   -3.07 KCAL/MOL
REMARK 922        TOTAL FREE ENERGY PREDICTED BY IDOCK:   -5.16 KCAL/MOL
REMARK 923 INTER-LIGAND FREE ENERGY PREDICTED BY IDOCK:   -3.90 KCAL/MOL
REMARK 924 INTRA-LIGAND FREE ENERGY PREDICTED BY IDOCK:   -1.26 KCAL/MOL
REMARK 927      BINDING AFFINITY PREDICTED BY RF-SCORE:    0.00 PKD
ROOT
HETATM    1 CL   UNL     1      -5.420   9.427  72.829  1.00  0.00    -0.055 Cl 
HETATM    2  C   UNL     1      -6.505   8.188  72.334  1.00  0.00    -0.078 A  
HETATM    3  C   UNL     1      -6.735   7.096  73.167  1.00  0.00    -0.065 A  
HETATM    4  C   UNL     1      -7.654   6.113  72.789  1.00  0.00    -0.101 A  
HETATM    5 CL   UNL     1      -7.890   4.784  73.869  1.00  0.00    -0.100 Cl 
HETATM    6  C   UNL     1      -8.356   6.218  71.577  1.00  0.00    -0.126 A  
HETATM    7  C   UNL     1      -8.075   7.316  70.739  1.00  0.00    -0.111 A  
HETATM    8  C   UNL     1      -7.159   8.296  71.113  1.00  0.00    -0.059 A  
ENDROOT
BRANCH   6   9
HETATM    9  C   UNL     1      -9.449   5.234  71.176  1.00  0.00    -0.158 C  
BRANCH   9  10
HETATM   10  C   UNL     1     -10.700   5.358  72.081  1.00  0.00    -0.227 C  
BRANCH  10  11
HETATM   11  N   UNL     1     -11.391   6.633  72.031  1.00  0.00    -0.267 NA 
HETATM   12  C   UNL     1     -12.445   6.951  71.217  1.00  0.00    -0.361 A  
HETATM   13  C   UNL     1     -11.158   7.719  72.827  1.00  0.00    -0.398 A  
HETATM   14  N   UNL     1     -11.899   8.745  72.477  1.00  0.00    -0.289 NA 
HETATM   15  C   UNL     1     -12.707   8.276  71.476  1.00  0.00    -0.305 A  
ENDBRANCH  10  11
ENDBRANCH   9  10
BRANCH   9  16
HETATM   16  O   UNL     1      -9.835   5.397  69.801  1.00  0.00    -0.166 OA 
BRANCH  16  17
HETATM   17  C   UNL     1      -9.426   4.312  68.965  1.00  0.00    -0.172 C  
BRANCH  17  18
HETATM   18  C   UNL     1      -8.560   4.854  67.859  1.00  0.00    -0.103 A  
HETATM   19  C   UNL     1      -7.158   4.898  67.955  1.00  0.00    -0.062 A  
HETATM   20 CL   UNL     1      -6.303   4.370  69.364  1.00  0.00    -0.028 Cl 
HETATM   21  C   UNL     1      -6.974   5.824  65.724  1.00  0.00    -0.068 A  
HETATM   22  C   UNL     1      -6.375   5.375  66.896  1.00  0.00    -0.039 A  
HETATM   23  C   UNL     1      -8.362   5.818  65.620  1.00  0.00    -0.138 A  
HETATM   24  C   UNL     1      -9.146   5.345  66.675  1.00  0.00    -0.124 A  
HETATM   25 CL   UNL     1     -10.864   5.383  66.452  1.00  0.00    -0.299 Cl 
ENDBRANCH  17  18
ENDBRANCH  16  17
ENDBRANCH   9  16
ENDBRANCH   6   9
TORSDOF 6
ENDMDL
MODEL      342
REMARK 921   NORMALIZED FREE ENERGY PREDICTED BY IDOCK:   -3.06 KCAL/MOL
REMARK 922        TOTAL FREE ENERGY PREDICTED BY IDOCK:   -5.15 KCAL/MOL
REMARK 923 INTER-LIGAND FREE ENERGY PREDICTED BY IDOCK:   -4.89 KCAL/MOL
REMARK 924 INTRA-LIGAND FREE ENERGY PREDICTED BY IDOCK:   -0.27 KCAL/MOL
REMARK 927      BINDING AFFINITY PREDICTED BY RF-SCORE:    0.00 PKD
ROOT
HETATM    1 CL   UNL     1     -10.034   5.508  70.498  1.00  0.00    -0.259 Cl 
HETATM    2  C   UNL     1      -9.485   6.901  69.653  1.00  0.00    -0.147 A  
HETATM    3  C   UNL     1     -10.223   7.397  68.581  1.00  0.00    -0.203 A  
HETATM    4  C   UNL     1      -9.805   8.558  67.924  1.00  0.00    -0.170 A  
HETATM    5 CL   UNL     1     -10.767   9.116  66.601  1.00  0.00    -0.149 Cl 
HETATM    6  C   UNL     1      -8.649   9.238  68.341  1.00  0.00    -0.124 A  
HETATM    7  C   UNL     1      -7.903   8.693  69.406  1.00  0.00    -0.096 A  
HETATM    8  C   UNL     1      -8.318   7.535  70.061  1.00  0.00    -0.136 A  
ENDROOT
BRANCH   6   9
HETATM    9  C   UNL     1      -8.218  10.567  67.732  1.00  0.00    -0.107 C  
BRANCH   9  10
HETATM   10  C   UNL     1      -8.361  10.570  66.190  1.00  0.00    -0.155 C  
BRANCH  10  11
HETATM   11  N   UNL     1      -7.240  10.019  65.450  1.00  0.00    -0.132 NA 
HETATM   12  C   UNL     1      -7.001  10.169  64.112  1.00  0.00    -0.098 A  
HETATM   13  C   UNL     1      -6.193   9.308  65.967  1.00  0.00    -0.067 A  
HETATM   14  N   UNL     1      -5.383   8.883  65.025  1.00  0.00    -0.038 NA 
HETATM   15  C   UNL     1      -5.877   9.417  63.864  1.00  0.00    -0.081 A  
ENDBRANCH  10  11
ENDBRANCH   9  10
BRANCH   9  16
HETATM   16  O   UNL     1      -8.957  11.670  68.283  1.00  0.00    -0.174 OA 
BRANCH  16  17
HETATM   17  C   UNL     1      -9.838  12.288  67.341  1.00  0.00    -0.198 C  
BRANCH  17  18
HETATM   18  C   UNL     1     -10.563  13.417  68.024  1.00  0.00    -0.252 A  
HETATM   19  C   UNL     1     -11.534  13.195  69.017  1.00  0.00    -0.296 A  
HETATM   20 CL   UNL     1     -12.011  11.608  69.516  1.00  0.00    -0.378 Cl 
HETATM   21  C   UNL     1     -11.850  15.577  69.325  1.00  0.00    -0.372 A  
HETATM   22  C   UNL     1     -12.167  14.265  69.662  1.00  0.00    -0.371 A  
HETATM   23  C   UNL     1     -10.913  15.819  68.323  1.00  0.00    -0.325 A  
HETATM   24  C   UNL     1     -10.282  14.753  67.677  1.00  0.00    -0.232 A  
HETATM   25 CL   UNL     1      -9.136  15.156  66.441  1.00  0.00    -0.327 Cl 
ENDBRANCH  17  18
ENDBRANCH  16  17
ENDBRANCH   9  16
ENDBRANCH   6   9
TORSDOF 6
ENDMDL
MODEL      343
REMARK 921   NORMALIZED FREE ENERGY PREDICTED BY IDOCK:   -3.02 KCAL/MOL
REMARK 922        TOTAL FREE ENERGY PREDICTED BY IDOCK:   -5.09 KCAL/MOL
REMARK 923 INTER-LIGAND FREE ENERGY PREDICTED BY IDOCK:   -5.48 KCAL/MOL
REMARK 924 INTRA-LIGAND FREE ENERGY PREDICTED BY IDOCK:    0.38 KCAL/MOL
REMARK 927      BINDING AFFINITY PREDICTED BY RF-SCORE:    0.00 PKD
ROOT
HETATM    1 CL   UNL     1     -13.396  11.860  72.162  1.00  0.00    -0.525 Cl 
HETATM    2  C   UNL     1     -12.410  11.458  70.812  1.00  0.00    -0.386 A  
HETATM    3  C   UNL     1     -12.531  12.181  69.627  1.00  0.00     0.095 A  
HETATM    4  C   UNL     1     -11.696  11.889  68.544  1.00  0.00    -0.330 A  
HETATM    5 CL   UNL     1     -11.902  12.822  67.104  1.00  0.00    -0.434 Cl 
HETATM    6  C   UNL     1     -10.727  10.877  68.641  1.00  0.00    -0.238 A  
HETATM    7  C   UNL     1     -10.653  10.139  69.840  1.00  0.00    -0.331 A  
HETATM    8  C   UNL     1     -11.484  10.428  70.920  1.00  0.00    -0.385 A  
ENDROOT
BRANCH   6   9
HETATM    9  C   UNL     1      -9.720  10.599  67.531  1.00  0.00    -0.166 C  
BRANCH   9  10
HETATM   10  C   UNL     1      -9.956   9.219  66.869  1.00  0.00    -0.233 C  
BRANCH  10  11
HETATM   11  N   UNL     1      -8.776   8.570  66.324  1.00  0.00    -0.134 NA 
HETATM   12  C   UNL     1      -8.197   7.421  66.790  1.00  0.00    -0.121 A  
HETATM   13  C   UNL     1      -8.074   8.953  65.217  1.00  0.00    -0.126 A  
HETATM   14  N   UNL     1      -7.011   8.204  65.033  1.00  0.00    -0.069 NA 
HETATM   15  C   UNL     1      -7.081   7.244  66.008  1.00  0.00    -0.066 A  
ENDBRANCH  10  11
ENDBRANCH   9  10
BRANCH   9  16
HETATM   16  O   UNL     1      -9.744  11.623  66.522  1.00  0.00    -0.197 OA 
BRANCH  16  17
HETATM   17  C   UNL     1      -8.578  12.451  66.529  1.00  0.00    -0.001 C  
BRANCH  17  18
HETATM   18  C   UNL     1      -9.009  13.893  66.566  1.00  0.00    -0.097 A  
HETATM   19  C   UNL     1      -8.660  14.755  67.622  1.00  0.00    -0.174 A  
HETATM   20 CL   UNL     1      -7.739  14.229  68.989  1.00  0.00    -0.104 Cl 
HETATM   21  C   UNL     1      -9.792  16.614  66.556  1.00  0.00    -0.295 A  
HETATM   22  C   UNL     1      -9.046  16.101  67.613  1.00  0.00    -0.197 A  
HETATM   23  C   UNL     1     -10.173  15.770  65.516  1.00  0.00    -0.407 A  
HETATM   24  C   UNL     1      -9.793  14.426  65.523  1.00  0.00    -0.266 A  
HETATM   25 CL   UNL     1     -10.321  13.457  64.188  1.00  0.00    -0.292 Cl 
ENDBRANCH  17  18
ENDBRANCH  16  17
ENDBRANCH   9  16
ENDBRANCH   6   9
TORSDOF 6
ENDMDL
MODEL      344
REMARK 921   NORMALIZED FREE ENERGY PREDICTED BY IDOCK:   -3.00 KCAL/MOL
REMARK 922        TOTAL FREE ENERGY PREDICTED BY IDOCK:   -5.07 KCAL/MOL
REMARK 923 INTER-LIGAND FREE ENERGY PREDICTED BY IDOCK:   -5.80 KCAL/MOL
REMARK 924 INTRA-LIGAND FREE ENERGY PREDICTED BY IDOCK:    0.74 KCAL/MOL
REMARK 927      BINDING AFFINITY PREDICTED BY RF-SCORE:    0.00 PKD
ROOT
HETATM    1 CL   UNL     1     -10.549  20.200  65.572  1.00  0.00    -0.395 Cl 
HETATM    2  C   UNL     1     -10.552  18.703  66.419  1.00  0.00    -0.349 A  
HETATM    3  C   UNL     1     -10.388  17.510  65.718  1.00  0.00    -0.217 A  
HETATM    4  C   UNL     1     -10.339  16.297  66.410  1.00  0.00    -0.314 A  
HETATM    5 CL   UNL     1     -10.135  14.855  65.477  1.00  0.00    -0.380 Cl 
HETATM    6  C   UNL     1     -10.448  16.266  67.809  1.00  0.00    -0.295 A  
HETATM    7  C   UNL     1     -10.649  17.486  68.488  1.00  0.00    -0.312 A  
HETATM    8  C   UNL     1     -10.698  18.696  67.800  1.00  0.00    -0.394 A  
ENDROOT
BRANCH   6   9
HETATM    9  C   UNL     1     -10.287  14.982  68.615  1.00  0.00    -0.236 C  
BRANCH   9  10
HETATM   10  C   UNL     1     -11.183  13.842  68.071  1.00  0.00    -0.271 C  
BRANCH  10  11
HETATM   11  N   UNL     1     -11.660  12.888  69.056  1.00  0.00    -0.303 NA 
HETATM   12  C   UNL     1     -11.943  13.153  70.368  1.00  0.00    -0.266 A  
HETATM   13  C   UNL     1     -11.970  11.576  68.836  1.00  0.00    -0.299 A  
HETATM   14  N   UNL     1     -12.297  10.961  69.949  1.00  0.00    -0.321 NA 
HETATM   15  C   UNL     1     -12.286  11.938  70.910  1.00  0.00    -0.300 A  
ENDBRANCH  10  11
ENDBRANCH   9  10
BRANCH   9  16
HETATM   16  O   UNL     1      -8.919  14.541  68.647  1.00  0.00    -0.184 OA 
BRANCH  16  17
HETATM   17  C   UNL     1      -8.599  13.615  67.606  1.00  0.00    -0.185 C  
BRANCH  17  18
HETATM   18  C   UNL     1      -7.700  12.547  68.169  1.00  0.00    -0.141 A  
HETATM   19  C   UNL     1      -8.037  11.181  68.128  1.00  0.00    -0.128 A  
HETATM   20 CL   UNL     1      -9.528  10.609  67.462  1.00  0.00    -0.165 Cl 
HETATM   21  C   UNL     1      -5.944  10.572  69.185  1.00  0.00    -0.040 A  
HETATM   22  C   UNL     1      -7.165  10.206  68.628  1.00  0.00    -0.080 A  
HETATM   23  C   UNL     1      -5.604  11.920  69.264  1.00  0.00    -0.059 A  
HETATM   24  C   UNL     1      -6.473  12.896  68.768  1.00  0.00    -0.085 A  
HETATM   25 CL   UNL     1      -5.963  14.545  68.916  1.00  0.00    -0.084 Cl 
ENDBRANCH  17  18
ENDBRANCH  16  17
ENDBRANCH   9  16
ENDBRANCH   6   9
TORSDOF 6
ENDMDL
MODEL      345
REMARK 921   NORMALIZED FREE ENERGY PREDICTED BY IDOCK:   -2.98 KCAL/MOL
REMARK 922        TOTAL FREE ENERGY PREDICTED BY IDOCK:   -5.05 KCAL/MOL
REMARK 923 INTER-LIGAND FREE ENERGY PREDICTED BY IDOCK:   -4.44 KCAL/MOL
REMARK 924 INTRA-LIGAND FREE ENERGY PREDICTED BY IDOCK:   -0.61 KCAL/MOL
REMARK 927      BINDING AFFINITY PREDICTED BY RF-SCORE:    0.00 PKD
ROOT
HETATM    1 CL   UNL     1      -5.723  14.780  70.660  1.00  0.00    -0.151 Cl 
HETATM    2  C   UNL     1      -6.858  14.793  69.368  1.00  0.00    -0.162 A  
HETATM    3  C   UNL     1      -6.778  15.778  68.386  1.00  0.00    -0.116 A  
HETATM    4  C   UNL     1      -7.668  15.761  67.308  1.00  0.00    -0.199 A  
HETATM    5 CL   UNL     1      -7.513  17.014  66.127  1.00  0.00    -0.316 Cl 
HETATM    6  C   UNL     1      -8.642  14.755  67.200  1.00  0.00    -0.248 A  
HETATM    7  C   UNL     1      -8.722  13.793  68.228  1.00  0.00    -0.179 A  
HETATM    8  C   UNL     1      -7.836  13.809  69.303  1.00  0.00     0.309 A  
ENDROOT
BRANCH   6   9
HETATM    9  C   UNL     1      -9.558  14.629  65.989  1.00  0.00    -0.290 C  
BRANCH   9  10
HETATM   10  C   UNL     1     -10.313  13.277  65.973  1.00  0.00    -0.289 C  
BRANCH  10  11
HETATM   11  N   UNL     1      -9.962  12.370  64.895  1.00  0.00    -0.228 NA 
HETATM   12  C   UNL     1      -9.288  11.186  65.021  1.00  0.00    -0.207 A  
HETATM   13  C   UNL     1     -10.294  12.503  63.576  1.00  0.00    -0.274 A  
HETATM   14  N   UNL     1      -9.758  11.555  62.843  1.00  0.00    -0.350 NA 
HETATM   15  C   UNL     1      -9.130  10.727  63.735  1.00  0.00    -0.200 A  
ENDBRANCH  10  11
ENDBRANCH   9  10
BRANCH   9  16
HETATM   16  O   UNL     1     -10.507  15.708  65.924  1.00  0.00    -0.307 OA 
BRANCH  16  17
HETATM   17  C   UNL     1     -11.049  16.062  67.198  1.00  0.00    -0.104 C  
BRANCH  17  18
HETATM   18  C   UNL     1     -10.629  17.469  67.528  1.00  0.00    -0.333 A  
HETATM   19  C   UNL     1     -10.255  17.858  68.827  1.00  0.00    -0.360 A  
HETATM   20 CL   UNL     1     -10.278  16.766  70.169  1.00  0.00     0.277 Cl 
HETATM   21  C   UNL     1      -9.786  20.115  68.081  1.00  0.00    -0.423 A  
HETATM   22  C   UNL     1      -9.835  19.167  69.097  1.00  0.00    -0.359 A  
HETATM   23  C   UNL     1     -10.182  19.760  66.794  1.00  0.00    -0.582 A  
HETATM   24  C   UNL     1     -10.604  18.456  66.522  1.00  0.00    -0.311 A  
HETATM   25 CL   UNL     1     -11.081  18.113  64.892  1.00  0.00     0.964 Cl 
ENDBRANCH  17  18
ENDBRANCH  16  17
ENDBRANCH   9  16
ENDBRANCH   6   9
TORSDOF 6
ENDMDL
MODEL      346
REMARK 921   NORMALIZED FREE ENERGY PREDICTED BY IDOCK:   -2.88 KCAL/MOL
REMARK 922        TOTAL FREE ENERGY PREDICTED BY IDOCK:   -4.91 KCAL/MOL
REMARK 923 INTER-LIGAND FREE ENERGY PREDICTED BY IDOCK:   -4.56 KCAL/MOL
REMARK 924 INTRA-LIGAND FREE ENERGY PREDICTED BY IDOCK:   -0.36 KCAL/MOL
REMARK 927      BINDING AFFINITY PREDICTED BY RF-SCORE:    0.00 PKD
ROOT
HETATM    1 CL   UNL     1     -10.578  20.206  65.519  1.00  0.00    -0.395 Cl 
HETATM    2  C   UNL     1     -10.270  18.662  66.210  1.00  0.00    -0.427 A  
HETATM    3  C   UNL     1     -10.194  17.539  65.389  1.00  0.00     0.215 A  
HETATM    4  C   UNL     1      -9.894  16.291  65.942  1.00  0.00    -0.334 A  
HETATM    5 CL   UNL     1      -9.817  14.940  64.867  1.00  0.00    -0.115 Cl 
HETATM    6  C   UNL     1      -9.662  16.157  67.321  1.00  0.00    -0.233 A  
HETATM    7  C   UNL     1      -9.781  17.304  68.131  1.00  0.00    -0.284 A  
HETATM    8  C   UNL     1     -10.080  18.549  67.581  1.00  0.00    -0.390 A  
ENDROOT
BRANCH   6   9
HETATM    9  C   UNL     1      -9.221  14.841  67.952  1.00  0.00    -0.191 C  
BRANCH   9  10
HETATM   10  C   UNL     1      -8.678  15.043  69.389  1.00  0.00    -0.113 C  
BRANCH  10  11
HETATM   11  N   UNL     1      -7.431  14.365  69.694  1.00  0.00     0.025 NA 
HETATM   12  C   UNL     1      -6.437  14.060  68.804  1.00  0.00    -0.093 A  
HETATM   13  C   UNL     1      -7.000  13.968  70.928  1.00  0.00     1.193 A  
HETATM   14  N   UNL     1      -5.865  13.311  70.858  1.00  0.00    -0.204 NA 
HETATM   15  C   UNL     1      -5.504  13.365  69.537  1.00  0.00    -0.089 A  
ENDBRANCH  10  11
ENDBRANCH   9  10
BRANCH   9  16
HETATM   16  O   UNL     1     -10.287  13.877  67.975  1.00  0.00    -0.234 OA 
BRANCH  16  17
HETATM   17  C   UNL     1     -11.366  14.247  68.837  1.00  0.00    -0.274 C  
BRANCH  17  18
HETATM   18  C   UNL     1     -11.840  13.021  69.570  1.00  0.00    -0.385 A  
HETATM   19  C   UNL     1     -12.205  13.051  70.929  1.00  0.00    -0.220 A  
HETATM   20 CL   UNL     1     -12.107  14.487  71.888  1.00  0.00    -0.367 Cl 
HETATM   21  C   UNL     1     -12.787  10.699  70.886  1.00  0.00    -0.473 A  
HETATM   22  C   UNL     1     -12.676  11.902  71.576  1.00  0.00    -0.379 A  
HETATM   23  C   UNL     1     -12.402  10.640  69.550  1.00  0.00    -0.154 A  
HETATM   24  C   UNL     1     -11.929  11.784  68.901  1.00  0.00    -0.271 A  
HETATM   25 CL   UNL     1     -11.470  11.608  67.239  1.00  0.00    -0.363 Cl 
ENDBRANCH  17  18
ENDBRANCH  16  17
ENDBRANCH   9  16
ENDBRANCH   6   9
TORSDOF 6
ENDMDL
MODEL      347
REMARK 921   NORMALIZED FREE ENERGY PREDICTED BY IDOCK:   -2.88 KCAL/MOL
REMARK 922        TOTAL FREE ENERGY PREDICTED BY IDOCK:   -4.90 KCAL/MOL
REMARK 923 INTER-LIGAND FREE ENERGY PREDICTED BY IDOCK:   -4.52 KCAL/MOL
REMARK 924 INTRA-LIGAND FREE ENERGY PREDICTED BY IDOCK:   -0.39 KCAL/MOL
REMARK 927      BINDING AFFINITY PREDICTED BY RF-SCORE:    0.00 PKD
ROOT
HETATM    1 CL   UNL     1     -12.876  14.509  70.801  1.00  0.00    -0.412 Cl 
HETATM    2  C   UNL     1     -11.942  13.437  69.834  1.00  0.00    -0.338 A  
HETATM    3  C   UNL     1     -10.881  13.932  69.078  1.00  0.00    -0.253 A  
HETATM    4  C   UNL     1     -10.089  13.055  68.331  1.00  0.00    -0.225 A  
HETATM    5 CL   UNL     1      -8.792  13.737  67.414  1.00  0.00    -0.199 Cl 
HETATM    6  C   UNL     1     -10.346  11.675  68.340  1.00  0.00    -0.215 A  
HETATM    7  C   UNL     1     -11.448  11.208  69.086  1.00  0.00    -0.366 A  
HETATM    8  C   UNL     1     -12.239  12.080  69.831  1.00  0.00    -0.249 A  
ENDROOT
BRANCH   6   9
HETATM    9  C   UNL     1      -9.444  10.670  67.635  1.00  0.00    -0.153 C  
BRANCH   9  10
HETATM   10  C   UNL     1      -8.788  11.271  66.367  1.00  0.00    -0.182 C  
BRANCH  10  11
HETATM   11  N   UNL     1      -7.602  10.588  65.883  1.00  0.00    -0.146 NA 
HETATM   12  C   UNL     1      -7.577   9.485  65.074  1.00  0.00    -0.113 A  
HETATM   13  C   UNL     1      -6.304  10.958  66.097  1.00  0.00    -0.123 A  
HETATM   14  N   UNL     1      -5.462  10.086  65.593  1.00  0.00    -0.052 NA 
HETATM   15  C   UNL     1      -6.246   9.165  64.950  1.00  0.00    -0.066 A  
ENDBRANCH  10  11
ENDBRANCH   9  10
BRANCH   9  16
HETATM   16  O   UNL     1      -8.419  10.168  68.510  1.00  0.00    -0.113 OA 
BRANCH  16  17
HETATM   17  C   UNL     1      -8.541   8.770  68.781  1.00  0.00    -0.137 C  
BRANCH  17  18
HETATM   18  C   UNL     1      -8.730   8.579  70.262  1.00  0.00    -0.144 A  
HETATM   19  C   UNL     1      -7.696   8.809  71.188  1.00  0.00    -0.123 A  
HETATM   20 CL   UNL     1      -6.106   9.293  70.708  1.00  0.00    -0.054 Cl 
HETATM   21  C   UNL     1      -9.158   8.268  73.044  1.00  0.00    -0.319 A  
HETATM   22  C   UNL     1      -7.912   8.657  72.564  1.00  0.00    -0.026 A  
HETATM   23  C   UNL     1     -10.186   8.006  72.142  1.00  0.00    -0.308 A  
HETATM   24  C   UNL     1      -9.974   8.153  70.769  1.00  0.00    -0.188 A  
HETATM   25 CL   UNL     1     -11.313   7.799  69.728  1.00  0.00    -0.010 Cl 
ENDBRANCH  17  18
ENDBRANCH  16  17
ENDBRANCH   9  16
ENDBRANCH   6   9
TORSDOF 6
ENDMDL
MODEL      348
REMARK 921   NORMALIZED FREE ENERGY PREDICTED BY IDOCK:   -2.85 KCAL/MOL
REMARK 922        TOTAL FREE ENERGY PREDICTED BY IDOCK:   -4.86 KCAL/MOL
REMARK 923 INTER-LIGAND FREE ENERGY PREDICTED BY IDOCK:   -3.57 KCAL/MOL
REMARK 924 INTRA-LIGAND FREE ENERGY PREDICTED BY IDOCK:   -1.29 KCAL/MOL
REMARK 927      BINDING AFFINITY PREDICTED BY RF-SCORE:    0.00 PKD
ROOT
HETATM    1 CL   UNL     1      -8.537   2.624  67.206  1.00  0.00    -0.109 Cl 
HETATM    2  C   UNL     1      -8.637   4.239  67.787  1.00  0.00    -0.099 A  
HETATM    3  C   UNL     1      -7.479   4.906  68.183  1.00  0.00    -0.074 A  
HETATM    4  C   UNL     1      -7.552   6.236  68.608  1.00  0.00    -0.093 A  
HETATM    5 CL   UNL     1      -6.078   7.001  69.087  1.00  0.00    -0.026 Cl 
HETATM    6  C   UNL     1      -8.782   6.912  68.634  1.00  0.00    -0.122 A  
HETATM    7  C   UNL     1      -9.941   6.200  68.262  1.00  0.00    -0.162 A  
HETATM    8  C   UNL     1      -9.871   4.875  67.838  1.00  0.00    -0.196 A  
ENDROOT
BRANCH   6   9
HETATM    9  C   UNL     1      -8.895   8.392  68.980  1.00  0.00    -0.146 C  
BRANCH   9  10
HETATM   10  C   UNL     1      -9.117   9.265  67.720  1.00  0.00    -0.126 C  
BRANCH  10  11
HETATM   11  N   UNL     1      -7.934   9.916  67.186  1.00  0.00    -0.109 NA 
HETATM   12  C   UNL     1      -7.204  10.897  67.799  1.00  0.00    -0.091 A  
HETATM   13  C   UNL     1      -7.304   9.624  66.009  1.00  0.00    -0.099 A  
HETATM   14  N   UNL     1      -6.308  10.447  65.774  1.00  0.00    -0.114 NA 
HETATM   15  C   UNL     1      -6.236  11.243  66.887  1.00  0.00    -0.123 A  
ENDBRANCH  10  11
ENDBRANCH   9  10
BRANCH   9  16
HETATM   16  O   UNL     1      -9.950   8.640  69.925  1.00  0.00    -0.180 OA 
BRANCH  16  17
HETATM   17  C   UNL     1      -9.476   8.890  71.250  1.00  0.00    -0.272 C  
BRANCH  17  18
HETATM   18  C   UNL     1      -9.463   7.591  72.011  1.00  0.00    -0.174 A  
HETATM   19  C   UNL     1     -10.616   6.802  72.172  1.00  0.00    -0.211 A  
HETATM   20 CL   UNL     1     -12.159   7.268  71.543  1.00  0.00    -0.343 Cl 
HETATM   21  C   UNL     1      -9.370   5.124  73.398  1.00  0.00    -0.136 A  
HETATM   22  C   UNL     1     -10.567   5.580  72.855  1.00  0.00    -0.268 A  
HETATM   23  C   UNL     1      -8.224   5.905  73.277  1.00  0.00    -0.116 A  
HETATM   24  C   UNL     1      -8.270   7.125  72.599  1.00  0.00    -0.107 A  
HETATM   25 CL   UNL     1      -6.792   8.025  72.506  1.00  0.00    -0.079 Cl 
ENDBRANCH  17  18
ENDBRANCH  16  17
ENDBRANCH   9  16
ENDBRANCH   6   9
TORSDOF 6
ENDMDL
MODEL      349
REMARK 921   NORMALIZED FREE ENERGY PREDICTED BY IDOCK:   -2.69 KCAL/MOL
REMARK 922        TOTAL FREE ENERGY PREDICTED BY IDOCK:   -4.65 KCAL/MOL
REMARK 923 INTER-LIGAND FREE ENERGY PREDICTED BY IDOCK:   -3.51 KCAL/MOL
REMARK 924 INTRA-LIGAND FREE ENERGY PREDICTED BY IDOCK:   -1.14 KCAL/MOL
REMARK 927      BINDING AFFINITY PREDICTED BY RF-SCORE:    0.00 PKD
ROOT
HETATM    1 CL   UNL     1      -8.810   3.061  68.578  1.00  0.00    -0.147 Cl 
HETATM    2  C   UNL     1      -8.448   4.640  68.004  1.00  0.00    -0.102 A  
HETATM    3  C   UNL     1      -7.618   5.474  68.750  1.00  0.00    -0.083 A  
HETATM    4  C   UNL     1      -7.281   6.740  68.261  1.00  0.00    -0.088 A  
HETATM    5 CL   UNL     1      -6.249   7.724  69.239  1.00  0.00    -0.034 Cl 
HETATM    6  C   UNL     1      -7.766   7.180  67.019  1.00  0.00    -0.107 A  
HETATM    7  C   UNL     1      -8.633   6.328  66.303  1.00  0.00    -0.138 A  
HETATM    8  C   UNL     1      -8.970   5.066  66.789  1.00  0.00    -0.113 A  
ENDROOT
BRANCH   6   9
HETATM    9  C   UNL     1      -7.337   8.501  66.394  1.00  0.00    -0.080 C  
BRANCH   9  10
HETATM   10  C   UNL     1      -6.960   8.339  64.900  1.00  0.00    -0.074 C  
BRANCH  10  11
HETATM   11  N   UNL     1      -7.659   9.212  63.974  1.00  0.00    -0.109 NA 
HETATM   12  C   UNL     1      -8.866   8.962  63.380  1.00  0.00     0.091 A  
HETATM   13  C   UNL     1      -7.269  10.462  63.580  1.00  0.00    -0.002 A  
HETATM   14  N   UNL     1      -8.079  10.958  62.673  1.00  0.00    -0.123 NA 
HETATM   15  C   UNL     1      -9.079  10.032  62.543  1.00  0.00    -0.292 A  
ENDBRANCH  10  11
ENDBRANCH   9  10
BRANCH   9  16
HETATM   16  O   UNL     1      -8.355   9.508  66.523  1.00  0.00    -0.117 OA 
BRANCH  16  17
HETATM   17  C   UNL     1      -8.174  10.353  67.663  1.00  0.00    -0.110 C  
BRANCH  17  18
HETATM   18  C   UNL     1      -9.483  11.026  67.978  1.00  0.00    -0.169 A  
HETATM   19  C   UNL     1      -9.718  12.383  67.692  1.00  0.00    -0.195 A  
HETATM   20 CL   UNL     1      -8.515  13.410  66.990  1.00  0.00    -0.177 Cl 
HETATM   21  C   UNL     1     -11.986  12.228  68.532  1.00  0.00    -0.272 A  
HETATM   22  C   UNL     1     -10.958  12.975  67.964  1.00  0.00    -0.274 A  
HETATM   23  C   UNL     1     -11.764  10.891  68.850  1.00  0.00    -0.376 A  
HETATM   24  C   UNL     1     -10.527  10.299  68.583  1.00  0.00    -0.193 A  
HETATM   25 CL   UNL     1     -10.347   8.632  69.020  1.00  0.00    -0.222 Cl 
ENDBRANCH  17  18
ENDBRANCH  16  17
ENDBRANCH   9  16
ENDBRANCH   6   9
TORSDOF 6
ENDMDL
MODEL      350
REMARK 921   NORMALIZED FREE ENERGY PREDICTED BY IDOCK:   -2.62 KCAL/MOL
REMARK 922        TOTAL FREE ENERGY PREDICTED BY IDOCK:   -4.55 KCAL/MOL
REMARK 923 INTER-LIGAND FREE ENERGY PREDICTED BY IDOCK:   -4.89 KCAL/MOL
REMARK 924 INTRA-LIGAND FREE ENERGY PREDICTED BY IDOCK:    0.33 KCAL/MOL
REMARK 927      BINDING AFFINITY PREDICTED BY RF-SCORE:    0.00 PKD
ROOT
HETATM    1 CL   UNL     1      -8.529   2.158  64.924  1.00  0.00    -0.089 Cl 
HETATM    2  C   UNL     1      -9.290   3.267  65.995  1.00  0.00    -0.117 A  
HETATM    3  C   UNL     1      -9.162   3.098  67.372  1.00  0.00    -0.224 A  
HETATM    4  C   UNL     1      -9.738   4.027  68.244  1.00  0.00    -0.066 A  
HETATM    5 CL   UNL     1      -9.542   3.755  69.940  1.00  0.00    -0.267 Cl 
HETATM    6  C   UNL     1     -10.439   5.137  67.746  1.00  0.00    -0.112 A  
HETATM    7  C   UNL     1     -10.582   5.261  66.349  1.00  0.00    -0.338 A  
HETATM    8  C   UNL     1     -10.010   4.336  65.478  1.00  0.00    -0.233 A  
ENDROOT
BRANCH   6   9
HETATM    9  C   UNL     1     -10.984   6.234  68.652  1.00  0.00    -0.346 C  
BRANCH   9  10
HETATM   10  C   UNL     1     -10.776   5.903  70.151  1.00  0.00    -0.318 C  
BRANCH  10  11
HETATM   11  N   UNL     1     -11.243   6.906  71.091  1.00  0.00    -0.262 NA 
HETATM   12  C   UNL     1     -10.506   7.491  72.084  1.00  0.00    -0.214 A  
HETATM   13  C   UNL     1     -12.479   7.490  71.111  1.00  0.00    -0.275 A  
HETATM   14  N   UNL     1     -12.614   8.302  72.135  1.00  0.00    -0.339 NA 
HETATM   15  C   UNL     1     -11.388   8.311  72.746  1.00  0.00    -0.262 A  
ENDBRANCH  10  11
ENDBRANCH   9  10
BRANCH   9  16
HETATM   16  O   UNL     1     -10.393   7.511  68.358  1.00  0.00    -0.189 OA 
BRANCH  16  17
HETATM   17  C   UNL     1      -8.966   7.510  68.454  1.00  0.00    -0.128 C  
BRANCH  17  18
HETATM   18  C   UNL     1      -8.468   8.918  68.270  1.00  0.00    -0.130 A  
HETATM   19  C   UNL     1      -7.859   9.642  69.310  1.00  0.00    -0.098 A  
HETATM   20 CL   UNL     1      -7.660   8.996  70.903  1.00  0.00    -0.124 Cl 
HETATM   21  C   UNL     1      -7.491  11.543  67.853  1.00  0.00    -0.103 A  
HETATM   22  C   UNL     1      -7.373  10.939  69.100  1.00  0.00    -0.126 A  
HETATM   23  C   UNL     1      -8.119  10.855  66.818  1.00  0.00    -0.142 A  
HETATM   24  C   UNL     1      -8.607   9.562  67.024  1.00  0.00    -0.128 A  
HETATM   25 CL   UNL     1      -9.376   8.792  65.676  1.00  0.00    -0.257 Cl 
ENDBRANCH  17  18
ENDBRANCH  16  17
ENDBRANCH   9  16
ENDBRANCH   6   9
TORSDOF 6
ENDMDL
MODEL      351
REMARK 921   NORMALIZED FREE ENERGY PREDICTED BY IDOCK:   -2.53 KCAL/MOL
REMARK 922        TOTAL FREE ENERGY PREDICTED BY IDOCK:   -4.43 KCAL/MOL
REMARK 923 INTER-LIGAND FREE ENERGY PREDICTED BY IDOCK:   -5.23 KCAL/MOL
REMARK 924 INTRA-LIGAND FREE ENERGY PREDICTED BY IDOCK:    0.79 KCAL/MOL
REMARK 927      BINDING AFFINITY PREDICTED BY RF-SCORE:    0.00 PKD
ROOT
HETATM    1 CL   UNL     1     -13.011  10.177  71.528  1.00  0.00    -0.507 Cl 
HETATM    2  C   UNL     1     -12.173  11.415  70.677  1.00  0.00    -0.389 A  
HETATM    3  C   UNL     1     -12.520  12.749  70.877  1.00  0.00    -0.373 A  
HETATM    4  C   UNL     1     -11.807  13.759  70.224  1.00  0.00    -0.272 A  
HETATM    5 CL   UNL     1     -12.292  15.393  70.516  1.00  0.00    -0.415 Cl 
HETATM    6  C   UNL     1     -10.737  13.444  69.372  1.00  0.00     0.075 A  
HETATM    7  C   UNL     1     -10.432  12.083  69.162  1.00  0.00    -0.005 A  
HETATM    8  C   UNL     1     -11.142  11.075  69.811  1.00  0.00    -0.303 A  
ENDROOT
BRANCH   6   9
HETATM    9  C   UNL     1      -9.859  14.512  68.730  1.00  0.00    -0.220 C  
BRANCH   9  10
HETATM   10  C   UNL     1      -8.450  13.970  68.382  1.00  0.00    -0.166 C  
BRANCH  10  11
HETATM   11  N   UNL     1      -7.335  14.683  68.978  1.00  0.00    -0.128 NA 
HETATM   12  C   UNL     1      -7.266  16.029  69.211  1.00  0.00    -0.226 A  
HETATM   13  C   UNL     1      -6.185  14.132  69.469  1.00  0.00    -0.119 A  
HETATM   14  N   UNL     1      -5.338  15.053  69.870  1.00  0.00    -0.100 NA 
HETATM   15  C   UNL     1      -6.005  16.240  69.715  1.00  0.00    -0.189 A  
ENDBRANCH  10  11
ENDBRANCH   9  10
BRANCH   9  16
HETATM   16  O   UNL     1     -10.466  15.059  67.547  1.00  0.00    -0.250 OA 
BRANCH  16  17
HETATM   17  C   UNL     1     -11.769  14.533  67.283  1.00  0.00    -0.406 C  
BRANCH  17  18
HETATM   18  C   UNL     1     -11.762  13.886  65.924  1.00  0.00    -0.372 A  
HETATM   19  C   UNL     1     -11.560  14.621  64.742  1.00  0.00    -0.418 A  
HETATM   20 CL   UNL     1     -11.340  16.338  64.739  1.00  0.00    -0.301 Cl 
HETATM   21  C   UNL     1     -11.695  12.610  63.397  1.00  0.00    -0.571 A  
HETATM   22  C   UNL     1     -11.524  13.988  63.494  1.00  0.00     0.581 A  
HETATM   23  C   UNL     1     -11.927  11.868  64.552  1.00  0.00    -0.281 A  
HETATM   24  C   UNL     1     -11.966  12.497  65.799  1.00  0.00    -0.420 A  
HETATM   25 CL   UNL     1     -12.265  11.488  67.175  1.00  0.00     0.549 Cl 
ENDBRANCH  17  18
ENDBRANCH  16  17
ENDBRANCH   9  16
ENDBRANCH   6   9
TORSDOF 6
ENDMDL
MODEL      352
REMARK 921   NORMALIZED FREE ENERGY PREDICTED BY IDOCK:   -2.48 KCAL/MOL
REMARK 922        TOTAL FREE ENERGY PREDICTED BY IDOCK:   -4.37 KCAL/MOL
REMARK 923 INTER-LIGAND FREE ENERGY PREDICTED BY IDOCK:   -3.57 KCAL/MOL
REMARK 924 INTRA-LIGAND FREE ENERGY PREDICTED BY IDOCK:   -0.80 KCAL/MOL
REMARK 927      BINDING AFFINITY PREDICTED BY RF-SCORE:    0.00 PKD
ROOT
HETATM    1 CL   UNL     1      -9.841  10.511  62.790  1.00  0.00    -0.270 Cl 
HETATM    2  C   UNL     1      -9.054   9.939  64.208  1.00  0.00    -0.253 A  
HETATM    3  C   UNL     1      -9.522  10.325  65.462  1.00  0.00    -0.277 A  
HETATM    4  C   UNL     1      -8.915   9.821  66.617  1.00  0.00    -0.142 A  
HETATM    5 CL   UNL     1      -9.544  10.342  68.140  1.00  0.00    -0.149 Cl 
HETATM    6  C   UNL     1      -7.840   8.922  66.526  1.00  0.00    -0.100 A  
HETATM    7  C   UNL     1      -7.366   8.579  65.243  1.00  0.00    -0.084 A  
HETATM    8  C   UNL     1      -7.969   9.080  64.092  1.00  0.00    -0.144 A  
ENDROOT
BRANCH   6   9
HETATM    9  C   UNL     1      -7.222   8.260  67.751  1.00  0.00    -0.088 C  
BRANCH   9  10
HETATM   10  C   UNL     1      -6.386   9.259  68.589  1.00  0.00    -0.049 C  
BRANCH  10  11
HETATM   11  N   UNL     1      -6.278   8.961  70.006  1.00  0.00    -0.036 NA 
HETATM   12  C   UNL     1      -5.172   8.476  70.649  1.00  0.00    -0.021 A  
HETATM   13  C   UNL     1      -7.237   9.169  70.957  1.00  0.00    -0.100 A  
HETATM   14  N   UNL     1      -6.859   8.720  72.132  1.00  0.00    -0.249 NA 
HETATM   15  C   UNL     1      -5.572   8.289  71.951  1.00  0.00    -0.038 A  
ENDBRANCH  10  11
ENDBRANCH   9  10
BRANCH   9  16
HETATM   16  O   UNL     1      -8.220   7.652  68.589  1.00  0.00    -0.125 OA 
BRANCH  16  17
HETATM   17  C   UNL     1      -8.086   6.232  68.690  1.00  0.00    -0.109 C  
BRANCH  17  18
HETATM   18  C   UNL     1      -8.679   5.602  67.458  1.00  0.00    -0.107 A  
HETATM   19  C   UNL     1     -10.068   5.479  67.271  1.00  0.00    -0.183 A  
HETATM   20 CL   UNL     1     -11.217   6.004  68.452  1.00  0.00    -0.281 Cl 
HETATM   21  C   UNL     1      -9.744   4.467  65.093  1.00  0.00    -0.186 A  
HETATM   22  C   UNL     1     -10.592   4.920  66.098  1.00  0.00    -0.322 A  
HETATM   23  C   UNL     1      -8.366   4.551  65.271  1.00  0.00    -0.121 A  
HETATM   24  C   UNL     1      -7.839   5.105  66.441  1.00  0.00    -0.103 A  
HETATM   25 CL   UNL     1      -6.112   5.162  66.571  1.00  0.00    -0.029 Cl 
ENDBRANCH  17  18
ENDBRANCH  16  17
ENDBRANCH   9  16
ENDBRANCH   6   9
TORSDOF 6
ENDMDL
MODEL      353
REMARK 921   NORMALIZED FREE ENERGY PREDICTED BY IDOCK:   -2.48 KCAL/MOL
REMARK 922        TOTAL FREE ENERGY PREDICTED BY IDOCK:   -4.37 KCAL/MOL
REMARK 923 INTER-LIGAND FREE ENERGY PREDICTED BY IDOCK:   -3.71 KCAL/MOL
REMARK 924 INTRA-LIGAND FREE ENERGY PREDICTED BY IDOCK:   -0.66 KCAL/MOL
REMARK 927      BINDING AFFINITY PREDICTED BY RF-SCORE:    0.00 PKD
ROOT
HETATM    1 CL   UNL     1     -11.854  12.714  67.535  1.00  0.00    -0.426 Cl 
HETATM    2  C   UNL     1     -10.802  11.399  67.883  1.00  0.00    -0.225 A  
HETATM    3  C   UNL     1      -9.540  11.645  68.418  1.00  0.00    -0.195 A  
HETATM    4  C   UNL     1      -8.702  10.576  68.748  1.00  0.00    -0.154 A  
HETATM    5 CL   UNL     1      -7.149  10.953  69.407  1.00  0.00    -0.121 Cl 
HETATM    6  C   UNL     1      -9.124   9.250  68.552  1.00  0.00    -0.132 A  
HETATM    7  C   UNL     1     -10.392   9.034  67.975  1.00  0.00    -0.275 A  
HETATM    8  C   UNL     1     -11.228  10.098  67.645  1.00  0.00    -0.169 A  
ENDROOT
BRANCH   6   9
HETATM    9  C   UNL     1      -8.294   8.053  69.001  1.00  0.00    -0.129 C  
BRANCH   9  10
HETATM   10  C   UNL     1      -9.183   6.897  69.522  1.00  0.00    -0.148 C  
BRANCH  10  11
HETATM   11  N   UNL     1      -9.319   6.805  70.965  1.00  0.00    -0.160 NA 
HETATM   12  C   UNL     1      -8.651   7.559  71.890  1.00  0.00    -0.107 A  
HETATM   13  C   UNL     1     -10.180   5.997  71.652  1.00  0.00    -0.201 A  
HETATM   14  N   UNL     1     -10.002   6.091  72.950  1.00  0.00    -0.171 NA 
HETATM   15  C   UNL     1      -9.052   7.065  73.109  1.00  0.00    -0.135 A  
ENDBRANCH  10  11
ENDBRANCH   9  10
BRANCH   9  16
HETATM   16  O   UNL     1      -7.446   7.567  67.947  1.00  0.00    -0.099 OA 
BRANCH  16  17
HETATM   17  C   UNL     1      -7.311   6.143  67.941  1.00  0.00    -0.084 C  
BRANCH  17  18
HETATM   18  C   UNL     1      -7.606   5.636  66.555  1.00  0.00    -0.092 A  
HETATM   19  C   UNL     1      -7.034   6.212  65.406  1.00  0.00    -0.056 A  
HETATM   20 CL   UNL     1      -5.972   7.576  65.477  1.00  0.00    -0.037 Cl 
HETATM   21  C   UNL     1      -8.144   4.602  63.974  1.00  0.00    -0.104 A  
HETATM   22  C   UNL     1      -7.299   5.696  64.131  1.00  0.00    -0.062 A  
HETATM   23  C   UNL     1      -8.744   4.036  65.096  1.00  0.00    -0.120 A  
HETATM   24  C   UNL     1      -8.484   4.549  66.369  1.00  0.00    -0.112 A  
HETATM   25 CL   UNL     1      -9.283   3.780  67.700  1.00  0.00    -0.190 Cl 
ENDBRANCH  17  18
ENDBRANCH  16  17
ENDBRANCH   9  16
ENDBRANCH   6   9
TORSDOF 6
ENDMDL
MODEL      354
REMARK 921   NORMALIZED FREE ENERGY PREDICTED BY IDOCK:   -2.48 KCAL/MOL
REMARK 922        TOTAL FREE ENERGY PREDICTED BY IDOCK:   -4.36 KCAL/MOL
REMARK 923 INTER-LIGAND FREE ENERGY PREDICTED BY IDOCK:   -3.40 KCAL/MOL
REMARK 924 INTRA-LIGAND FREE ENERGY PREDICTED BY IDOCK:   -0.96 KCAL/MOL
REMARK 927      BINDING AFFINITY PREDICTED BY RF-SCORE:    0.00 PKD
ROOT
HETATM    1 CL   UNL     1      -9.644  10.109  63.104  1.00  0.00    -0.303 Cl 
HETATM    2  C   UNL     1      -8.936   9.515  64.554  1.00  0.00    -0.212 A  
HETATM    3  C   UNL     1      -9.519   9.818  65.783  1.00  0.00    -0.300 A  
HETATM    4  C   UNL     1      -8.974   9.295  66.960  1.00  0.00    -0.126 A  
HETATM    5 CL   UNL     1      -9.746   9.711  68.449  1.00  0.00    -0.158 Cl 
HETATM    6  C   UNL     1      -7.846   8.459  66.916  1.00  0.00    -0.095 A  
HETATM    7  C   UNL     1      -7.257   8.201  65.662  1.00  0.00    -0.071 A  
HETATM    8  C   UNL     1      -7.798   8.721  64.488  1.00  0.00    -0.129 A  
ENDROOT
BRANCH   6   9
HETATM    9  C   UNL     1      -7.287   7.775  68.158  1.00  0.00    -0.106 C  
BRANCH   9  10
HETATM   10  C   UNL     1      -6.554   8.774  69.088  1.00  0.00    -0.047 C  
BRANCH  10  11
HETATM   11  N   UNL     1      -6.714   8.545  70.512  1.00  0.00    -0.036 NA 
HETATM   12  C   UNL     1      -7.781   8.927  71.279  1.00  0.00    -0.111 A  
HETATM   13  C   UNL     1      -5.862   7.854  71.327  1.00  0.00    -0.034 A  
HETATM   14  N   UNL     1      -6.251   7.894  72.581  1.00  0.00    -0.057 NA 
HETATM   15  C   UNL     1      -7.448   8.558  72.561  1.00  0.00    -0.027 A  
ENDBRANCH  10  11
ENDBRANCH   9  10
BRANCH   9  16
HETATM   16  O   UNL     1      -8.313   7.096  68.901  1.00  0.00    -0.124 OA 
BRANCH  16  17
HETATM   17  C   UNL     1      -8.217   5.671  68.827  1.00  0.00    -0.103 C  
BRANCH  17  18
HETATM   18  C   UNL     1      -8.775   5.216  67.505  1.00  0.00    -0.103 A  
HETATM   19  C   UNL     1      -7.988   4.559  66.542  1.00  0.00    -0.103 A  
HETATM   20 CL   UNL     1      -6.302   4.248  66.773  1.00  0.00    -0.036 Cl 
HETATM   21  C   UNL     1      -9.891   4.324  65.061  1.00  0.00    -0.198 A  
HETATM   22  C   UNL     1      -8.543   4.116  65.335  1.00  0.00    -0.118 A  
HETATM   23  C   UNL     1     -10.681   5.000  65.987  1.00  0.00    -0.241 A  
HETATM   24  C   UNL     1     -10.130   5.446  67.191  1.00  0.00    -0.198 A  
HETATM   25 CL   UNL     1     -11.192   6.280  68.276  1.00  0.00    -0.364 Cl 
ENDBRANCH  17  18
ENDBRANCH  16  17
ENDBRANCH   9  16
ENDBRANCH   6   9
TORSDOF 6
ENDMDL
MODEL      355
REMARK 921   NORMALIZED FREE ENERGY PREDICTED BY IDOCK:   -2.41 KCAL/MOL
REMARK 922        TOTAL FREE ENERGY PREDICTED BY IDOCK:   -4.27 KCAL/MOL
REMARK 923 INTER-LIGAND FREE ENERGY PREDICTED BY IDOCK:   -3.77 KCAL/MOL
REMARK 924 INTRA-LIGAND FREE ENERGY PREDICTED BY IDOCK:   -0.50 KCAL/MOL
REMARK 927      BINDING AFFINITY PREDICTED BY RF-SCORE:    0.00 PKD
ROOT
HETATM    1 CL   UNL     1      -6.079  12.039  69.987  1.00  0.00    -0.155 Cl 
HETATM    2  C   UNL     1      -6.940  10.638  69.486  1.00  0.00    -0.121 A  
HETATM    3  C   UNL     1      -7.967  10.754  68.551  1.00  0.00    -0.130 A  
HETATM    4  C   UNL     1      -8.635   9.610  68.104  1.00  0.00    -0.119 A  
HETATM    5 CL   UNL     1      -9.899   9.827  66.946  1.00  0.00    -0.242 Cl 
HETATM    6  C   UNL     1      -8.277   8.340  68.583  1.00  0.00    -0.120 A  
HETATM    7  C   UNL     1      -7.258   8.258  69.555  1.00  0.00    -0.061 A  
HETATM    8  C   UNL     1      -6.592   9.396  70.002  1.00  0.00    -0.059 A  
ENDROOT
BRANCH   6   9
HETATM    9  C   UNL     1      -8.897   7.057  68.043  1.00  0.00    -0.124 C  
BRANCH   9  10
HETATM   10  C   UNL     1      -7.828   6.098  67.462  1.00  0.00    -0.102 C  
BRANCH  10  11
HETATM   11  N   UNL     1      -7.643   6.154  66.024  1.00  0.00    -0.085 NA 
HETATM   12  C   UNL     1      -7.041   5.202  65.247  1.00  0.00    -0.066 A  
HETATM   13  C   UNL     1      -8.092   7.133  65.182  1.00  0.00    -0.127 A  
HETATM   14  N   UNL     1      -7.693   6.930  63.947  1.00  0.00    -0.112 NA 
HETATM   15  C   UNL     1      -7.039   5.727  63.977  1.00  0.00    -0.052 A  
ENDBRANCH  10  11
ENDBRANCH   9  10
BRANCH   9  16
HETATM   16  O   UNL     1      -9.660   6.369  69.048  1.00  0.00    -0.132 OA 
BRANCH  16  17
HETATM   17  C   UNL     1      -8.880   5.459  69.828  1.00  0.00    -0.110 C  
BRANCH  17  18
HETATM   18  C   UNL     1      -9.648   5.108  71.074  1.00  0.00    -0.229 A  
HETATM   19  C   UNL     1     -10.328   6.076  71.835  1.00  0.00    -0.209 A  
HETATM   20 CL   UNL     1     -10.312   7.759  71.432  1.00  0.00    -0.219 Cl 
HETATM   21  C   UNL     1     -11.132   4.387  73.374  1.00  0.00    -0.394 A  
HETATM   22  C   UNL     1     -11.064   5.716  72.971  1.00  0.00    -0.327 A  
HETATM   23  C   UNL     1     -10.442   3.417  72.653  1.00  0.00    -0.177 A  
HETATM   24  C   UNL     1      -9.704   3.773  71.521  1.00  0.00    -0.171 A  
HETATM   25 CL   UNL     1      -8.876   2.496  70.693  1.00  0.00    -0.130 Cl 
ENDBRANCH  17  18
ENDBRANCH  16  17
ENDBRANCH   9  16
ENDBRANCH   6   9
TORSDOF 6
ENDMDL
MODEL      356
REMARK 921   NORMALIZED FREE ENERGY PREDICTED BY IDOCK:   -2.34 KCAL/MOL
REMARK 922        TOTAL FREE ENERGY PREDICTED BY IDOCK:   -4.18 KCAL/MOL
REMARK 923 INTER-LIGAND FREE ENERGY PREDICTED BY IDOCK:   -4.14 KCAL/MOL
REMARK 924 INTRA-LIGAND FREE ENERGY PREDICTED BY IDOCK:   -0.05 KCAL/MOL
REMARK 927      BINDING AFFINITY PREDICTED BY RF-SCORE:    0.00 PKD
ROOT
HETATM    1 CL   UNL     1      -8.980   3.835  66.946  1.00  0.00    -0.139 Cl 
HETATM    2  C   UNL     1      -8.991   5.255  67.916  1.00  0.00    -0.109 A  
HETATM    3  C   UNL     1      -7.812   5.691  68.517  1.00  0.00    -0.096 A  
HETATM    4  C   UNL     1      -7.807   6.872  69.265  1.00  0.00    -0.114 A  
HETATM    5 CL   UNL     1      -6.311   7.353  69.985  1.00  0.00    -0.027 Cl 
HETATM    6  C   UNL     1      -8.980   7.631  69.411  1.00  0.00    -0.139 A  
HETATM    7  C   UNL     1     -10.165   7.145  68.821  1.00  0.00    -0.184 A  
HETATM    8  C   UNL     1     -10.172   5.968  68.076  1.00  0.00    -0.218 A  
ENDROOT
BRANCH   6   9
HETATM    9  C   UNL     1      -8.998   8.980  70.119  1.00  0.00    -0.184 C  
BRANCH   9  10
HETATM   10  C   UNL     1      -8.493   8.874  71.580  1.00  0.00    -0.114 C  
BRANCH  10  11
HETATM   11  N   UNL     1      -9.221   7.952  72.434  1.00  0.00    -0.162 NA 
HETATM   12  C   UNL     1     -10.575   7.927  72.630  1.00  0.00    -0.329 A  
HETATM   13  C   UNL     1      -8.694   6.908  73.142  1.00  0.00    -0.122 A  
HETATM   14  N   UNL     1      -9.604   6.314  73.879  1.00  0.00    -0.162 NA 
HETATM   15  C   UNL     1     -10.781   6.940  73.565  1.00  0.00    -0.312 A  
ENDBRANCH  10  11
ENDBRANCH   9  10
BRANCH   9  16
HETATM   16  O   UNL     1      -8.219   9.962  69.415  1.00  0.00    -0.118 OA 
BRANCH  16  17
HETATM   17  C   UNL     1      -8.059   9.667  68.025  1.00  0.00    -0.105 C  
BRANCH  17  18
HETATM   18  C   UNL     1      -8.774  10.721  67.222  1.00  0.00    -0.130 A  
HETATM   19  C   UNL     1      -9.670  10.398  66.187  1.00  0.00    -0.209 A  
HETATM   20 CL   UNL     1     -10.004   8.766  65.718  1.00  0.00    -0.068 Cl 
HETATM   21  C   UNL     1     -10.142  12.741  65.785  1.00  0.00    -0.296 A  
HETATM   22  C   UNL     1     -10.348  11.399  65.480  1.00  0.00    -0.317 A  
HETATM   23  C   UNL     1      -9.236  13.083  66.785  1.00  0.00    -0.229 A  
HETATM   24  C   UNL     1      -8.555  12.087  67.491  1.00  0.00    -0.167 A  
HETATM   25 CL   UNL     1      -7.445  12.613  68.712  1.00  0.00    -0.083 Cl 
ENDBRANCH  17  18
ENDBRANCH  16  17
ENDBRANCH   9  16
ENDBRANCH   6   9
TORSDOF 6
ENDMDL
MODEL      357
REMARK 921   NORMALIZED FREE ENERGY PREDICTED BY IDOCK:   -2.24 KCAL/MOL
REMARK 922        TOTAL FREE ENERGY PREDICTED BY IDOCK:   -4.04 KCAL/MOL
REMARK 923 INTER-LIGAND FREE ENERGY PREDICTED BY IDOCK:   -4.29 KCAL/MOL
REMARK 924 INTRA-LIGAND FREE ENERGY PREDICTED BY IDOCK:    0.25 KCAL/MOL
REMARK 927      BINDING AFFINITY PREDICTED BY RF-SCORE:    0.00 PKD
ROOT
HETATM    1 CL   UNL     1      -5.563  15.330  70.405  1.00  0.00    -0.135 Cl 
HETATM    2  C   UNL     1      -6.653  15.421  69.078  1.00  0.00    -0.123 A  
HETATM    3  C   UNL     1      -6.629  16.531  68.237  1.00  0.00    -0.138 A  
HETATM    4  C   UNL     1      -7.480  16.584  67.129  1.00  0.00    -0.182 A  
HETATM    5 CL   UNL     1      -7.399  17.992  66.129  1.00  0.00    -0.313 Cl 
HETATM    6  C   UNL     1      -8.357  15.524  66.849  1.00  0.00    -0.290 A  
HETATM    7  C   UNL     1      -8.384  14.430  67.738  1.00  0.00    -0.172 A  
HETATM    8  C   UNL     1      -7.538  14.376  68.843  1.00  0.00    -0.128 A  
ENDROOT
BRANCH   6   9
HETATM    9  C   UNL     1      -9.219  15.486  65.593  1.00  0.00    -0.050 C  
BRANCH   9  10
HETATM   10  C   UNL     1      -9.591  14.037  65.191  1.00  0.00     0.252 C  
BRANCH  10  11
HETATM   11  N   UNL     1     -11.011  13.740  65.141  1.00  0.00    -0.320 NA 
HETATM   12  C   UNL     1     -11.778  13.276  66.175  1.00  0.00    -0.374 A  
HETATM   13  C   UNL     1     -11.846  13.929  64.076  1.00  0.00    -0.337 A  
HETATM   14  N   UNL     1     -13.058  13.487  64.325  1.00  0.00    -0.141 NA 
HETATM   15  C   UNL     1     -13.026  13.080  65.633  1.00  0.00     0.301 A  
ENDBRANCH  10  11
ENDBRANCH   9  10
BRANCH   9  16
HETATM   16  O   UNL     1     -10.420  16.262  65.746  1.00  0.00    -0.347 OA 
BRANCH  16  17
HETATM   17  C   UNL     1     -10.953  16.224  67.073  1.00  0.00    -0.086 C  
BRANCH  17  18
HETATM   18  C   UNL     1     -10.621  17.520  67.764  1.00  0.00    -0.375 A  
HETATM   19  C   UNL     1     -10.534  18.741  67.071  1.00  0.00    -0.416 A  
HETATM   20 CL   UNL     1     -10.761  18.859  65.359  1.00  0.00    -0.134 Cl 
HETATM   21  C   UNL     1     -10.058  19.939  69.122  1.00  0.00    -0.337 A  
HETATM   22  C   UNL     1     -10.258  19.937  67.745  1.00  0.00    -0.567 A  
HETATM   23  C   UNL     1     -10.110  18.737  69.822  1.00  0.00     0.576 A  
HETATM   24  C   UNL     1     -10.382  17.542  69.152  1.00  0.00    -0.239 A  
HETATM   25 CL   UNL     1     -10.420  16.099  70.110  1.00  0.00    -0.214 Cl 
ENDBRANCH  17  18
ENDBRANCH  16  17
ENDBRANCH   9  16
ENDBRANCH   6   9
TORSDOF 6
ENDMDL
MODEL      358
REMARK 921   NORMALIZED FREE ENERGY PREDICTED BY IDOCK:   -2.00 KCAL/MOL
REMARK 922        TOTAL FREE ENERGY PREDICTED BY IDOCK:   -3.72 KCAL/MOL
REMARK 923 INTER-LIGAND FREE ENERGY PREDICTED BY IDOCK:   -4.75 KCAL/MOL
REMARK 924 INTRA-LIGAND FREE ENERGY PREDICTED BY IDOCK:    1.03 KCAL/MOL
REMARK 927      BINDING AFFINITY PREDICTED BY RF-SCORE:    0.00 PKD
ROOT
HETATM    1 CL   UNL     1      -5.178   7.482  62.874  1.00  0.00    -0.037 Cl 
HETATM    2  C   UNL     1      -6.323   8.521  63.627  1.00  0.00    -0.077 A  
HETATM    3  C   UNL     1      -7.457   8.924  62.925  1.00  0.00    -0.106 A  
HETATM    4  C   UNL     1      -8.414   9.728  63.552  1.00  0.00    -0.184 A  
HETATM    5 CL   UNL     1      -9.795  10.194  62.623  1.00  0.00    -0.079 Cl 
HETATM    6  C   UNL     1      -8.248  10.129  64.887  1.00  0.00    -0.157 A  
HETATM    7  C   UNL     1      -7.072   9.735  65.559  1.00  0.00    -0.108 A  
HETATM    8  C   UNL     1      -6.117   8.934  64.937  1.00  0.00    -0.064 A  
ENDROOT
BRANCH   6   9
HETATM    9  C   UNL     1      -9.315  10.908  65.647  1.00  0.00    -0.207 C  
BRANCH   9  10
HETATM   10  C   UNL     1     -10.042  11.930  64.737  1.00  0.00    -0.262 C  
BRANCH  10  11
HETATM   11  N   UNL     1     -10.512  13.137  65.393  1.00  0.00    -0.290 NA 
HETATM   12  C   UNL     1     -11.367  13.198  66.459  1.00  0.00    -0.315 A  
HETATM   13  C   UNL     1     -10.137  14.419  65.105  1.00  0.00    -0.326 A  
HETATM   14  N   UNL     1     -10.803  15.292  65.826  1.00  0.00    -0.346 NA 
HETATM   15  C   UNL     1     -11.571  14.540  66.676  1.00  0.00    -0.375 A  
ENDBRANCH  10  11
ENDBRANCH   9  10
BRANCH   9  16
HETATM   16  O   UNL     1     -10.283  10.034  66.252  1.00  0.00    -0.241 OA 
BRANCH  16  17
HETATM   17  C   UNL     1      -9.890   8.660  66.241  1.00  0.00    -0.249 C  
BRANCH  17  18
HETATM   18  C   UNL     1     -10.131   8.077  67.608  1.00  0.00    -0.269 A  
HETATM   19  C   UNL     1     -10.791   6.850  67.797  1.00  0.00    -0.241 A  
HETATM   20 CL   UNL     1     -11.421   5.918  66.481  1.00  0.00     0.330 Cl 
HETATM   21  C   UNL     1     -10.500   6.994  70.198  1.00  0.00    -0.232 A  
HETATM   22  C   UNL     1     -10.970   6.315  69.079  1.00  0.00    -0.437 A  
HETATM   23  C   UNL     1      -9.870   8.225  70.035  1.00  0.00    -0.182 A  
HETATM   24  C   UNL     1      -9.693   8.763  68.758  1.00  0.00    -0.165 A  
HETATM   25 CL   UNL     1      -8.903  10.302  68.660  1.00  0.00    -0.130 Cl 
ENDBRANCH  17  18
ENDBRANCH  16  17
ENDBRANCH   9  16
ENDBRANCH   6   9
TORSDOF 6
ENDMDL
MODEL      359
REMARK 921   NORMALIZED FREE ENERGY PREDICTED BY IDOCK:   -1.54 KCAL/MOL
REMARK 922        TOTAL FREE ENERGY PREDICTED BY IDOCK:   -3.10 KCAL/MOL
REMARK 923 INTER-LIGAND FREE ENERGY PREDICTED BY IDOCK:   -3.50 KCAL/MOL
REMARK 924 INTRA-LIGAND FREE ENERGY PREDICTED BY IDOCK:    0.40 KCAL/MOL
REMARK 927      BINDING AFFINITY PREDICTED BY RF-SCORE:    0.00 PKD
ROOT
HETATM    1 CL   UNL     1     -13.767  12.325  72.209  1.00  0.00    -0.380 Cl 
HETATM    2  C   UNL     1     -12.687  11.384  71.257  1.00  0.00    -0.393 A  
HETATM    3  C   UNL     1     -12.665  11.544  69.873  1.00  0.00     0.089 A  
HETATM    4  C   UNL     1     -11.754  10.816  69.102  1.00  0.00    -0.296 A  
HETATM    5 CL   UNL     1     -11.782  11.062  67.392  1.00  0.00    -0.106 Cl 
HETATM    6  C   UNL     1     -10.852   9.928  69.710  1.00  0.00    -0.300 A  
HETATM    7  C   UNL     1     -10.923   9.761  71.108  1.00  0.00    -0.386 A  
HETATM    8  C   UNL     1     -11.831  10.484  71.878  1.00  0.00     0.614 A  
ENDROOT
BRANCH   6   9
HETATM    9  C   UNL     1      -9.767   9.200  68.926  1.00  0.00    -0.162 C  
BRANCH   9  10
HETATM   10  C   UNL     1     -10.168   7.740  68.601  1.00  0.00    -0.201 C  
BRANCH  10  11
HETATM   11  N   UNL     1     -10.320   6.857  69.744  1.00  0.00    -0.199 NA 
HETATM   12  C   UNL     1     -11.501   6.405  70.266  1.00  0.00    -0.402 A  
HETATM   13  C   UNL     1      -9.314   6.272  70.461  1.00  0.00    -0.162 A  
HETATM   14  N   UNL     1      -9.780   5.593  71.484  1.00  0.00    -0.158 NA 
HETATM   15  C   UNL     1     -11.143   5.667  71.369  1.00  0.00    -0.151 A  
ENDBRANCH  10  11
ENDBRANCH   9  10
BRANCH   9  16
HETATM   16  O   UNL     1      -9.438   9.888  67.707  1.00  0.00    -0.140 OA 
BRANCH  16  17
HETATM   17  C   UNL     1      -9.335   9.018  66.576  1.00  0.00    -0.191 C  
BRANCH  17  18
HETATM   18  C   UNL     1      -7.894   8.953  66.147  1.00  0.00    -0.102 A  
HETATM   19  C   UNL     1      -7.258   7.739  65.830  1.00  0.00    -0.068 A  
HETATM   20 CL   UNL     1      -8.060   6.210  65.941  1.00  0.00    -0.115 Cl 
HETATM   21  C   UNL     1      -5.199   8.892  65.282  1.00  0.00    -0.038 A  
HETATM   22  C   UNL     1      -5.925   7.712  65.399  1.00  0.00    -0.038 A  
HETATM   23  C   UNL     1      -5.800  10.101  65.620  1.00  0.00    -0.079 A  
HETATM   24  C   UNL     1      -7.128  10.132  66.053  1.00  0.00    -0.118 A  
HETATM   25 CL   UNL     1      -7.784  11.684  66.454  1.00  0.00    -0.017 Cl 
ENDBRANCH  17  18
ENDBRANCH  16  17
ENDBRANCH   9  16
ENDBRANCH   6   9
TORSDOF 6
ENDMDL
MODEL      360
REMARK 921   NORMALIZED FREE ENERGY PREDICTED BY IDOCK:   -1.52 KCAL/MOL
REMARK 922        TOTAL FREE ENERGY PREDICTED BY IDOCK:   -3.07 KCAL/MOL
REMARK 923 INTER-LIGAND FREE ENERGY PREDICTED BY IDOCK:   -3.55 KCAL/MOL
REMARK 924 INTRA-LIGAND FREE ENERGY PREDICTED BY IDOCK:    0.48 KCAL/MOL
REMARK 927      BINDING AFFINITY PREDICTED BY RF-SCORE:    0.00 PKD
ROOT
HETATM    1 CL   UNL     1      -5.127   7.495  62.874  1.00  0.00    -0.037 Cl 
HETATM    2  C   UNL     1      -6.052   8.332  64.057  1.00  0.00    -0.067 A  
HETATM    3  C   UNL     1      -7.396   8.610  63.816  1.00  0.00    -0.101 A  
HETATM    4  C   UNL     1      -8.162   9.247  64.797  1.00  0.00    -0.149 A  
HETATM    5 CL   UNL     1      -9.821   9.563  64.432  1.00  0.00     0.240 Cl 
HETATM    6  C   UNL     1      -7.592   9.603  66.030  1.00  0.00    -0.102 A  
HETATM    7  C   UNL     1      -6.221   9.341  66.231  1.00  0.00    -0.064 A  
HETATM    8  C   UNL     1      -5.456   8.708  65.254  1.00  0.00    -0.039 A  
ENDROOT
BRANCH   6   9
HETATM    9  C   UNL     1      -8.413  10.194  67.171  1.00  0.00    -0.125 C  
BRANCH   9  10
HETATM   10  C   UNL     1      -9.751  10.792  66.670  1.00  0.00    -0.190 C  
BRANCH  10  11
HETATM   11  N   UNL     1     -10.203  11.989  67.355  1.00  0.00    -0.199 NA 
HETATM   12  C   UNL     1     -10.461  12.108  68.694  1.00  0.00    -0.216 A  
HETATM   13  C   UNL     1     -10.391  13.224  66.800  1.00  0.00    -0.257 A  
HETATM   14  N   UNL     1     -10.881  14.077  67.669  1.00  0.00    -0.259 NA 
HETATM   15  C   UNL     1     -10.926  13.392  68.854  1.00  0.00    -0.248 A  
ENDBRANCH  10  11
ENDBRANCH   9  10
BRANCH   9  16
HETATM   16  O   UNL     1      -8.678   9.221  68.196  1.00  0.00    -0.124 OA 
BRANCH  16  17
HETATM   17  C   UNL     1      -9.854   8.445  67.950  1.00  0.00    -0.170 C  
BRANCH  17  18
HETATM   18  C   UNL     1      -9.681   7.092  68.586  1.00  0.00    -0.139 A  
HETATM   19  C   UNL     1     -10.412   6.695  69.720  1.00  0.00    -0.211 A  
HETATM   20 CL   UNL     1     -11.546   7.737  70.510  1.00  0.00    -0.225 Cl 
HETATM   21  C   UNL     1      -9.365   4.510  69.704  1.00  0.00    -0.221 A  
HETATM   22  C   UNL     1     -10.256   5.416  70.270  1.00  0.00    -0.338 A  
HETATM   23  C   UNL     1      -8.609   4.893  68.600  1.00  0.00    -0.099 A  
HETATM   24  C   UNL     1      -8.760   6.169  68.051  1.00  0.00    -0.113 A  
HETATM   25 CL   UNL     1      -7.772   6.553  66.680  1.00  0.00    -0.098 Cl 
ENDBRANCH  17  18
ENDBRANCH  16  17
ENDBRANCH   9  16
ENDBRANCH   6   9
TORSDOF 6
ENDMDL
MODEL      361
REMARK 921   NORMALIZED FREE ENERGY PREDICTED BY IDOCK:   -1.40 KCAL/MOL
REMARK 922        TOTAL FREE ENERGY PREDICTED BY IDOCK:   -2.91 KCAL/MOL
REMARK 923 INTER-LIGAND FREE ENERGY PREDICTED BY IDOCK:   -2.95 KCAL/MOL
REMARK 924 INTRA-LIGAND FREE ENERGY PREDICTED BY IDOCK:    0.04 KCAL/MOL
REMARK 927      BINDING AFFINITY PREDICTED BY RF-SCORE:    0.00 PKD
ROOT
HETATM    1 CL   UNL     1      -8.301   2.591  63.156  1.00  0.00    -0.080 Cl 
HETATM    2  C   UNL     1      -8.483   3.762  64.403  1.00  0.00    -0.097 A  
HETATM    3  C   UNL     1      -8.939   3.369  65.660  1.00  0.00    -0.142 A  
HETATM    4  C   UNL     1      -9.040   4.309  66.689  1.00  0.00    -0.129 A  
HETATM    5 CL   UNL     1      -9.614   3.754  68.222  1.00  0.00    -0.205 Cl 
HETATM    6  C   UNL     1      -8.680   5.649  66.472  1.00  0.00    -0.121 A  
HETATM    7  C   UNL     1      -8.256   6.023  65.180  1.00  0.00    -0.142 A  
HETATM    8  C   UNL     1      -8.155   5.088  64.153  1.00  0.00    -0.119 A  
ENDROOT
BRANCH   6   9
HETATM    9  C   UNL     1      -8.664   6.684  67.590  1.00  0.00    -0.118 C  
BRANCH   9  10
HETATM   10  C   UNL     1      -7.421   7.605  67.509  1.00  0.00    -0.104 C  
BRANCH  10  11
HETATM   11  N   UNL     1      -6.512   7.540  68.639  1.00  0.00    -0.043 NA 
HETATM   12  C   UNL     1      -6.006   8.605  69.333  1.00  0.00    -0.040 A  
HETATM   13  C   UNL     1      -6.051   6.407  69.250  1.00  0.00    -0.026 A  
HETATM   14  N   UNL     1      -5.181   6.685  70.193  1.00  0.00    -0.014 NA 
HETATM   15  C   UNL     1      -5.148   8.054  70.255  1.00  0.00    -0.023 A  
ENDBRANCH  10  11
ENDBRANCH   9  10
BRANCH   9  16
HETATM   16  O   UNL     1      -9.856   7.488  67.588  1.00  0.00    -0.147 OA 
BRANCH  16  17
HETATM   17  C   UNL     1      -9.915   8.410  66.496  1.00  0.00    -0.265 C  
BRANCH  17  18
HETATM   18  C   UNL     1      -9.640   9.795  67.017  1.00  0.00    -0.218 A  
HETATM   19  C   UNL     1      -8.733  10.668  66.389  1.00  0.00    -0.149 A  
HETATM   20 CL   UNL     1      -7.825  10.217  64.986  1.00  0.00    -0.138 Cl 
HETATM   21  C   UNL     1      -9.205  12.414  68.000  1.00  0.00    -0.203 A  
HETATM   22  C   UNL     1      -8.522  11.964  66.875  1.00  0.00    -0.174 A  
HETATM   23  C   UNL     1     -10.084  11.556  68.655  1.00  0.00    -0.214 A  
HETATM   24  C   UNL     1     -10.295  10.261  68.174  1.00  0.00    -0.177 A  
HETATM   25 CL   UNL     1     -11.403   9.268  69.061  1.00  0.00     0.141 Cl 
ENDBRANCH  17  18
ENDBRANCH  16  17
ENDBRANCH   9  16
ENDBRANCH   6   9
TORSDOF 6
ENDMDL
MODEL      362
REMARK 921   NORMALIZED FREE ENERGY PREDICTED BY IDOCK:    0.91 KCAL/MOL
REMARK 922        TOTAL FREE ENERGY PREDICTED BY IDOCK:    0.22 KCAL/MOL
REMARK 923 INTER-LIGAND FREE ENERGY PREDICTED BY IDOCK:   -2.14 KCAL/MOL
REMARK 924 INTRA-LIGAND FREE ENERGY PREDICTED BY IDOCK:    2.36 KCAL/MOL
REMARK 927      BINDING AFFINITY PREDICTED BY RF-SCORE:    0.00 PKD
ROOT
HETATM    1 CL   UNL     1      -9.917   3.586  68.527  1.00  0.00     0.145 Cl 
HETATM    2  C   UNL     1      -9.502   5.028  69.367  1.00  0.00    -0.144 A  
HETATM    3  C   UNL     1      -8.161   5.351  69.568  1.00  0.00    -0.096 A  
HETATM    4  C   UNL     1      -7.820   6.547  70.206  1.00  0.00    -0.107 A  
HETATM    5 CL   UNL     1      -6.139   6.883  70.425  1.00  0.00    -0.024 Cl 
HETATM    6  C   UNL     1      -8.818   7.434  70.642  1.00  0.00    -0.150 A  
HETATM    7  C   UNL     1     -10.166   7.064  70.456  1.00  0.00    -0.209 A  
HETATM    8  C   UNL     1     -10.507   5.872  69.821  1.00  0.00    -0.340 A  
ENDROOT
BRANCH   6   9
HETATM    9  C   UNL     1      -8.495   8.799  71.238  1.00  0.00    -0.186 C  
BRANCH   9  10
HETATM   10  C   UNL     1      -7.556   8.687  72.465  1.00  0.00     0.054 C  
BRANCH  10  11
HETATM   11  N   UNL     1      -7.699   7.481  73.261  1.00  0.00    -0.096 NA 
HETATM   12  C   UNL     1      -8.839   7.053  73.883  1.00  0.00    -0.177 A  
HETATM   13  C   UNL     1      -6.742   6.530  73.479  1.00  0.00    -0.073 A  
HETATM   14  N   UNL     1      -7.160   5.603  74.309  1.00  0.00    -0.081 NA 
HETATM   15  C   UNL     1      -8.469   5.918  74.565  1.00  0.00    -0.115 A  
ENDBRANCH  10  11
ENDBRANCH   9  10
BRANCH   9  16
HETATM   16  O   UNL     1      -7.907   9.680  70.266  1.00  0.00    -0.154 OA 
BRANCH  16  17
HETATM   17  C   UNL     1      -6.932   9.041  69.438  1.00  0.00    -0.052 C  
BRANCH  17  18
HETATM   18  C   UNL     1      -6.861   9.769  68.123  1.00  0.00    -0.069 A  
HETATM   19  C   UNL     1      -6.816  11.172  68.042  1.00  0.00    -0.067 A  
HETATM   20 CL   UNL     1      -6.875  12.189  69.441  1.00  0.00    -0.059 Cl 
HETATM   21  C   UNL     1      -6.665  11.087  65.625  1.00  0.00     0.147 A  
HETATM   22  C   UNL     1      -6.716  11.822  66.805  1.00  0.00    -0.048 A  
HETATM   23  C   UNL     1      -6.739   9.698  65.681  1.00  0.00    -0.086 A  
HETATM   24  C   UNL     1      -6.842   9.047  66.913  1.00  0.00    -0.077 A  
HETATM   25 CL   UNL     1      -6.934   7.317  66.878  1.00  0.00    -0.075 Cl 
ENDBRANCH  17  18
ENDBRANCH  16  17
ENDBRANCH   9  16
ENDBRANCH   6   9
TORSDOF 6
ENDMDL
MODEL      363
REMARK 921   NORMALIZED FREE ENERGY PREDICTED BY IDOCK:    2.80 KCAL/MOL
REMARK 922        TOTAL FREE ENERGY PREDICTED BY IDOCK:    2.76 KCAL/MOL
REMARK 923 INTER-LIGAND FREE ENERGY PREDICTED BY IDOCK:    2.12 KCAL/MOL
REMARK 924 INTRA-LIGAND FREE ENERGY PREDICTED BY IDOCK:    0.64 KCAL/MOL
REMARK 927      BINDING AFFINITY PREDICTED BY RF-SCORE:    0.00 PKD
ROOT
HETATM    1 CL   UNL     1     -13.240  12.828  71.206  1.00  0.00    -0.233 Cl 
HETATM    2  C   UNL     1     -11.983  13.088  70.061  1.00  0.00    -0.312 A  
HETATM    3  C   UNL     1     -11.203  14.241  70.139  1.00  0.00    -0.103 A  
HETATM    4  C   UNL     1     -10.149  14.430  69.240  1.00  0.00    -0.024 A  
HETATM    5 CL   UNL     1      -9.224  15.882  69.393  1.00  0.00    -0.255 Cl 
HETATM    6  C   UNL     1      -9.862  13.466  68.261  1.00  0.00    -0.235 A  
HETATM    7  C   UNL     1     -10.691  12.328  68.184  1.00  0.00    -0.241 A  
HETATM    8  C   UNL     1     -11.742  12.137  69.078  1.00  0.00    -0.377 A  
ENDROOT
BRANCH   6   9
HETATM    9  C   UNL     1      -8.656  13.574  67.335  1.00  0.00    -0.208 C  
BRANCH   9  10
HETATM   10  C   UNL     1      -7.859  12.247  67.267  1.00  0.00    -0.171 C  
BRANCH  10  11
HETATM   11  N   UNL     1      -7.168  11.862  68.484  1.00  0.00    -0.094 NA 
HETATM   12  C   UNL     1      -6.193  12.578  69.123  1.00  0.00    -0.094 A  
HETATM   13  C   UNL     1      -7.411  10.750  69.242  1.00  0.00    -0.129 A  
HETATM   14  N   UNL     1      -6.561  10.648  70.238  1.00  0.00    -0.224 NA 
HETATM   15  C   UNL     1      -5.799  11.785  70.174  1.00  0.00    -0.156 A  
ENDBRANCH  10  11
ENDBRANCH   9  10
BRANCH   9  16
HETATM   16  O   UNL     1      -9.038  13.971  66.007  1.00  0.00    -0.036 OA 
BRANCH  16  17
HETATM   17  C   UNL     1     -10.293  14.654  65.959  1.00  0.00    -0.305 C  
BRANCH  17  18
HETATM   18  C   UNL     1     -10.051  16.125  66.167  1.00  0.00    -0.356 A  
HETATM   19  C   UNL     1      -8.768  16.696  66.082  1.00  0.00    -0.287 A  
HETATM   20 CL   UNL     1      -7.349  15.756  65.768  1.00  0.00     2.472 Cl 
HETATM   21  C   UNL     1      -9.660  18.909  66.503  1.00  0.00    -0.373 A  
HETATM   22  C   UNL     1      -8.578  18.074  66.245  1.00  0.00    -0.204 A  
HETATM   23  C   UNL     1     -10.934  18.360  66.622  1.00  0.00     0.099 A  
HETATM   24  C   UNL     1     -11.127  16.986  66.462  1.00  0.00     0.362 A  
HETATM   25 CL   UNL     1     -12.748  16.399  66.634  1.00  0.00     3.610 Cl 
ENDBRANCH  17  18
ENDBRANCH  16  17
ENDBRANCH   9  16
ENDBRANCH   6   9
TORSDOF 6
ENDMDL
MODEL      364
REMARK 921   NORMALIZED FREE ENERGY PREDICTED BY IDOCK:   10.13 KCAL/MOL
REMARK 922        TOTAL FREE ENERGY PREDICTED BY IDOCK:   12.67 KCAL/MOL
REMARK 923 INTER-LIGAND FREE ENERGY PREDICTED BY IDOCK:    4.05 KCAL/MOL
REMARK 924 INTRA-LIGAND FREE ENERGY PREDICTED BY IDOCK:    8.62 KCAL/MOL
REMARK 927      BINDING AFFINITY PREDICTED BY RF-SCORE:    0.00 PKD
ROOT
HETATM    1 CL   UNL     1     -12.676  12.252  70.347  1.00  0.00    -0.060 Cl 
HETATM    2  C   UNL     1     -11.251  12.392  69.396  1.00  0.00    -0.158 A  
HETATM    3  C   UNL     1     -10.040  12.714  70.006  1.00  0.00     2.327 A  
HETATM    4  C   UNL     1      -8.871  12.780  69.242  1.00  0.00     0.988 A  
HETATM    5 CL   UNL     1      -7.405  13.187  70.063  1.00  0.00     0.965 Cl 
HETATM    6  C   UNL     1      -8.901  12.516  67.863  1.00  0.00    -0.185 A  
HETATM    7  C   UNL     1     -10.147  12.227  67.268  1.00  0.00    -0.212 A  
HETATM    8  C   UNL     1     -11.313  12.162  68.027  1.00  0.00    -0.353 A  
ENDROOT
BRANCH   6   9
HETATM    9  C   UNL     1      -7.638  12.462  67.013  1.00  0.00    -0.044 C  
BRANCH   9  10
HETATM   10  C   UNL     1      -7.752  11.420  65.873  1.00  0.00     0.242 C  
BRANCH  10  11
HETATM   11  N   UNL     1      -9.074  10.860  65.659  1.00  0.00    -0.199 NA 
HETATM   12  C   UNL     1      -9.900  10.344  66.620  1.00  0.00    -0.202 A  
HETATM   13  C   UNL     1      -9.754  10.805  64.475  1.00  0.00    -0.295 A  
HETATM   14  N   UNL     1     -10.895  10.166  64.600  1.00  0.00     0.896 NA 
HETATM   15  C   UNL     1     -10.996   9.876  65.935  1.00  0.00     0.747 A  
ENDBRANCH  10  11
ENDBRANCH   9  10
BRANCH   9  16
HETATM   16  O   UNL     1      -7.317  13.748  66.454  1.00  0.00     1.147 OA 
BRANCH  16  17
HETATM   17  C   UNL     1      -8.370  14.705  66.595  1.00  0.00     0.078 C  
BRANCH  17  18
HETATM   18  C   UNL     1      -7.904  15.804  67.511  1.00  0.00    -0.182 A  
HETATM   19  C   UNL     1      -6.654  15.767  68.155  1.00  0.00    -0.128 A  
HETATM   20 CL   UNL     1      -5.556  14.441  67.983  1.00  0.00    -0.129 Cl 
HETATM   21  C   UNL     1      -7.048  17.929  69.175  1.00  0.00    -0.182 A  
HETATM   22  C   UNL     1      -6.232  16.821  68.975  1.00  0.00    -0.179 A  
HETATM   23  C   UNL     1      -8.302  17.972  68.572  1.00  0.00    -0.313 A  
HETATM   24  C   UNL     1      -8.728  16.921  67.755  1.00  0.00    -0.212 A  
HETATM   25 CL   UNL     1     -10.306  17.065  67.054  1.00  0.00    -0.309 Cl 
ENDBRANCH  17  18
ENDBRANCH  16  17
ENDBRANCH   9  16
ENDBRANCH   6   9
TORSDOF 6
ENDMDL
MODEL      365
REMARK 921   NORMALIZED FREE ENERGY PREDICTED BY IDOCK:   11.75 KCAL/MOL
REMARK 922        TOTAL FREE ENERGY PREDICTED BY IDOCK:   14.85 KCAL/MOL
REMARK 923 INTER-LIGAND FREE ENERGY PREDICTED BY IDOCK:   10.98 KCAL/MOL
REMARK 924 INTRA-LIGAND FREE ENERGY PREDICTED BY IDOCK:    3.87 KCAL/MOL
REMARK 927      BINDING AFFINITY PREDICTED BY RF-SCORE:    0.00 PKD
ROOT
HETATM    1 CL   UNL     1     -14.370  12.504  72.631  1.00  0.00     0.391 Cl 
HETATM    2  C   UNL     1     -13.045  11.485  72.226  1.00  0.00     0.057 A  
HETATM    3  C   UNL     1     -12.757  11.224  70.888  1.00  0.00    -0.412 A  
HETATM    4  C   UNL     1     -11.651  10.436  70.555  1.00  0.00    -0.344 A  
HETATM    5 CL   UNL     1     -11.352  10.150  68.877  1.00  0.00    -0.218 Cl 
HETATM    6  C   UNL     1     -10.820   9.909  71.557  1.00  0.00     0.155 A  
HETATM    7  C   UNL     1     -11.158  10.162  72.903  1.00  0.00     5.531 A  
HETATM    8  C   UNL     1     -12.260  10.946  73.236  1.00  0.00     7.353 A  
ENDROOT
BRANCH   6   9
HETATM    9  C   UNL     1      -9.541   9.143  71.241  1.00  0.00    -0.261 C  
BRANCH   9  10
HETATM   10  C   UNL     1      -9.773   7.611  71.231  1.00  0.00    -0.160 C  
BRANCH  10  11
HETATM   11  N   UNL     1     -11.115   7.173  71.570  1.00  0.00    -0.236 NA 
HETATM   12  C   UNL     1     -12.148   6.979  70.694  1.00  0.00    -0.284 A  
HETATM   13  C   UNL     1     -11.567   6.816  72.809  1.00  0.00    -0.066 A  
HETATM   14  N   UNL     1     -12.851   6.543  72.796  1.00  0.00     0.675 NA 
HETATM   15  C   UNL     1     -13.223   6.640  71.481  1.00  0.00     0.002 A  
ENDBRANCH  10  11
ENDBRANCH   9  10
BRANCH   9  16
HETATM   16  O   UNL     1      -8.974   9.549  69.984  1.00  0.00    -0.188 OA 
BRANCH  16  17
HETATM   17  C   UNL     1      -9.561   8.890  68.858  1.00  0.00    -0.160 C  
BRANCH  17  18
HETATM   18  C   UNL     1      -8.905   9.401  67.604  1.00  0.00    -0.118 A  
HETATM   19  C   UNL     1      -8.591   8.557  66.522  1.00  0.00    -0.121 A  
HETATM   20 CL   UNL     1      -8.894   6.854  66.551  1.00  0.00    -0.139 Cl 
HETATM   21  C   UNL     1      -7.730  10.423  65.239  1.00  0.00    -0.124 A  
HETATM   22  C   UNL     1      -8.012   9.066  65.353  1.00  0.00    -0.111 A  
HETATM   23  C   UNL     1      -8.004  11.271  66.309  1.00  0.00    -0.086 A  
HETATM   24  C   UNL     1      -8.579  10.766  67.479  1.00  0.00    -0.125 A  
HETATM   25 CL   UNL     1      -8.878  11.899  68.755  1.00  0.00    -0.026 Cl 
ENDBRANCH  17  18
ENDBRANCH  16  17
ENDBRANCH   9  16
ENDBRANCH   6   9
TORSDOF 6
ENDMDL
MODEL      366
REMARK 921   NORMALIZED FREE ENERGY PREDICTED BY IDOCK:   12.84 KCAL/MOL
REMARK 922        TOTAL FREE ENERGY PREDICTED BY IDOCK:   16.33 KCAL/MOL
REMARK 923 INTER-LIGAND FREE ENERGY PREDICTED BY IDOCK:    2.29 KCAL/MOL
REMARK 924 INTRA-LIGAND FREE ENERGY PREDICTED BY IDOCK:   14.04 KCAL/MOL
REMARK 927      BINDING AFFINITY PREDICTED BY RF-SCORE:    0.00 PKD
ROOT
HETATM    1 CL   UNL     1     -10.491  18.497  65.886  1.00  0.00    -0.457 Cl 
HETATM    2  C   UNL     1     -10.127  16.983  66.616  1.00  0.00    -0.306 A  
HETATM    3  C   UNL     1      -9.288  16.083  65.962  1.00  0.00    -0.380 A  
HETATM    4  C   UNL     1      -8.951  14.873  66.576  1.00  0.00    -0.253 A  
HETATM    5 CL   UNL     1      -7.908  13.802  65.709  1.00  0.00     3.224 Cl 
HETATM    6  C   UNL     1      -9.445  14.557  67.853  1.00  0.00    -0.212 A  
HETATM    7  C   UNL     1     -10.320  15.471  68.473  1.00  0.00    -0.225 A  
HETATM    8  C   UNL     1     -10.657  16.677  67.863  1.00  0.00    -0.342 A  
ENDROOT
BRANCH   6   9
HETATM    9  C   UNL     1      -9.015  13.305  68.609  1.00  0.00     0.032 C  
BRANCH   9  10
HETATM   10  C   UNL     1      -8.895  12.077  67.672  1.00  0.00    -0.172 C  
BRANCH  10  11
HETATM   11  N   UNL     1      -9.756  10.952  67.992  1.00  0.00    -0.161 NA 
HETATM   12  C   UNL     1     -10.927  11.004  68.698  1.00  0.00    -0.224 A  
HETATM   13  C   UNL     1      -9.585   9.656  67.594  1.00  0.00    -0.142 A  
HETATM   14  N   UNL     1     -10.494   8.865  68.116  1.00  0.00    -0.219 NA 
HETATM   15  C   UNL     1     -11.337   9.697  68.804  1.00  0.00     0.144 A  
ENDBRANCH  10  11
ENDBRANCH   9  10
BRANCH   9  16
HETATM   16  O   UNL     1      -7.771  13.501  69.301  1.00  0.00     0.136 OA 
BRANCH  16  17
HETATM   17  C   UNL     1      -7.715  14.731  70.028  1.00  0.00     0.310 C  
BRANCH  17  18
HETATM   18  C   UNL     1      -6.832  15.695  69.280  1.00  0.00    -0.164 A  
HETATM   19  C   UNL     1      -6.640  15.614  67.889  1.00  0.00    -0.153 A  
HETATM   20 CL   UNL     1      -7.368  14.380  66.918  1.00  0.00     0.342 Cl 
HETATM   21  C   UNL     1      -5.212  17.571  67.913  1.00  0.00    -0.130 A  
HETATM   22  C   UNL     1      -5.840  16.545  67.215  1.00  0.00    -0.191 A  
HETATM   23  C   UNL     1      -5.364  17.651  69.294  1.00  0.00    -0.182 A  
HETATM   24  C   UNL     1      -6.159  16.722  69.971  1.00  0.00    -0.139 A  
HETATM   25 CL   UNL     1      -6.282  16.903  71.690  1.00  0.00     2.160 Cl 
ENDBRANCH  17  18
ENDBRANCH  16  17
ENDBRANCH   9  16
ENDBRANCH   6   9
TORSDOF 6
ENDMDL
MODEL      367
REMARK 921   NORMALIZED FREE ENERGY PREDICTED BY IDOCK:   22.95 KCAL/MOL
REMARK 922        TOTAL FREE ENERGY PREDICTED BY IDOCK:   29.98 KCAL/MOL
REMARK 923 INTER-LIGAND FREE ENERGY PREDICTED BY IDOCK:   29.37 KCAL/MOL
REMARK 924 INTRA-LIGAND FREE ENERGY PREDICTED BY IDOCK:    0.61 KCAL/MOL
REMARK 927      BINDING AFFINITY PREDICTED BY RF-SCORE:    0.00 PKD
ROOT
HETATM    1 CL   UNL     1      -5.412  17.735  71.104  1.00  0.00    -0.089 Cl 
HETATM    2  C   UNL     1      -6.748  17.462  70.056  1.00  0.00     0.478 A  
HETATM    3  C   UNL     1      -7.229  18.501  69.263  1.00  0.00    -0.130 A  
HETATM    4  C   UNL     1      -8.282  18.269  68.374  1.00  0.00    -0.311 A  
HETATM    5 CL   UNL     1      -8.830  19.603  67.421  1.00  0.00    -0.359 Cl 
HETATM    6  C   UNL     1      -8.859  16.993  68.267  1.00  0.00    -0.242 A  
HETATM    7  C   UNL     1      -8.375  15.971  69.109  1.00  0.00    -0.244 A  
HETATM    8  C   UNL     1      -7.326  16.201  69.995  1.00  0.00     0.573 A  
ENDROOT
BRANCH   6   9
HETATM    9  C   UNL     1      -9.930  16.664  67.234  1.00  0.00    -0.270 C  
BRANCH   9  10
HETATM   10  C   UNL     1      -9.479  17.028  65.797  1.00  0.00     0.042 C  
BRANCH  10  11
HETATM   11  N   UNL     1      -9.573  15.962  64.816  1.00  0.00     0.493 NA 
HETATM   12  C   UNL     1      -8.719  14.900  64.690  1.00  0.00     5.563 A  
HETATM   13  C   UNL     1     -10.562  15.792  63.888  1.00  0.00     2.472 A  
HETATM   14  N   UNL     1     -10.315  14.774  63.096  1.00  0.00     5.411 NA 
HETATM   15  C   UNL     1      -9.169  14.210  63.590  1.00  0.00     7.443 A  
ENDBRANCH  10  11
ENDBRANCH   9  10
BRANCH   9  16
HETATM   16  O   UNL     1     -10.306  15.277  67.279  1.00  0.00    -0.256 OA 
BRANCH  16  17
HETATM   17  C   UNL     1     -11.643  15.067  67.742  1.00  0.00    -0.319 C  
BRANCH  17  18
HETATM   18  C   UNL     1     -11.796  13.624  68.140  1.00  0.00    -0.407 A  
HETATM   19  C   UNL     1     -10.807  12.660  67.871  1.00  0.00    -0.219 A  
HETATM   20 CL   UNL     1      -9.344  13.038  67.026  1.00  0.00    -0.229 Cl 
HETATM   21  C   UNL     1     -12.105  10.934  68.968  1.00  0.00    -0.240 A  
HETATM   22  C   UNL     1     -10.961  11.331  68.284  1.00  0.00    -0.275 A  
HETATM   23  C   UNL     1     -13.110  11.864  69.218  1.00  0.00     1.948 A  
HETATM   24  C   UNL     1     -12.961  13.191  68.804  1.00  0.00     1.896 A  
HETATM   25 CL   UNL     1     -14.268  14.272  69.157  1.00  0.00     6.638 Cl 
ENDBRANCH  17  18
ENDBRANCH  16  17
ENDBRANCH   9  16
ENDBRANCH   6   9
TORSDOF 6
ENDMDL
MODEL      368
REMARK 921   NORMALIZED FREE ENERGY PREDICTED BY IDOCK:   34.84 KCAL/MOL
REMARK 922        TOTAL FREE ENERGY PREDICTED BY IDOCK:   46.04 KCAL/MOL
REMARK 923 INTER-LIGAND FREE ENERGY PREDICTED BY IDOCK:   30.90 KCAL/MOL
REMARK 924 INTRA-LIGAND FREE ENERGY PREDICTED BY IDOCK:   15.14 KCAL/MOL
REMARK 927      BINDING AFFINITY PREDICTED BY RF-SCORE:    0.00 PKD
ROOT
HETATM    1 CL   UNL     1      -9.444  17.714  65.873  1.00  0.00    -0.061 Cl 
HETATM    2  C   UNL     1      -9.793  16.470  67.008  1.00  0.00    -0.257 A  
HETATM    3  C   UNL     1      -8.961  15.356  67.092  1.00  0.00    -0.236 A  
HETATM    4  C   UNL     1      -9.214  14.368  68.048  1.00  0.00    -0.193 A  
HETATM    5 CL   UNL     1      -8.143  13.012  68.096  1.00  0.00    -0.147 Cl 
HETATM    6  C   UNL     1     -10.298  14.490  68.933  1.00  0.00    -0.237 A  
HETATM    7  C   UNL     1     -11.143  15.611  68.800  1.00  0.00    -0.307 A  
HETATM    8  C   UNL     1     -10.892  16.596  67.847  1.00  0.00    -0.321 A  
ENDROOT
BRANCH   6   9
HETATM    9  C   UNL     1     -10.546  13.498  70.063  1.00  0.00     0.992 C  
BRANCH   9  10
HETATM   10  C   UNL     1     -11.887  13.773  70.788  1.00  0.00    -0.135 C  
BRANCH  10  11
HETATM   11  N   UNL     1     -12.197  12.891  71.900  1.00  0.00     0.503 NA 
HETATM   12  C   UNL     1     -13.161  11.921  71.919  1.00  0.00    -0.362 A  
HETATM   13  C   UNL     1     -11.542  12.829  73.097  1.00  0.00     7.639 A  
HETATM   14  N   UNL     1     -12.115  11.982  73.920  1.00  0.00    10.667 NA 
HETATM   15  C   UNL     1     -13.125  11.408  73.194  1.00  0.00     4.278 A  
ENDBRANCH  10  11
ENDBRANCH   9  10
BRANCH   9  16
HETATM   16  O   UNL     1     -10.526  12.139  69.594  1.00  0.00     0.298 OA 
BRANCH  16  17
HETATM   17  C   UNL     1      -9.435  11.377  70.116  1.00  0.00     2.307 C  
BRANCH  17  18
HETATM   18  C   UNL     1      -9.960  10.444  71.175  1.00  0.00     1.973 A  
HETATM   19  C   UNL     1      -9.110   9.657  71.972  1.00  0.00     2.101 A  
HETATM   20 CL   UNL     1      -7.390   9.659  71.784  1.00  0.00     0.682 Cl 
HETATM   21  C   UNL     1     -10.996   8.755  73.197  1.00  0.00     1.280 A  
HETATM   22  C   UNL     1      -9.624   8.824  72.974  1.00  0.00     0.376 A  
HETATM   23  C   UNL     1     -11.857   9.503  72.399  1.00  0.00     0.343 A  
HETATM   24  C   UNL     1     -11.347  10.332  71.397  1.00  0.00     0.093 A  
HETATM   25 CL   UNL     1     -12.499  11.219  70.454  1.00  0.00    -0.370 Cl 
ENDBRANCH  17  18
ENDBRANCH  16  17
ENDBRANCH   9  16
ENDBRANCH   6   9
TORSDOF 6
ENDMDL
