MODEL        1
REMARK 921   NORMALIZED FREE ENERGY PREDICTED BY IDOCK:   -4.87 KCAL/MOL
REMARK 922        TOTAL FREE ENERGY PREDICTED BY IDOCK:   -5.56 KCAL/MOL
REMARK 923 INTER-LIGAND FREE ENERGY PREDICTED BY IDOCK:   -5.44 KCAL/MOL
REMARK 924 INTRA-LIGAND FREE ENERGY PREDICTED BY IDOCK:   -0.13 KCAL/MOL
REMARK 927      BINDING AFFINITY PREDICTED BY RF-SCORE:    0.00 PKD
ROOT
HETATM    1  C   UNL     1     -12.883  15.754  73.612  1.00  0.00    -0.592 C  
HETATM    2  O   UNL     1     -13.685  15.286  72.536  1.00  0.00    -0.449 OA 
ENDROOT
BRANCH   2   3
HETATM    3  C   UNL     1     -13.220  14.211  71.824  1.00  0.00    -0.373 A  
HETATM    4  C   UNL     1     -13.425  12.871  72.170  1.00  0.00    -0.619 A  
HETATM    5  C   UNL     1     -12.895  11.830  71.389  1.00  0.00    -0.440 A  
HETATM    6  H   UNL     1     -11.739  16.009  69.562  1.00  0.00     0.000 HD 
HETATM    7  C   UNL     1     -12.144  12.152  70.252  1.00  0.00    -0.385 A  
HETATM    8  C   UNL     1     -11.934  13.485  69.891  1.00  0.00    -0.416 A  
HETATM    9  O   UNL     1     -12.249  15.812  70.338  1.00  0.00    -0.392 OA 
HETATM   10  C   UNL     1     -12.469  14.503  70.678  1.00  0.00    -0.343 A  
BRANCH   5  11
HETATM   11  C   UNL     1     -13.026  10.416  71.779  1.00  0.00    -0.580 C  
HETATM   12  C   UNL     1     -12.059   9.493  71.655  1.00  0.00    -0.474 C  
HETATM   13  C   UNL     1     -12.240   8.052  72.013  1.00  0.00    -0.374 C  
ENDBRANCH   5  11
ENDBRANCH   2   3
TORSDOF 2
ENDMDL
MODEL        2
REMARK 921   NORMALIZED FREE ENERGY PREDICTED BY IDOCK:   -4.77 KCAL/MOL
REMARK 922        TOTAL FREE ENERGY PREDICTED BY IDOCK:   -5.45 KCAL/MOL
REMARK 923 INTER-LIGAND FREE ENERGY PREDICTED BY IDOCK:   -5.29 KCAL/MOL
REMARK 924 INTRA-LIGAND FREE ENERGY PREDICTED BY IDOCK:   -0.16 KCAL/MOL
REMARK 927      BINDING AFFINITY PREDICTED BY RF-SCORE:    0.00 PKD
ROOT
HETATM    1  C   UNL     1     -12.094  12.603  63.344  1.00  0.00    -0.525 C  
HETATM    2  O   UNL     1     -12.313  13.965  63.681  1.00  0.00    -0.696 OA 
ENDROOT
BRANCH   2   3
HETATM    3  C   UNL     1     -11.928  14.375  64.932  1.00  0.00    -0.426 A  
HETATM    4  C   UNL     1     -12.037  13.606  66.096  1.00  0.00    -0.477 A  
HETATM    5  C   UNL     1     -11.634  14.114  67.342  1.00  0.00    -0.399 A  
HETATM    6  H   UNL     1     -10.963  17.321  63.963  1.00  0.00     0.000 HD 
HETATM    7  C   UNL     1     -11.124  15.417  67.409  1.00  0.00    -0.311 A  
HETATM    8  C   UNL     1     -11.006  16.196  66.255  1.00  0.00    -0.031 A  
HETATM    9  O   UNL     1     -11.314  16.441  63.897  1.00  0.00    -0.967 OA 
HETATM   10  C   UNL     1     -11.411  15.673  65.029  1.00  0.00    -0.253 A  
BRANCH   5  11
HETATM   11  C   UNL     1     -11.815  13.356  68.591  1.00  0.00    -0.397 C  
HETATM   12  C   UNL     1     -11.796  12.017  68.687  1.00  0.00    -0.366 C  
HETATM   13  C   UNL     1     -12.034  11.275  69.963  1.00  0.00    -0.447 C  
ENDBRANCH   5  11
ENDBRANCH   2   3
TORSDOF 2
ENDMDL
MODEL        3
REMARK 921   NORMALIZED FREE ENERGY PREDICTED BY IDOCK:   -4.72 KCAL/MOL
REMARK 922        TOTAL FREE ENERGY PREDICTED BY IDOCK:   -5.40 KCAL/MOL
REMARK 923 INTER-LIGAND FREE ENERGY PREDICTED BY IDOCK:   -5.22 KCAL/MOL
REMARK 924 INTRA-LIGAND FREE ENERGY PREDICTED BY IDOCK:   -0.18 KCAL/MOL
REMARK 927      BINDING AFFINITY PREDICTED BY RF-SCORE:    0.00 PKD
ROOT
HETATM    1  C   UNL     1      -9.823  11.447  63.154  1.00  0.00    -0.388 C  
HETATM    2  O   UNL     1     -11.187  11.665  63.484  1.00  0.00    -0.410 OA 
ENDROOT
BRANCH   2   3
HETATM    3  C   UNL     1     -11.457  12.279  64.681  1.00  0.00    -0.336 A  
HETATM    4  C   UNL     1     -11.083  11.785  65.936  1.00  0.00    -0.355 A  
HETATM    5  C   UNL     1     -11.417  12.473  67.115  1.00  0.00    -0.414 A  
HETATM    6  H   UNL     1     -13.052  14.774  63.349  1.00  0.00     0.000 HD 
HETATM    7  C   UNL     1     -12.144  13.666  67.019  1.00  0.00    -0.423 A  
HETATM    8  C   UNL     1     -12.520  14.174  65.773  1.00  0.00    -0.490 A  
HETATM    9  O   UNL     1     -12.562  13.961  63.393  1.00  0.00    -0.853 OA 
HETATM   10  C   UNL     1     -12.178  13.477  64.616  1.00  0.00    -0.406 A  
BRANCH   5  11
HETATM   11  C   UNL     1     -11.109  11.931  68.449  1.00  0.00    -0.292 C  
HETATM   12  C   UNL     1     -11.917  11.125  69.156  1.00  0.00    -0.413 C  
HETATM   13  C   UNL     1     -11.597  10.632  70.531  1.00  0.00    -0.444 C  
ENDBRANCH   5  11
ENDBRANCH   2   3
TORSDOF 2
ENDMDL
MODEL        4
REMARK 921   NORMALIZED FREE ENERGY PREDICTED BY IDOCK:   -4.72 KCAL/MOL
REMARK 922        TOTAL FREE ENERGY PREDICTED BY IDOCK:   -5.40 KCAL/MOL
REMARK 923 INTER-LIGAND FREE ENERGY PREDICTED BY IDOCK:   -5.24 KCAL/MOL
REMARK 924 INTRA-LIGAND FREE ENERGY PREDICTED BY IDOCK:   -0.16 KCAL/MOL
REMARK 927      BINDING AFFINITY PREDICTED BY RF-SCORE:    0.00 PKD
ROOT
HETATM    1  C   UNL     1      -8.572  16.564  66.189  1.00  0.00    -0.299 C  
HETATM    2  O   UNL     1      -9.941  16.727  65.845  1.00  0.00    -0.426 OA 
ENDROOT
BRANCH   2   3
HETATM    3  C   UNL     1     -10.706  15.594  65.746  1.00  0.00    -0.341 A  
HETATM    4  C   UNL     1     -10.677  14.526  66.650  1.00  0.00    -0.305 A  
HETATM    5  C   UNL     1     -11.484  13.392  66.461  1.00  0.00    -0.372 A  
HETATM    6  H   UNL     1     -12.160  16.492  62.985  1.00  0.00     0.000 HD 
HETATM    7  C   UNL     1     -12.322  13.337  65.340  1.00  0.00    -0.528 A  
HETATM    8  C   UNL     1     -12.366  14.398  64.431  1.00  0.00    -0.428 A  
HETATM    9  O   UNL     1     -11.583  16.547  63.737  1.00  0.00    -1.109 OA 
HETATM   10  C   UNL     1     -11.557  15.513  64.637  1.00  0.00    -0.281 A  
BRANCH   5  11
HETATM   11  C   UNL     1     -11.410  12.221  67.351  1.00  0.00    -0.389 C  
HETATM   12  C   UNL     1     -11.822  12.200  68.628  1.00  0.00    -0.358 C  
HETATM   13  C   UNL     1     -11.687  11.009  69.522  1.00  0.00    -0.400 C  
ENDBRANCH   5  11
ENDBRANCH   2   3
TORSDOF 2
ENDMDL
MODEL        5
REMARK 921   NORMALIZED FREE ENERGY PREDICTED BY IDOCK:   -4.65 KCAL/MOL
REMARK 922        TOTAL FREE ENERGY PREDICTED BY IDOCK:   -5.33 KCAL/MOL
REMARK 923 INTER-LIGAND FREE ENERGY PREDICTED BY IDOCK:   -5.14 KCAL/MOL
REMARK 924 INTRA-LIGAND FREE ENERGY PREDICTED BY IDOCK:   -0.19 KCAL/MOL
REMARK 927      BINDING AFFINITY PREDICTED BY RF-SCORE:    0.00 PKD
ROOT
HETATM    1  C   UNL     1     -11.353  10.839  68.346  1.00  0.00    -0.302 C  
HETATM    2  O   UNL     1     -11.913  12.003  67.755  1.00  0.00    -0.538 OA 
ENDROOT
BRANCH   2   3
HETATM    3  C   UNL     1     -11.886  13.159  68.492  1.00  0.00    -0.342 A  
HETATM    4  C   UNL     1     -12.107  13.235  69.872  1.00  0.00    -0.377 A  
HETATM    5  C   UNL     1     -12.079  14.468  70.545  1.00  0.00    -0.395 A  
HETATM    6  H   UNL     1     -11.265  15.082  65.951  1.00  0.00     0.000 HD 
HETATM    7  C   UNL     1     -11.832  15.635  69.810  1.00  0.00    -0.376 A  
HETATM    8  C   UNL     1     -11.605  15.574  68.433  1.00  0.00    -0.368 A  
HETATM    9  O   UNL     1     -11.434  14.280  66.430  1.00  0.00    -0.333 OA 
HETATM   10  C   UNL     1     -11.637  14.341  67.784  1.00  0.00    -0.354 A  
BRANCH   5  11
HETATM   11  C   UNL     1     -12.391  14.583  71.979  1.00  0.00    -0.367 C  
HETATM   12  C   UNL     1     -12.099  15.645  72.746  1.00  0.00    -0.572 C  
HETATM   13  C   UNL     1     -12.385  15.712  74.212  1.00  0.00    -0.813 C  
ENDBRANCH   5  11
ENDBRANCH   2   3
TORSDOF 2
ENDMDL
MODEL        6
REMARK 921   NORMALIZED FREE ENERGY PREDICTED BY IDOCK:   -4.65 KCAL/MOL
REMARK 922        TOTAL FREE ENERGY PREDICTED BY IDOCK:   -5.33 KCAL/MOL
REMARK 923 INTER-LIGAND FREE ENERGY PREDICTED BY IDOCK:   -5.13 KCAL/MOL
REMARK 924 INTRA-LIGAND FREE ENERGY PREDICTED BY IDOCK:   -0.19 KCAL/MOL
REMARK 927      BINDING AFFINITY PREDICTED BY RF-SCORE:    0.00 PKD
ROOT
HETATM    1  C   UNL     1     -11.623  14.161  67.968  1.00  0.00    -0.334 C  
HETATM    2  O   UNL     1     -11.626  14.610  69.316  1.00  0.00    -0.268 OA 
ENDROOT
BRANCH   2   3
HETATM    3  C   UNL     1     -12.250  13.816  70.244  1.00  0.00    -0.359 A  
HETATM    4  C   UNL     1     -12.088  12.430  70.350  1.00  0.00    -0.381 A  
HETATM    5  C   UNL     1     -12.783  11.691  71.323  1.00  0.00    -0.444 A  
HETATM    6  H   UNL     1     -13.895  16.254  71.620  1.00  0.00     0.000 HD 
HETATM    7  C   UNL     1     -13.655  12.363  72.189  1.00  0.00    -0.405 A  
HETATM    8  C   UNL     1     -13.823  13.747  72.097  1.00  0.00    -0.649 A  
HETATM    9  O   UNL     1     -13.302  15.816  71.021  1.00  0.00    -0.580 OA 
HETATM   10  C   UNL     1     -13.125  14.462  71.127  1.00  0.00    -0.352 A  
BRANCH   5  11
HETATM   11  C   UNL     1     -12.694  10.223  71.400  1.00  0.00    -0.547 C  
HETATM   12  C   UNL     1     -13.715   9.407  71.705  1.00  0.00    -0.418 C  
HETATM   13  C   UNL     1     -13.581   7.923  71.825  1.00  0.00    -0.396 C  
ENDBRANCH   5  11
ENDBRANCH   2   3
TORSDOF 2
ENDMDL
MODEL        7
REMARK 921   NORMALIZED FREE ENERGY PREDICTED BY IDOCK:   -4.64 KCAL/MOL
REMARK 922        TOTAL FREE ENERGY PREDICTED BY IDOCK:   -5.31 KCAL/MOL
REMARK 923 INTER-LIGAND FREE ENERGY PREDICTED BY IDOCK:   -5.14 KCAL/MOL
REMARK 924 INTRA-LIGAND FREE ENERGY PREDICTED BY IDOCK:   -0.17 KCAL/MOL
REMARK 927      BINDING AFFINITY PREDICTED BY RF-SCORE:    0.00 PKD
ROOT
HETATM    1  C   UNL     1     -11.500  15.746  68.983  1.00  0.00    -0.391 C  
HETATM    2  O   UNL     1     -12.398  15.710  70.083  1.00  0.00    -0.395 OA 
ENDROOT
BRANCH   2   3
HETATM    3  C   UNL     1     -12.620  14.494  70.676  1.00  0.00    -0.352 A  
HETATM    4  C   UNL     1     -12.073  13.281  70.245  1.00  0.00    -0.405 A  
HETATM    5  C   UNL     1     -12.370  12.076  70.904  1.00  0.00    -0.384 A  
HETATM    6  H   UNL     1     -14.614  15.667  72.955  1.00  0.00     0.000 HD 
HETATM    7  C   UNL     1     -13.235  12.102  72.005  1.00  0.00    -0.496 A  
HETATM    8  C   UNL     1     -13.786  13.306  72.450  1.00  0.00    -0.678 A  
HETATM    9  O   UNL     1     -14.032  15.671  72.204  1.00  0.00    -0.499 OA 
HETATM   10  C   UNL     1     -13.479  14.490  71.783  1.00  0.00    -0.375 A  
BRANCH   5  11
HETATM   11  C   UNL     1     -11.874  10.777  70.419  1.00  0.00    -0.450 C  
HETATM   12  C   UNL     1     -11.326   9.826  71.192  1.00  0.00    -0.459 C  
HETATM   13  C   UNL     1     -10.786   8.537  70.661  1.00  0.00    -0.255 C  
ENDBRANCH   5  11
ENDBRANCH   2   3
TORSDOF 2
ENDMDL
MODEL        8
REMARK 921   NORMALIZED FREE ENERGY PREDICTED BY IDOCK:   -4.63 KCAL/MOL
REMARK 922        TOTAL FREE ENERGY PREDICTED BY IDOCK:   -5.29 KCAL/MOL
REMARK 923 INTER-LIGAND FREE ENERGY PREDICTED BY IDOCK:   -5.12 KCAL/MOL
REMARK 924 INTRA-LIGAND FREE ENERGY PREDICTED BY IDOCK:   -0.17 KCAL/MOL
REMARK 927      BINDING AFFINITY PREDICTED BY RF-SCORE:    0.00 PKD
ROOT
HETATM    1  C   UNL     1     -12.107  16.114  72.536  1.00  0.00    -0.550 C  
HETATM    2  O   UNL     1     -12.801  15.842  71.327  1.00  0.00    -0.471 OA 
ENDROOT
BRANCH   2   3
HETATM    3  C   UNL     1     -12.453  14.706  70.642  1.00  0.00    -0.344 A  
HETATM    4  C   UNL     1     -12.605  13.402  71.125  1.00  0.00    -0.430 A  
HETATM    5  C   UNL     1     -12.204  12.293  70.361  1.00  0.00    -0.371 A  
HETATM    6  H   UNL     1     -11.335  16.293  68.039  1.00  0.00     0.000 HD 
HETATM    7  C   UNL     1     -11.636  12.511  69.099  1.00  0.00    -0.375 A  
HETATM    8  C   UNL     1     -11.482  13.807  68.601  1.00  0.00    -0.336 A  
HETATM    9  O   UNL     1     -11.719  16.167  68.899  1.00  0.00    -0.357 OA 
HETATM   10  C   UNL     1     -11.886  14.893  69.375  1.00  0.00    -0.324 A  
BRANCH   5  11
HETATM   11  C   UNL     1     -12.277  10.917  70.881  1.00  0.00    -0.485 C  
HETATM   12  C   UNL     1     -13.147  10.492  71.809  1.00  0.00    -0.570 C  
HETATM   13  C   UNL     1     -13.163   9.099  72.354  1.00  0.00    -0.512 C  
ENDBRANCH   5  11
ENDBRANCH   2   3
TORSDOF 2
ENDMDL
MODEL        9
REMARK 921   NORMALIZED FREE ENERGY PREDICTED BY IDOCK:   -4.61 KCAL/MOL
REMARK 922        TOTAL FREE ENERGY PREDICTED BY IDOCK:   -5.28 KCAL/MOL
REMARK 923 INTER-LIGAND FREE ENERGY PREDICTED BY IDOCK:   -5.12 KCAL/MOL
REMARK 924 INTRA-LIGAND FREE ENERGY PREDICTED BY IDOCK:   -0.16 KCAL/MOL
REMARK 927      BINDING AFFINITY PREDICTED BY RF-SCORE:    0.00 PKD
ROOT
HETATM    1  C   UNL     1     -11.074  14.842  67.840  1.00  0.00    -0.298 C  
HETATM    2  O   UNL     1     -11.580  13.516  67.900  1.00  0.00    -0.300 OA 
ENDROOT
BRANCH   2   3
HETATM    3  C   UNL     1     -12.010  13.061  69.120  1.00  0.00    -0.271 A  
HETATM    4  C   UNL     1     -12.324  13.874  70.214  1.00  0.00    -0.413 A  
HETATM    5  C   UNL     1     -12.742  13.319  71.435  1.00  0.00    -0.401 A  
HETATM    6  H   UNL     1     -11.871   9.922  68.297  1.00  0.00     0.000 HD 
HETATM    7  C   UNL     1     -12.834  11.926  71.549  1.00  0.00    -0.421 A  
HETATM    8  C   UNL     1     -12.530  11.101  70.464  1.00  0.00    -0.414 A  
HETATM    9  O   UNL     1     -11.799  10.865  68.201  1.00  0.00    -0.564 OA 
HETATM   10  C   UNL     1     -12.118  11.671  69.261  1.00  0.00    -0.259 A  
BRANCH   5  11
HETATM   11  C   UNL     1     -12.996  14.149  72.625  1.00  0.00    -0.505 C  
HETATM   12  C   UNL     1     -12.180  15.116  73.075  1.00  0.00    -0.499 C  
HETATM   13  C   UNL     1     -12.442  15.907  74.317  1.00  0.00    -0.773 C  
ENDBRANCH   5  11
ENDBRANCH   2   3
TORSDOF 2
ENDMDL
MODEL       10
REMARK 921   NORMALIZED FREE ENERGY PREDICTED BY IDOCK:   -4.60 KCAL/MOL
REMARK 922        TOTAL FREE ENERGY PREDICTED BY IDOCK:   -5.26 KCAL/MOL
REMARK 923 INTER-LIGAND FREE ENERGY PREDICTED BY IDOCK:   -5.08 KCAL/MOL
REMARK 924 INTRA-LIGAND FREE ENERGY PREDICTED BY IDOCK:   -0.18 KCAL/MOL
REMARK 927      BINDING AFFINITY PREDICTED BY RF-SCORE:    0.00 PKD
ROOT
HETATM    1  C   UNL     1     -11.729  12.283  68.432  1.00  0.00    -0.337 C  
HETATM    2  O   UNL     1     -11.991  12.242  67.036  1.00  0.00    -0.576 OA 
ENDROOT
BRANCH   2   3
HETATM    3  C   UNL     1     -11.704  13.367  66.307  1.00  0.00    -0.366 A  
HETATM    4  C   UNL     1     -10.894  14.421  66.746  1.00  0.00    -0.301 A  
HETATM    5  C   UNL     1     -10.668  15.548  65.938  1.00  0.00    -0.346 A  
HETATM    6  H   UNL     1     -13.498  12.493  63.747  1.00  0.00     0.000 HD 
HETATM    7  C   UNL     1     -11.274  15.609  64.677  1.00  0.00    -0.380 A  
HETATM    8  C   UNL     1     -12.081  14.562  64.223  1.00  0.00    -0.448 A  
HETATM    9  O   UNL     1     -13.099  12.434  64.606  1.00  0.00    -0.825 OA 
HETATM   10  C   UNL     1     -12.293  13.454  65.040  1.00  0.00    -0.436 A  
BRANCH   5  11
HETATM   11  C   UNL     1      -9.890  16.706  66.410  1.00  0.00    -0.308 C  
HETATM   12  C   UNL     1     -10.305  17.981  66.362  1.00  0.00    -0.382 C  
HETATM   13  C   UNL     1      -9.470  19.141  66.804  1.00  0.00    -0.376 C  
ENDBRANCH   5  11
ENDBRANCH   2   3
TORSDOF 2
ENDMDL
MODEL       11
REMARK 921   NORMALIZED FREE ENERGY PREDICTED BY IDOCK:   -4.56 KCAL/MOL
REMARK 922        TOTAL FREE ENERGY PREDICTED BY IDOCK:   -5.23 KCAL/MOL
REMARK 923 INTER-LIGAND FREE ENERGY PREDICTED BY IDOCK:   -5.05 KCAL/MOL
REMARK 924 INTRA-LIGAND FREE ENERGY PREDICTED BY IDOCK:   -0.18 KCAL/MOL
REMARK 927      BINDING AFFINITY PREDICTED BY RF-SCORE:    0.00 PKD
ROOT
HETATM    1  C   UNL     1     -10.339  18.199  67.439  1.00  0.00    -0.389 C  
HETATM    2  O   UNL     1     -10.581  16.835  67.125  1.00  0.00    -0.315 OA 
ENDROOT
BRANCH   2   3
HETATM    3  C   UNL     1     -11.049  16.029  68.130  1.00  0.00    -0.344 A  
HETATM    4  C   UNL     1     -11.097  16.382  69.484  1.00  0.00    -0.293 A  
HETATM    5  C   UNL     1     -11.577  15.484  70.452  1.00  0.00    -0.359 A  
HETATM    6  H   UNL     1     -11.731  13.528  66.175  1.00  0.00     0.000 HD 
HETATM    7  C   UNL     1     -12.005  14.215  70.044  1.00  0.00    -0.404 A  
HETATM    8  C   UNL     1     -11.969  13.849  68.696  1.00  0.00    -0.401 A  
HETATM    9  O   UNL     1     -11.433  14.393  66.431  1.00  0.00    -0.342 OA 
HETATM   10  C   UNL     1     -11.489  14.754  67.752  1.00  0.00    -0.345 A  
BRANCH   5  11
HETATM   11  C   UNL     1     -11.558  15.801  71.890  1.00  0.00    -0.545 C  
HETATM   12  C   UNL     1     -12.347  15.229  72.813  1.00  0.00    -0.496 C  
HETATM   13  C   UNL     1     -12.338  15.609  74.259  1.00  0.00    -0.813 C  
ENDBRANCH   5  11
ENDBRANCH   2   3
TORSDOF 2
ENDMDL
MODEL       12
REMARK 921   NORMALIZED FREE ENERGY PREDICTED BY IDOCK:   -4.52 KCAL/MOL
REMARK 922        TOTAL FREE ENERGY PREDICTED BY IDOCK:   -5.18 KCAL/MOL
REMARK 923 INTER-LIGAND FREE ENERGY PREDICTED BY IDOCK:   -5.04 KCAL/MOL
REMARK 924 INTRA-LIGAND FREE ENERGY PREDICTED BY IDOCK:   -0.13 KCAL/MOL
REMARK 927      BINDING AFFINITY PREDICTED BY RF-SCORE:    0.00 PKD
ROOT
HETATM    1  C   UNL     1     -12.578  13.775  65.621  1.00  0.00    -0.509 C  
HETATM    2  O   UNL     1     -11.471  13.668  66.504  1.00  0.00    -0.314 OA 
ENDROOT
BRANCH   2   3
HETATM    3  C   UNL     1     -11.739  13.401  67.822  1.00  0.00    -0.359 A  
HETATM    4  C   UNL     1     -12.010  14.369  68.797  1.00  0.00    -0.331 A  
HETATM    5  C   UNL     1     -12.257  14.005  70.131  1.00  0.00    -0.425 A  
HETATM    6  H   UNL     1     -11.419  10.185  67.515  1.00  0.00     0.000 HD 
HETATM    7  C   UNL     1     -12.221  12.650  70.482  1.00  0.00    -0.383 A  
HETATM    8  C   UNL     1     -11.956  11.672  69.519  1.00  0.00    -0.383 A  
HETATM    9  O   UNL     1     -11.435  11.099  67.258  1.00  0.00    -0.473 OA 
HETATM   10  C   UNL     1     -11.715  12.053  68.201  1.00  0.00    -0.333 A  
BRANCH   5  11
HETATM   11  C   UNL     1     -12.461  15.009  71.190  1.00  0.00    -0.400 C  
HETATM   12  C   UNL     1     -12.588  14.731  72.497  1.00  0.00    -0.434 C  
HETATM   13  C   UNL     1     -12.845  15.769  73.542  1.00  0.00    -0.702 C  
ENDBRANCH   5  11
ENDBRANCH   2   3
TORSDOF 2
ENDMDL
MODEL       13
REMARK 921   NORMALIZED FREE ENERGY PREDICTED BY IDOCK:   -4.50 KCAL/MOL
REMARK 922        TOTAL FREE ENERGY PREDICTED BY IDOCK:   -5.16 KCAL/MOL
REMARK 923 INTER-LIGAND FREE ENERGY PREDICTED BY IDOCK:   -4.99 KCAL/MOL
REMARK 924 INTRA-LIGAND FREE ENERGY PREDICTED BY IDOCK:   -0.16 KCAL/MOL
REMARK 927      BINDING AFFINITY PREDICTED BY RF-SCORE:    0.00 PKD
ROOT
HETATM    1  C   UNL     1     -11.704  14.505  67.786  1.00  0.00    -0.374 C  
HETATM    2  O   UNL     1     -12.496  14.238  66.638  1.00  0.00    -0.407 OA 
ENDROOT
BRANCH   2   3
HETATM    3  C   UNL     1     -12.004  13.337  65.728  1.00  0.00    -0.417 A  
HETATM    4  C   UNL     1     -11.362  12.137  66.055  1.00  0.00    -0.410 A  
HETATM    5  C   UNL     1     -10.872  11.281  65.055  1.00  0.00    -0.285 A  
HETATM    6  H   UNL     1     -12.860  15.087  63.130  1.00  0.00     0.000 HD 
HETATM    7  C   UNL     1     -11.027  11.649  63.713  1.00  0.00    -0.495 A  
HETATM    8  C   UNL     1     -11.669  12.841  63.371  1.00  0.00    -0.556 A  
HETATM    9  O   UNL     1     -12.762  14.857  64.046  1.00  0.00    -0.792 OA 
HETATM   10  C   UNL     1     -12.149  13.677  64.377  1.00  0.00    -0.427 A  
BRANCH   5  11
HETATM   11  C   UNL     1     -10.120  10.055  65.375  1.00  0.00    -0.317 C  
HETATM   12  C   UNL     1     -10.029   9.507  66.597  1.00  0.00    -0.314 C  
HETATM   13  C   UNL     1      -9.216   8.289  66.899  1.00  0.00    -0.197 C  
ENDBRANCH   5  11
ENDBRANCH   2   3
TORSDOF 2
ENDMDL
MODEL       14
REMARK 921   NORMALIZED FREE ENERGY PREDICTED BY IDOCK:   -4.50 KCAL/MOL
REMARK 922        TOTAL FREE ENERGY PREDICTED BY IDOCK:   -5.15 KCAL/MOL
REMARK 923 INTER-LIGAND FREE ENERGY PREDICTED BY IDOCK:   -5.00 KCAL/MOL
REMARK 924 INTRA-LIGAND FREE ENERGY PREDICTED BY IDOCK:   -0.16 KCAL/MOL
REMARK 927      BINDING AFFINITY PREDICTED BY RF-SCORE:    0.00 PKD
ROOT
HETATM    1  C   UNL     1     -10.665  16.716  69.105  1.00  0.00    -0.342 C  
HETATM    2  O   UNL     1     -11.867  15.960  69.134  1.00  0.00    -0.389 OA 
ENDROOT
BRANCH   2   3
HETATM    3  C   UNL     1     -11.789  14.637  68.779  1.00  0.00    -0.313 A  
HETATM    4  C   UNL     1     -11.704  14.164  67.465  1.00  0.00    -0.418 A  
HETATM    5  C   UNL     1     -11.645  12.787  67.192  1.00  0.00    -0.426 A  
HETATM    6  H   UNL     1     -11.935  13.533  71.829  1.00  0.00     0.000 HD 
HETATM    7  C   UNL     1     -11.681  11.883  68.261  1.00  0.00    -0.385 A  
HETATM    8  C   UNL     1     -11.761  12.341  69.579  1.00  0.00    -0.398 A  
HETATM    9  O   UNL     1     -11.916  14.162  71.118  1.00  0.00    -0.335 OA 
HETATM   10  C   UNL     1     -11.818  13.710  69.828  1.00  0.00    -0.327 A  
BRANCH   5  11
HETATM   11  C   UNL     1     -11.641  12.262  65.816  1.00  0.00    -0.443 C  
HETATM   12  C   UNL     1     -12.478  12.653  64.843  1.00  0.00    -0.564 C  
HETATM   13  C   UNL     1     -12.481  12.064  63.468  1.00  0.00    -0.654 C  
ENDBRANCH   5  11
ENDBRANCH   2   3
TORSDOF 2
ENDMDL
MODEL       15
REMARK 921   NORMALIZED FREE ENERGY PREDICTED BY IDOCK:   -4.50 KCAL/MOL
REMARK 922        TOTAL FREE ENERGY PREDICTED BY IDOCK:   -5.15 KCAL/MOL
REMARK 923 INTER-LIGAND FREE ENERGY PREDICTED BY IDOCK:   -4.95 KCAL/MOL
REMARK 924 INTRA-LIGAND FREE ENERGY PREDICTED BY IDOCK:   -0.20 KCAL/MOL
REMARK 927      BINDING AFFINITY PREDICTED BY RF-SCORE:    0.00 PKD
ROOT
HETATM    1  C   UNL     1     -14.174   7.427  71.821  1.00  0.00    -0.403 C  
HETATM    2  O   UNL     1     -12.869   7.949  72.025  1.00  0.00    -0.307 OA 
ENDROOT
BRANCH   2   3
HETATM    3  C   UNL     1     -12.631   9.233  71.605  1.00  0.00    -0.365 A  
HETATM    4  C   UNL     1     -13.245  10.375  72.131  1.00  0.00    -0.418 A  
HETATM    5  C   UNL     1     -12.953  11.653  71.627  1.00  0.00    -0.483 A  
HETATM    6  H   UNL     1     -10.498   8.373  69.313  1.00  0.00     0.000 HD 
HETATM    7  C   UNL     1     -12.036  11.773  70.575  1.00  0.00    -0.439 A  
HETATM    8  C   UNL     1     -11.412  10.642  70.042  1.00  0.00    -0.404 A  
HETATM    9  O   UNL     1     -11.119   8.270  70.024  1.00  0.00    -0.235 OA 
HETATM   10  C   UNL     1     -11.714   9.384  70.556  1.00  0.00    -0.198 A  
BRANCH   5  11
HETATM   11  C   UNL     1     -13.647  12.860  72.107  1.00  0.00    -0.589 C  
HETATM   12  C   UNL     1     -13.238  14.120  71.888  1.00  0.00    -0.468 C  
HETATM   13  C   UNL     1     -13.939  15.324  72.432  1.00  0.00    -0.642 C  
ENDBRANCH   5  11
ENDBRANCH   2   3
TORSDOF 2
ENDMDL
MODEL       16
REMARK 921   NORMALIZED FREE ENERGY PREDICTED BY IDOCK:   -4.49 KCAL/MOL
REMARK 922        TOTAL FREE ENERGY PREDICTED BY IDOCK:   -5.15 KCAL/MOL
REMARK 923 INTER-LIGAND FREE ENERGY PREDICTED BY IDOCK:   -4.98 KCAL/MOL
REMARK 924 INTRA-LIGAND FREE ENERGY PREDICTED BY IDOCK:   -0.17 KCAL/MOL
REMARK 927      BINDING AFFINITY PREDICTED BY RF-SCORE:    0.00 PKD
ROOT
HETATM    1  C   UNL     1     -13.153  11.467  71.746  1.00  0.00    -0.418 C  
HETATM    2  O   UNL     1     -13.603  12.758  72.130  1.00  0.00    -0.521 OA 
ENDROOT
BRANCH   2   3
HETATM    3  C   UNL     1     -12.957  13.839  71.588  1.00  0.00    -0.364 A  
HETATM    4  C   UNL     1     -12.650  13.991  70.231  1.00  0.00    -0.354 A  
HETATM    5  C   UNL     1     -11.967  15.126  69.764  1.00  0.00    -0.367 A  
HETATM    6  H   UNL     1     -12.584  15.378  74.422  1.00  0.00     0.000 HD 
HETATM    7  C   UNL     1     -11.585  16.112  70.682  1.00  0.00    -0.347 A  
HETATM    8  C   UNL     1     -11.889  15.976  72.039  1.00  0.00    -0.623 A  
HETATM    9  O   UNL     1     -12.848  14.697  73.815  1.00  0.00    -0.492 OA 
HETATM   10  C   UNL     1     -12.567  14.843  72.482  1.00  0.00    -0.357 A  
BRANCH   5  11
HETATM   11  C   UNL     1     -11.560  15.269  68.356  1.00  0.00    -0.365 C  
HETATM   12  C   UNL     1     -11.846  14.393  67.381  1.00  0.00    -0.430 C  
HETATM   13  C   UNL     1     -11.374  14.541  65.969  1.00  0.00    -0.341 C  
ENDBRANCH   5  11
ENDBRANCH   2   3
TORSDOF 2
ENDMDL
MODEL       17
REMARK 921   NORMALIZED FREE ENERGY PREDICTED BY IDOCK:   -4.48 KCAL/MOL
REMARK 922        TOTAL FREE ENERGY PREDICTED BY IDOCK:   -5.13 KCAL/MOL
REMARK 923 INTER-LIGAND FREE ENERGY PREDICTED BY IDOCK:   -4.94 KCAL/MOL
REMARK 924 INTRA-LIGAND FREE ENERGY PREDICTED BY IDOCK:   -0.19 KCAL/MOL
REMARK 927      BINDING AFFINITY PREDICTED BY RF-SCORE:    0.00 PKD
ROOT
HETATM    1  C   UNL     1     -10.667  10.018  68.444  1.00  0.00    -0.234 C  
HETATM    2  O   UNL     1     -11.693  10.811  67.864  1.00  0.00    -0.543 OA 
ENDROOT
BRANCH   2   3
HETATM    3  C   UNL     1     -11.776  12.122  68.258  1.00  0.00    -0.342 A  
HETATM    4  C   UNL     1     -11.938  12.552  69.580  1.00  0.00    -0.339 A  
HETATM    5  C   UNL     1     -12.032  13.918  69.893  1.00  0.00    -0.405 A  
HETATM    6  H   UNL     1     -11.526  13.323  65.252  1.00  0.00     0.000 HD 
HETATM    7  C   UNL     1     -11.970  14.856  68.854  1.00  0.00    -0.295 A  
HETATM    8  C   UNL     1     -11.804  14.442  67.530  1.00  0.00    -0.418 A  
HETATM    9  O   UNL     1     -11.570  12.671  65.942  1.00  0.00    -0.352 OA 
HETATM   10  C   UNL     1     -11.712  13.082  67.241  1.00  0.00    -0.375 A  
BRANCH   5  11
HETATM   11  C   UNL     1     -12.286  14.391  71.264  1.00  0.00    -0.429 C  
HETATM   12  C   UNL     1     -13.188  15.326  71.599  1.00  0.00    -0.532 C  
HETATM   13  C   UNL     1     -13.388  15.821  72.996  1.00  0.00    -0.679 C  
ENDBRANCH   5  11
ENDBRANCH   2   3
TORSDOF 2
ENDMDL
MODEL       18
REMARK 921   NORMALIZED FREE ENERGY PREDICTED BY IDOCK:   -4.47 KCAL/MOL
REMARK 922        TOTAL FREE ENERGY PREDICTED BY IDOCK:   -5.12 KCAL/MOL
REMARK 923 INTER-LIGAND FREE ENERGY PREDICTED BY IDOCK:   -4.95 KCAL/MOL
REMARK 924 INTRA-LIGAND FREE ENERGY PREDICTED BY IDOCK:   -0.17 KCAL/MOL
REMARK 927      BINDING AFFINITY PREDICTED BY RF-SCORE:    0.00 PKD
ROOT
HETATM    1  C   UNL     1     -11.619  15.639  71.234  1.00  0.00    -0.428 C  
HETATM    2  O   UNL     1     -12.722  14.853  70.804  1.00  0.00    -0.322 OA 
ENDROOT
BRANCH   2   3
HETATM    3  C   UNL     1     -12.568  13.491  70.812  1.00  0.00    -0.309 A  
HETATM    4  C   UNL     1     -11.833  12.763  69.869  1.00  0.00    -0.371 A  
HETATM    5  C   UNL     1     -11.742  11.363  69.944  1.00  0.00    -0.424 A  
HETATM    6  H   UNL     1     -14.397  13.028  73.454  1.00  0.00     0.000 HD 
HETATM    7  C   UNL     1     -12.409  10.695  70.979  1.00  0.00    -0.507 A  
HETATM    8  C   UNL     1     -13.143  11.409  71.930  1.00  0.00    -0.505 A  
HETATM    9  O   UNL     1     -13.955  13.499  72.758  1.00  0.00    -0.733 OA 
HETATM   10  C   UNL     1     -13.220  12.797  71.838  1.00  0.00    -0.412 A  
BRANCH   5  11
HETATM   11  C   UNL     1     -11.046  10.569  68.917  1.00  0.00    -0.312 C  
HETATM   12  C   UNL     1     -10.988  10.881  67.613  1.00  0.00    -0.350 C  
HETATM   13  C   UNL     1     -10.315  10.027  66.586  1.00  0.00    -0.281 C  
ENDBRANCH   5  11
ENDBRANCH   2   3
TORSDOF 2
ENDMDL
MODEL       19
REMARK 921   NORMALIZED FREE ENERGY PREDICTED BY IDOCK:   -4.46 KCAL/MOL
REMARK 922        TOTAL FREE ENERGY PREDICTED BY IDOCK:   -5.11 KCAL/MOL
REMARK 923 INTER-LIGAND FREE ENERGY PREDICTED BY IDOCK:   -4.94 KCAL/MOL
REMARK 924 INTRA-LIGAND FREE ENERGY PREDICTED BY IDOCK:   -0.18 KCAL/MOL
REMARK 927      BINDING AFFINITY PREDICTED BY RF-SCORE:    0.00 PKD
ROOT
HETATM    1  C   UNL     1     -12.429  12.399  63.583  1.00  0.00    -0.508 C  
HETATM    2  O   UNL     1     -12.828  12.609  64.930  1.00  0.00    -0.763 OA 
ENDROOT
BRANCH   2   3
HETATM    3  C   UNL     1     -12.021  13.394  65.712  1.00  0.00    -0.407 A  
HETATM    4  C   UNL     1     -11.605  14.690  65.386  1.00  0.00    -0.345 A  
HETATM    5  C   UNL     1     -10.761  15.418  66.241  1.00  0.00    -0.312 A  
HETATM    6  H   UNL     1     -11.662  11.168  68.048  1.00  0.00     0.000 HD 
HETATM    7  C   UNL     1     -10.328  14.823  67.432  1.00  0.00    -0.242 A  
HETATM    8  C   UNL     1     -10.738  13.531  67.773  1.00  0.00    -0.262 A  
HETATM    9  O   UNL     1     -11.964  11.552  67.234  1.00  0.00    -0.605 OA 
HETATM   10  C   UNL     1     -11.576  12.826  66.912  1.00  0.00    -0.366 A  
BRANCH   5  11
HETATM   11  C   UNL     1     -10.243  16.749  65.881  1.00  0.00    -0.345 C  
HETATM   12  C   UNL     1     -10.483  17.878  66.566  1.00  0.00    -0.315 C  
HETATM   13  C   UNL     1      -9.984  19.223  66.147  1.00  0.00    -0.466 C  
ENDBRANCH   5  11
ENDBRANCH   2   3
TORSDOF 2
ENDMDL
MODEL       20
REMARK 921   NORMALIZED FREE ENERGY PREDICTED BY IDOCK:   -4.42 KCAL/MOL
REMARK 922        TOTAL FREE ENERGY PREDICTED BY IDOCK:   -5.07 KCAL/MOL
REMARK 923 INTER-LIGAND FREE ENERGY PREDICTED BY IDOCK:   -4.89 KCAL/MOL
REMARK 924 INTRA-LIGAND FREE ENERGY PREDICTED BY IDOCK:   -0.17 KCAL/MOL
REMARK 927      BINDING AFFINITY PREDICTED BY RF-SCORE:    0.00 PKD
ROOT
HETATM    1  C   UNL     1     -12.839  13.722  65.526  1.00  0.00    -0.419 C  
HETATM    2  O   UNL     1     -11.487  14.009  65.852  1.00  0.00    -0.317 OA 
ENDROOT
BRANCH   2   3
HETATM    3  C   UNL     1     -11.257  14.866  66.897  1.00  0.00    -0.343 A  
HETATM    4  C   UNL     1     -11.676  14.651  68.215  1.00  0.00    -0.359 A  
HETATM    5  C   UNL     1     -11.412  15.594  69.223  1.00  0.00    -0.368 A  
HETATM    6  H   UNL     1      -9.701  17.075  65.097  1.00  0.00     0.000 HD 
HETATM    7  C   UNL     1     -10.726  16.768  68.889  1.00  0.00    -0.333 A  
HETATM    8  C   UNL     1     -10.298  16.994  67.578  1.00  0.00    -0.329 A  
HETATM    9  O   UNL     1     -10.168  16.274  65.303  1.00  0.00    -0.548 OA 
HETATM   10  C   UNL     1     -10.568  16.047  66.593  1.00  0.00    -0.297 A  
BRANCH   5  11
HETATM   11  C   UNL     1     -11.915  15.431  70.598  1.00  0.00    -0.396 C  
HETATM   12  C   UNL     1     -13.196  15.577  70.969  1.00  0.00    -0.539 C  
HETATM   13  C   UNL     1     -13.667  15.454  72.383  1.00  0.00    -0.644 C  
ENDBRANCH   5  11
ENDBRANCH   2   3
TORSDOF 2
ENDMDL
MODEL       21
REMARK 921   NORMALIZED FREE ENERGY PREDICTED BY IDOCK:   -4.41 KCAL/MOL
REMARK 922        TOTAL FREE ENERGY PREDICTED BY IDOCK:   -5.06 KCAL/MOL
REMARK 923 INTER-LIGAND FREE ENERGY PREDICTED BY IDOCK:   -4.86 KCAL/MOL
REMARK 924 INTRA-LIGAND FREE ENERGY PREDICTED BY IDOCK:   -0.19 KCAL/MOL
REMARK 927      BINDING AFFINITY PREDICTED BY RF-SCORE:    0.00 PKD
ROOT
HETATM    1  C   UNL     1     -11.707  12.663  65.828  1.00  0.00    -0.419 C  
HETATM    2  O   UNL     1     -11.196  13.576  66.789  1.00  0.00    -0.298 OA 
ENDROOT
BRANCH   2   3
HETATM    3  C   UNL     1     -11.542  13.371  68.100  1.00  0.00    -0.341 A  
HETATM    4  C   UNL     1     -11.655  12.118  68.713  1.00  0.00    -0.380 A  
HETATM    5  C   UNL     1     -12.034  12.000  70.060  1.00  0.00    -0.400 A  
HETATM    6  H   UNL     1     -11.915  16.525  68.775  1.00  0.00     0.000 HD 
HETATM    7  C   UNL     1     -12.309  13.164  70.790  1.00  0.00    -0.404 A  
HETATM    8  C   UNL     1     -12.197  14.422  70.194  1.00  0.00    -0.401 A  
HETATM    9  O   UNL     1     -11.727  15.748  68.262  1.00  0.00    -0.345 OA 
HETATM   10  C   UNL     1     -11.819  14.517  68.856  1.00  0.00    -0.324 A  
BRANCH   5  11
HETATM   11  C   UNL     1     -12.240  10.691  70.703  1.00  0.00    -0.459 C  
HETATM   12  C   UNL     1     -13.026  10.475  71.769  1.00  0.00    -0.582 C  
HETATM   13  C   UNL     1     -13.176   9.142  72.430  1.00  0.00    -0.512 C  
ENDBRANCH   5  11
ENDBRANCH   2   3
TORSDOF 2
ENDMDL
MODEL       22
REMARK 921   NORMALIZED FREE ENERGY PREDICTED BY IDOCK:   -4.40 KCAL/MOL
REMARK 922        TOTAL FREE ENERGY PREDICTED BY IDOCK:   -5.05 KCAL/MOL
REMARK 923 INTER-LIGAND FREE ENERGY PREDICTED BY IDOCK:   -4.86 KCAL/MOL
REMARK 924 INTRA-LIGAND FREE ENERGY PREDICTED BY IDOCK:   -0.18 KCAL/MOL
REMARK 927      BINDING AFFINITY PREDICTED BY RF-SCORE:    0.00 PKD
ROOT
HETATM    1  C   UNL     1     -11.701  11.596  68.336  1.00  0.00    -0.307 C  
HETATM    2  O   UNL     1     -12.159  12.431  67.283  1.00  0.00    -0.516 OA 
ENDROOT
BRANCH   2   3
HETATM    3  C   UNL     1     -11.725  12.143  66.015  1.00  0.00    -0.321 A  
HETATM    4  C   UNL     1     -10.764  11.176  65.698  1.00  0.00    -0.250 A  
HETATM    5  C   UNL     1     -10.364  10.959  64.369  1.00  0.00    -0.430 A  
HETATM    6  H   UNL     1     -13.595  14.374  64.577  1.00  0.00     0.000 HD 
HETATM    7  C   UNL     1     -10.938  11.735  63.354  1.00  0.00    -0.458 A  
HETATM    8  C   UNL     1     -11.901  12.701  63.654  1.00  0.00    -0.606 A  
HETATM    9  O   UNL     1     -13.215  13.860  65.280  1.00  0.00    -0.774 OA 
HETATM   10  C   UNL     1     -12.285  12.900  64.979  1.00  0.00    -0.464 A  
BRANCH   5  11
HETATM   11  C   UNL     1      -9.295  10.007  64.019  1.00  0.00    -0.324 C  
HETATM   12  C   UNL     1      -8.980   9.632  62.770  1.00  0.00    -0.264 C  
HETATM   13  C   UNL     1      -7.922   8.625  62.450  1.00  0.00    -0.149 C  
ENDBRANCH   5  11
ENDBRANCH   2   3
TORSDOF 2
ENDMDL
MODEL       23
REMARK 921   NORMALIZED FREE ENERGY PREDICTED BY IDOCK:   -4.40 KCAL/MOL
REMARK 922        TOTAL FREE ENERGY PREDICTED BY IDOCK:   -5.04 KCAL/MOL
REMARK 923 INTER-LIGAND FREE ENERGY PREDICTED BY IDOCK:   -4.85 KCAL/MOL
REMARK 924 INTRA-LIGAND FREE ENERGY PREDICTED BY IDOCK:   -0.19 KCAL/MOL
REMARK 927      BINDING AFFINITY PREDICTED BY RF-SCORE:    0.00 PKD
ROOT
HETATM    1  C   UNL     1     -13.034  10.539  71.014  1.00  0.00    -0.383 C  
HETATM    2  O   UNL     1     -11.892  11.348  70.771  1.00  0.00    -0.309 OA 
ENDROOT
BRANCH   2   3
HETATM    3  C   UNL     1     -11.924  12.171  69.675  1.00  0.00    -0.284 A  
HETATM    4  C   UNL     1     -11.854  11.738  68.346  1.00  0.00    -0.347 A  
HETATM    5  C   UNL     1     -11.876  12.656  67.282  1.00  0.00    -0.395 A  
HETATM    6  H   UNL     1     -12.127  14.912  71.404  1.00  0.00     0.000 HD 
HETATM    7  C   UNL     1     -11.960  14.024  67.570  1.00  0.00    -0.430 A  
HETATM    8  C   UNL     1     -12.035  14.471  68.891  1.00  0.00    -0.326 A  
HETATM    9  O   UNL     1     -12.066  13.980  71.230  1.00  0.00    -0.336 OA 
HETATM   10  C   UNL     1     -12.013  13.545  69.932  1.00  0.00    -0.348 A  
BRANCH   5  11
HETATM   11  C   UNL     1     -11.719  12.231  65.881  1.00  0.00    -0.451 C  
HETATM   12  C   UNL     1     -12.510  12.619  64.868  1.00  0.00    -0.564 C  
HETATM   13  C   UNL     1     -12.355  12.131  63.463  1.00  0.00    -0.682 C  
ENDBRANCH   5  11
ENDBRANCH   2   3
TORSDOF 2
ENDMDL
MODEL       24
REMARK 921   NORMALIZED FREE ENERGY PREDICTED BY IDOCK:   -4.38 KCAL/MOL
REMARK 922        TOTAL FREE ENERGY PREDICTED BY IDOCK:   -5.02 KCAL/MOL
REMARK 923 INTER-LIGAND FREE ENERGY PREDICTED BY IDOCK:   -4.82 KCAL/MOL
REMARK 924 INTRA-LIGAND FREE ENERGY PREDICTED BY IDOCK:   -0.20 KCAL/MOL
REMARK 927      BINDING AFFINITY PREDICTED BY RF-SCORE:    0.00 PKD
ROOT
HETATM    1  C   UNL     1     -10.714  10.225  67.614  1.00  0.00    -0.288 C  
HETATM    2  O   UNL     1     -10.411   9.996  68.983  1.00  0.00    -0.184 OA 
ENDROOT
BRANCH   2   3
HETATM    3  C   UNL     1     -11.302  10.464  69.913  1.00  0.00    -0.302 A  
HETATM    4  C   UNL     1     -11.668  11.806  70.068  1.00  0.00    -0.386 A  
HETATM    5  C   UNL     1     -12.579  12.200  71.063  1.00  0.00    -0.359 A  
HETATM    6  H   UNL     1     -11.876   7.550  71.226  1.00  0.00     0.000 HD 
HETATM    7  C   UNL     1     -13.117  11.226  71.913  1.00  0.00    -0.510 A  
HETATM    8  C   UNL     1     -12.765   9.881  71.767  1.00  0.00    -0.523 A  
HETATM    9  O   UNL     1     -11.497   8.196  70.642  1.00  0.00    -0.278 OA 
HETATM   10  C   UNL     1     -11.860   9.511  70.775  1.00  0.00    -0.277 A  
BRANCH   5  11
HETATM   11  C   UNL     1     -12.915  13.615  71.300  1.00  0.00    -0.399 C  
HETATM   12  C   UNL     1     -13.537  14.084  72.392  1.00  0.00    -0.658 C  
HETATM   13  C   UNL     1     -13.909  15.520  72.581  1.00  0.00    -0.654 C  
ENDBRANCH   5  11
ENDBRANCH   2   3
TORSDOF 2
ENDMDL
MODEL       25
REMARK 921   NORMALIZED FREE ENERGY PREDICTED BY IDOCK:   -4.38 KCAL/MOL
REMARK 922        TOTAL FREE ENERGY PREDICTED BY IDOCK:   -5.02 KCAL/MOL
REMARK 923 INTER-LIGAND FREE ENERGY PREDICTED BY IDOCK:   -4.85 KCAL/MOL
REMARK 924 INTRA-LIGAND FREE ENERGY PREDICTED BY IDOCK:   -0.17 KCAL/MOL
REMARK 927      BINDING AFFINITY PREDICTED BY RF-SCORE:    0.00 PKD
ROOT
HETATM    1  C   UNL     1     -11.933  16.181  71.846  1.00  0.00    -0.507 C  
HETATM    2  O   UNL     1     -12.974  15.399  71.278  1.00  0.00    -0.405 OA 
ENDROOT
BRANCH   2   3
HETATM    3  C   UNL     1     -12.650  14.142  70.836  1.00  0.00    -0.363 A  
HETATM    4  C   UNL     1     -11.950  13.863  69.658  1.00  0.00    -0.399 A  
HETATM    5  C   UNL     1     -11.676  12.540  69.272  1.00  0.00    -0.379 A  
HETATM    6  H   UNL     1     -14.075  12.611  73.320  1.00  0.00     0.000 HD 
HETATM    7  C   UNL     1     -12.124  11.491  70.085  1.00  0.00    -0.432 A  
HETATM    8  C   UNL     1     -12.821  11.755  71.267  1.00  0.00    -0.409 A  
HETATM    9  O   UNL     1     -13.782  13.336  72.781  1.00  0.00    -0.669 OA 
HETATM   10  C   UNL     1     -13.082  13.074  71.632  1.00  0.00    -0.347 A  
BRANCH   5  11
HETATM   11  C   UNL     1     -11.015  12.218  67.996  1.00  0.00    -0.265 C  
HETATM   12  C   UNL     1     -11.365  12.722  66.802  1.00  0.00    -0.362 C  
HETATM   13  C   UNL     1     -10.705  12.336  65.516  1.00  0.00    -0.314 C  
ENDBRANCH   5  11
ENDBRANCH   2   3
TORSDOF 2
ENDMDL
MODEL       26
REMARK 921   NORMALIZED FREE ENERGY PREDICTED BY IDOCK:   -4.36 KCAL/MOL
REMARK 922        TOTAL FREE ENERGY PREDICTED BY IDOCK:   -4.99 KCAL/MOL
REMARK 923 INTER-LIGAND FREE ENERGY PREDICTED BY IDOCK:   -4.79 KCAL/MOL
REMARK 924 INTRA-LIGAND FREE ENERGY PREDICTED BY IDOCK:   -0.20 KCAL/MOL
REMARK 927      BINDING AFFINITY PREDICTED BY RF-SCORE:    0.00 PKD
ROOT
HETATM    1  C   UNL     1     -11.743  12.501  64.326  1.00  0.00    -0.382 C  
HETATM    2  O   UNL     1     -12.492  12.499  65.533  1.00  0.00    -0.646 OA 
ENDROOT
BRANCH   2   3
HETATM    3  C   UNL     1     -11.983  13.206  66.592  1.00  0.00    -0.389 A  
HETATM    4  C   UNL     1     -11.684  14.573  66.573  1.00  0.00    -0.380 A  
HETATM    5  C   UNL     1     -11.147  15.215  67.701  1.00  0.00    -0.318 A  
HETATM    6  H   UNL     1     -11.839  10.644  68.581  1.00  0.00     0.000 HD 
HETATM    7  C   UNL     1     -10.903  14.461  68.856  1.00  0.00    -0.266 A  
HETATM    8  C   UNL     1     -11.201  13.096  68.892  1.00  0.00    -0.324 A  
HETATM    9  O   UNL     1     -12.008  11.137  67.787  1.00  0.00    -0.630 OA 
HETATM   10  C   UNL     1     -11.733  12.479  67.762  1.00  0.00    -0.359 A  
BRANCH   5  11
HETATM   11  C   UNL     1     -10.746  16.632  67.678  1.00  0.00    -0.306 C  
HETATM   12  C   UNL     1     -10.227  17.300  68.721  1.00  0.00    -0.353 C  
HETATM   13  C   UNL     1      -9.877  18.753  68.681  1.00  0.00    -0.441 C  
ENDBRANCH   5  11
ENDBRANCH   2   3
TORSDOF 2
ENDMDL
MODEL       27
REMARK 921   NORMALIZED FREE ENERGY PREDICTED BY IDOCK:   -4.35 KCAL/MOL
REMARK 922        TOTAL FREE ENERGY PREDICTED BY IDOCK:   -4.99 KCAL/MOL
REMARK 923 INTER-LIGAND FREE ENERGY PREDICTED BY IDOCK:   -4.79 KCAL/MOL
REMARK 924 INTRA-LIGAND FREE ENERGY PREDICTED BY IDOCK:   -0.20 KCAL/MOL
REMARK 927      BINDING AFFINITY PREDICTED BY RF-SCORE:    0.00 PKD
ROOT
HETATM    1  C   UNL     1     -12.020  12.059  63.563  1.00  0.00    -0.507 C  
HETATM    2  O   UNL     1     -11.002  12.713  64.306  1.00  0.00    -0.319 OA 
ENDROOT
BRANCH   2   3
HETATM    3  C   UNL     1     -11.212  12.883  65.650  1.00  0.00    -0.295 A  
HETATM    4  C   UNL     1     -11.332  11.844  66.580  1.00  0.00    -0.403 A  
HETATM    5  C   UNL     1     -11.565  12.110  67.940  1.00  0.00    -0.413 A  
HETATM    6  H   UNL     1     -11.313  16.125  65.498  1.00  0.00     0.000 HD 
HETATM    7  C   UNL     1     -11.686  13.441  68.358  1.00  0.00    -0.390 A  
HETATM    8  C   UNL     1     -11.564  14.490  67.442  1.00  0.00    -0.406 A  
HETATM    9  O   UNL     1     -11.232  15.229  65.194  1.00  0.00    -0.367 OA 
HETATM   10  C   UNL     1     -11.332  14.205  66.098  1.00  0.00    -0.337 A  
BRANCH   5  11
HETATM   11  C   UNL     1     -11.778  11.033  68.922  1.00  0.00    -0.400 C  
HETATM   12  C   UNL     1     -11.959  11.220  70.238  1.00  0.00    -0.466 C  
HETATM   13  C   UNL     1     -12.123  10.102  71.218  1.00  0.00    -0.489 C  
ENDBRANCH   5  11
ENDBRANCH   2   3
TORSDOF 2
ENDMDL
MODEL       28
REMARK 921   NORMALIZED FREE ENERGY PREDICTED BY IDOCK:   -4.32 KCAL/MOL
REMARK 922        TOTAL FREE ENERGY PREDICTED BY IDOCK:   -4.95 KCAL/MOL
REMARK 923 INTER-LIGAND FREE ENERGY PREDICTED BY IDOCK:   -4.80 KCAL/MOL
REMARK 924 INTRA-LIGAND FREE ENERGY PREDICTED BY IDOCK:   -0.16 KCAL/MOL
REMARK 927      BINDING AFFINITY PREDICTED BY RF-SCORE:    0.00 PKD
ROOT
HETATM    1  C   UNL     1     -12.784   9.590  71.822  1.00  0.00    -0.404 C  
HETATM    2  O   UNL     1     -13.180  10.928  72.086  1.00  0.00    -0.474 OA 
ENDROOT
BRANCH   2   3
HETATM    3  C   UNL     1     -12.781  11.891  71.196  1.00  0.00    -0.284 A  
HETATM    4  C   UNL     1     -12.129  11.641  69.983  1.00  0.00    -0.395 A  
HETATM    5  C   UNL     1     -11.739  12.693  69.138  1.00  0.00    -0.375 A  
HETATM    6  H   UNL     1     -13.840  14.377  72.998  1.00  0.00     0.000 HD 
HETATM    7  C   UNL     1     -12.007  14.011  69.530  1.00  0.00    -0.390 A  
HETATM    8  C   UNL     1     -12.661  14.276  70.735  1.00  0.00    -0.419 A  
HETATM    9  O   UNL     1     -13.665  13.476  72.751  1.00  0.00    -0.710 OA 
HETATM   10  C   UNL     1     -13.040  13.219  71.559  1.00  0.00    -0.328 A  
BRANCH   5  11
HETATM   11  C   UNL     1     -10.978  12.459  67.899  1.00  0.00    -0.266 C  
HETATM   12  C   UNL     1     -11.501  12.466  66.663  1.00  0.00    -0.429 C  
HETATM   13  C   UNL     1     -10.710  12.176  65.428  1.00  0.00    -0.323 C  
ENDBRANCH   5  11
ENDBRANCH   2   3
TORSDOF 2
ENDMDL
MODEL       29
REMARK 921   NORMALIZED FREE ENERGY PREDICTED BY IDOCK:   -4.30 KCAL/MOL
REMARK 922        TOTAL FREE ENERGY PREDICTED BY IDOCK:   -4.93 KCAL/MOL
REMARK 923 INTER-LIGAND FREE ENERGY PREDICTED BY IDOCK:   -4.73 KCAL/MOL
REMARK 924 INTRA-LIGAND FREE ENERGY PREDICTED BY IDOCK:   -0.20 KCAL/MOL
REMARK 927      BINDING AFFINITY PREDICTED BY RF-SCORE:    0.00 PKD
ROOT
HETATM    1  C   UNL     1     -10.295   8.651  68.673  1.00  0.00    -0.193 C  
HETATM    2  O   UNL     1     -10.471   8.364  70.053  1.00  0.00    -0.214 OA 
ENDROOT
BRANCH   2   3
HETATM    3  C   UNL     1     -11.461   9.041  70.717  1.00  0.00    -0.282 A  
HETATM    4  C   UNL     1     -11.645  10.428  70.682  1.00  0.00    -0.440 A  
HETATM    5  C   UNL     1     -12.679  11.041  71.410  1.00  0.00    -0.534 A  
HETATM    6  H   UNL     1     -12.735   6.384  72.081  1.00  0.00     0.000 HD 
HETATM    7  C   UNL     1     -13.527  10.241  72.186  1.00  0.00    -0.332 A  
HETATM    8  C   UNL     1     -13.359   8.855  72.227  1.00  0.00    -0.497 A  
HETATM    9  O   UNL     1     -12.147   6.909  71.551  1.00  0.00    -0.318 OA 
HETATM   10  C   UNL     1     -12.328   8.266  71.498  1.00  0.00    -0.306 A  
BRANCH   5  11
HETATM   11  C   UNL     1     -12.841  12.504  71.457  1.00  0.00    -0.367 C  
HETATM   12  C   UNL     1     -13.604  13.164  72.342  1.00  0.00    -0.667 C  
HETATM   13  C   UNL     1     -13.787  14.649  72.331  1.00  0.00    -0.580 C  
ENDBRANCH   5  11
ENDBRANCH   2   3
TORSDOF 2
ENDMDL
MODEL       30
REMARK 921   NORMALIZED FREE ENERGY PREDICTED BY IDOCK:   -4.27 KCAL/MOL
REMARK 922        TOTAL FREE ENERGY PREDICTED BY IDOCK:   -4.90 KCAL/MOL
REMARK 923 INTER-LIGAND FREE ENERGY PREDICTED BY IDOCK:   -4.79 KCAL/MOL
REMARK 924 INTRA-LIGAND FREE ENERGY PREDICTED BY IDOCK:   -0.11 KCAL/MOL
REMARK 927      BINDING AFFINITY PREDICTED BY RF-SCORE:    0.00 PKD
ROOT
HETATM    1  C   UNL     1     -11.739   9.658  71.331  1.00  0.00    -0.404 C  
HETATM    2  O   UNL     1     -12.754  10.475  70.765  1.00  0.00    -0.344 OA 
ENDROOT
BRANCH   2   3
HETATM    3  C   UNL     1     -12.425  11.773  70.468  1.00  0.00    -0.230 A  
HETATM    4  C   UNL     1     -12.502  12.844  71.366  1.00  0.00    -0.234 A  
HETATM    5  C   UNL     1     -12.161  14.148  70.970  1.00  0.00    -0.411 A  
HETATM    6  H   UNL     1     -11.653  11.155  67.376  1.00  0.00     0.000 HD 
HETATM    7  C   UNL     1     -11.747  14.369  69.651  1.00  0.00    -0.362 A  
HETATM    8  C   UNL     1     -11.661  13.309  68.744  1.00  0.00    -0.366 A  
HETATM    9  O   UNL     1     -11.939  10.985  68.265  1.00  0.00    -0.593 OA 
HETATM   10  C   UNL     1     -12.003  12.023  69.156  1.00  0.00    -0.268 A  
BRANCH   5  11
HETATM   11  C   UNL     1     -12.314  15.304  71.871  1.00  0.00    -0.427 C  
HETATM   12  C   UNL     1     -12.285  15.241  73.211  1.00  0.00    -0.575 C  
HETATM   13  C   UNL     1     -12.493  16.426  74.100  1.00  0.00    -0.573 C  
ENDBRANCH   5  11
ENDBRANCH   2   3
TORSDOF 2
ENDMDL
MODEL       31
REMARK 921   NORMALIZED FREE ENERGY PREDICTED BY IDOCK:   -4.24 KCAL/MOL
REMARK 922        TOTAL FREE ENERGY PREDICTED BY IDOCK:   -4.87 KCAL/MOL
REMARK 923 INTER-LIGAND FREE ENERGY PREDICTED BY IDOCK:   -4.70 KCAL/MOL
REMARK 924 INTRA-LIGAND FREE ENERGY PREDICTED BY IDOCK:   -0.17 KCAL/MOL
REMARK 927      BINDING AFFINITY PREDICTED BY RF-SCORE:    0.00 PKD
ROOT
HETATM    1  C   UNL     1      -9.986  17.270  67.840  1.00  0.00    -0.297 C  
HETATM    2  O   UNL     1     -11.170  16.743  68.422  1.00  0.00    -0.332 OA 
ENDROOT
BRANCH   2   3
HETATM    3  C   UNL     1     -11.367  15.389  68.334  1.00  0.00    -0.339 A  
HETATM    4  C   UNL     1     -11.494  14.673  67.139  1.00  0.00    -0.380 A  
HETATM    5  C   UNL     1     -11.712  13.285  67.143  1.00  0.00    -0.425 A  
HETATM    6  H   UNL     1     -11.423  14.919  71.547  1.00  0.00     0.000 HD 
HETATM    7  C   UNL     1     -11.810  12.619  68.371  1.00  0.00    -0.347 A  
HETATM    8  C   UNL     1     -11.681  13.320  69.573  1.00  0.00    -0.384 A  
HETATM    9  O   UNL     1     -11.357  15.389  70.724  1.00  0.00    -0.291 OA 
HETATM   10  C   UNL     1     -11.464  14.696  69.547  1.00  0.00    -0.297 A  
BRANCH   5  11
HETATM   11  C   UNL     1     -11.932  12.524  65.901  1.00  0.00    -0.472 C  
HETATM   12  C   UNL     1     -12.134  13.070  64.692  1.00  0.00    -0.463 C  
HETATM   13  C   UNL     1     -12.406  12.270  63.458  1.00  0.00    -0.670 C  
ENDBRANCH   5  11
ENDBRANCH   2   3
TORSDOF 2
ENDMDL
MODEL       32
REMARK 921   NORMALIZED FREE ENERGY PREDICTED BY IDOCK:   -4.21 KCAL/MOL
REMARK 922        TOTAL FREE ENERGY PREDICTED BY IDOCK:   -4.84 KCAL/MOL
REMARK 923 INTER-LIGAND FREE ENERGY PREDICTED BY IDOCK:   -4.65 KCAL/MOL
REMARK 924 INTRA-LIGAND FREE ENERGY PREDICTED BY IDOCK:   -0.19 KCAL/MOL
REMARK 927      BINDING AFFINITY PREDICTED BY RF-SCORE:    0.00 PKD
ROOT
HETATM    1  C   UNL     1     -10.818  15.714  64.966  1.00  0.00    -0.450 C  
HETATM    2  O   UNL     1     -11.644  14.585  64.720  1.00  0.00    -0.377 OA 
ENDROOT
BRANCH   2   3
HETATM    3  C   UNL     1     -11.441  13.474  65.498  1.00  0.00    -0.304 A  
HETATM    4  C   UNL     1     -11.802  13.363  66.846  1.00  0.00    -0.453 A  
HETATM    5  C   UNL     1     -11.539  12.190  67.573  1.00  0.00    -0.413 A  
HETATM    6  H   UNL     1     -10.001  11.759  63.147  1.00  0.00     0.000 HD 
HETATM    7  C   UNL     1     -10.896  11.124  66.930  1.00  0.00    -0.333 A  
HETATM    8  C   UNL     1     -10.534  11.219  65.584  1.00  0.00    -0.317 A  
HETATM    9  O   UNL     1     -10.433  12.494  63.565  1.00  0.00    -0.420 OA 
HETATM   10  C   UNL     1     -10.804  12.390  64.880  1.00  0.00    -0.297 A  
BRANCH   5  11
HETATM   11  C   UNL     1     -11.833  12.080  69.012  1.00  0.00    -0.372 C  
HETATM   12  C   UNL     1     -12.141  10.939  69.648  1.00  0.00    -0.400 C  
HETATM   13  C   UNL     1     -12.484  10.867  71.102  1.00  0.00    -0.511 C  
ENDBRANCH   5  11
ENDBRANCH   2   3
TORSDOF 2
ENDMDL
MODEL       33
REMARK 921   NORMALIZED FREE ENERGY PREDICTED BY IDOCK:   -4.21 KCAL/MOL
REMARK 922        TOTAL FREE ENERGY PREDICTED BY IDOCK:   -4.83 KCAL/MOL
REMARK 923 INTER-LIGAND FREE ENERGY PREDICTED BY IDOCK:   -4.67 KCAL/MOL
REMARK 924 INTRA-LIGAND FREE ENERGY PREDICTED BY IDOCK:   -0.16 KCAL/MOL
REMARK 927      BINDING AFFINITY PREDICTED BY RF-SCORE:    0.00 PKD
ROOT
HETATM    1  C   UNL     1      -8.740  17.866  68.452  1.00  0.00    -0.293 C  
HETATM    2  O   UNL     1     -10.045  17.820  67.892  1.00  0.00    -0.308 OA 
ENDROOT
BRANCH   2   3
HETATM    3  C   UNL     1     -10.691  16.610  67.899  1.00  0.00    -0.344 A  
HETATM    4  C   UNL     1     -11.245  16.004  69.033  1.00  0.00    -0.347 A  
HETATM    5  C   UNL     1     -11.875  14.751  68.951  1.00  0.00    -0.331 A  
HETATM    6  H   UNL     1     -10.277  16.067  64.725  1.00  0.00     0.000 HD 
HETATM    7  C   UNL     1     -11.938  14.105  67.710  1.00  0.00    -0.389 A  
HETATM    8  C   UNL     1     -11.394  14.699  66.569  1.00  0.00    -0.353 A  
HETATM    9  O   UNL     1     -10.222  16.520  65.558  1.00  0.00    -0.525 OA 
HETATM   10  C   UNL     1     -10.773  15.942  66.671  1.00  0.00    -0.270 A  
BRANCH   5  11
HETATM   11  C   UNL     1     -12.390  14.056  70.143  1.00  0.00    -0.409 C  
HETATM   12  C   UNL     1     -13.075  14.641  71.137  1.00  0.00    -0.428 C  
HETATM   13  C   UNL     1     -13.541  13.917  72.360  1.00  0.00    -0.676 C  
ENDBRANCH   5  11
ENDBRANCH   2   3
TORSDOF 2
ENDMDL
MODEL       34
REMARK 921   NORMALIZED FREE ENERGY PREDICTED BY IDOCK:   -4.14 KCAL/MOL
REMARK 922        TOTAL FREE ENERGY PREDICTED BY IDOCK:   -4.75 KCAL/MOL
REMARK 923 INTER-LIGAND FREE ENERGY PREDICTED BY IDOCK:   -4.56 KCAL/MOL
REMARK 924 INTRA-LIGAND FREE ENERGY PREDICTED BY IDOCK:   -0.19 KCAL/MOL
REMARK 927      BINDING AFFINITY PREDICTED BY RF-SCORE:    0.00 PKD
ROOT
HETATM    1  C   UNL     1     -10.137   8.594  68.671  1.00  0.00    -0.190 C  
HETATM    2  O   UNL     1     -10.659   8.346  69.968  1.00  0.00    -0.227 OA 
ENDROOT
BRANCH   2   3
HETATM    3  C   UNL     1     -11.497   9.291  70.502  1.00  0.00    -0.248 A  
HETATM    4  C   UNL     1     -11.428  10.664  70.239  1.00  0.00    -0.422 A  
HETATM    5  C   UNL     1     -12.318  11.565  70.846  1.00  0.00    -0.460 A  
HETATM    6  H   UNL     1     -13.205   7.168  72.268  1.00  0.00     0.000 HD 
HETATM    7  C   UNL     1     -13.282  11.070  71.734  1.00  0.00    -0.505 A  
HETATM    8  C   UNL     1     -13.367   9.701  72.002  1.00  0.00    -0.547 A  
HETATM    9  O   UNL     1     -12.542   7.484  71.666  1.00  0.00    -0.322 OA 
HETATM   10  C   UNL     1     -12.475   8.824  71.390  1.00  0.00    -0.303 A  
BRANCH   5  11
HETATM   11  C   UNL     1     -12.212  13.021  70.651  1.00  0.00    -0.390 C  
HETATM   12  C   UNL     1     -12.767  13.945  71.450  1.00  0.00    -0.445 C  
HETATM   13  C   UNL     1     -12.683  15.417  71.196  1.00  0.00    -0.503 C  
ENDBRANCH   5  11
ENDBRANCH   2   3
TORSDOF 2
ENDMDL
MODEL       35
REMARK 921   NORMALIZED FREE ENERGY PREDICTED BY IDOCK:   -4.13 KCAL/MOL
REMARK 922        TOTAL FREE ENERGY PREDICTED BY IDOCK:   -4.74 KCAL/MOL
REMARK 923 INTER-LIGAND FREE ENERGY PREDICTED BY IDOCK:   -4.58 KCAL/MOL
REMARK 924 INTRA-LIGAND FREE ENERGY PREDICTED BY IDOCK:   -0.17 KCAL/MOL
REMARK 927      BINDING AFFINITY PREDICTED BY RF-SCORE:    0.00 PKD
ROOT
HETATM    1  C   UNL     1     -14.399   8.457  71.928  1.00  0.00    -0.473 C  
HETATM    2  O   UNL     1     -13.242   8.955  72.584  1.00  0.00    -0.427 OA 
ENDROOT
BRANCH   2   3
HETATM    3  C   UNL     1     -12.146   9.232  71.808  1.00  0.00    -0.387 A  
HETATM    4  C   UNL     1     -12.142  10.097  70.708  1.00  0.00    -0.438 A  
HETATM    5  C   UNL     1     -10.975  10.309  69.956  1.00  0.00    -0.371 A  
HETATM    6  H   UNL     1     -10.151   7.264  73.447  1.00  0.00     0.000 HD 
HETATM    7  C   UNL     1      -9.803   9.631  70.318  1.00  0.00    -0.321 A  
HETATM    8  C   UNL     1      -9.791   8.768  71.417  1.00  0.00    -0.353 A  
HETATM    9  O   UNL     1     -10.956   7.711  73.216  1.00  0.00    -0.400 OA 
HETATM   10  C   UNL     1     -10.959   8.572  72.150  1.00  0.00    -0.357 A  
BRANCH   5  11
HETATM   11  C   UNL     1     -10.966  11.148  68.745  1.00  0.00    -0.268 C  
HETATM   12  C   UNL     1     -11.841  12.132  68.487  1.00  0.00    -0.365 C  
HETATM   13  C   UNL     1     -11.836  12.934  67.224  1.00  0.00    -0.416 C  
ENDBRANCH   5  11
ENDBRANCH   2   3
TORSDOF 2
ENDMDL
MODEL       36
REMARK 921   NORMALIZED FREE ENERGY PREDICTED BY IDOCK:   -4.11 KCAL/MOL
REMARK 922        TOTAL FREE ENERGY PREDICTED BY IDOCK:   -4.71 KCAL/MOL
REMARK 923 INTER-LIGAND FREE ENERGY PREDICTED BY IDOCK:   -4.53 KCAL/MOL
REMARK 924 INTRA-LIGAND FREE ENERGY PREDICTED BY IDOCK:   -0.18 KCAL/MOL
REMARK 927      BINDING AFFINITY PREDICTED BY RF-SCORE:    0.00 PKD
ROOT
HETATM    1  C   UNL     1      -9.674  10.364  64.430  1.00  0.00    -0.333 C  
HETATM    2  O   UNL     1     -10.952  10.972  64.545  1.00  0.00    -0.270 OA 
ENDROOT
BRANCH   2   3
HETATM    3  C   UNL     1     -10.991  12.331  64.716  1.00  0.00    -0.303 A  
HETATM    4  C   UNL     1     -10.060  13.073  65.451  1.00  0.00    -0.265 A  
HETATM    5  C   UNL     1     -10.187  14.465  65.590  1.00  0.00    -0.371 A  
HETATM    6  H   UNL     1     -13.719  12.740  63.003  1.00  0.00     0.000 HD 
HETATM    7  C   UNL     1     -11.274  15.109  64.985  1.00  0.00    -0.414 A  
HETATM    8  C   UNL     1     -12.209  14.383  64.244  1.00  0.00    -0.450 A  
HETATM    9  O   UNL     1     -12.991  12.284  63.409  1.00  0.00    -0.753 OA 
HETATM   10  C   UNL     1     -12.065  13.003  64.118  1.00  0.00    -0.427 A  
BRANCH   5  11
HETATM   11  C   UNL     1      -9.268  15.255  66.427  1.00  0.00    -0.342 C  
HETATM   12  C   UNL     1      -8.975  16.551  66.234  1.00  0.00    -0.359 C  
HETATM   13  C   UNL     1      -7.998  17.313  67.072  1.00  0.00    -0.242 C  
ENDBRANCH   5  11
ENDBRANCH   2   3
TORSDOF 2
ENDMDL
MODEL       37
REMARK 921   NORMALIZED FREE ENERGY PREDICTED BY IDOCK:   -4.10 KCAL/MOL
REMARK 922        TOTAL FREE ENERGY PREDICTED BY IDOCK:   -4.71 KCAL/MOL
REMARK 923 INTER-LIGAND FREE ENERGY PREDICTED BY IDOCK:   -4.51 KCAL/MOL
REMARK 924 INTRA-LIGAND FREE ENERGY PREDICTED BY IDOCK:   -0.19 KCAL/MOL
REMARK 927      BINDING AFFINITY PREDICTED BY RF-SCORE:    0.00 PKD
ROOT
HETATM    1  C   UNL     1     -10.157  16.768  68.715  1.00  0.00    -0.286 C  
HETATM    2  O   UNL     1     -11.390  16.271  68.215  1.00  0.00    -0.352 OA 
ENDROOT
BRANCH   2   3
HETATM    3  C   UNL     1     -11.576  14.913  68.233  1.00  0.00    -0.334 A  
HETATM    4  C   UNL     1     -11.817  14.152  69.383  1.00  0.00    -0.378 A  
HETATM    5  C   UNL     1     -11.979  12.758  69.311  1.00  0.00    -0.300 A  
HETATM    6  H   UNL     1     -11.187  14.546  65.030  1.00  0.00     0.000 HD 
HETATM    7  C   UNL     1     -11.887  12.130  68.062  1.00  0.00    -0.351 A  
HETATM    8  C   UNL     1     -11.651  12.877  66.905  1.00  0.00    -0.425 A  
HETATM    9  O   UNL     1     -11.243  14.991  65.868  1.00  0.00    -0.341 OA 
HETATM   10  C   UNL     1     -11.494  14.258  66.998  1.00  0.00    -0.361 A  
BRANCH   5  11
HETATM   11  C   UNL     1     -12.150  11.928  70.515  1.00  0.00    -0.422 C  
HETATM   12  C   UNL     1     -12.506  10.634  70.510  1.00  0.00    -0.445 C  
HETATM   13  C   UNL     1     -12.720   9.830  71.753  1.00  0.00    -0.519 C  
ENDBRANCH   5  11
ENDBRANCH   2   3
TORSDOF 2
ENDMDL
MODEL       38
REMARK 921   NORMALIZED FREE ENERGY PREDICTED BY IDOCK:   -4.10 KCAL/MOL
REMARK 922        TOTAL FREE ENERGY PREDICTED BY IDOCK:   -4.70 KCAL/MOL
REMARK 923 INTER-LIGAND FREE ENERGY PREDICTED BY IDOCK:   -4.52 KCAL/MOL
REMARK 924 INTRA-LIGAND FREE ENERGY PREDICTED BY IDOCK:   -0.18 KCAL/MOL
REMARK 927      BINDING AFFINITY PREDICTED BY RF-SCORE:    0.00 PKD
ROOT
HETATM    1  C   UNL     1     -12.602  12.141  63.440  1.00  0.00    -0.463 C  
HETATM    2  O   UNL     1     -12.633  13.506  63.831  1.00  0.00    -0.681 OA 
ENDROOT
BRANCH   2   3
HETATM    3  C   UNL     1     -11.662  13.936  64.699  1.00  0.00    -0.397 A  
HETATM    4  C   UNL     1     -10.865  13.099  65.488  1.00  0.00    -0.299 A  
HETATM    5  C   UNL     1      -9.904  13.627  66.365  1.00  0.00    -0.302 A  
HETATM    6  H   UNL     1     -12.156  17.091  64.114  1.00  0.00     0.000 HD 
HETATM    7  C   UNL     1      -9.756  15.018  66.450  1.00  0.00    -0.305 A  
HETATM    8  C   UNL     1     -10.541  15.866  65.666  1.00  0.00    -0.393 A  
HETATM    9  O   UNL     1     -12.274  16.151  64.045  1.00  0.00    -0.855 OA 
HETATM   10  C   UNL     1     -11.488  15.322  64.801  1.00  0.00    -0.363 A  
BRANCH   5  11
HETATM   11  C   UNL     1      -9.112  12.772  67.266  1.00  0.00    -0.200 C  
HETATM   12  C   UNL     1      -7.876  13.055  67.704  1.00  0.00    -0.166 C  
HETATM   13  C   UNL     1      -7.078  12.141  68.578  1.00  0.00    -0.099 C  
ENDBRANCH   5  11
ENDBRANCH   2   3
TORSDOF 2
ENDMDL
MODEL       39
REMARK 921   NORMALIZED FREE ENERGY PREDICTED BY IDOCK:   -4.09 KCAL/MOL
REMARK 922        TOTAL FREE ENERGY PREDICTED BY IDOCK:   -4.69 KCAL/MOL
REMARK 923 INTER-LIGAND FREE ENERGY PREDICTED BY IDOCK:   -4.53 KCAL/MOL
REMARK 924 INTRA-LIGAND FREE ENERGY PREDICTED BY IDOCK:   -0.17 KCAL/MOL
REMARK 927      BINDING AFFINITY PREDICTED BY RF-SCORE:    0.00 PKD
ROOT
HETATM    1  C   UNL     1      -8.735  17.846  66.562  1.00  0.00    -0.256 C  
HETATM    2  O   UNL     1      -9.765  17.419  65.682  1.00  0.00    -0.533 OA 
ENDROOT
BRANCH   2   3
HETATM    3  C   UNL     1     -10.092  16.087  65.693  1.00  0.00    -0.354 A  
HETATM    4  C   UNL     1      -9.524  15.130  66.542  1.00  0.00    -0.308 A  
HETATM    5  C   UNL     1      -9.907  13.780  66.472  1.00  0.00    -0.294 A  
HETATM    6  H   UNL     1     -12.257  16.323  63.285  1.00  0.00     0.000 HD 
HETATM    7  C   UNL     1     -10.868  13.397  65.527  1.00  0.00    -0.299 A  
HETATM    8  C   UNL     1     -11.447  14.342  64.676  1.00  0.00    -0.390 A  
HETATM    9  O   UNL     1     -11.605  16.602  63.916  1.00  0.00    -1.204 OA 
HETATM   10  C   UNL     1     -11.054  15.676  64.762  1.00  0.00    -0.412 A  
BRANCH   5  11
HETATM   11  C   UNL     1      -9.265  12.741  67.295  1.00  0.00    -0.203 C  
HETATM   12  C   UNL     1      -8.375  11.844  66.842  1.00  0.00    -0.169 C  
HETATM   13  C   UNL     1      -7.778  10.769  67.692  1.00  0.00    -0.104 C  
ENDBRANCH   5  11
ENDBRANCH   2   3
TORSDOF 2
ENDMDL
MODEL       40
REMARK 921   NORMALIZED FREE ENERGY PREDICTED BY IDOCK:   -4.08 KCAL/MOL
REMARK 922        TOTAL FREE ENERGY PREDICTED BY IDOCK:   -4.68 KCAL/MOL
REMARK 923 INTER-LIGAND FREE ENERGY PREDICTED BY IDOCK:   -4.54 KCAL/MOL
REMARK 924 INTRA-LIGAND FREE ENERGY PREDICTED BY IDOCK:   -0.15 KCAL/MOL
REMARK 927      BINDING AFFINITY PREDICTED BY RF-SCORE:    0.00 PKD
ROOT
HETATM    1  C   UNL     1     -12.519  15.528  70.660  1.00  0.00    -0.435 C  
HETATM    2  O   UNL     1     -11.433  14.852  70.043  1.00  0.00    -0.253 OA 
ENDROOT
BRANCH   2   3
HETATM    3  C   UNL     1     -11.347  14.912  68.676  1.00  0.00    -0.292 A  
HETATM    4  C   UNL     1     -12.025  14.064  67.793  1.00  0.00    -0.392 A  
HETATM    5  C   UNL     1     -11.864  14.186  66.403  1.00  0.00    -0.440 A  
HETATM    6  H   UNL     1      -9.238  17.380  68.649  1.00  0.00     0.000 HD 
HETATM    7  C   UNL     1     -11.001  15.171  65.905  1.00  0.00    -0.339 A  
HETATM    8  C   UNL     1     -10.322  16.028  66.774  1.00  0.00    -0.300 A  
HETATM    9  O   UNL     1      -9.816  16.716  69.006  1.00  0.00    -0.256 OA 
HETATM   10  C   UNL     1     -10.495  15.891  68.150  1.00  0.00    -0.270 A  
BRANCH   5  11
HETATM   11  C   UNL     1     -12.499  13.253  65.457  1.00  0.00    -0.531 C  
HETATM   12  C   UNL     1     -11.947  12.827  64.310  1.00  0.00    -0.473 C  
HETATM   13  C   UNL     1     -12.639  11.918  63.345  1.00  0.00    -0.555 C  
ENDBRANCH   5  11
ENDBRANCH   2   3
TORSDOF 2
ENDMDL
MODEL       41
REMARK 921   NORMALIZED FREE ENERGY PREDICTED BY IDOCK:   -4.06 KCAL/MOL
REMARK 922        TOTAL FREE ENERGY PREDICTED BY IDOCK:   -4.66 KCAL/MOL
REMARK 923 INTER-LIGAND FREE ENERGY PREDICTED BY IDOCK:   -4.49 KCAL/MOL
REMARK 924 INTRA-LIGAND FREE ENERGY PREDICTED BY IDOCK:   -0.17 KCAL/MOL
REMARK 927      BINDING AFFINITY PREDICTED BY RF-SCORE:    0.00 PKD
ROOT
HETATM    1  C   UNL     1     -12.177  14.254  64.411  1.00  0.00    -0.447 C  
HETATM    2  O   UNL     1     -11.312  13.861  65.468  1.00  0.00    -0.302 OA 
ENDROOT
BRANCH   2   3
HETATM    3  C   UNL     1     -11.323  14.623  66.608  1.00  0.00    -0.356 A  
HETATM    4  C   UNL     1     -10.842  15.934  66.699  1.00  0.00    -0.213 A  
HETATM    5  C   UNL     1     -10.877  16.637  67.916  1.00  0.00    -0.321 A  
HETATM    6  H   UNL     1     -12.651  12.313  68.463  1.00  0.00     0.000 HD 
HETATM    7  C   UNL     1     -11.395  16.000  69.050  1.00  0.00    -0.363 A  
HETATM    8  C   UNL     1     -11.883  14.693  68.973  1.00  0.00    -0.346 A  
HETATM    9  O   UNL     1     -12.300  12.725  67.683  1.00  0.00    -0.250 OA 
HETATM   10  C   UNL     1     -11.841  14.014  67.758  1.00  0.00    -0.384 A  
BRANCH   5  11
HETATM   11  C   UNL     1     -10.301  17.985  68.056  1.00  0.00    -0.397 C  
HETATM   12  C   UNL     1     -10.430  18.973  67.157  1.00  0.00    -0.522 C  
HETATM   13  C   UNL     1      -9.791  20.316  67.306  1.00  0.00    -0.593 C  
ENDBRANCH   5  11
ENDBRANCH   2   3
TORSDOF 2
ENDMDL
MODEL       42
REMARK 921   NORMALIZED FREE ENERGY PREDICTED BY IDOCK:   -4.04 KCAL/MOL
REMARK 922        TOTAL FREE ENERGY PREDICTED BY IDOCK:   -4.65 KCAL/MOL
REMARK 923 INTER-LIGAND FREE ENERGY PREDICTED BY IDOCK:   -4.48 KCAL/MOL
REMARK 924 INTRA-LIGAND FREE ENERGY PREDICTED BY IDOCK:   -0.17 KCAL/MOL
REMARK 927      BINDING AFFINITY PREDICTED BY RF-SCORE:    0.00 PKD
ROOT
HETATM    1  C   UNL     1     -12.308  16.149  72.970  1.00  0.00    -0.525 C  
HETATM    2  O   UNL     1     -11.853  14.969  72.324  1.00  0.00    -0.371 OA 
ENDROOT
BRANCH   2   3
HETATM    3  C   UNL     1     -11.668  15.025  70.966  1.00  0.00    -0.332 A  
HETATM    4  C   UNL     1     -11.061  16.085  70.284  1.00  0.00    -0.380 A  
HETATM    5  C   UNL     1     -10.928  16.067  68.885  1.00  0.00    -0.309 A  
HETATM    6  H   UNL     1     -13.085  12.162  70.384  1.00  0.00     0.000 HD 
HETATM    7  C   UNL     1     -11.423  14.967  68.173  1.00  0.00    -0.355 A  
HETATM    8  C   UNL     1     -12.028  13.899  68.841  1.00  0.00    -0.393 A  
HETATM    9  O   UNL     1     -12.759  12.900  70.885  1.00  0.00    -0.296 OA 
HETATM   10  C   UNL     1     -12.149  13.936  70.228  1.00  0.00    -0.353 A  
BRANCH   5  11
HETATM   11  C   UNL     1     -10.369  17.206  68.138  1.00  0.00    -0.350 C  
HETATM   12  C   UNL     1     -10.403  18.484  68.548  1.00  0.00    -0.315 C  
HETATM   13  C   UNL     1      -9.871  19.626  67.742  1.00  0.00    -0.498 C  
ENDBRANCH   5  11
ENDBRANCH   2   3
TORSDOF 2
ENDMDL
MODEL       43
REMARK 921   NORMALIZED FREE ENERGY PREDICTED BY IDOCK:   -4.04 KCAL/MOL
REMARK 922        TOTAL FREE ENERGY PREDICTED BY IDOCK:   -4.64 KCAL/MOL
REMARK 923 INTER-LIGAND FREE ENERGY PREDICTED BY IDOCK:   -4.45 KCAL/MOL
REMARK 924 INTRA-LIGAND FREE ENERGY PREDICTED BY IDOCK:   -0.19 KCAL/MOL
REMARK 927      BINDING AFFINITY PREDICTED BY RF-SCORE:    0.00 PKD
ROOT
HETATM    1  C   UNL     1     -11.393   5.901  72.685  1.00  0.00    -0.292 C  
HETATM    2  O   UNL     1     -11.888   6.359  71.435  1.00  0.00    -0.317 OA 
ENDROOT
BRANCH   2   3
HETATM    3  C   UNL     1     -11.744   7.692  71.150  1.00  0.00    -0.290 A  
HETATM    4  C   UNL     1     -12.513   8.720  71.708  1.00  0.00    -0.407 A  
HETATM    5  C   UNL     1     -12.307  10.061  71.344  1.00  0.00    -0.512 A  
HETATM    6  H   UNL     1      -9.343   7.249  69.009  1.00  0.00     0.000 HD 
HETATM    7  C   UNL     1     -11.319  10.361  70.398  1.00  0.00    -0.417 A  
HETATM    8  C   UNL     1     -10.540   9.347  69.835  1.00  0.00    -0.258 A  
HETATM    9  O   UNL     1     -10.011   7.024  69.646  1.00  0.00    -0.170 OA 
HETATM   10  C   UNL     1     -10.759   8.024  70.210  1.00  0.00    -0.239 A  
BRANCH   5  11
HETATM   11  C   UNL     1     -13.159  11.149  71.854  1.00  0.00    -0.513 C  
HETATM   12  C   UNL     1     -12.966  12.454  71.608  1.00  0.00    -0.409 C  
HETATM   13  C   UNL     1     -13.819  13.539  72.182  1.00  0.00    -0.628 C  
ENDBRANCH   5  11
ENDBRANCH   2   3
TORSDOF 2
ENDMDL
MODEL       44
REMARK 921   NORMALIZED FREE ENERGY PREDICTED BY IDOCK:   -4.00 KCAL/MOL
REMARK 922        TOTAL FREE ENERGY PREDICTED BY IDOCK:   -4.59 KCAL/MOL
REMARK 923 INTER-LIGAND FREE ENERGY PREDICTED BY IDOCK:   -4.46 KCAL/MOL
REMARK 924 INTRA-LIGAND FREE ENERGY PREDICTED BY IDOCK:   -0.13 KCAL/MOL
REMARK 927      BINDING AFFINITY PREDICTED BY RF-SCORE:    0.00 PKD
ROOT
HETATM    1  C   UNL     1     -14.034  13.671  72.234  1.00  0.00    -0.563 C  
HETATM    2  O   UNL     1     -12.662  13.747  71.874  1.00  0.00    -0.311 OA 
ENDROOT
BRANCH   2   3
HETATM    3  C   UNL     1     -12.323  13.374  70.599  1.00  0.00    -0.348 A  
HETATM    4  C   UNL     1     -12.026  12.067  70.199  1.00  0.00    -0.401 A  
HETATM    5  C   UNL     1     -11.670  11.777  68.871  1.00  0.00    -0.384 A  
HETATM    6  H   UNL     1     -12.486  16.382  69.387  1.00  0.00     0.000 HD 
HETATM    7  C   UNL     1     -11.607  12.824  67.943  1.00  0.00    -0.400 A  
HETATM    8  C   UNL     1     -11.906  14.134  68.326  1.00  0.00    -0.391 A  
HETATM    9  O   UNL     1     -12.531  15.687  70.032  1.00  0.00    -0.360 OA 
HETATM   10  C   UNL     1     -12.257  14.400  69.648  1.00  0.00    -0.307 A  
BRANCH   5  11
HETATM   11  C   UNL     1     -11.271  10.424  68.445  1.00  0.00    -0.318 C  
HETATM   12  C   UNL     1     -10.628  10.137  67.303  1.00  0.00    -0.321 C  
HETATM   13  C   UNL     1     -10.282   8.747  66.875  1.00  0.00    -0.357 C  
ENDBRANCH   5  11
ENDBRANCH   2   3
TORSDOF 2
ENDMDL
MODEL       45
REMARK 921   NORMALIZED FREE ENERGY PREDICTED BY IDOCK:   -3.99 KCAL/MOL
REMARK 922        TOTAL FREE ENERGY PREDICTED BY IDOCK:   -4.59 KCAL/MOL
REMARK 923 INTER-LIGAND FREE ENERGY PREDICTED BY IDOCK:   -4.41 KCAL/MOL
REMARK 924 INTRA-LIGAND FREE ENERGY PREDICTED BY IDOCK:   -0.18 KCAL/MOL
REMARK 927      BINDING AFFINITY PREDICTED BY RF-SCORE:    0.00 PKD
ROOT
HETATM    1  C   UNL     1      -9.968  11.089  65.600  1.00  0.00    -0.248 C  
HETATM    2  O   UNL     1     -11.168  11.849  65.576  1.00  0.00    -0.317 OA 
ENDROOT
BRANCH   2   3
HETATM    3  C   UNL     1     -11.317  12.822  66.530  1.00  0.00    -0.322 A  
HETATM    4  C   UNL     1     -11.663  12.589  67.866  1.00  0.00    -0.416 A  
HETATM    5  C   UNL     1     -11.812  13.651  68.773  1.00  0.00    -0.395 A  
HETATM    6  H   UNL     1     -10.664  15.279  64.510  1.00  0.00     0.000 HD 
HETATM    7  C   UNL     1     -11.615  14.962  68.320  1.00  0.00    -0.356 A  
HETATM    8  C   UNL     1     -11.264  15.210  66.990  1.00  0.00    -0.308 A  
HETATM    9  O   UNL     1     -10.797  14.384  64.797  1.00  0.00    -0.395 OA 
HETATM   10  C   UNL     1     -11.121  14.143  66.106  1.00  0.00    -0.312 A  
BRANCH   5  11
HETATM   11  C   UNL     1     -12.257  13.438  70.161  1.00  0.00    -0.385 C  
HETATM   12  C   UNL     1     -12.940  14.331  70.894  1.00  0.00    -0.395 C  
HETATM   13  C   UNL     1     -13.334  14.104  72.318  1.00  0.00    -0.555 C  
ENDBRANCH   5  11
ENDBRANCH   2   3
TORSDOF 2
ENDMDL
MODEL       46
REMARK 921   NORMALIZED FREE ENERGY PREDICTED BY IDOCK:   -3.98 KCAL/MOL
REMARK 922        TOTAL FREE ENERGY PREDICTED BY IDOCK:   -4.57 KCAL/MOL
REMARK 923 INTER-LIGAND FREE ENERGY PREDICTED BY IDOCK:   -4.42 KCAL/MOL
REMARK 924 INTRA-LIGAND FREE ENERGY PREDICTED BY IDOCK:   -0.16 KCAL/MOL
REMARK 927      BINDING AFFINITY PREDICTED BY RF-SCORE:    0.00 PKD
ROOT
HETATM    1  C   UNL     1     -13.563  13.131  72.449  1.00  0.00    -0.567 C  
HETATM    2  O   UNL     1     -13.671  14.232  71.558  1.00  0.00    -0.365 OA 
ENDROOT
BRANCH   2   3
HETATM    3  C   UNL     1     -12.604  14.483  70.733  1.00  0.00    -0.351 A  
HETATM    4  C   UNL     1     -12.270  13.727  69.604  1.00  0.00    -0.359 A  
HETATM    5  C   UNL     1     -11.145  14.047  68.824  1.00  0.00    -0.287 A  
HETATM    6  H   UNL     1     -11.552  17.044  72.429  1.00  0.00     0.000 HD 
HETATM    7  C   UNL     1     -10.349  15.136  69.199  1.00  0.00    -0.249 A  
HETATM    8  C   UNL     1     -10.673  15.903  70.321  1.00  0.00    -0.313 A  
HETATM    9  O   UNL     1     -12.102  16.307  72.193  1.00  0.00    -0.496 OA 
HETATM   10  C   UNL     1     -11.792  15.570  71.081  1.00  0.00    -0.387 A  
BRANCH   5  11
HETATM   11  C   UNL     1     -10.725  13.218  67.682  1.00  0.00    -0.250 C  
HETATM   12  C   UNL     1     -11.549  12.737  66.737  1.00  0.00    -0.431 C  
HETATM   13  C   UNL     1     -11.099  11.856  65.616  1.00  0.00    -0.362 C  
ENDBRANCH   5  11
ENDBRANCH   2   3
TORSDOF 2
ENDMDL
MODEL       47
REMARK 921   NORMALIZED FREE ENERGY PREDICTED BY IDOCK:   -3.97 KCAL/MOL
REMARK 922        TOTAL FREE ENERGY PREDICTED BY IDOCK:   -4.57 KCAL/MOL
REMARK 923 INTER-LIGAND FREE ENERGY PREDICTED BY IDOCK:   -4.40 KCAL/MOL
REMARK 924 INTRA-LIGAND FREE ENERGY PREDICTED BY IDOCK:   -0.16 KCAL/MOL
REMARK 927      BINDING AFFINITY PREDICTED BY RF-SCORE:    0.00 PKD
ROOT
HETATM    1  C   UNL     1     -13.627  13.138  72.222  1.00  0.00    -0.581 C  
HETATM    2  O   UNL     1     -13.644  11.722  72.113  1.00  0.00    -0.358 OA 
ENDROOT
BRANCH   2   3
HETATM    3  C   UNL     1     -12.729  11.142  71.273  1.00  0.00    -0.426 A  
HETATM    4  C   UNL     1     -12.136  11.776  70.175  1.00  0.00    -0.398 A  
HETATM    5  C   UNL     1     -11.219  11.098  69.354  1.00  0.00    -0.334 A  
HETATM    6  H   UNL     1     -12.755   8.270  72.787  1.00  0.00     0.000 HD 
HETATM    7  C   UNL     1     -10.907   9.764  69.645  1.00  0.00    -0.274 A  
HETATM    8  C   UNL     1     -11.488   9.119  70.740  1.00  0.00    -0.337 A  
HETATM    9  O   UNL     1     -12.982   9.174  72.605  1.00  0.00    -0.388 OA 
HETATM   10  C   UNL     1     -12.395   9.809  71.542  1.00  0.00    -0.405 A  
BRANCH   5  11
HETATM   11  C   UNL     1     -10.646  11.716  68.146  1.00  0.00    -0.230 C  
HETATM   12  C   UNL     1     -11.193  11.660  66.922  1.00  0.00    -0.376 C  
HETATM   13  C   UNL     1     -10.561  12.255  65.705  1.00  0.00    -0.295 C  
ENDBRANCH   5  11
ENDBRANCH   2   3
TORSDOF 2
ENDMDL
MODEL       48
REMARK 921   NORMALIZED FREE ENERGY PREDICTED BY IDOCK:   -3.93 KCAL/MOL
REMARK 922        TOTAL FREE ENERGY PREDICTED BY IDOCK:   -4.52 KCAL/MOL
REMARK 923 INTER-LIGAND FREE ENERGY PREDICTED BY IDOCK:   -4.61 KCAL/MOL
REMARK 924 INTRA-LIGAND FREE ENERGY PREDICTED BY IDOCK:    0.09 KCAL/MOL
REMARK 927      BINDING AFFINITY PREDICTED BY RF-SCORE:    0.00 PKD
ROOT
HETATM    1  C   UNL     1     -12.211  13.098  63.412  1.00  0.00    -0.444 C  
HETATM    2  O   UNL     1     -12.789  12.552  64.590  1.00  0.00    -0.716 OA 
ENDROOT
BRANCH   2   3
HETATM    3  C   UNL     1     -12.085  12.687  65.759  1.00  0.00    -0.423 A  
HETATM    4  C   UNL     1     -12.369  13.620  66.762  1.00  0.00    -0.354 A  
HETATM    5  C   UNL     1     -11.581  13.701  67.922  1.00  0.00    -0.376 A  
HETATM    6  H   UNL     1      -9.955  10.337  65.061  1.00  0.00     0.000 HD 
HETATM    7  C   UNL     1     -10.492  12.832  68.063  1.00  0.00    -0.233 A  
HETATM    8  C   UNL     1     -10.199  11.891  67.072  1.00  0.00    -0.233 A  
HETATM    9  O   UNL     1     -10.696  10.920  64.945  1.00  0.00    -0.276 OA 
HETATM   10  C   UNL     1     -10.992  11.828  65.929  1.00  0.00    -0.304 A  
BRANCH   5  11
HETATM   11  C   UNL     1     -11.809  14.729  68.952  1.00  0.00    -0.331 C  
HETATM   12  C   UNL     1     -12.402  14.512  70.136  1.00  0.00    -0.398 C  
HETATM   13  C   UNL     1     -12.664  15.589  71.140  1.00  0.00    -0.525 C  
ENDBRANCH   5  11
ENDBRANCH   2   3
TORSDOF 2
ENDMDL
MODEL       49
REMARK 921   NORMALIZED FREE ENERGY PREDICTED BY IDOCK:   -3.93 KCAL/MOL
REMARK 922        TOTAL FREE ENERGY PREDICTED BY IDOCK:   -4.52 KCAL/MOL
REMARK 923 INTER-LIGAND FREE ENERGY PREDICTED BY IDOCK:   -4.34 KCAL/MOL
REMARK 924 INTRA-LIGAND FREE ENERGY PREDICTED BY IDOCK:   -0.18 KCAL/MOL
REMARK 927      BINDING AFFINITY PREDICTED BY RF-SCORE:    0.00 PKD
ROOT
HETATM    1  C   UNL     1      -9.659  15.571  66.181  1.00  0.00    -0.330 C  
HETATM    2  O   UNL     1     -10.667  15.403  65.194  1.00  0.00    -0.384 OA 
ENDROOT
BRANCH   2   3
HETATM    3  C   UNL     1     -10.872  14.135  64.712  1.00  0.00    -0.413 A  
HETATM    4  C   UNL     1     -10.016  13.049  64.925  1.00  0.00    -0.151 A  
HETATM    5  C   UNL     1     -10.296  11.786  64.377  1.00  0.00    -0.353 A  
HETATM    6  H   UNL     1     -13.639  14.875  63.182  1.00  0.00     0.000 HD 
HETATM    7  C   UNL     1     -11.450  11.626  63.600  1.00  0.00    -0.458 A  
HETATM    8  C   UNL     1     -12.317  12.700  63.383  1.00  0.00    -0.553 A  
HETATM    9  O   UNL     1     -12.859  15.005  63.709  1.00  0.00    -0.651 OA 
HETATM   10  C   UNL     1     -12.022  13.944  63.936  1.00  0.00    -0.334 A  
BRANCH   5  11
HETATM   11  C   UNL     1      -9.369  10.650  64.516  1.00  0.00    -0.284 C  
HETATM   12  C   UNL     1      -9.056   9.790  63.535  1.00  0.00    -0.263 C  
HETATM   13  C   UNL     1      -8.148   8.616  63.721  1.00  0.00    -0.163 C  
ENDBRANCH   5  11
ENDBRANCH   2   3
TORSDOF 2
ENDMDL
MODEL       50
REMARK 921   NORMALIZED FREE ENERGY PREDICTED BY IDOCK:   -3.92 KCAL/MOL
REMARK 922        TOTAL FREE ENERGY PREDICTED BY IDOCK:   -4.50 KCAL/MOL
REMARK 923 INTER-LIGAND FREE ENERGY PREDICTED BY IDOCK:   -4.34 KCAL/MOL
REMARK 924 INTRA-LIGAND FREE ENERGY PREDICTED BY IDOCK:   -0.16 KCAL/MOL
REMARK 927      BINDING AFFINITY PREDICTED BY RF-SCORE:    0.00 PKD
ROOT
HETATM    1  C   UNL     1      -8.928   7.755  70.032  1.00  0.00    -0.142 C  
HETATM    2  O   UNL     1      -9.476   8.270  71.237  1.00  0.00    -0.154 OA 
ENDROOT
BRANCH   2   3
HETATM    3  C   UNL     1     -10.558   9.105  71.131  1.00  0.00    -0.309 A  
HETATM    4  C   UNL     1     -10.639  10.208  70.273  1.00  0.00    -0.324 A  
HETATM    5  C   UNL     1     -11.783  11.022  70.243  1.00  0.00    -0.445 A  
HETATM    6  H   UNL     1     -12.307   7.565  73.393  1.00  0.00     0.000 HD 
HETATM    7  C   UNL     1     -12.852  10.719  71.097  1.00  0.00    -0.513 A  
HETATM    8  C   UNL     1     -12.788   9.619  71.955  1.00  0.00    -0.515 A  
HETATM    9  O   UNL     1     -11.570   7.755  72.824  1.00  0.00    -0.362 OA 
HETATM   10  C   UNL     1     -11.644   8.824  71.969  1.00  0.00    -0.366 A  
BRANCH   5  11
HETATM   11  C   UNL     1     -11.859  12.235  69.411  1.00  0.00    -0.370 C  
HETATM   12  C   UNL     1     -11.712  12.262  68.078  1.00  0.00    -0.417 C  
HETATM   13  C   UNL     1     -11.744  13.517  67.266  1.00  0.00    -0.423 C  
ENDBRANCH   5  11
ENDBRANCH   2   3
TORSDOF 2
ENDMDL
MODEL       51
REMARK 921   NORMALIZED FREE ENERGY PREDICTED BY IDOCK:   -3.90 KCAL/MOL
REMARK 922        TOTAL FREE ENERGY PREDICTED BY IDOCK:   -4.49 KCAL/MOL
REMARK 923 INTER-LIGAND FREE ENERGY PREDICTED BY IDOCK:   -4.30 KCAL/MOL
REMARK 924 INTRA-LIGAND FREE ENERGY PREDICTED BY IDOCK:   -0.19 KCAL/MOL
REMARK 927      BINDING AFFINITY PREDICTED BY RF-SCORE:    0.00 PKD
ROOT
HETATM    1  C   UNL     1     -10.547   7.237  69.912  1.00  0.00    -0.231 C  
HETATM    2  O   UNL     1     -10.339   8.244  70.892  1.00  0.00    -0.189 OA 
ENDROOT
BRANCH   2   3
HETATM    3  C   UNL     1     -11.069   9.399  70.774  1.00  0.00    -0.300 A  
HETATM    4  C   UNL     1     -10.818  10.414  69.845  1.00  0.00    -0.353 A  
HETATM    5  C   UNL     1     -11.608  11.575  69.806  1.00  0.00    -0.401 A  
HETATM    6  H   UNL     1     -13.091   8.687  73.213  1.00  0.00     0.000 HD 
HETATM    7  C   UNL     1     -12.657  11.710  70.725  1.00  0.00    -0.365 A  
HETATM    8  C   UNL     1     -12.923  10.703  71.655  1.00  0.00    -0.582 A  
HETATM    9  O   UNL     1     -12.373   8.578  72.601  1.00  0.00    -0.378 OA 
HETATM   10  C   UNL     1     -12.128   9.559  71.677  1.00  0.00    -0.398 A  
BRANCH   5  11
HETATM   11  C   UNL     1     -11.312  12.693  68.895  1.00  0.00    -0.345 C  
HETATM   12  C   UNL     1     -11.835  13.925  68.995  1.00  0.00    -0.397 C  
HETATM   13  C   UNL     1     -11.553  15.026  68.023  1.00  0.00    -0.356 C  
ENDBRANCH   5  11
ENDBRANCH   2   3
TORSDOF 2
ENDMDL
MODEL       52
REMARK 921   NORMALIZED FREE ENERGY PREDICTED BY IDOCK:   -3.89 KCAL/MOL
REMARK 922        TOTAL FREE ENERGY PREDICTED BY IDOCK:   -4.48 KCAL/MOL
REMARK 923 INTER-LIGAND FREE ENERGY PREDICTED BY IDOCK:   -4.32 KCAL/MOL
REMARK 924 INTRA-LIGAND FREE ENERGY PREDICTED BY IDOCK:   -0.16 KCAL/MOL
REMARK 927      BINDING AFFINITY PREDICTED BY RF-SCORE:    0.00 PKD
ROOT
HETATM    1  C   UNL     1     -12.653  13.498  71.189  1.00  0.00    -0.355 C  
HETATM    2  O   UNL     1     -12.535  12.094  71.005  1.00  0.00    -0.370 OA 
ENDROOT
BRANCH   2   3
HETATM    3  C   UNL     1     -11.941  11.657  69.849  1.00  0.00    -0.340 A  
HETATM    4  C   UNL     1     -11.971  12.337  68.627  1.00  0.00    -0.276 A  
HETATM    5  C   UNL     1     -11.348  11.806  67.485  1.00  0.00    -0.377 A  
HETATM    6  H   UNL     1     -10.807   8.908  71.153  1.00  0.00     0.000 HD 
HETATM    7  C   UNL     1     -10.698  10.569  67.583  1.00  0.00    -0.324 A  
HETATM    8  C   UNL     1     -10.656   9.881  68.798  1.00  0.00    -0.246 A  
HETATM    9  O   UNL     1     -11.257   9.744  71.107  1.00  0.00    -0.346 OA 
HETATM   10  C   UNL     1     -11.279  10.425  69.918  1.00  0.00    -0.306 A  
BRANCH   5  11
HETATM   11  C   UNL     1     -11.438  12.461  66.169  1.00  0.00    -0.430 C  
HETATM   12  C   UNL     1     -12.149  13.569  65.909  1.00  0.00    -0.477 C  
HETATM   13  C   UNL     1     -12.260  14.182  64.550  1.00  0.00    -0.468 C  
ENDBRANCH   5  11
ENDBRANCH   2   3
TORSDOF 2
ENDMDL
MODEL       53
REMARK 921   NORMALIZED FREE ENERGY PREDICTED BY IDOCK:   -3.89 KCAL/MOL
REMARK 922        TOTAL FREE ENERGY PREDICTED BY IDOCK:   -4.47 KCAL/MOL
REMARK 923 INTER-LIGAND FREE ENERGY PREDICTED BY IDOCK:   -4.30 KCAL/MOL
REMARK 924 INTRA-LIGAND FREE ENERGY PREDICTED BY IDOCK:   -0.17 KCAL/MOL
REMARK 927      BINDING AFFINITY PREDICTED BY RF-SCORE:    0.00 PKD
ROOT
HETATM    1  C   UNL     1     -11.346  11.909  67.322  1.00  0.00    -0.329 C  
HETATM    2  O   UNL     1     -11.131  12.458  68.615  1.00  0.00    -0.228 OA 
ENDROOT
BRANCH   2   3
HETATM    3  C   UNL     1     -11.701  11.808  69.679  1.00  0.00    -0.344 A  
HETATM    4  C   UNL     1     -11.638  10.428  69.902  1.00  0.00    -0.358 A  
HETATM    5  C   UNL     1     -12.268   9.843  71.013  1.00  0.00    -0.446 A  
HETATM    6  H   UNL     1     -12.972  14.496  70.985  1.00  0.00     0.000 HD 
HETATM    7  C   UNL     1     -12.975  10.664  71.901  1.00  0.00    -0.542 A  
HETATM    8  C   UNL     1     -13.042  12.044  71.694  1.00  0.00    -0.422 A  
HETATM    9  O   UNL     1     -12.491  13.956  70.369  1.00  0.00    -0.336 OA 
HETATM   10  C   UNL     1     -12.410  12.605  70.586  1.00  0.00    -0.290 A  
BRANCH   5  11
HETATM   11  C   UNL     1     -12.288   8.386  71.223  1.00  0.00    -0.289 C  
HETATM   12  C   UNL     1     -11.655   7.745  72.218  1.00  0.00    -0.390 C  
HETATM   13  C   UNL     1     -11.652   6.258  72.375  1.00  0.00    -0.325 C  
ENDBRANCH   5  11
ENDBRANCH   2   3
TORSDOF 2
ENDMDL
MODEL       54
REMARK 921   NORMALIZED FREE ENERGY PREDICTED BY IDOCK:   -3.89 KCAL/MOL
REMARK 922        TOTAL FREE ENERGY PREDICTED BY IDOCK:   -4.47 KCAL/MOL
REMARK 923 INTER-LIGAND FREE ENERGY PREDICTED BY IDOCK:   -4.28 KCAL/MOL
REMARK 924 INTRA-LIGAND FREE ENERGY PREDICTED BY IDOCK:   -0.19 KCAL/MOL
REMARK 927      BINDING AFFINITY PREDICTED BY RF-SCORE:    0.00 PKD
ROOT
HETATM    1  C   UNL     1     -11.571  12.481  68.710  1.00  0.00    -0.322 C  
HETATM    2  O   UNL     1     -11.663  12.420  70.126  1.00  0.00    -0.286 OA 
ENDROOT
BRANCH   2   3
HETATM    3  C   UNL     1     -11.814  11.181  70.695  1.00  0.00    -0.302 A  
HETATM    4  C   UNL     1     -11.074  10.045  70.348  1.00  0.00    -0.393 A  
HETATM    5  C   UNL     1     -11.308   8.808  70.973  1.00  0.00    -0.332 A  
HETATM    6  H   UNL     1     -14.212  12.091  72.686  1.00  0.00     0.000 HD 
HETATM    7  C   UNL     1     -12.306   8.722  71.952  1.00  0.00    -0.429 A  
HETATM    8  C   UNL     1     -13.049   9.849  72.312  1.00  0.00    -0.419 A  
HETATM    9  O   UNL     1     -13.542  12.169  72.017  1.00  0.00    -0.377 OA 
HETATM   10  C   UNL     1     -12.802  11.066  71.681  1.00  0.00    -0.435 A  
BRANCH   5  11
HETATM   11  C   UNL     1     -10.601   7.582  70.567  1.00  0.00    -0.232 C  
HETATM   12  C   UNL     1     -11.166   6.368  70.467  1.00  0.00    -0.414 C  
HETATM   13  C   UNL     1     -10.410   5.131  70.100  1.00  0.00    -0.340 C  
ENDBRANCH   5  11
ENDBRANCH   2   3
TORSDOF 2
ENDMDL
MODEL       55
REMARK 921   NORMALIZED FREE ENERGY PREDICTED BY IDOCK:   -3.88 KCAL/MOL
REMARK 922        TOTAL FREE ENERGY PREDICTED BY IDOCK:   -4.46 KCAL/MOL
REMARK 923 INTER-LIGAND FREE ENERGY PREDICTED BY IDOCK:   -4.29 KCAL/MOL
REMARK 924 INTRA-LIGAND FREE ENERGY PREDICTED BY IDOCK:   -0.17 KCAL/MOL
REMARK 927      BINDING AFFINITY PREDICTED BY RF-SCORE:    0.00 PKD
ROOT
HETATM    1  C   UNL     1      -8.985  10.646  65.066  1.00  0.00    -0.199 C  
HETATM    2  O   UNL     1     -10.401  10.590  65.164  1.00  0.00    -0.304 OA 
ENDROOT
BRANCH   2   3
HETATM    3  C   UNL     1     -11.049  11.718  65.598  1.00  0.00    -0.285 A  
HETATM    4  C   UNL     1     -11.001  12.216  66.905  1.00  0.00    -0.317 A  
HETATM    5  C   UNL     1     -11.712  13.372  67.267  1.00  0.00    -0.424 A  
HETATM    6  H   UNL     1     -12.419  12.363  62.726  1.00  0.00     0.000 HD 
HETATM    7  C   UNL     1     -12.485  14.023  66.298  1.00  0.00    -0.439 A  
HETATM    8  C   UNL     1     -12.539  13.540  64.988  1.00  0.00    -0.441 A  
HETATM    9  O   UNL     1     -11.892  11.905  63.370  1.00  0.00    -0.463 OA 
HETATM   10  C   UNL     1     -11.826  12.393  64.648  1.00  0.00    -0.380 A  
BRANCH   5  11
HETATM   11  C   UNL     1     -11.745  13.867  68.654  1.00  0.00    -0.396 C  
HETATM   12  C   UNL     1     -11.063  14.931  69.106  1.00  0.00    -0.279 C  
HETATM   13  C   UNL     1     -11.078  15.379  70.532  1.00  0.00    -0.361 C  
ENDBRANCH   5  11
ENDBRANCH   2   3
TORSDOF 2
ENDMDL
MODEL       56
REMARK 921   NORMALIZED FREE ENERGY PREDICTED BY IDOCK:   -3.87 KCAL/MOL
REMARK 922        TOTAL FREE ENERGY PREDICTED BY IDOCK:   -4.45 KCAL/MOL
REMARK 923 INTER-LIGAND FREE ENERGY PREDICTED BY IDOCK:   -4.28 KCAL/MOL
REMARK 924 INTRA-LIGAND FREE ENERGY PREDICTED BY IDOCK:   -0.17 KCAL/MOL
REMARK 927      BINDING AFFINITY PREDICTED BY RF-SCORE:    0.00 PKD
ROOT
HETATM    1  C   UNL     1      -8.824   8.743  69.602  1.00  0.00    -0.141 C  
HETATM    2  O   UNL     1      -9.316   8.191  70.814  1.00  0.00    -0.154 OA 
ENDROOT
BRANCH   2   3
HETATM    3  C   UNL     1     -10.656   8.327  71.071  1.00  0.00    -0.204 A  
HETATM    4  C   UNL     1     -11.296   9.534  71.372  1.00  0.00    -0.462 A  
HETATM    5  C   UNL     1     -12.675   9.578  71.640  1.00  0.00    -0.478 A  
HETATM    6  H   UNL     1     -11.313   5.164  70.745  1.00  0.00     0.000 HD 
HETATM    7  C   UNL     1     -13.408   8.385  71.610  1.00  0.00    -0.361 A  
HETATM    8  C   UNL     1     -12.784   7.173  71.306  1.00  0.00    -0.412 A  
HETATM    9  O   UNL     1     -10.797   5.961  70.764  1.00  0.00    -0.267 OA 
HETATM   10  C   UNL     1     -11.416   7.151  71.043  1.00  0.00    -0.297 A  
BRANCH   5  11
HETATM   11  C   UNL     1     -13.354  10.821  72.042  1.00  0.00    -0.403 C  
HETATM   12  C   UNL     1     -12.953  12.058  71.709  1.00  0.00    -0.445 C  
HETATM   13  C   UNL     1     -13.636  13.304  72.175  1.00  0.00    -0.655 C  
ENDBRANCH   5  11
ENDBRANCH   2   3
TORSDOF 2
ENDMDL
MODEL       57
REMARK 921   NORMALIZED FREE ENERGY PREDICTED BY IDOCK:   -3.87 KCAL/MOL
REMARK 922        TOTAL FREE ENERGY PREDICTED BY IDOCK:   -4.45 KCAL/MOL
REMARK 923 INTER-LIGAND FREE ENERGY PREDICTED BY IDOCK:   -4.29 KCAL/MOL
REMARK 924 INTRA-LIGAND FREE ENERGY PREDICTED BY IDOCK:   -0.16 KCAL/MOL
REMARK 927      BINDING AFFINITY PREDICTED BY RF-SCORE:    0.00 PKD
ROOT
HETATM    1  C   UNL     1     -10.429   8.634  67.089  1.00  0.00    -0.289 C  
HETATM    2  O   UNL     1     -10.369   9.889  67.752  1.00  0.00    -0.191 OA 
ENDROOT
BRANCH   2   3
HETATM    3  C   UNL     1     -10.974   9.983  68.979  1.00  0.00    -0.212 A  
HETATM    4  C   UNL     1     -10.805   9.073  70.028  1.00  0.00    -0.247 A  
HETATM    5  C   UNL     1     -11.480   9.239  71.249  1.00  0.00    -0.418 A  
HETATM    6  H   UNL     1     -12.606  12.698  68.264  1.00  0.00     0.000 HD 
HETATM    7  C   UNL     1     -12.340  10.333  71.404  1.00  0.00    -0.502 A  
HETATM    8  C   UNL     1     -12.515  11.253  70.367  1.00  0.00    -0.355 A  
HETATM    9  O   UNL     1     -12.021  11.961  68.138  1.00  0.00    -0.496 OA 
HETATM   10  C   UNL     1     -11.836  11.071  69.164  1.00  0.00    -0.337 A  
BRANCH   5  11
HETATM   11  C   UNL     1     -11.384   8.250  72.336  1.00  0.00    -0.457 C  
HETATM   12  C   UNL     1     -10.246   7.894  72.952  1.00  0.00    -0.397 C  
HETATM   13  C   UNL     1     -10.175   6.849  74.020  1.00  0.00    -0.384 C  
ENDBRANCH   5  11
ENDBRANCH   2   3
TORSDOF 2
ENDMDL
MODEL       58
REMARK 921   NORMALIZED FREE ENERGY PREDICTED BY IDOCK:   -3.82 KCAL/MOL
REMARK 922        TOTAL FREE ENERGY PREDICTED BY IDOCK:   -4.40 KCAL/MOL
REMARK 923 INTER-LIGAND FREE ENERGY PREDICTED BY IDOCK:   -4.20 KCAL/MOL
REMARK 924 INTRA-LIGAND FREE ENERGY PREDICTED BY IDOCK:   -0.19 KCAL/MOL
REMARK 927      BINDING AFFINITY PREDICTED BY RF-SCORE:    0.00 PKD
ROOT
HETATM    1  C   UNL     1     -11.075   6.706  70.140  1.00  0.00    -0.329 C  
HETATM    2  O   UNL     1     -10.227   7.808  69.850  1.00  0.00    -0.203 OA 
ENDROOT
BRANCH   2   3
HETATM    3  C   UNL     1     -10.823   9.027  69.653  1.00  0.00    -0.186 A  
HETATM    4  C   UNL     1     -11.456   9.780  70.648  1.00  0.00    -0.397 A  
HETATM    5  C   UNL     1     -12.058  11.015  70.352  1.00  0.00    -0.463 A  
HETATM    6  H   UNL     1     -10.184   9.126  66.471  1.00  0.00     0.000 HD 
HETATM    7  C   UNL     1     -12.025  11.485  69.033  1.00  0.00    -0.377 A  
HETATM    8  C   UNL     1     -11.393  10.746  68.029  1.00  0.00    -0.378 A  
HETATM    9  O   UNL     1     -10.198   8.788  67.358  1.00  0.00    -0.213 OA 
HETATM   10  C   UNL     1     -10.802   9.525  68.344  1.00  0.00    -0.137 A  
BRANCH   5  11
HETATM   11  C   UNL     1     -12.802  11.785  71.363  1.00  0.00    -0.440 C  
HETATM   12  C   UNL     1     -12.857  13.124  71.421  1.00  0.00    -0.401 C  
HETATM   13  C   UNL     1     -13.580  13.878  72.491  1.00  0.00    -0.680 C  
ENDBRANCH   5  11
ENDBRANCH   2   3
TORSDOF 2
ENDMDL
MODEL       59
REMARK 921   NORMALIZED FREE ENERGY PREDICTED BY IDOCK:   -3.79 KCAL/MOL
REMARK 922        TOTAL FREE ENERGY PREDICTED BY IDOCK:   -4.36 KCAL/MOL
REMARK 923 INTER-LIGAND FREE ENERGY PREDICTED BY IDOCK:   -4.19 KCAL/MOL
REMARK 924 INTRA-LIGAND FREE ENERGY PREDICTED BY IDOCK:   -0.17 KCAL/MOL
REMARK 927      BINDING AFFINITY PREDICTED BY RF-SCORE:    0.00 PKD
ROOT
HETATM    1  C   UNL     1      -8.188  10.182  65.090  1.00  0.00    -0.151 C  
HETATM    2  O   UNL     1      -9.538  10.235  64.653  1.00  0.00    -0.264 OA 
ENDROOT
BRANCH   2   3
HETATM    3  C   UNL     1     -10.338  11.210  65.191  1.00  0.00    -0.293 A  
HETATM    4  C   UNL     1     -10.649  11.330  66.550  1.00  0.00    -0.315 A  
HETATM    5  C   UNL     1     -11.494  12.353  67.014  1.00  0.00    -0.423 A  
HETATM    6  H   UNL     1     -10.974  12.638  62.345  1.00  0.00     0.000 HD 
HETATM    7  C   UNL     1     -12.033  13.257  66.089  1.00  0.00    -0.470 A  
HETATM    8  C   UNL     1     -11.727  13.152  64.730  1.00  0.00    -0.387 A  
HETATM    9  O   UNL     1     -10.601  12.013  62.956  1.00  0.00    -0.304 OA 
HETATM   10  C   UNL     1     -10.887  12.131  64.291  1.00  0.00    -0.341 A  
BRANCH   5  11
HETATM   11  C   UNL     1     -11.903  12.450  68.425  1.00  0.00    -0.361 C  
HETATM   12  C   UNL     1     -11.788  11.463  69.327  1.00  0.00    -0.417 C  
HETATM   13  C   UNL     1     -12.260  11.576  70.742  1.00  0.00    -0.463 C  
ENDBRANCH   5  11
ENDBRANCH   2   3
TORSDOF 2
ENDMDL
MODEL       60
REMARK 921   NORMALIZED FREE ENERGY PREDICTED BY IDOCK:   -3.78 KCAL/MOL
REMARK 922        TOTAL FREE ENERGY PREDICTED BY IDOCK:   -4.35 KCAL/MOL
REMARK 923 INTER-LIGAND FREE ENERGY PREDICTED BY IDOCK:   -4.18 KCAL/MOL
REMARK 924 INTRA-LIGAND FREE ENERGY PREDICTED BY IDOCK:   -0.16 KCAL/MOL
REMARK 927      BINDING AFFINITY PREDICTED BY RF-SCORE:    0.00 PKD
ROOT
HETATM    1  C   UNL     1     -11.231  10.579  67.671  1.00  0.00    -0.265 C  
HETATM    2  O   UNL     1     -11.276  10.574  69.091  1.00  0.00    -0.228 OA 
ENDROOT
BRANCH   2   3
HETATM    3  C   UNL     1     -11.779  11.690  69.710  1.00  0.00    -0.352 A  
HETATM    4  C   UNL     1     -11.577  13.005  69.278  1.00  0.00    -0.367 A  
HETATM    5  C   UNL     1     -12.117  14.093  69.985  1.00  0.00    -0.409 A  
HETATM    6  H   UNL     1     -13.234  10.039  72.098  1.00  0.00     0.000 HD 
HETATM    7  C   UNL     1     -12.861  13.843  71.145  1.00  0.00    -0.423 A  
HETATM    8  C   UNL     1     -13.076  12.535  71.586  1.00  0.00    -0.414 A  
HETATM    9  O   UNL     1     -12.724  10.187  71.311  1.00  0.00    -0.340 OA 
HETATM   10  C   UNL     1     -12.532  11.471  70.870  1.00  0.00    -0.366 A  
BRANCH   5  11
HETATM   11  C   UNL     1     -11.848  15.488  69.598  1.00  0.00    -0.384 C  
HETATM   12  C   UNL     1     -11.138  15.864  68.523  1.00  0.00    -0.340 C  
HETATM   13  C   UNL     1     -10.839  17.290  68.185  1.00  0.00    -0.294 C  
ENDBRANCH   5  11
ENDBRANCH   2   3
TORSDOF 2
ENDMDL
MODEL       61
REMARK 921   NORMALIZED FREE ENERGY PREDICTED BY IDOCK:   -3.77 KCAL/MOL
REMARK 922        TOTAL FREE ENERGY PREDICTED BY IDOCK:   -4.34 KCAL/MOL
REMARK 923 INTER-LIGAND FREE ENERGY PREDICTED BY IDOCK:   -4.15 KCAL/MOL
REMARK 924 INTRA-LIGAND FREE ENERGY PREDICTED BY IDOCK:   -0.19 KCAL/MOL
REMARK 927      BINDING AFFINITY PREDICTED BY RF-SCORE:    0.00 PKD
ROOT
HETATM    1  C   UNL     1     -10.589  12.000  67.138  1.00  0.00    -0.224 C  
HETATM    2  O   UNL     1     -11.755  12.418  67.832  1.00  0.00    -0.337 OA 
ENDROOT
BRANCH   2   3
HETATM    3  C   UNL     1     -11.705  13.629  68.475  1.00  0.00    -0.357 A  
HETATM    4  C   UNL     1     -11.422  14.852  67.858  1.00  0.00    -0.357 A  
HETATM    5  C   UNL     1     -11.375  16.045  68.600  1.00  0.00    -0.383 A  
HETATM    6  H   UNL     1     -12.361  12.401  71.409  1.00  0.00     0.000 HD 
HETATM    7  C   UNL     1     -11.608  15.994  69.980  1.00  0.00    -0.316 A  
HETATM    8  C   UNL     1     -11.897  14.780  70.609  1.00  0.00    -0.364 A  
HETATM    9  O   UNL     1     -12.203  12.414  70.472  1.00  0.00    -0.361 OA 
HETATM   10  C   UNL     1     -11.940  13.609  69.856  1.00  0.00    -0.348 A  
BRANCH   5  11
HETATM   11  C   UNL     1     -10.997  17.331  67.989  1.00  0.00    -0.194 C  
HETATM   12  C   UNL     1     -10.152  18.220  68.533  1.00  0.00    -0.419 C  
HETATM   13  C   UNL     1      -9.827  19.541  67.911  1.00  0.00    -0.485 C  
ENDBRANCH   5  11
ENDBRANCH   2   3
TORSDOF 2
ENDMDL
MODEL       62
REMARK 921   NORMALIZED FREE ENERGY PREDICTED BY IDOCK:   -3.77 KCAL/MOL
REMARK 922        TOTAL FREE ENERGY PREDICTED BY IDOCK:   -4.34 KCAL/MOL
REMARK 923 INTER-LIGAND FREE ENERGY PREDICTED BY IDOCK:   -4.17 KCAL/MOL
REMARK 924 INTRA-LIGAND FREE ENERGY PREDICTED BY IDOCK:   -0.17 KCAL/MOL
REMARK 927      BINDING AFFINITY PREDICTED BY RF-SCORE:    0.00 PKD
ROOT
HETATM    1  C   UNL     1      -9.408  10.387  65.791  1.00  0.00    -0.186 C  
HETATM    2  O   UNL     1     -10.730  10.907  65.830  1.00  0.00    -0.204 OA 
ENDROOT
BRANCH   2   3
HETATM    3  C   UNL     1     -11.103  11.598  66.953  1.00  0.00    -0.308 A  
HETATM    4  C   UNL     1     -11.326  11.024  68.210  1.00  0.00    -0.366 A  
HETATM    5  C   UNL     1     -11.725  11.808  69.306  1.00  0.00    -0.398 A  
HETATM    6  H   UNL     1     -11.214  14.484  65.468  1.00  0.00     0.000 HD 
HETATM    7  C   UNL     1     -11.908  13.184  69.122  1.00  0.00    -0.364 A  
HETATM    8  C   UNL     1     -11.684  13.772  67.875  1.00  0.00    -0.395 A  
HETATM    9  O   UNL     1     -11.088  13.548  65.571  1.00  0.00    -0.292 OA 
HETATM   10  C   UNL     1     -11.289  12.978  66.801  1.00  0.00    -0.324 A  
BRANCH   5  11
HETATM   11  C   UNL     1     -12.047  11.215  70.615  1.00  0.00    -0.477 C  
HETATM   12  C   UNL     1     -12.149   9.899  70.858  1.00  0.00    -0.431 C  
HETATM   13  C   UNL     1     -12.526   9.330  72.189  1.00  0.00    -0.421 C  
ENDBRANCH   5  11
ENDBRANCH   2   3
TORSDOF 2
ENDMDL
MODEL       63
REMARK 921   NORMALIZED FREE ENERGY PREDICTED BY IDOCK:   -3.76 KCAL/MOL
REMARK 922        TOTAL FREE ENERGY PREDICTED BY IDOCK:   -4.33 KCAL/MOL
REMARK 923 INTER-LIGAND FREE ENERGY PREDICTED BY IDOCK:   -4.17 KCAL/MOL
REMARK 924 INTRA-LIGAND FREE ENERGY PREDICTED BY IDOCK:   -0.15 KCAL/MOL
REMARK 927      BINDING AFFINITY PREDICTED BY RF-SCORE:    0.00 PKD
ROOT
HETATM    1  C   UNL     1      -5.900  17.788  68.468  1.00  0.00    -0.176 C  
HETATM    2  O   UNL     1      -6.574  19.038  68.517  1.00  0.00    -0.236 OA 
ENDROOT
BRANCH   2   3
HETATM    3  C   UNL     1      -7.915  19.044  68.230  1.00  0.00    -0.315 A  
HETATM    4  C   UNL     1      -8.788  17.976  68.465  1.00  0.00    -0.304 A  
HETATM    5  C   UNL     1     -10.148  18.062  68.122  1.00  0.00    -0.378 A  
HETATM    6  H   UNL     1      -7.911  22.045  66.990  1.00  0.00     0.000 HD 
HETATM    7  C   UNL     1     -10.623  19.239  67.528  1.00  0.00    -0.581 A  
HETATM    8  C   UNL     1      -9.764  20.314  67.291  1.00  0.00    -0.590 A  
HETATM    9  O   UNL     1      -7.569  21.255  67.391  1.00  0.00    -0.410 OA 
HETATM   10  C   UNL     1      -8.419  20.209  67.639  1.00  0.00    -0.300 A  
BRANCH   5  11
HETATM   11  C   UNL     1     -11.069  16.924  68.281  1.00  0.00    -0.213 C  
HETATM   12  C   UNL     1     -11.088  16.094  69.336  1.00  0.00    -0.335 C  
HETATM   13  C   UNL     1     -12.002  14.916  69.446  1.00  0.00    -0.336 C  
ENDBRANCH   5  11
ENDBRANCH   2   3
TORSDOF 2
ENDMDL
MODEL       64
REMARK 921   NORMALIZED FREE ENERGY PREDICTED BY IDOCK:   -3.75 KCAL/MOL
REMARK 922        TOTAL FREE ENERGY PREDICTED BY IDOCK:   -4.32 KCAL/MOL
REMARK 923 INTER-LIGAND FREE ENERGY PREDICTED BY IDOCK:   -4.15 KCAL/MOL
REMARK 924 INTRA-LIGAND FREE ENERGY PREDICTED BY IDOCK:   -0.17 KCAL/MOL
REMARK 927      BINDING AFFINITY PREDICTED BY RF-SCORE:    0.00 PKD
ROOT
HETATM    1  C   UNL     1      -9.621   8.381  68.946  1.00  0.00    -0.153 C  
HETATM    2  O   UNL     1     -10.904   8.896  69.273  1.00  0.00    -0.197 OA 
ENDROOT
BRANCH   2   3
HETATM    3  C   UNL     1     -11.209  10.158  68.830  1.00  0.00    -0.170 A  
HETATM    4  C   UNL     1     -11.144  10.576  67.497  1.00  0.00    -0.358 A  
HETATM    5  C   UNL     1     -11.458  11.897  67.134  1.00  0.00    -0.386 A  
HETATM    6  H   UNL     1     -11.904  11.317  71.783  1.00  0.00     0.000 HD 
HETATM    7  C   UNL     1     -11.833  12.803  68.135  1.00  0.00    -0.372 A  
HETATM    8  C   UNL     1     -11.907  12.398  69.470  1.00  0.00    -0.368 A  
HETATM    9  O   UNL     1     -11.644  10.689  71.120  1.00  0.00    -0.270 OA 
HETATM   10  C   UNL     1     -11.592  11.084  69.809  1.00  0.00    -0.325 A  
BRANCH   5  11
HETATM   11  C   UNL     1     -11.316  12.383  65.751  1.00  0.00    -0.393 C  
HETATM   12  C   UNL     1     -12.333  12.573  64.896  1.00  0.00    -0.539 C  
HETATM   13  C   UNL     1     -12.151  13.020  63.481  1.00  0.00    -0.617 C  
ENDBRANCH   5  11
ENDBRANCH   2   3
TORSDOF 2
ENDMDL
MODEL       65
REMARK 921   NORMALIZED FREE ENERGY PREDICTED BY IDOCK:   -3.68 KCAL/MOL
REMARK 922        TOTAL FREE ENERGY PREDICTED BY IDOCK:   -4.24 KCAL/MOL
REMARK 923 INTER-LIGAND FREE ENERGY PREDICTED BY IDOCK:   -4.09 KCAL/MOL
REMARK 924 INTRA-LIGAND FREE ENERGY PREDICTED BY IDOCK:   -0.15 KCAL/MOL
REMARK 927      BINDING AFFINITY PREDICTED BY RF-SCORE:    0.00 PKD
ROOT
HETATM    1  C   UNL     1     -13.716   9.066  71.935  1.00  0.00    -0.441 C  
HETATM    2  O   UNL     1     -12.485   9.773  71.994  1.00  0.00    -0.367 OA 
ENDROOT
BRANCH   2   3
HETATM    3  C   UNL     1     -12.129  10.511  70.895  1.00  0.00    -0.383 A  
HETATM    4  C   UNL     1     -11.483  10.001  69.763  1.00  0.00    -0.240 A  
HETATM    5  C   UNL     1     -11.137  10.836  68.687  1.00  0.00    -0.312 A  
HETATM    6  H   UNL     1     -13.245  13.319  72.084  1.00  0.00     0.000 HD 
HETATM    7  C   UNL     1     -11.443  12.201  68.764  1.00  0.00    -0.359 A  
HETATM    8  C   UNL     1     -12.091  12.723  69.886  1.00  0.00    -0.329 A  
HETATM    9  O   UNL     1     -13.044  12.391  72.052  1.00  0.00    -0.430 OA 
HETATM   10  C   UNL     1     -12.426  11.879  70.942  1.00  0.00    -0.300 A  
BRANCH   5  11
HETATM   11  C   UNL     1     -10.384  10.340  67.523  1.00  0.00    -0.276 C  
HETATM   12  C   UNL     1     -10.558  10.759  66.260  1.00  0.00    -0.257 C  
HETATM   13  C   UNL     1      -9.811  10.199  65.092  1.00  0.00    -0.394 C  
ENDBRANCH   5  11
ENDBRANCH   2   3
TORSDOF 2
ENDMDL
MODEL       66
REMARK 921   NORMALIZED FREE ENERGY PREDICTED BY IDOCK:   -3.66 KCAL/MOL
REMARK 922        TOTAL FREE ENERGY PREDICTED BY IDOCK:   -4.22 KCAL/MOL
REMARK 923 INTER-LIGAND FREE ENERGY PREDICTED BY IDOCK:   -4.05 KCAL/MOL
REMARK 924 INTRA-LIGAND FREE ENERGY PREDICTED BY IDOCK:   -0.17 KCAL/MOL
REMARK 927      BINDING AFFINITY PREDICTED BY RF-SCORE:    0.00 PKD
ROOT
HETATM    1  C   UNL     1      -8.668  17.079  67.548  1.00  0.00    -0.210 C  
HETATM    2  O   UNL     1      -8.568  15.686  67.804  1.00  0.00    -0.159 OA 
ENDROOT
BRANCH   2   3
HETATM    3  C   UNL     1      -9.706  15.035  68.206  1.00  0.00    -0.215 A  
HETATM    4  C   UNL     1     -10.347  15.227  69.436  1.00  0.00    -0.255 A  
HETATM    5  C   UNL     1     -11.502  14.502  69.773  1.00  0.00    -0.327 A  
HETATM    6  H   UNL     1      -9.970  13.259  65.501  1.00  0.00     0.000 HD 
HETATM    7  C   UNL     1     -12.007  13.569  68.858  1.00  0.00    -0.378 A  
HETATM    8  C   UNL     1     -11.382  13.371  67.625  1.00  0.00    -0.321 A  
HETATM    9  O   UNL     1      -9.609  13.893  66.109  1.00  0.00    -0.281 OA 
HETATM   10  C   UNL     1     -10.237  14.100  67.309  1.00  0.00    -0.256 A  
BRANCH   5  11
HETATM   11  C   UNL     1     -12.144  14.625  71.093  1.00  0.00    -0.403 C  
HETATM   12  C   UNL     1     -13.123  15.493  71.393  1.00  0.00    -0.580 C  
HETATM   13  C   UNL     1     -13.720  15.627  72.757  1.00  0.00    -0.662 C  
ENDBRANCH   5  11
ENDBRANCH   2   3
TORSDOF 2
ENDMDL
MODEL       67
REMARK 921   NORMALIZED FREE ENERGY PREDICTED BY IDOCK:   -3.62 KCAL/MOL
REMARK 922        TOTAL FREE ENERGY PREDICTED BY IDOCK:   -4.18 KCAL/MOL
REMARK 923 INTER-LIGAND FREE ENERGY PREDICTED BY IDOCK:   -4.00 KCAL/MOL
REMARK 924 INTRA-LIGAND FREE ENERGY PREDICTED BY IDOCK:   -0.17 KCAL/MOL
REMARK 927      BINDING AFFINITY PREDICTED BY RF-SCORE:    0.00 PKD
ROOT
HETATM    1  C   UNL     1      -9.660  10.535  65.189  1.00  0.00    -0.260 C  
HETATM    2  O   UNL     1     -10.898  10.999  65.708  1.00  0.00    -0.201 OA 
ENDROOT
BRANCH   2   3
HETATM    3  C   UNL     1     -10.916  12.247  66.276  1.00  0.00    -0.291 A  
HETATM    4  C   UNL     1     -10.257  13.370  65.763  1.00  0.00    -0.300 A  
HETATM    5  C   UNL     1     -10.315  14.610  66.422  1.00  0.00    -0.293 A  
HETATM    6  H   UNL     1     -12.762  11.368  68.799  1.00  0.00     0.000 HD 
HETATM    7  C   UNL     1     -11.039  14.708  67.617  1.00  0.00    -0.311 A  
HETATM    8  C   UNL     1     -11.706  13.597  68.139  1.00  0.00    -0.392 A  
HETATM    9  O   UNL     1     -12.273  11.280  67.989  1.00  0.00    -0.621 OA 
HETATM   10  C   UNL     1     -11.637  12.377  67.470  1.00  0.00    -0.365 A  
BRANCH   5  11
HETATM   11  C   UNL     1      -9.562  15.784  65.947  1.00  0.00    -0.382 C  
HETATM   12  C   UNL     1      -8.393  16.203  66.456  1.00  0.00    -0.352 C  
HETATM   13  C   UNL     1      -7.678  17.429  65.985  1.00  0.00    -0.233 C  
ENDBRANCH   5  11
ENDBRANCH   2   3
TORSDOF 2
ENDMDL
MODEL       68
REMARK 921   NORMALIZED FREE ENERGY PREDICTED BY IDOCK:   -3.61 KCAL/MOL
REMARK 922        TOTAL FREE ENERGY PREDICTED BY IDOCK:   -4.16 KCAL/MOL
REMARK 923 INTER-LIGAND FREE ENERGY PREDICTED BY IDOCK:   -3.96 KCAL/MOL
REMARK 924 INTRA-LIGAND FREE ENERGY PREDICTED BY IDOCK:   -0.20 KCAL/MOL
REMARK 927      BINDING AFFINITY PREDICTED BY RF-SCORE:    0.00 PKD
ROOT
HETATM    1  C   UNL     1     -11.326   6.184  72.264  1.00  0.00    -0.300 C  
HETATM    2  O   UNL     1     -11.494   7.492  72.790  1.00  0.00    -0.334 OA 
ENDROOT
BRANCH   2   3
HETATM    3  C   UNL     1     -11.524   8.532  71.897  1.00  0.00    -0.335 A  
HETATM    4  C   UNL     1     -10.500   8.843  70.995  1.00  0.00    -0.316 A  
HETATM    5  C   UNL     1     -10.607   9.941  70.126  1.00  0.00    -0.350 A  
HETATM    6  H   UNL     1     -14.442   9.605  72.832  1.00  0.00     0.000 HD 
HETATM    7  C   UNL     1     -11.759  10.737  70.179  1.00  0.00    -0.425 A  
HETATM    8  C   UNL     1     -12.791  10.436  71.071  1.00  0.00    -0.494 A  
HETATM    9  O   UNL     1     -13.668   9.056  72.814  1.00  0.00    -0.434 OA 
HETATM   10  C   UNL     1     -12.666   9.342  71.924  1.00  0.00    -0.401 A  
BRANCH   5  11
HETATM   11  C   UNL     1      -9.509  10.338  69.228  1.00  0.00    -0.230 C  
HETATM   12  C   UNL     1      -9.593  11.292  68.287  1.00  0.00    -0.193 C  
HETATM   13  C   UNL     1      -8.475  11.637  67.356  1.00  0.00    -0.150 C  
ENDBRANCH   5  11
ENDBRANCH   2   3
TORSDOF 2
ENDMDL
MODEL       69
REMARK 921   NORMALIZED FREE ENERGY PREDICTED BY IDOCK:   -3.61 KCAL/MOL
REMARK 922        TOTAL FREE ENERGY PREDICTED BY IDOCK:   -4.15 KCAL/MOL
REMARK 923 INTER-LIGAND FREE ENERGY PREDICTED BY IDOCK:   -4.04 KCAL/MOL
REMARK 924 INTRA-LIGAND FREE ENERGY PREDICTED BY IDOCK:   -0.11 KCAL/MOL
REMARK 927      BINDING AFFINITY PREDICTED BY RF-SCORE:    0.00 PKD
ROOT
HETATM    1  C   UNL     1     -12.531  12.207  63.481  1.00  0.00    -0.555 C  
HETATM    2  O   UNL     1     -11.128  12.429  63.448  1.00  0.00    -0.455 OA 
ENDROOT
BRANCH   2   3
HETATM    3  C   UNL     1     -10.510  12.729  64.635  1.00  0.00    -0.350 A  
HETATM    4  C   UNL     1     -10.408  14.013  65.183  1.00  0.00    -0.422 A  
HETATM    5  C   UNL     1      -9.739  14.232  66.399  1.00  0.00    -0.315 A  
HETATM    6  H   UNL     1      -9.611   9.670  65.250  1.00  0.00     0.000 HD 
HETATM    7  C   UNL     1      -9.161  13.140  67.059  1.00  0.00    -0.231 A  
HETATM    8  C   UNL     1      -9.258  11.853  66.527  1.00  0.00    -0.216 A  
HETATM    9  O   UNL     1     -10.007  10.398  64.785  1.00  0.00    -0.314 OA 
HETATM   10  C   UNL     1      -9.926  11.656  65.320  1.00  0.00    -0.255 A  
BRANCH   5  11
HETATM   11  C   UNL     1      -9.546  15.583  66.953  1.00  0.00    -0.241 C  
HETATM   12  C   UNL     1     -10.526  16.477  67.156  1.00  0.00    -0.300 C  
HETATM   13  C   UNL     1     -10.291  17.860  67.674  1.00  0.00    -0.387 C  
ENDBRANCH   5  11
ENDBRANCH   2   3
TORSDOF 2
ENDMDL
MODEL       70
REMARK 921   NORMALIZED FREE ENERGY PREDICTED BY IDOCK:   -3.60 KCAL/MOL
REMARK 922        TOTAL FREE ENERGY PREDICTED BY IDOCK:   -4.15 KCAL/MOL
REMARK 923 INTER-LIGAND FREE ENERGY PREDICTED BY IDOCK:   -3.96 KCAL/MOL
REMARK 924 INTRA-LIGAND FREE ENERGY PREDICTED BY IDOCK:   -0.19 KCAL/MOL
REMARK 927      BINDING AFFINITY PREDICTED BY RF-SCORE:    0.00 PKD
ROOT
HETATM    1  C   UNL     1     -10.410  14.226  65.684  1.00  0.00    -0.336 C  
HETATM    2  O   UNL     1     -11.553  13.551  66.191  1.00  0.00    -0.321 OA 
ENDROOT
BRANCH   2   3
HETATM    3  C   UNL     1     -11.338  12.438  66.962  1.00  0.00    -0.327 A  
HETATM    4  C   UNL     1     -10.821  11.226  66.492  1.00  0.00    -0.319 A  
HETATM    5  C   UNL     1     -10.649  10.128  67.352  1.00  0.00    -0.329 A  
HETATM    6  H   UNL     1     -12.449  13.788  69.699  1.00  0.00     0.000 HD 
HETATM    7  C   UNL     1     -11.014  10.258  68.698  1.00  0.00    -0.289 A  
HETATM    8  C   UNL     1     -11.527  11.464  69.183  1.00  0.00    -0.365 A  
HETATM    9  O   UNL     1     -12.211  13.719  68.782  1.00  0.00    -0.350 OA 
HETATM   10  C   UNL     1     -11.689  12.541  68.314  1.00  0.00    -0.340 A  
BRANCH   5  11
HETATM   11  C   UNL     1     -10.187   8.818  66.864  1.00  0.00    -0.357 C  
HETATM   12  C   UNL     1     -10.728   7.637  67.203  1.00  0.00    -0.361 C  
HETATM   13  C   UNL     1     -10.203   6.319  66.729  1.00  0.00    -0.262 C  
ENDBRANCH   5  11
ENDBRANCH   2   3
TORSDOF 2
ENDMDL
MODEL       71
REMARK 921   NORMALIZED FREE ENERGY PREDICTED BY IDOCK:   -3.53 KCAL/MOL
REMARK 922        TOTAL FREE ENERGY PREDICTED BY IDOCK:   -4.07 KCAL/MOL
REMARK 923 INTER-LIGAND FREE ENERGY PREDICTED BY IDOCK:   -4.10 KCAL/MOL
REMARK 924 INTRA-LIGAND FREE ENERGY PREDICTED BY IDOCK:    0.03 KCAL/MOL
REMARK 927      BINDING AFFINITY PREDICTED BY RF-SCORE:    0.00 PKD
ROOT
HETATM    1  C   UNL     1     -11.064  11.645  63.445  1.00  0.00    -0.337 C  
HETATM    2  O   UNL     1     -11.202  13.056  63.527  1.00  0.00    -0.373 OA 
ENDROOT
BRANCH   2   3
HETATM    3  C   UNL     1     -11.115  13.628  64.771  1.00  0.00    -0.370 A  
HETATM    4  C   UNL     1      -9.973  14.249  65.289  1.00  0.00    -0.313 A  
HETATM    5  C   UNL     1      -9.967  14.793  66.584  1.00  0.00    -0.272 A  
HETATM    6  H   UNL     1     -14.159  12.883  65.622  1.00  0.00     0.000 HD 
HETATM    7  C   UNL     1     -11.128  14.699  67.363  1.00  0.00    -0.331 A  
HETATM    8  C   UNL     1     -12.277  14.086  66.857  1.00  0.00    -0.415 A  
HETATM    9  O   UNL     1     -13.381  12.933  65.079  1.00  0.00    -0.682 OA 
HETATM   10  C   UNL     1     -12.262  13.553  65.571  1.00  0.00    -0.451 A  
BRANCH   5  11
HETATM   11  C   UNL     1      -8.754  15.376  67.182  1.00  0.00    -0.243 C  
HETATM   12  C   UNL     1      -8.355  15.186  68.449  1.00  0.00    -0.154 C  
HETATM   13  C   UNL     1      -7.144  15.833  69.041  1.00  0.00    -0.159 C  
ENDBRANCH   5  11
ENDBRANCH   2   3
TORSDOF 2
ENDMDL
MODEL       72
REMARK 921   NORMALIZED FREE ENERGY PREDICTED BY IDOCK:   -3.53 KCAL/MOL
REMARK 922        TOTAL FREE ENERGY PREDICTED BY IDOCK:   -4.07 KCAL/MOL
REMARK 923 INTER-LIGAND FREE ENERGY PREDICTED BY IDOCK:   -3.91 KCAL/MOL
REMARK 924 INTRA-LIGAND FREE ENERGY PREDICTED BY IDOCK:   -0.16 KCAL/MOL
REMARK 927      BINDING AFFINITY PREDICTED BY RF-SCORE:    0.00 PKD
ROOT
HETATM    1  C   UNL     1     -10.601  19.486  66.194  1.00  0.00    -0.487 C  
HETATM    2  O   UNL     1      -9.579  18.542  65.910  1.00  0.00    -0.494 OA 
ENDROOT
BRANCH   2   3
HETATM    3  C   UNL     1      -9.782  17.250  66.322  1.00  0.00    -0.266 A  
HETATM    4  C   UNL     1     -10.676  16.352  65.729  1.00  0.00    -0.245 A  
HETATM    5  C   UNL     1     -10.834  15.048  66.228  1.00  0.00    -0.333 A  
HETATM    6  H   UNL     1      -7.673  17.418  68.785  1.00  0.00     0.000 HD 
HETATM    7  C   UNL     1     -10.084  14.656  67.344  1.00  0.00    -0.232 A  
HETATM    8  C   UNL     1      -9.184  15.540  67.944  1.00  0.00    -0.187 A  
HETATM    9  O   UNL     1      -8.175  17.704  68.031  1.00  0.00    -0.228 OA 
HETATM   10  C   UNL     1      -9.042  16.828  67.433  1.00  0.00    -0.216 A  
BRANCH   5  11
HETATM   11  C   UNL     1     -11.828  14.113  65.674  1.00  0.00    -0.377 C  
HETATM   12  C   UNL     1     -11.715  13.481  64.496  1.00  0.00    -0.431 C  
HETATM   13  C   UNL     1     -12.766  12.576  63.938  1.00  0.00    -0.414 C  
ENDBRANCH   5  11
ENDBRANCH   2   3
TORSDOF 2
ENDMDL
MODEL       73
REMARK 921   NORMALIZED FREE ENERGY PREDICTED BY IDOCK:   -3.51 KCAL/MOL
REMARK 922        TOTAL FREE ENERGY PREDICTED BY IDOCK:   -4.05 KCAL/MOL
REMARK 923 INTER-LIGAND FREE ENERGY PREDICTED BY IDOCK:   -3.87 KCAL/MOL
REMARK 924 INTRA-LIGAND FREE ENERGY PREDICTED BY IDOCK:   -0.18 KCAL/MOL
REMARK 927      BINDING AFFINITY PREDICTED BY RF-SCORE:    0.00 PKD
ROOT
HETATM    1  C   UNL     1      -8.410  17.867  66.581  1.00  0.00    -0.261 C  
HETATM    2  O   UNL     1      -8.669  16.871  67.560  1.00  0.00    -0.204 OA 
ENDROOT
BRANCH   2   3
HETATM    3  C   UNL     1      -9.589  15.903  67.247  1.00  0.00    -0.217 A  
HETATM    4  C   UNL     1      -9.505  15.046  66.144  1.00  0.00    -0.347 A  
HETATM    5  C   UNL     1     -10.504  14.092  65.889  1.00  0.00    -0.314 A  
HETATM    6  H   UNL     1     -11.546  16.572  69.750  1.00  0.00     0.000 HD 
HETATM    7  C   UNL     1     -11.602  14.013  66.755  1.00  0.00    -0.406 A  
HETATM    8  C   UNL     1     -11.697  14.860  67.862  1.00  0.00    -0.344 A  
HETATM    9  O   UNL     1     -10.795  16.644  69.172  1.00  0.00    -0.320 OA 
HETATM   10  C   UNL     1     -10.695  15.798  68.098  1.00  0.00    -0.285 A  
BRANCH   5  11
HETATM   11  C   UNL     1     -10.481  13.237  64.690  1.00  0.00    -0.420 C  
HETATM   12  C   UNL     1     -10.292  11.908  64.698  1.00  0.00    -0.326 C  
HETATM   13  C   UNL     1     -10.224  11.074  63.459  1.00  0.00    -0.424 C  
ENDBRANCH   5  11
ENDBRANCH   2   3
TORSDOF 2
ENDMDL
MODEL       74
REMARK 921   NORMALIZED FREE ENERGY PREDICTED BY IDOCK:   -3.51 KCAL/MOL
REMARK 922        TOTAL FREE ENERGY PREDICTED BY IDOCK:   -4.04 KCAL/MOL
REMARK 923 INTER-LIGAND FREE ENERGY PREDICTED BY IDOCK:   -3.87 KCAL/MOL
REMARK 924 INTRA-LIGAND FREE ENERGY PREDICTED BY IDOCK:   -0.17 KCAL/MOL
REMARK 927      BINDING AFFINITY PREDICTED BY RF-SCORE:    0.00 PKD
ROOT
HETATM    1  C   UNL     1     -11.565  15.703  68.579  1.00  0.00    -0.370 C  
HETATM    2  O   UNL     1     -10.941  15.786  67.305  1.00  0.00    -0.316 OA 
ENDROOT
BRANCH   2   3
HETATM    3  C   UNL     1     -10.734  14.613  66.627  1.00  0.00    -0.305 A  
HETATM    4  C   UNL     1     -10.473  13.376  67.227  1.00  0.00    -0.248 A  
HETATM    5  C   UNL     1     -10.255  12.225  66.452  1.00  0.00    -0.247 A  
HETATM    6  H   UNL     1     -11.037  15.948  63.683  1.00  0.00     0.000 HD 
HETATM    7  C   UNL     1     -10.294  12.331  65.056  1.00  0.00    -0.321 A  
HETATM    8  C   UNL     1     -10.558  13.558  64.442  1.00  0.00    -0.394 A  
HETATM    9  O   UNL     1     -11.012  15.897  64.631  1.00  0.00    -0.528 OA 
HETATM   10  C   UNL     1     -10.772  14.688  65.229  1.00  0.00    -0.381 A  
BRANCH   5  11
HETATM   11  C   UNL     1      -9.896  10.931  67.057  1.00  0.00    -0.214 C  
HETATM   12  C   UNL     1     -10.559   9.780  66.859  1.00  0.00    -0.243 C  
HETATM   13  C   UNL     1     -10.199   8.492  67.529  1.00  0.00    -0.307 C  
ENDBRANCH   5  11
ENDBRANCH   2   3
TORSDOF 2
ENDMDL
MODEL       75
REMARK 921   NORMALIZED FREE ENERGY PREDICTED BY IDOCK:   -3.50 KCAL/MOL
REMARK 922        TOTAL FREE ENERGY PREDICTED BY IDOCK:   -4.04 KCAL/MOL
REMARK 923 INTER-LIGAND FREE ENERGY PREDICTED BY IDOCK:   -3.85 KCAL/MOL
REMARK 924 INTRA-LIGAND FREE ENERGY PREDICTED BY IDOCK:   -0.19 KCAL/MOL
REMARK 927      BINDING AFFINITY PREDICTED BY RF-SCORE:    0.00 PKD
ROOT
HETATM    1  C   UNL     1      -9.936  16.074  66.568  1.00  0.00    -0.279 C  
HETATM    2  O   UNL     1     -11.234  15.532  66.771  1.00  0.00    -0.265 OA 
ENDROOT
BRANCH   2   3
HETATM    3  C   UNL     1     -11.320  14.329  67.422  1.00  0.00    -0.332 A  
HETATM    4  C   UNL     1     -10.989  13.090  66.862  1.00  0.00    -0.289 A  
HETATM    5  C   UNL     1     -11.125  11.901  67.598  1.00  0.00    -0.314 A  
HETATM    6  H   UNL     1     -12.464  15.599  70.183  1.00  0.00     0.000 HD 
HETATM    7  C   UNL     1     -11.610  11.969  68.911  1.00  0.00    -0.377 A  
HETATM    8  C   UNL     1     -11.941  13.199  69.484  1.00  0.00    -0.354 A  
HETATM    9  O   UNL     1     -12.140  15.573  69.290  1.00  0.00    -0.332 OA 
HETATM   10  C   UNL     1     -11.798  14.367  68.738  1.00  0.00    -0.325 A  
BRANCH   5  11
HETATM   11  C   UNL     1     -10.864  10.579  67.004  1.00  0.00    -0.288 C  
HETATM   12  C   UNL     1     -10.785   9.429  67.693  1.00  0.00    -0.295 C  
HETATM   13  C   UNL     1     -10.468   8.109  67.067  1.00  0.00    -0.396 C  
ENDBRANCH   5  11
ENDBRANCH   2   3
TORSDOF 2
ENDMDL
MODEL       76
REMARK 921   NORMALIZED FREE ENERGY PREDICTED BY IDOCK:   -3.50 KCAL/MOL
REMARK 922        TOTAL FREE ENERGY PREDICTED BY IDOCK:   -4.03 KCAL/MOL
REMARK 923 INTER-LIGAND FREE ENERGY PREDICTED BY IDOCK:   -3.87 KCAL/MOL
REMARK 924 INTRA-LIGAND FREE ENERGY PREDICTED BY IDOCK:   -0.17 KCAL/MOL
REMARK 927      BINDING AFFINITY PREDICTED BY RF-SCORE:    0.00 PKD
ROOT
HETATM    1  C   UNL     1     -13.564   9.127  71.898  1.00  0.00    -0.432 C  
HETATM    2  O   UNL     1     -12.186   9.052  71.563  1.00  0.00    -0.301 OA 
ENDROOT
BRANCH   2   3
HETATM    3  C   UNL     1     -11.724   9.911  70.599  1.00  0.00    -0.323 A  
HETATM    4  C   UNL     1     -12.060  11.266  70.506  1.00  0.00    -0.481 A  
HETATM    5  C   UNL     1     -11.553  12.071  69.471  1.00  0.00    -0.389 A  
HETATM    6  H   UNL     1      -9.967   7.660  69.054  1.00  0.00     0.000 HD 
HETATM    7  C   UNL     1     -10.704  11.492  68.518  1.00  0.00    -0.242 A  
HETATM    8  C   UNL     1     -10.356  10.142  68.601  1.00  0.00    -0.208 A  
HETATM    9  O   UNL     1     -10.547   8.032  69.708  1.00  0.00    -0.234 OA 
HETATM   10  C   UNL     1     -10.870   9.362  69.635  1.00  0.00    -0.228 A  
BRANCH   5  11
HETATM   11  C   UNL     1     -11.958  13.477  69.304  1.00  0.00    -0.378 C  
HETATM   12  C   UNL     1     -11.172  14.536  69.552  1.00  0.00    -0.300 C  
HETATM   13  C   UNL     1     -11.630  15.954  69.420  1.00  0.00    -0.352 C  
ENDBRANCH   5  11
ENDBRANCH   2   3
TORSDOF 2
ENDMDL
MODEL       77
REMARK 921   NORMALIZED FREE ENERGY PREDICTED BY IDOCK:   -3.50 KCAL/MOL
REMARK 922        TOTAL FREE ENERGY PREDICTED BY IDOCK:   -4.03 KCAL/MOL
REMARK 923 INTER-LIGAND FREE ENERGY PREDICTED BY IDOCK:   -3.86 KCAL/MOL
REMARK 924 INTRA-LIGAND FREE ENERGY PREDICTED BY IDOCK:   -0.17 KCAL/MOL
REMARK 927      BINDING AFFINITY PREDICTED BY RF-SCORE:    0.00 PKD
ROOT
HETATM    1  C   UNL     1     -11.913  13.816  69.904  1.00  0.00    -0.347 C  
HETATM    2  O   UNL     1     -12.104  14.018  68.511  1.00  0.00    -0.357 OA 
ENDROOT
BRANCH   2   3
HETATM    3  C   UNL     1     -11.221  14.847  67.867  1.00  0.00    -0.315 A  
HETATM    4  C   UNL     1     -10.278  15.662  68.503  1.00  0.00    -0.211 A  
HETATM    5  C   UNL     1      -9.423  16.496  67.764  1.00  0.00    -0.222 A  
HETATM    6  H   UNL     1     -12.290  14.115  64.889  1.00  0.00     0.000 HD 
HETATM    7  C   UNL     1      -9.532  16.509  66.367  1.00  0.00    -0.314 A  
HETATM    8  C   UNL     1     -10.465  15.697  65.718  1.00  0.00    -0.383 A  
HETATM    9  O   UNL     1     -12.234  14.094  65.837  1.00  0.00    -0.412 OA 
HETATM   10  C   UNL     1     -11.304  14.877  66.469  1.00  0.00    -0.319 A  
BRANCH   5  11
HETATM   11  C   UNL     1      -8.482  17.424  68.413  1.00  0.00    -0.263 C  
HETATM   12  C   UNL     1      -8.464  18.753  68.230  1.00  0.00    -0.357 C  
HETATM   13  C   UNL     1      -7.462  19.663  68.865  1.00  0.00    -0.358 C  
ENDBRANCH   5  11
ENDBRANCH   2   3
TORSDOF 2
ENDMDL
MODEL       78
REMARK 921   NORMALIZED FREE ENERGY PREDICTED BY IDOCK:   -3.49 KCAL/MOL
REMARK 922        TOTAL FREE ENERGY PREDICTED BY IDOCK:   -4.03 KCAL/MOL
REMARK 923 INTER-LIGAND FREE ENERGY PREDICTED BY IDOCK:   -3.87 KCAL/MOL
REMARK 924 INTRA-LIGAND FREE ENERGY PREDICTED BY IDOCK:   -0.16 KCAL/MOL
REMARK 927      BINDING AFFINITY PREDICTED BY RF-SCORE:    0.00 PKD
ROOT
HETATM    1  C   UNL     1     -10.813   6.814  67.069  1.00  0.00    -0.383 C  
HETATM    2  O   UNL     1      -9.882   7.684  67.698  1.00  0.00    -0.149 OA 
ENDROOT
BRANCH   2   3
HETATM    3  C   UNL     1     -10.388   8.725  68.432  1.00  0.00    -0.204 A  
HETATM    4  C   UNL     1     -10.888   9.916  67.893  1.00  0.00    -0.312 A  
HETATM    5  C   UNL     1     -11.372  10.941  68.722  1.00  0.00    -0.357 A  
HETATM    6  H   UNL     1      -9.865   7.309  71.306  1.00  0.00     0.000 HD 
HETATM    7  C   UNL     1     -11.341  10.760  70.111  1.00  0.00    -0.390 A  
HETATM    8  C   UNL     1     -10.850   9.574  70.663  1.00  0.00    -0.371 A  
HETATM    9  O   UNL     1      -9.874   7.414  70.362  1.00  0.00    -0.183 OA 
HETATM   10  C   UNL     1     -10.375   8.570  69.823  1.00  0.00    -0.212 A  
BRANCH   5  11
HETATM   11  C   UNL     1     -11.824  12.236  68.184  1.00  0.00    -0.372 C  
HETATM   12  C   UNL     1     -11.760  12.594  66.892  1.00  0.00    -0.453 C  
HETATM   13  C   UNL     1     -12.181  13.936  66.384  1.00  0.00    -0.487 C  
ENDBRANCH   5  11
ENDBRANCH   2   3
TORSDOF 2
ENDMDL
MODEL       79
REMARK 921   NORMALIZED FREE ENERGY PREDICTED BY IDOCK:   -3.47 KCAL/MOL
REMARK 922        TOTAL FREE ENERGY PREDICTED BY IDOCK:   -4.01 KCAL/MOL
REMARK 923 INTER-LIGAND FREE ENERGY PREDICTED BY IDOCK:   -3.89 KCAL/MOL
REMARK 924 INTRA-LIGAND FREE ENERGY PREDICTED BY IDOCK:   -0.12 KCAL/MOL
REMARK 927      BINDING AFFINITY PREDICTED BY RF-SCORE:    0.00 PKD
ROOT
HETATM    1  C   UNL     1     -10.496  13.955  64.763  1.00  0.00    -0.429 C  
HETATM    2  O   UNL     1      -9.795  14.144  65.983  1.00  0.00    -0.304 OA 
ENDROOT
BRANCH   2   3
HETATM    3  C   UNL     1      -9.890  15.374  66.582  1.00  0.00    -0.255 A  
HETATM    4  C   UNL     1      -9.044  16.458  66.324  1.00  0.00    -0.362 A  
HETATM    5  C   UNL     1      -9.204  17.680  66.999  1.00  0.00    -0.254 A  
HETATM    6  H   UNL     1     -12.421  14.567  68.449  1.00  0.00     0.000 HD 
HETATM    7  C   UNL     1     -10.227  17.800  67.949  1.00  0.00    -0.362 A  
HETATM    8  C   UNL     1     -11.083  16.728  68.213  1.00  0.00    -0.259 A  
HETATM    9  O   UNL     1     -11.732  14.464  67.804  1.00  0.00    -0.342 OA 
HETATM   10  C   UNL     1     -10.907  15.525  67.533  1.00  0.00    -0.306 A  
BRANCH   5  11
HETATM   11  C   UNL     1      -8.276  18.807  66.807  1.00  0.00    -0.286 C  
HETATM   12  C   UNL     1      -8.076  19.796  67.691  1.00  0.00    -0.331 C  
HETATM   13  C   UNL     1      -7.162  20.955  67.445  1.00  0.00    -0.396 C  
ENDBRANCH   5  11
ENDBRANCH   2   3
TORSDOF 2
ENDMDL
MODEL       80
REMARK 921   NORMALIZED FREE ENERGY PREDICTED BY IDOCK:   -3.46 KCAL/MOL
REMARK 922        TOTAL FREE ENERGY PREDICTED BY IDOCK:   -4.00 KCAL/MOL
REMARK 923 INTER-LIGAND FREE ENERGY PREDICTED BY IDOCK:   -3.82 KCAL/MOL
REMARK 924 INTRA-LIGAND FREE ENERGY PREDICTED BY IDOCK:   -0.18 KCAL/MOL
REMARK 927      BINDING AFFINITY PREDICTED BY RF-SCORE:    0.00 PKD
ROOT
HETATM    1  C   UNL     1     -10.515  19.948  66.934  1.00  0.00    -0.450 C  
HETATM    2  O   UNL     1     -11.156  18.681  66.978  1.00  0.00    -0.205 OA 
ENDROOT
BRANCH   2   3
HETATM    3  C   UNL     1     -10.354  17.569  67.011  1.00  0.00    -0.324 A  
HETATM    4  C   UNL     1      -9.567  17.181  68.102  1.00  0.00    -0.270 A  
HETATM    5  C   UNL     1      -8.759  16.034  68.042  1.00  0.00    -0.171 A  
HETATM    6  H   UNL     1     -11.054  16.643  63.979  1.00  0.00     0.000 HD 
HETATM    7  C   UNL     1      -8.743  15.278  66.863  1.00  0.00    -0.288 A  
HETATM    8  C   UNL     1      -9.527  15.650  65.768  1.00  0.00    -0.338 A  
HETATM    9  O   UNL     1     -11.076  17.170  64.769  1.00  0.00    -0.909 OA 
HETATM   10  C   UNL     1     -10.321  16.791  65.847  1.00  0.00    -0.328 A  
BRANCH   5  11
HETATM   11  C   UNL     1      -7.859  15.652  69.144  1.00  0.00    -0.220 C  
HETATM   12  C   UNL     1      -6.552  15.948  69.205  1.00  0.00    -0.170 C  
HETATM   13  C   UNL     1      -5.653  15.503  70.315  1.00  0.00    -0.147 C  
ENDBRANCH   5  11
ENDBRANCH   2   3
TORSDOF 2
ENDMDL
MODEL       81
REMARK 921   NORMALIZED FREE ENERGY PREDICTED BY IDOCK:   -3.43 KCAL/MOL
REMARK 922        TOTAL FREE ENERGY PREDICTED BY IDOCK:   -3.96 KCAL/MOL
REMARK 923 INTER-LIGAND FREE ENERGY PREDICTED BY IDOCK:   -3.77 KCAL/MOL
REMARK 924 INTRA-LIGAND FREE ENERGY PREDICTED BY IDOCK:   -0.19 KCAL/MOL
REMARK 927      BINDING AFFINITY PREDICTED BY RF-SCORE:    0.00 PKD
ROOT
HETATM    1  C   UNL     1      -9.329   6.063  69.216  1.00  0.00    -0.133 C  
HETATM    2  O   UNL     1     -10.401   5.936  70.140  1.00  0.00    -0.203 OA 
ENDROOT
BRANCH   2   3
HETATM    3  C   UNL     1     -10.937   7.093  70.645  1.00  0.00    -0.258 A  
HETATM    4  C   UNL     1     -10.886   8.342  70.016  1.00  0.00    -0.232 A  
HETATM    5  C   UNL     1     -11.448   9.480  70.617  1.00  0.00    -0.362 A  
HETATM    6  H   UNL     1     -12.027   5.711  73.374  1.00  0.00     0.000 HD 
HETATM    7  C   UNL     1     -12.061   9.352  71.870  1.00  0.00    -0.427 A  
HETATM    8  C   UNL     1     -12.125   8.111  72.508  1.00  0.00    -0.377 A  
HETATM    9  O   UNL     1     -11.604   5.778  72.527  1.00  0.00    -0.303 OA 
HETATM   10  C   UNL     1     -11.561   6.994  71.895  1.00  0.00    -0.284 A  
BRANCH   5  11
HETATM   11  C   UNL     1     -11.333  10.820  70.015  1.00  0.00    -0.397 C  
HETATM   12  C   UNL     1     -12.000  11.908  70.430  1.00  0.00    -0.400 C  
HETATM   13  C   UNL     1     -11.899  13.244  69.765  1.00  0.00    -0.394 C  
ENDBRANCH   5  11
ENDBRANCH   2   3
TORSDOF 2
ENDMDL
MODEL       82
REMARK 921   NORMALIZED FREE ENERGY PREDICTED BY IDOCK:   -3.41 KCAL/MOL
REMARK 922        TOTAL FREE ENERGY PREDICTED BY IDOCK:   -3.93 KCAL/MOL
REMARK 923 INTER-LIGAND FREE ENERGY PREDICTED BY IDOCK:   -3.76 KCAL/MOL
REMARK 924 INTRA-LIGAND FREE ENERGY PREDICTED BY IDOCK:   -0.17 KCAL/MOL
REMARK 927      BINDING AFFINITY PREDICTED BY RF-SCORE:    0.00 PKD
ROOT
HETATM    1  C   UNL     1     -11.670  12.323  69.493  1.00  0.00    -0.332 C  
HETATM    2  O   UNL     1     -12.402  13.310  68.781  1.00  0.00    -0.175 OA 
ENDROOT
BRANCH   2   3
HETATM    3  C   UNL     1     -11.879  13.750  67.593  1.00  0.00    -0.378 A  
HETATM    4  C   UNL     1     -11.650  12.945  66.472  1.00  0.00    -0.425 A  
HETATM    5  C   UNL     1     -11.091  13.478  65.298  1.00  0.00    -0.307 A  
HETATM    6  H   UNL     1     -11.510  16.820  68.583  1.00  0.00     0.000 HD 
HETATM    7  C   UNL     1     -10.754  14.837  65.264  1.00  0.00    -0.406 A  
HETATM    8  C   UNL     1     -10.981  15.654  66.375  1.00  0.00    -0.197 A  
HETATM    9  O   UNL     1     -11.742  15.901  68.627  1.00  0.00    -0.387 OA 
HETATM   10  C   UNL     1     -11.536  15.107  67.529  1.00  0.00    -0.257 A  
BRANCH   5  11
HETATM   11  C   UNL     1     -10.764  12.635  64.135  1.00  0.00    -0.435 C  
HETATM   12  C   UNL     1     -10.432  11.336  64.198  1.00  0.00    -0.431 C  
HETATM   13  C   UNL     1     -10.056  10.519  63.003  1.00  0.00    -0.030 C  
ENDBRANCH   5  11
ENDBRANCH   2   3
TORSDOF 2
ENDMDL
MODEL       83
REMARK 921   NORMALIZED FREE ENERGY PREDICTED BY IDOCK:   -3.41 KCAL/MOL
REMARK 922        TOTAL FREE ENERGY PREDICTED BY IDOCK:   -3.93 KCAL/MOL
REMARK 923 INTER-LIGAND FREE ENERGY PREDICTED BY IDOCK:   -3.76 KCAL/MOL
REMARK 924 INTRA-LIGAND FREE ENERGY PREDICTED BY IDOCK:   -0.17 KCAL/MOL
REMARK 927      BINDING AFFINITY PREDICTED BY RF-SCORE:    0.00 PKD
ROOT
HETATM    1  C   UNL     1      -8.124  13.119  68.410  1.00  0.00    -0.130 C  
HETATM    2  O   UNL     1      -9.462  13.118  67.933  1.00  0.00    -0.203 OA 
ENDROOT
BRANCH   2   3
HETATM    3  C   UNL     1      -9.846  14.162  67.131  1.00  0.00    -0.253 A  
HETATM    4  C   UNL     1      -9.875  15.505  67.523  1.00  0.00    -0.220 A  
HETATM    5  C   UNL     1     -10.301  16.510  66.639  1.00  0.00    -0.298 A  
HETATM    6  H   UNL     1     -10.522  12.293  64.564  1.00  0.00     0.000 HD 
HETATM    7  C   UNL     1     -10.709  16.149  65.349  1.00  0.00    -0.374 A  
HETATM    8  C   UNL     1     -10.681  14.812  64.941  1.00  0.00    -0.438 A  
HETATM    9  O   UNL     1     -10.245  12.517  65.444  1.00  0.00    -0.277 OA 
HETATM   10  C   UNL     1     -10.255  13.831  65.833  1.00  0.00    -0.313 A  
BRANCH   5  11
HETATM   11  C   UNL     1     -10.420  17.918  67.054  1.00  0.00    -0.345 C  
HETATM   12  C   UNL     1     -10.010  18.408  68.235  1.00  0.00    -0.394 C  
HETATM   13  C   UNL     1     -10.191  19.834  68.647  1.00  0.00    -0.515 C  
ENDBRANCH   5  11
ENDBRANCH   2   3
TORSDOF 2
ENDMDL
MODEL       84
REMARK 921   NORMALIZED FREE ENERGY PREDICTED BY IDOCK:   -3.37 KCAL/MOL
REMARK 922        TOTAL FREE ENERGY PREDICTED BY IDOCK:   -3.90 KCAL/MOL
REMARK 923 INTER-LIGAND FREE ENERGY PREDICTED BY IDOCK:   -3.73 KCAL/MOL
REMARK 924 INTRA-LIGAND FREE ENERGY PREDICTED BY IDOCK:   -0.17 KCAL/MOL
REMARK 927      BINDING AFFINITY PREDICTED BY RF-SCORE:    0.00 PKD
ROOT
HETATM    1  C   UNL     1     -12.397  11.621  70.468  1.00  0.00    -0.321 C  
HETATM    2  O   UNL     1     -12.275  10.685  71.530  1.00  0.00    -0.335 OA 
ENDROOT
BRANCH   2   3
HETATM    3  C   UNL     1     -12.048   9.376  71.193  1.00  0.00    -0.328 A  
HETATM    4  C   UNL     1     -11.074   8.938  70.288  1.00  0.00    -0.251 A  
HETATM    5  C   UNL     1     -10.922   7.574  69.989  1.00  0.00    -0.252 A  
HETATM    6  H   UNL     1     -14.409   8.199  73.086  1.00  0.00     0.000 HD 
HETATM    7  C   UNL     1     -11.771   6.647  70.606  1.00  0.00    -0.452 A  
HETATM    8  C   UNL     1     -12.745   7.068  71.515  1.00  0.00    -0.425 A  
HETATM    9  O   UNL     1     -13.846   8.844  72.675  1.00  0.00    -0.445 OA 
HETATM   10  C   UNL     1     -12.879   8.425  71.799  1.00  0.00    -0.345 A  
BRANCH   5  11
HETATM   11  C   UNL     1      -9.963   7.098  68.978  1.00  0.00    -0.174 C  
HETATM   12  C   UNL     1     -10.085   7.285  67.655  1.00  0.00    -0.232 C  
HETATM   13  C   UNL     1      -9.118   6.745  66.649  1.00  0.00    -0.164 C  
ENDBRANCH   5  11
ENDBRANCH   2   3
TORSDOF 2
ENDMDL
MODEL       85
REMARK 921   NORMALIZED FREE ENERGY PREDICTED BY IDOCK:   -3.36 KCAL/MOL
REMARK 922        TOTAL FREE ENERGY PREDICTED BY IDOCK:   -3.88 KCAL/MOL
REMARK 923 INTER-LIGAND FREE ENERGY PREDICTED BY IDOCK:   -3.69 KCAL/MOL
REMARK 924 INTRA-LIGAND FREE ENERGY PREDICTED BY IDOCK:   -0.19 KCAL/MOL
REMARK 927      BINDING AFFINITY PREDICTED BY RF-SCORE:    0.00 PKD
ROOT
HETATM    1  C   UNL     1     -11.254   4.612  73.462  1.00  0.00    -0.316 C  
HETATM    2  O   UNL     1     -10.656   5.717  74.125  1.00  0.00    -0.272 OA 
ENDROOT
BRANCH   2   3
HETATM    3  C   UNL     1     -10.234   6.765  73.348  1.00  0.00    -0.268 A  
HETATM    4  C   UNL     1     -11.075   7.719  72.765  1.00  0.00    -0.457 A  
HETATM    5  C   UNL     1     -10.557   8.752  71.966  1.00  0.00    -0.414 A  
HETATM    6  H   UNL     1      -7.089   5.976  73.518  1.00  0.00     0.000 HD 
HETATM    7  C   UNL     1      -9.174   8.813  71.751  1.00  0.00    -0.332 A  
HETATM    8  C   UNL     1      -8.322   7.870  72.330  1.00  0.00    -0.183 A  
HETATM    9  O   UNL     1      -8.024   5.916  73.673  1.00  0.00    -0.104 OA 
HETATM   10  C   UNL     1      -8.855   6.854  73.119  1.00  0.00    -0.123 A  
BRANCH   5  11
HETATM   11  C   UNL     1     -11.428   9.717  71.274  1.00  0.00    -0.457 C  
HETATM   12  C   UNL     1     -11.046  10.505  70.257  1.00  0.00    -0.359 C  
HETATM   13  C   UNL     1     -11.941  11.512  69.608  1.00  0.00    -0.407 C  
ENDBRANCH   5  11
ENDBRANCH   2   3
TORSDOF 2
ENDMDL
MODEL       86
REMARK 921   NORMALIZED FREE ENERGY PREDICTED BY IDOCK:   -3.35 KCAL/MOL
REMARK 922        TOTAL FREE ENERGY PREDICTED BY IDOCK:   -3.87 KCAL/MOL
REMARK 923 INTER-LIGAND FREE ENERGY PREDICTED BY IDOCK:   -3.69 KCAL/MOL
REMARK 924 INTRA-LIGAND FREE ENERGY PREDICTED BY IDOCK:   -0.18 KCAL/MOL
REMARK 927      BINDING AFFINITY PREDICTED BY RF-SCORE:    0.00 PKD
ROOT
HETATM    1  C   UNL     1     -11.600  12.809  69.306  1.00  0.00    -0.314 C  
HETATM    2  O   UNL     1     -11.804  12.745  67.901  1.00  0.00    -0.351 OA 
ENDROOT
BRANCH   2   3
HETATM    3  C   UNL     1     -11.289  11.661  67.238  1.00  0.00    -0.305 A  
HETATM    4  C   UNL     1     -11.185  10.371  67.770  1.00  0.00    -0.309 A  
HETATM    5  C   UNL     1     -10.626   9.321  67.023  1.00  0.00    -0.263 A  
HETATM    6  H   UNL     1     -10.583  13.313  64.533  1.00  0.00     0.000 HD 
HETATM    7  C   UNL     1     -10.160   9.584  65.729  1.00  0.00    -0.223 A  
HETATM    8  C   UNL     1     -10.261  10.866  65.182  1.00  0.00    -0.360 A  
HETATM    9  O   UNL     1     -10.902  13.156  65.414  1.00  0.00    -0.275 OA 
HETATM   10  C   UNL     1     -10.819  11.893  65.939  1.00  0.00    -0.297 A  
BRANCH   5  11
HETATM   11  C   UNL     1     -10.430   7.976  67.591  1.00  0.00    -0.301 C  
HETATM   12  C   UNL     1     -10.797   6.830  66.996  1.00  0.00    -0.453 C  
HETATM   13  C   UNL     1     -10.629   5.482  67.621  1.00  0.00    -0.239 C  
ENDBRANCH   5  11
ENDBRANCH   2   3
TORSDOF 2
ENDMDL
MODEL       87
REMARK 921   NORMALIZED FREE ENERGY PREDICTED BY IDOCK:   -3.30 KCAL/MOL
REMARK 922        TOTAL FREE ENERGY PREDICTED BY IDOCK:   -3.81 KCAL/MOL
REMARK 923 INTER-LIGAND FREE ENERGY PREDICTED BY IDOCK:   -3.66 KCAL/MOL
REMARK 924 INTRA-LIGAND FREE ENERGY PREDICTED BY IDOCK:   -0.15 KCAL/MOL
REMARK 927      BINDING AFFINITY PREDICTED BY RF-SCORE:    0.00 PKD
ROOT
HETATM    1  C   UNL     1      -7.153   8.701  71.680  1.00  0.00    -0.092 C  
HETATM    2  O   UNL     1      -8.197   8.574  72.635  1.00  0.00    -0.313 OA 
ENDROOT
BRANCH   2   3
HETATM    3  C   UNL     1      -9.485   8.685  72.180  1.00  0.00    -0.303 A  
HETATM    4  C   UNL     1      -9.889   9.485  71.105  1.00  0.00    -0.177 A  
HETATM    5  C   UNL     1     -11.237   9.553  70.716  1.00  0.00    -0.383 A  
HETATM    6  H   UNL     1     -10.730   6.674  74.404  1.00  0.00     0.000 HD 
HETATM    7  C   UNL     1     -12.186   8.808  71.430  1.00  0.00    -0.359 A  
HETATM    8  C   UNL     1     -11.797   8.002  72.502  1.00  0.00    -0.419 A  
HETATM    9  O   UNL     1     -10.073   7.173  73.935  1.00  0.00    -0.322 OA 
HETATM   10  C   UNL     1     -10.455   7.948  72.872  1.00  0.00    -0.355 A  
BRANCH   5  11
HETATM   11  C   UNL     1     -11.698  10.451  69.644  1.00  0.00    -0.283 C  
HETATM   12  C   UNL     1     -11.006  10.735  68.530  1.00  0.00    -0.291 C  
HETATM   13  C   UNL     1     -11.479  11.691  67.482  1.00  0.00    -0.360 C  
ENDBRANCH   5  11
ENDBRANCH   2   3
TORSDOF 2
ENDMDL
MODEL       88
REMARK 921   NORMALIZED FREE ENERGY PREDICTED BY IDOCK:   -3.29 KCAL/MOL
REMARK 922        TOTAL FREE ENERGY PREDICTED BY IDOCK:   -3.81 KCAL/MOL
REMARK 923 INTER-LIGAND FREE ENERGY PREDICTED BY IDOCK:   -3.62 KCAL/MOL
REMARK 924 INTRA-LIGAND FREE ENERGY PREDICTED BY IDOCK:   -0.19 KCAL/MOL
REMARK 927      BINDING AFFINITY PREDICTED BY RF-SCORE:    0.00 PKD
ROOT
HETATM    1  C   UNL     1     -12.580  13.370  65.372  1.00  0.00    -0.475 C  
HETATM    2  O   UNL     1     -11.222  13.001  65.176  1.00  0.00    -0.287 OA 
ENDROOT
BRANCH   2   3
HETATM    3  C   UNL     1     -10.800  11.827  65.743  1.00  0.00    -0.291 A  
HETATM    4  C   UNL     1     -10.792  11.557  67.116  1.00  0.00    -0.314 A  
HETATM    5  C   UNL     1     -10.323  10.329  67.612  1.00  0.00    -0.264 A  
HETATM    6  H   UNL     1      -9.993  10.441  62.920  1.00  0.00     0.000 HD 
HETATM    7  C   UNL     1      -9.851   9.370  66.708  1.00  0.00    -0.280 A  
HETATM    8  C   UNL     1      -9.857   9.623  65.334  1.00  0.00    -0.322 A  
HETATM    9  O   UNL     1     -10.315  11.106  63.517  1.00  0.00    -0.354 OA 
HETATM   10  C   UNL     1     -10.326  10.846  64.862  1.00  0.00    -0.304 A  
BRANCH   5  11
HETATM   11  C   UNL     1     -10.227  10.055  69.056  1.00  0.00    -0.216 C  
HETATM   12  C   UNL     1     -10.662   8.936  69.656  1.00  0.00    -0.222 C  
HETATM   13  C   UNL     1     -10.595   8.708  71.132  1.00  0.00    -0.291 C  
ENDBRANCH   5  11
ENDBRANCH   2   3
TORSDOF 2
ENDMDL
MODEL       89
REMARK 921   NORMALIZED FREE ENERGY PREDICTED BY IDOCK:   -3.27 KCAL/MOL
REMARK 922        TOTAL FREE ENERGY PREDICTED BY IDOCK:   -3.78 KCAL/MOL
REMARK 923 INTER-LIGAND FREE ENERGY PREDICTED BY IDOCK:   -3.60 KCAL/MOL
REMARK 924 INTRA-LIGAND FREE ENERGY PREDICTED BY IDOCK:   -0.18 KCAL/MOL
REMARK 927      BINDING AFFINITY PREDICTED BY RF-SCORE:    0.00 PKD
ROOT
HETATM    1  C   UNL     1     -12.327  12.224  63.734  1.00  0.00    -0.538 C  
HETATM    2  O   UNL     1     -12.694  12.384  65.097  1.00  0.00    -0.630 OA 
ENDROOT
BRANCH   2   3
HETATM    3  C   UNL     1     -11.687  12.368  66.028  1.00  0.00    -0.410 A  
HETATM    4  C   UNL     1     -10.964  11.231  66.406  1.00  0.00    -0.285 A  
HETATM    5  C   UNL     1      -9.957  11.303  67.383  1.00  0.00    -0.206 A  
HETATM    6  H   UNL     1     -11.905  15.534  66.714  1.00  0.00     0.000 HD 
HETATM    7  C   UNL     1      -9.688  12.537  67.988  1.00  0.00    -0.215 A  
HETATM    8  C   UNL     1     -10.398  13.682  67.618  1.00  0.00    -0.239 A  
HETATM    9  O   UNL     1     -12.105  14.706  66.294  1.00  0.00    -0.319 OA 
HETATM   10  C   UNL     1     -11.392  13.590  66.646  1.00  0.00    -0.322 A  
BRANCH   5  11
HETATM   11  C   UNL     1      -9.241  10.107  67.858  1.00  0.00    -0.144 C  
HETATM   12  C   UNL     1      -9.349   9.586  69.090  1.00  0.00    -0.163 C  
HETATM   13  C   UNL     1      -8.569   8.398  69.558  1.00  0.00    -0.129 C  
ENDBRANCH   5  11
ENDBRANCH   2   3
TORSDOF 2
ENDMDL
MODEL       90
REMARK 921   NORMALIZED FREE ENERGY PREDICTED BY IDOCK:   -3.27 KCAL/MOL
REMARK 922        TOTAL FREE ENERGY PREDICTED BY IDOCK:   -3.78 KCAL/MOL
REMARK 923 INTER-LIGAND FREE ENERGY PREDICTED BY IDOCK:   -3.65 KCAL/MOL
REMARK 924 INTRA-LIGAND FREE ENERGY PREDICTED BY IDOCK:   -0.13 KCAL/MOL
REMARK 927      BINDING AFFINITY PREDICTED BY RF-SCORE:    0.00 PKD
ROOT
HETATM    1  C   UNL     1     -11.322  12.631  67.661  1.00  0.00    -0.310 C  
HETATM    2  O   UNL     1     -12.064  13.829  67.488  1.00  0.00    -0.384 OA 
ENDROOT
BRANCH   2   3
HETATM    3  C   UNL     1     -11.441  15.009  67.806  1.00  0.00    -0.334 A  
HETATM    4  C   UNL     1     -10.601  15.727  66.947  1.00  0.00    -0.317 A  
HETATM    5  C   UNL     1      -9.988  16.921  67.363  1.00  0.00    -0.269 A  
HETATM    6  H   UNL     1     -12.618  15.128  70.830  1.00  0.00     0.000 HD 
HETATM    7  C   UNL     1     -10.223  17.385  68.664  1.00  0.00    -0.361 A  
HETATM    8  C   UNL     1     -11.062  16.681  69.531  1.00  0.00    -0.158 A  
HETATM    9  O   UNL     1     -12.469  14.795  69.953  1.00  0.00    -0.306 OA 
HETATM   10  C   UNL     1     -11.661  15.499  69.099  1.00  0.00    -0.362 A  
BRANCH   5  11
HETATM   11  C   UNL     1      -9.036  17.650  66.509  1.00  0.00    -0.283 C  
HETATM   12  C   UNL     1      -7.752  17.888  66.819  1.00  0.00    -0.251 C  
HETATM   13  C   UNL     1      -6.822  18.675  65.952  1.00  0.00    -0.312 C  
ENDBRANCH   5  11
ENDBRANCH   2   3
TORSDOF 2
ENDMDL
MODEL       91
REMARK 921   NORMALIZED FREE ENERGY PREDICTED BY IDOCK:   -3.26 KCAL/MOL
REMARK 922        TOTAL FREE ENERGY PREDICTED BY IDOCK:   -3.77 KCAL/MOL
REMARK 923 INTER-LIGAND FREE ENERGY PREDICTED BY IDOCK:   -3.61 KCAL/MOL
REMARK 924 INTRA-LIGAND FREE ENERGY PREDICTED BY IDOCK:   -0.16 KCAL/MOL
REMARK 927      BINDING AFFINITY PREDICTED BY RF-SCORE:    0.00 PKD
ROOT
HETATM    1  C   UNL     1      -8.470   8.174  69.221  1.00  0.00    -0.134 C  
HETATM    2  O   UNL     1      -8.408   9.553  68.883  1.00  0.00    -0.115 OA 
ENDROOT
BRANCH   2   3
HETATM    3  C   UNL     1      -9.534  10.306  69.096  1.00  0.00    -0.215 A  
HETATM    4  C   UNL     1     -10.596   9.940  69.930  1.00  0.00    -0.312 A  
HETATM    5  C   UNL     1     -11.722  10.767  70.076  1.00  0.00    -0.417 A  
HETATM    6  H   UNL     1      -8.635  12.703  67.099  1.00  0.00     0.000 HD 
HETATM    7  C   UNL     1     -11.774  11.972  69.364  1.00  0.00    -0.402 A  
HETATM    8  C   UNL     1     -10.719  12.353  68.532  1.00  0.00    -0.262 A  
HETATM    9  O   UNL     1      -8.582  11.880  67.571  1.00  0.00    -0.147 OA 
HETATM   10  C   UNL     1      -9.611  11.519  68.401  1.00  0.00    -0.195 A  
BRANCH   5  11
HETATM   11  C   UNL     1     -12.889  10.365  70.880  1.00  0.00    -0.482 C  
HETATM   12  C   UNL     1     -12.904   9.348  71.756  1.00  0.00    -0.484 C  
HETATM   13  C   UNL     1     -14.120   8.933  72.522  1.00  0.00    -0.441 C  
ENDBRANCH   5  11
ENDBRANCH   2   3
TORSDOF 2
ENDMDL
MODEL       92
REMARK 921   NORMALIZED FREE ENERGY PREDICTED BY IDOCK:   -3.26 KCAL/MOL
REMARK 922        TOTAL FREE ENERGY PREDICTED BY IDOCK:   -3.76 KCAL/MOL
REMARK 923 INTER-LIGAND FREE ENERGY PREDICTED BY IDOCK:   -3.57 KCAL/MOL
REMARK 924 INTRA-LIGAND FREE ENERGY PREDICTED BY IDOCK:   -0.19 KCAL/MOL
REMARK 927      BINDING AFFINITY PREDICTED BY RF-SCORE:    0.00 PKD
ROOT
HETATM    1  C   UNL     1      -8.340   5.117  73.421  1.00  0.00    -0.110 C  
HETATM    2  O   UNL     1      -9.605   4.725  72.908  1.00  0.00    -0.130 OA 
ENDROOT
BRANCH   2   3
HETATM    3  C   UNL     1     -10.273   5.627  72.121  1.00  0.00    -0.202 A  
HETATM    4  C   UNL     1     -10.806   6.841  72.569  1.00  0.00    -0.271 A  
HETATM    5  C   UNL     1     -11.493   7.699  71.694  1.00  0.00    -0.295 A  
HETATM    6  H   UNL     1     -10.046   3.844  69.416  1.00  0.00     0.000 HD 
HETATM    7  C   UNL     1     -11.648   7.318  70.355  1.00  0.00    -0.253 A  
HETATM    8  C   UNL     1     -11.117   6.112  69.892  1.00  0.00    -0.481 A  
HETATM    9  O   UNL     1      -9.934   4.082  70.329  1.00  0.00    -0.188 OA 
HETATM   10  C   UNL     1     -10.439   5.275  70.775  1.00  0.00    -0.228 A  
BRANCH   5  11
HETATM   11  C   UNL     1     -12.136   8.940  72.160  1.00  0.00    -0.430 C  
HETATM   12  C   UNL     1     -12.361  10.021  71.398  1.00  0.00    -0.512 C  
HETATM   13  C   UNL     1     -12.970  11.285  71.913  1.00  0.00    -0.471 C  
ENDBRANCH   5  11
ENDBRANCH   2   3
TORSDOF 2
ENDMDL
MODEL       93
REMARK 921   NORMALIZED FREE ENERGY PREDICTED BY IDOCK:   -3.24 KCAL/MOL
REMARK 922        TOTAL FREE ENERGY PREDICTED BY IDOCK:   -3.74 KCAL/MOL
REMARK 923 INTER-LIGAND FREE ENERGY PREDICTED BY IDOCK:   -3.59 KCAL/MOL
REMARK 924 INTRA-LIGAND FREE ENERGY PREDICTED BY IDOCK:   -0.15 KCAL/MOL
REMARK 927      BINDING AFFINITY PREDICTED BY RF-SCORE:    0.00 PKD
ROOT
HETATM    1  C   UNL     1     -10.693  16.784  65.081  1.00  0.00    -0.143 C  
HETATM    2  O   UNL     1     -10.304  17.138  66.401  1.00  0.00    -0.321 OA 
ENDROOT
BRANCH   2   3
HETATM    3  C   UNL     1     -10.635  16.270  67.410  1.00  0.00    -0.307 A  
HETATM    4  C   UNL     1     -10.884  14.903  67.241  1.00  0.00    -0.306 A  
HETATM    5  C   UNL     1     -11.235  14.090  68.332  1.00  0.00    -0.292 A  
HETATM    6  H   UNL     1     -10.593  18.535  69.736  1.00  0.00     0.000 HD 
HETATM    7  C   UNL     1     -11.342  14.670  69.602  1.00  0.00    -0.317 A  
HETATM    8  C   UNL     1     -11.092  16.032  69.786  1.00  0.00    -0.337 A  
HETATM    9  O   UNL     1     -10.518  18.162  68.866  1.00  0.00    -0.282 OA 
HETATM   10  C   UNL     1     -10.745  16.822  68.692  1.00  0.00    -0.352 A  
BRANCH   5  11
HETATM   11  C   UNL     1     -11.583  12.668  68.167  1.00  0.00    -0.386 C  
HETATM   12  C   UNL     1     -10.740  11.716  67.739  1.00  0.00    -0.244 C  
HETATM   13  C   UNL     1     -11.138  10.289  67.534  1.00  0.00    -0.302 C  
ENDBRANCH   5  11
ENDBRANCH   2   3
TORSDOF 2
ENDMDL
MODEL       94
REMARK 921   NORMALIZED FREE ENERGY PREDICTED BY IDOCK:   -3.23 KCAL/MOL
REMARK 922        TOTAL FREE ENERGY PREDICTED BY IDOCK:   -3.73 KCAL/MOL
REMARK 923 INTER-LIGAND FREE ENERGY PREDICTED BY IDOCK:   -3.58 KCAL/MOL
REMARK 924 INTRA-LIGAND FREE ENERGY PREDICTED BY IDOCK:   -0.15 KCAL/MOL
REMARK 927      BINDING AFFINITY PREDICTED BY RF-SCORE:    0.00 PKD
ROOT
HETATM    1  C   UNL     1      -8.941  11.294  68.511  1.00  0.00    -0.166 C  
HETATM    2  O   UNL     1      -9.069  10.841  67.171  1.00  0.00    -0.144 OA 
ENDROOT
BRANCH   2   3
HETATM    3  C   UNL     1      -9.604  11.713  66.259  1.00  0.00    -0.221 A  
HETATM    4  C   UNL     1      -9.731  13.093  66.450  1.00  0.00    -0.269 A  
HETATM    5  C   UNL     1     -10.309  13.912  65.465  1.00  0.00    -0.347 A  
HETATM    6  H   UNL     1     -10.276   9.421  64.059  1.00  0.00     0.000 HD 
HETATM    7  C   UNL     1     -10.769  13.324  64.280  1.00  0.00    -0.408 A  
HETATM    8  C   UNL     1     -10.644  11.948  64.073  1.00  0.00    -0.422 A  
HETATM    9  O   UNL     1      -9.961   9.801  64.871  1.00  0.00    -0.252 OA 
HETATM   10  C   UNL     1     -10.067  11.153  65.062  1.00  0.00    -0.283 A  
BRANCH   5  11
HETATM   11  C   UNL     1     -10.531  15.352  65.677  1.00  0.00    -0.391 C  
HETATM   12  C   UNL     1      -9.597  16.219  66.098  1.00  0.00    -0.362 C  
HETATM   13  C   UNL     1      -9.867  17.668  66.352  1.00  0.00    -0.315 C  
ENDBRANCH   5  11
ENDBRANCH   2   3
TORSDOF 2
ENDMDL
MODEL       95
REMARK 921   NORMALIZED FREE ENERGY PREDICTED BY IDOCK:   -3.22 KCAL/MOL
REMARK 922        TOTAL FREE ENERGY PREDICTED BY IDOCK:   -3.73 KCAL/MOL
REMARK 923 INTER-LIGAND FREE ENERGY PREDICTED BY IDOCK:   -3.55 KCAL/MOL
REMARK 924 INTRA-LIGAND FREE ENERGY PREDICTED BY IDOCK:   -0.18 KCAL/MOL
REMARK 927      BINDING AFFINITY PREDICTED BY RF-SCORE:    0.00 PKD
ROOT
HETATM    1  C   UNL     1     -12.180   9.918  71.404  1.00  0.00    -0.408 C  
HETATM    2  O   UNL     1     -11.703   8.870  72.236  1.00  0.00    -0.354 OA 
ENDROOT
BRANCH   2   3
HETATM    3  C   UNL     1     -11.305   7.710  71.622  1.00  0.00    -0.251 A  
HETATM    4  C   UNL     1     -11.402   7.456  70.249  1.00  0.00    -0.244 A  
HETATM    5  C   UNL     1     -10.985   6.229  69.707  1.00  0.00    -0.444 A  
HETATM    6  H   UNL     1     -10.348   6.268  74.370  1.00  0.00     0.000 HD 
HETATM    7  C   UNL     1     -10.474   5.248  70.567  1.00  0.00    -0.312 A  
HETATM    8  C   UNL     1     -10.367   5.488  71.939  1.00  0.00    -0.270 A  
HETATM    9  O   UNL     1     -10.700   6.945  73.804  1.00  0.00    -0.347 OA 
HETATM   10  C   UNL     1     -10.785   6.712  72.456  1.00  0.00    -0.229 A  
BRANCH   5  11
HETATM   11  C   UNL     1     -11.155   5.906  68.280  1.00  0.00    -0.139 C  
HETATM   12  C   UNL     1     -10.284   5.198  67.544  1.00  0.00    -0.210 C  
HETATM   13  C   UNL     1     -10.460   4.931  66.084  1.00  0.00    -0.346 C  
ENDBRANCH   5  11
ENDBRANCH   2   3
TORSDOF 2
ENDMDL
MODEL       96
REMARK 921   NORMALIZED FREE ENERGY PREDICTED BY IDOCK:   -3.21 KCAL/MOL
REMARK 922        TOTAL FREE ENERGY PREDICTED BY IDOCK:   -3.72 KCAL/MOL
REMARK 923 INTER-LIGAND FREE ENERGY PREDICTED BY IDOCK:   -3.55 KCAL/MOL
REMARK 924 INTRA-LIGAND FREE ENERGY PREDICTED BY IDOCK:   -0.16 KCAL/MOL
REMARK 927      BINDING AFFINITY PREDICTED BY RF-SCORE:    0.00 PKD
ROOT
HETATM    1  C   UNL     1      -6.825  18.759  69.430  1.00  0.00    -0.189 C  
HETATM    2  O   UNL     1      -7.988  19.302  68.821  1.00  0.00    -0.351 OA 
ENDROOT
BRANCH   2   3
HETATM    3  C   UNL     1      -8.940  18.419  68.380  1.00  0.00    -0.316 A  
HETATM    4  C   UNL     1      -9.851  17.747  69.202  1.00  0.00    -0.143 A  
HETATM    5  C   UNL     1     -10.783  16.843  68.666  1.00  0.00    -0.345 A  
HETATM    6  H   UNL     1      -8.090  18.648  65.255  1.00  0.00     0.000 HD 
HETATM    7  C   UNL     1     -10.785  16.614  67.284  1.00  0.00    -0.227 A  
HETATM    8  C   UNL     1      -9.885  17.281  66.450  1.00  0.00    -0.310 A  
HETATM    9  O   UNL     1      -8.071  18.815  66.189  1.00  0.00    -0.371 OA 
HETATM   10  C   UNL     1      -8.969  18.174  67.002  1.00  0.00    -0.263 A  
BRANCH   5  11
HETATM   11  C   UNL     1     -11.695  16.061  69.518  1.00  0.00    -0.275 C  
HETATM   12  C   UNL     1     -11.455  14.817  69.959  1.00  0.00    -0.321 C  
HETATM   13  C   UNL     1     -12.424  14.029  70.783  1.00  0.00    -0.442 C  
ENDBRANCH   5  11
ENDBRANCH   2   3
TORSDOF 2
ENDMDL
MODEL       97
REMARK 921   NORMALIZED FREE ENERGY PREDICTED BY IDOCK:   -3.20 KCAL/MOL
REMARK 922        TOTAL FREE ENERGY PREDICTED BY IDOCK:   -3.71 KCAL/MOL
REMARK 923 INTER-LIGAND FREE ENERGY PREDICTED BY IDOCK:   -3.54 KCAL/MOL
REMARK 924 INTRA-LIGAND FREE ENERGY PREDICTED BY IDOCK:   -0.17 KCAL/MOL
REMARK 927      BINDING AFFINITY PREDICTED BY RF-SCORE:    0.00 PKD
ROOT
HETATM    1  C   UNL     1      -7.596  11.097  68.069  1.00  0.00    -0.100 C  
HETATM    2  O   UNL     1      -8.771  11.322  67.303  1.00  0.00    -0.140 OA 
ENDROOT
BRANCH   2   3
HETATM    3  C   UNL     1      -9.854  11.858  67.952  1.00  0.00    -0.190 A  
HETATM    4  C   UNL     1     -10.483  11.289  69.065  1.00  0.00    -0.221 A  
HETATM    5  C   UNL     1     -11.601  11.900  69.657  1.00  0.00    -0.387 A  
HETATM    6  H   UNL     1     -10.105  14.424  65.978  1.00  0.00     0.000 HD 
HETATM    7  C   UNL     1     -12.089  13.094  69.111  1.00  0.00    -0.261 A  
HETATM    8  C   UNL     1     -11.468  13.676  68.003  1.00  0.00    -0.345 A  
HETATM    9  O   UNL     1      -9.761  13.612  66.332  1.00  0.00    -0.282 OA 
HETATM   10  C   UNL     1     -10.361  13.055  67.430  1.00  0.00    -0.234 A  
BRANCH   5  11
HETATM   11  C   UNL     1     -12.331  11.278  70.775  1.00  0.00    -0.495 C  
HETATM   12  C   UNL     1     -12.057  10.071  71.294  1.00  0.00    -0.487 C  
HETATM   13  C   UNL     1     -12.850   9.445  72.397  1.00  0.00    -0.394 C  
ENDBRANCH   5  11
ENDBRANCH   2   3
TORSDOF 2
ENDMDL
MODEL       98
REMARK 921   NORMALIZED FREE ENERGY PREDICTED BY IDOCK:   -3.20 KCAL/MOL
REMARK 922        TOTAL FREE ENERGY PREDICTED BY IDOCK:   -3.70 KCAL/MOL
REMARK 923 INTER-LIGAND FREE ENERGY PREDICTED BY IDOCK:   -3.52 KCAL/MOL
REMARK 924 INTRA-LIGAND FREE ENERGY PREDICTED BY IDOCK:   -0.19 KCAL/MOL
REMARK 927      BINDING AFFINITY PREDICTED BY RF-SCORE:    0.00 PKD
ROOT
HETATM    1  C   UNL     1      -6.019  16.058  69.688  1.00  0.00    -0.162 C  
HETATM    2  O   UNL     1      -6.708  17.238  69.302  1.00  0.00    -0.240 OA 
ENDROOT
BRANCH   2   3
HETATM    3  C   UNL     1      -7.933  17.086  68.705  1.00  0.00    -0.258 A  
HETATM    4  C   UNL     1      -8.471  15.866  68.279  1.00  0.00    -0.170 A  
HETATM    5  C   UNL     1      -9.730  15.805  67.658  1.00  0.00    -0.222 A  
HETATM    6  H   UNL     1      -8.651  20.252  68.755  1.00  0.00     0.000 HD 
HETATM    7  C   UNL     1     -10.445  16.993  67.460  1.00  0.00    -0.334 A  
HETATM    8  C   UNL     1      -9.923  18.218  67.883  1.00  0.00    -0.359 A  
HETATM    9  O   UNL     1      -8.149  19.458  68.896  1.00  0.00    -0.356 OA 
HETATM   10  C   UNL     1      -8.673  18.257  68.497  1.00  0.00    -0.308 A  
BRANCH   5  11
HETATM   11  C   UNL     1     -10.280  14.546  67.127  1.00  0.00    -0.260 C  
HETATM   12  C   UNL     1     -11.492  14.414  66.567  1.00  0.00    -0.369 C  
HETATM   13  C   UNL     1     -12.042  13.110  66.082  1.00  0.00    -0.479 C  
ENDBRANCH   5  11
ENDBRANCH   2   3
TORSDOF 2
ENDMDL
MODEL       99
REMARK 921   NORMALIZED FREE ENERGY PREDICTED BY IDOCK:   -3.20 KCAL/MOL
REMARK 922        TOTAL FREE ENERGY PREDICTED BY IDOCK:   -3.70 KCAL/MOL
REMARK 923 INTER-LIGAND FREE ENERGY PREDICTED BY IDOCK:   -3.51 KCAL/MOL
REMARK 924 INTRA-LIGAND FREE ENERGY PREDICTED BY IDOCK:   -0.19 KCAL/MOL
REMARK 927      BINDING AFFINITY PREDICTED BY RF-SCORE:    0.00 PKD
ROOT
HETATM    1  C   UNL     1     -10.646   6.063  70.149  1.00  0.00    -0.276 C  
HETATM    2  O   UNL     1     -10.483   7.394  70.618  1.00  0.00    -0.211 OA 
ENDROOT
BRANCH   2   3
HETATM    3  C   UNL     1     -10.711   8.409  69.725  1.00  0.00    -0.211 A  
HETATM    4  C   UNL     1     -10.342   8.387  68.375  1.00  0.00    -0.239 A  
HETATM    5  C   UNL     1     -10.600   9.482  67.534  1.00  0.00    -0.338 A  
HETATM    6  H   UNL     1     -12.124  10.365  71.898  1.00  0.00     0.000 HD 
HETATM    7  C   UNL     1     -11.230  10.613  68.069  1.00  0.00    -0.373 A  
HETATM    8  C   UNL     1     -11.608  10.648  69.413  1.00  0.00    -0.352 A  
HETATM    9  O   UNL     1     -11.695   9.590  71.555  1.00  0.00    -0.355 OA 
HETATM   10  C   UNL     1     -11.344   9.552  70.231  1.00  0.00    -0.236 A  
BRANCH   5  11
HETATM   11  C   UNL     1     -10.147   9.516  66.133  1.00  0.00    -0.326 C  
HETATM   12  C   UNL     1      -9.696  10.608  65.498  1.00  0.00    -0.291 C  
HETATM   13  C   UNL     1      -9.290  10.621  64.059  1.00  0.00    -0.303 C  
ENDBRANCH   5  11
ENDBRANCH   2   3
TORSDOF 2
ENDMDL
MODEL      100
REMARK 921   NORMALIZED FREE ENERGY PREDICTED BY IDOCK:   -3.19 KCAL/MOL
REMARK 922        TOTAL FREE ENERGY PREDICTED BY IDOCK:   -3.70 KCAL/MOL
REMARK 923 INTER-LIGAND FREE ENERGY PREDICTED BY IDOCK:   -3.52 KCAL/MOL
REMARK 924 INTRA-LIGAND FREE ENERGY PREDICTED BY IDOCK:   -0.17 KCAL/MOL
REMARK 927      BINDING AFFINITY PREDICTED BY RF-SCORE:    0.00 PKD
ROOT
HETATM    1  C   UNL     1     -10.511  12.601  63.952  1.00  0.00    -0.411 C  
HETATM    2  O   UNL     1     -11.227  13.763  64.343  1.00  0.00    -0.376 OA 
ENDROOT
BRANCH   2   3
HETATM    3  C   UNL     1     -10.700  14.515  65.362  1.00  0.00    -0.361 A  
HETATM    4  C   UNL     1      -9.613  15.386  65.236  1.00  0.00    -0.026 A  
HETATM    5  C   UNL     1      -9.126  16.105  66.340  1.00  0.00    -0.339 A  
HETATM    6  H   UNL     1     -12.763  13.403  67.609  1.00  0.00     0.000 HD 
HETATM    7  C   UNL     1      -9.743  15.932  67.586  1.00  0.00    -0.223 A  
HETATM    8  C   UNL     1     -10.833  15.069  67.727  1.00  0.00    -0.284 A  
HETATM    9  O   UNL     1     -12.356  13.503  66.757  1.00  0.00    -0.365 OA 
HETATM   10  C   UNL     1     -11.301  14.366  66.619  1.00  0.00    -0.353 A  
BRANCH   5  11
HETATM   11  C   UNL     1      -7.932  16.963  66.251  1.00  0.00    -0.350 C  
HETATM   12  C   UNL     1      -7.722  18.066  66.986  1.00  0.00    -0.235 C  
HETATM   13  C   UNL     1      -6.522  18.945  66.836  1.00  0.00    -0.198 C  
ENDBRANCH   5  11
ENDBRANCH   2   3
TORSDOF 2
ENDMDL
MODEL      101
REMARK 921   NORMALIZED FREE ENERGY PREDICTED BY IDOCK:   -3.18 KCAL/MOL
REMARK 922        TOTAL FREE ENERGY PREDICTED BY IDOCK:   -3.68 KCAL/MOL
REMARK 923 INTER-LIGAND FREE ENERGY PREDICTED BY IDOCK:   -3.51 KCAL/MOL
REMARK 924 INTRA-LIGAND FREE ENERGY PREDICTED BY IDOCK:   -0.17 KCAL/MOL
REMARK 927      BINDING AFFINITY PREDICTED BY RF-SCORE:    0.00 PKD
ROOT
HETATM    1  C   UNL     1     -12.693  12.457  63.478  1.00  0.00    -0.326 C  
HETATM    2  O   UNL     1     -11.473  11.760  63.687  1.00  0.00    -0.420 OA 
ENDROOT
BRANCH   2   3
HETATM    3  C   UNL     1     -10.905  11.842  64.932  1.00  0.00    -0.305 A  
HETATM    4  C   UNL     1     -11.560  12.292  66.084  1.00  0.00    -0.450 A  
HETATM    5  C   UNL     1     -10.894  12.361  67.318  1.00  0.00    -0.279 A  
HETATM    6  H   UNL     1      -7.994  10.774  63.969  1.00  0.00     0.000 HD 
HETATM    7  C   UNL     1      -9.548  11.978  67.383  1.00  0.00    -0.176 A  
HETATM    8  C   UNL     1      -8.882  11.522  66.243  1.00  0.00    -0.186 A  
HETATM    9  O   UNL     1      -8.905  11.033  63.903  1.00  0.00    -0.105 OA 
HETATM   10  C   UNL     1      -9.561  11.461  65.028  1.00  0.00    -0.221 A  
BRANCH   5  11
HETATM   11  C   UNL     1     -11.536  12.910  68.525  1.00  0.00    -0.358 C  
HETATM   12  C   UNL     1     -11.178  14.051  69.133  1.00  0.00    -0.308 C  
HETATM   13  C   UNL     1     -11.818  14.556  70.387  1.00  0.00    -0.378 C  
ENDBRANCH   5  11
ENDBRANCH   2   3
TORSDOF 2
ENDMDL
MODEL      102
REMARK 921   NORMALIZED FREE ENERGY PREDICTED BY IDOCK:   -3.17 KCAL/MOL
REMARK 922        TOTAL FREE ENERGY PREDICTED BY IDOCK:   -3.67 KCAL/MOL
REMARK 923 INTER-LIGAND FREE ENERGY PREDICTED BY IDOCK:   -3.50 KCAL/MOL
REMARK 924 INTRA-LIGAND FREE ENERGY PREDICTED BY IDOCK:   -0.17 KCAL/MOL
REMARK 927      BINDING AFFINITY PREDICTED BY RF-SCORE:    0.00 PKD
ROOT
HETATM    1  C   UNL     1     -10.505   5.068  66.804  1.00  0.00    -0.219 C  
HETATM    2  O   UNL     1      -9.591   5.439  67.826  1.00  0.00    -0.119 OA 
ENDROOT
BRANCH   2   3
HETATM    3  C   UNL     1     -10.073   5.511  69.108  1.00  0.00    -0.216 A  
HETATM    4  C   UNL     1     -11.059   6.403  69.544  1.00  0.00    -0.460 A  
HETATM    5  C   UNL     1     -11.481   6.420  70.884  1.00  0.00    -0.406 A  
HETATM    6  H   UNL     1      -8.142   3.165  70.252  1.00  0.00     0.000 HD 
HETATM    7  C   UNL     1     -10.892   5.530  71.791  1.00  0.00    -0.277 A  
HETATM    8  C   UNL     1      -9.909   4.630  71.369  1.00  0.00    -0.264 A  
HETATM    9  O   UNL     1      -8.527   3.763  69.623  1.00  0.00    -0.059 OA 
HETATM   10  C   UNL     1      -9.505   4.630  70.036  1.00  0.00    -0.172 A  
BRANCH   5  11
HETATM   11  C   UNL     1     -12.456   7.404  71.384  1.00  0.00    -0.402 C  
HETATM   12  C   UNL     1     -12.258   8.731  71.420  1.00  0.00    -0.359 C  
HETATM   13  C   UNL     1     -13.248   9.701  71.981  1.00  0.00    -0.546 C  
ENDBRANCH   5  11
ENDBRANCH   2   3
TORSDOF 2
ENDMDL
MODEL      103
REMARK 921   NORMALIZED FREE ENERGY PREDICTED BY IDOCK:   -3.17 KCAL/MOL
REMARK 922        TOTAL FREE ENERGY PREDICTED BY IDOCK:   -3.67 KCAL/MOL
REMARK 923 INTER-LIGAND FREE ENERGY PREDICTED BY IDOCK:   -3.47 KCAL/MOL
REMARK 924 INTRA-LIGAND FREE ENERGY PREDICTED BY IDOCK:   -0.20 KCAL/MOL
REMARK 927      BINDING AFFINITY PREDICTED BY RF-SCORE:    0.00 PKD
ROOT
HETATM    1  C   UNL     1     -11.870  11.205  69.035  1.00  0.00    -0.348 C  
HETATM    2  O   UNL     1     -11.714  11.213  70.447  1.00  0.00    -0.316 OA 
ENDROOT
BRANCH   2   3
HETATM    3  C   UNL     1     -11.361  10.033  71.049  1.00  0.00    -0.357 A  
HETATM    4  C   UNL     1     -10.144   9.369  70.858  1.00  0.00    -0.366 A  
HETATM    5  C   UNL     1      -9.872   8.151  71.504  1.00  0.00    -0.233 A  
HETATM    6  H   UNL     1     -14.162   9.704  72.657  1.00  0.00     0.000 HD 
HETATM    7  C   UNL     1     -10.847   7.598  72.344  1.00  0.00    -0.341 A  
HETATM    8  C   UNL     1     -12.065   8.252  72.548  1.00  0.00    -0.400 A  
HETATM    9  O   UNL     1     -13.515  10.093  72.081  1.00  0.00    -0.411 OA 
HETATM   10  C   UNL     1     -12.315   9.459  71.899  1.00  0.00    -0.375 A  
BRANCH   5  11
HETATM   11  C   UNL     1      -8.635   7.392  71.254  1.00  0.00    -0.118 C  
HETATM   12  C   UNL     1      -8.436   6.111  71.604  1.00  0.00    -0.130 C  
HETATM   13  C   UNL     1      -7.149   5.383  71.381  1.00  0.00    -0.070 C  
ENDBRANCH   5  11
ENDBRANCH   2   3
TORSDOF 2
ENDMDL
MODEL      104
REMARK 921   NORMALIZED FREE ENERGY PREDICTED BY IDOCK:   -3.14 KCAL/MOL
REMARK 922        TOTAL FREE ENERGY PREDICTED BY IDOCK:   -3.64 KCAL/MOL
REMARK 923 INTER-LIGAND FREE ENERGY PREDICTED BY IDOCK:   -3.47 KCAL/MOL
REMARK 924 INTRA-LIGAND FREE ENERGY PREDICTED BY IDOCK:   -0.17 KCAL/MOL
REMARK 927      BINDING AFFINITY PREDICTED BY RF-SCORE:    0.00 PKD
ROOT
HETATM    1  C   UNL     1      -7.027  12.320  67.208  1.00  0.00    -0.142 C  
HETATM    2  O   UNL     1      -7.945  12.582  68.260  1.00  0.00    -0.141 OA 
ENDROOT
BRANCH   2   3
HETATM    3  C   UNL     1      -9.130  13.186  67.927  1.00  0.00    -0.207 A  
HETATM    4  C   UNL     1     -10.045  12.694  66.990  1.00  0.00    -0.228 A  
HETATM    5  C   UNL     1     -11.230  13.390  66.697  1.00  0.00    -0.330 A  
HETATM    6  H   UNL     1      -8.709  15.716  69.920  1.00  0.00     0.000 HD 
HETATM    7  C   UNL     1     -11.484  14.601  67.355  1.00  0.00    -0.384 A  
HETATM    8  C   UNL     1     -10.582  15.102  68.297  1.00  0.00    -0.243 A  
HETATM    9  O   UNL     1      -8.517  14.895  69.482  1.00  0.00    -0.124 OA 
HETATM   10  C   UNL     1      -9.413  14.396  68.573  1.00  0.00    -0.212 A  
BRANCH   5  11
HETATM   11  C   UNL     1     -12.166  12.937  65.655  1.00  0.00    -0.519 C  
HETATM   12  C   UNL     1     -11.809  12.323  64.516  1.00  0.00    -0.441 C  
HETATM   13  C   UNL     1     -12.781  11.919  63.454  1.00  0.00    -0.496 C  
ENDBRANCH   5  11
ENDBRANCH   2   3
TORSDOF 2
ENDMDL
MODEL      105
REMARK 921   NORMALIZED FREE ENERGY PREDICTED BY IDOCK:   -3.14 KCAL/MOL
REMARK 922        TOTAL FREE ENERGY PREDICTED BY IDOCK:   -3.64 KCAL/MOL
REMARK 923 INTER-LIGAND FREE ENERGY PREDICTED BY IDOCK:   -3.47 KCAL/MOL
REMARK 924 INTRA-LIGAND FREE ENERGY PREDICTED BY IDOCK:   -0.17 KCAL/MOL
REMARK 927      BINDING AFFINITY PREDICTED BY RF-SCORE:    0.00 PKD
ROOT
HETATM    1  C   UNL     1     -10.491   6.396  68.397  1.00  0.00    -0.222 C  
HETATM    2  O   UNL     1     -11.569   6.701  69.271  1.00  0.00    -0.240 OA 
ENDROOT
BRANCH   2   3
HETATM    3  C   UNL     1     -11.291   6.781  70.611  1.00  0.00    -0.334 A  
HETATM    4  C   UNL     1     -11.068   5.684  71.451  1.00  0.00    -0.221 A  
HETATM    5  C   UNL     1     -10.806   5.859  72.820  1.00  0.00    -0.289 A  
HETATM    6  H   UNL     1     -11.458  10.022  70.726  1.00  0.00     0.000 HD 
HETATM    7  C   UNL     1     -10.778   7.157  73.343  1.00  0.00    -0.410 A  
HETATM    8  C   UNL     1     -10.994   8.263  72.517  1.00  0.00    -0.424 A  
HETATM    9  O   UNL     1     -11.484   9.149  70.352  1.00  0.00    -0.259 OA 
HETATM   10  C   UNL     1     -11.252   8.069  71.162  1.00  0.00    -0.261 A  
BRANCH   5  11
HETATM   11  C   UNL     1     -10.652   4.718  73.738  1.00  0.00    -0.330 C  
HETATM   12  C   UNL     1     -10.595   3.431  73.361  1.00  0.00    -0.283 C  
HETATM   13  C   UNL     1     -10.489   2.290  74.323  1.00  0.00    -0.197 C  
ENDBRANCH   5  11
ENDBRANCH   2   3
TORSDOF 2
ENDMDL
MODEL      106
REMARK 921   NORMALIZED FREE ENERGY PREDICTED BY IDOCK:   -3.11 KCAL/MOL
REMARK 922        TOTAL FREE ENERGY PREDICTED BY IDOCK:   -3.60 KCAL/MOL
REMARK 923 INTER-LIGAND FREE ENERGY PREDICTED BY IDOCK:   -3.44 KCAL/MOL
REMARK 924 INTRA-LIGAND FREE ENERGY PREDICTED BY IDOCK:   -0.16 KCAL/MOL
REMARK 927      BINDING AFFINITY PREDICTED BY RF-SCORE:    0.00 PKD
ROOT
HETATM    1  C   UNL     1     -11.241  15.443  66.312  1.00  0.00    -0.162 C  
HETATM    2  O   UNL     1     -11.781  14.452  65.450  1.00  0.00    -0.346 OA 
ENDROOT
BRANCH   2   3
HETATM    3  C   UNL     1     -11.103  13.264  65.352  1.00  0.00    -0.282 A  
HETATM    4  C   UNL     1     -10.128  12.821  66.252  1.00  0.00    -0.267 A  
HETATM    5  C   UNL     1      -9.469  11.595  66.064  1.00  0.00    -0.246 A  
HETATM    6  H   UNL     1     -12.566  12.346  62.602  1.00  0.00     0.000 HD 
HETATM    7  C   UNL     1      -9.796  10.815  64.948  1.00  0.00    -0.350 A  
HETATM    8  C   UNL     1     -10.771  11.241  64.042  1.00  0.00    -0.444 A  
HETATM    9  O   UNL     1     -12.356  12.891  63.351  1.00  0.00    -0.653 OA 
HETATM   10  C   UNL     1     -11.414  12.461  64.247  1.00  0.00    -0.363 A  
BRANCH   5  11
HETATM   11  C   UNL     1      -8.381  11.148  66.950  1.00  0.00    -0.147 C  
HETATM   12  C   UNL     1      -7.477  11.956  67.524  1.00  0.00    -0.136 C  
HETATM   13  C   UNL     1      -6.353  11.466  68.380  1.00  0.00    -0.046 C  
ENDBRANCH   5  11
ENDBRANCH   2   3
TORSDOF 2
ENDMDL
MODEL      107
REMARK 921   NORMALIZED FREE ENERGY PREDICTED BY IDOCK:   -3.08 KCAL/MOL
REMARK 922        TOTAL FREE ENERGY PREDICTED BY IDOCK:   -3.57 KCAL/MOL
REMARK 923 INTER-LIGAND FREE ENERGY PREDICTED BY IDOCK:   -3.40 KCAL/MOL
REMARK 924 INTRA-LIGAND FREE ENERGY PREDICTED BY IDOCK:   -0.17 KCAL/MOL
REMARK 927      BINDING AFFINITY PREDICTED BY RF-SCORE:    0.00 PKD
ROOT
HETATM    1  C   UNL     1      -9.455   6.881  66.462  1.00  0.00    -0.153 C  
HETATM    2  O   UNL     1      -8.811   8.135  66.282  1.00  0.00    -0.146 OA 
ENDROOT
BRANCH   2   3
HETATM    3  C   UNL     1      -9.601   9.255  66.285  1.00  0.00    -0.248 A  
HETATM    4  C   UNL     1     -10.348   9.706  67.379  1.00  0.00    -0.306 A  
HETATM    5  C   UNL     1     -11.146  10.859  67.288  1.00  0.00    -0.350 A  
HETATM    6  H   UNL     1      -8.993  10.021  63.188  1.00  0.00     0.000 HD 
HETATM    7  C   UNL     1     -11.194  11.554  66.073  1.00  0.00    -0.240 A  
HETATM    8  C   UNL     1     -10.451  11.119  64.973  1.00  0.00    -0.357 A  
HETATM    9  O   UNL     1      -8.949   9.533  64.002  1.00  0.00    -0.229 OA 
HETATM   10  C   UNL     1      -9.664   9.974  65.084  1.00  0.00    -0.311 A  
BRANCH   5  11
HETATM   11  C   UNL     1     -12.005  11.305  68.398  1.00  0.00    -0.255 C  
HETATM   12  C   UNL     1     -11.731  11.129  69.699  1.00  0.00    -0.410 C  
HETATM   13  C   UNL     1     -12.648  11.549  70.803  1.00  0.00    -0.390 C  
ENDBRANCH   5  11
ENDBRANCH   2   3
TORSDOF 2
ENDMDL
MODEL      108
REMARK 921   NORMALIZED FREE ENERGY PREDICTED BY IDOCK:   -3.06 KCAL/MOL
REMARK 922        TOTAL FREE ENERGY PREDICTED BY IDOCK:   -3.55 KCAL/MOL
REMARK 923 INTER-LIGAND FREE ENERGY PREDICTED BY IDOCK:   -3.42 KCAL/MOL
REMARK 924 INTRA-LIGAND FREE ENERGY PREDICTED BY IDOCK:   -0.13 KCAL/MOL
REMARK 927      BINDING AFFINITY PREDICTED BY RF-SCORE:    0.00 PKD
ROOT
HETATM    1  C   UNL     1      -6.496  16.910  67.799  1.00  0.00    -0.143 C  
HETATM    2  O   UNL     1      -7.834  17.283  68.098  1.00  0.00    -0.205 OA 
ENDROOT
BRANCH   2   3
HETATM    3  C   UNL     1      -8.838  16.555  67.512  1.00  0.00    -0.191 A  
HETATM    4  C   UNL     1      -9.304  15.318  67.972  1.00  0.00    -0.197 A  
HETATM    5  C   UNL     1     -10.327  14.632  67.297  1.00  0.00    -0.256 A  
HETATM    6  H   UNL     1      -9.335  18.674  65.103  1.00  0.00     0.000 HD 
HETATM    7  C   UNL     1     -10.875  15.200  66.141  1.00  0.00    -0.330 A  
HETATM    8  C   UNL     1     -10.423  16.436  65.671  1.00  0.00    -0.364 A  
HETATM    9  O   UNL     1      -8.948  18.304  65.887  1.00  0.00    -0.497 OA 
HETATM   10  C   UNL     1      -9.408  17.101  66.355  1.00  0.00    -0.262 A  
BRANCH   5  11
HETATM   11  C   UNL     1     -10.777  13.292  67.714  1.00  0.00    -0.256 C  
HETATM   12  C   UNL     1     -11.210  12.976  68.944  1.00  0.00    -0.326 C  
HETATM   13  C   UNL     1     -11.612  11.594  69.349  1.00  0.00    -0.392 C  
ENDBRANCH   5  11
ENDBRANCH   2   3
TORSDOF 2
ENDMDL
MODEL      109
REMARK 921   NORMALIZED FREE ENERGY PREDICTED BY IDOCK:   -3.06 KCAL/MOL
REMARK 922        TOTAL FREE ENERGY PREDICTED BY IDOCK:   -3.54 KCAL/MOL
REMARK 923 INTER-LIGAND FREE ENERGY PREDICTED BY IDOCK:   -3.40 KCAL/MOL
REMARK 924 INTRA-LIGAND FREE ENERGY PREDICTED BY IDOCK:   -0.15 KCAL/MOL
REMARK 927      BINDING AFFINITY PREDICTED BY RF-SCORE:    0.00 PKD
ROOT
HETATM    1  C   UNL     1      -8.062  10.277  65.708  1.00  0.00    -0.149 C  
HETATM    2  O   UNL     1      -9.453  10.407  65.453  1.00  0.00    -0.197 OA 
ENDROOT
BRANCH   2   3
HETATM    3  C   UNL     1     -10.158  11.286  66.234  1.00  0.00    -0.230 A  
HETATM    4  C   UNL     1     -10.180  12.675  66.059  1.00  0.00    -0.287 A  
HETATM    5  C   UNL     1     -10.918  13.504  66.920  1.00  0.00    -0.296 A  
HETATM    6  H   UNL     1     -11.355   8.997  68.201  1.00  0.00     0.000 HD 
HETATM    7  C   UNL     1     -11.633  12.920  67.973  1.00  0.00    -0.385 A  
HETATM    8  C   UNL     1     -11.625  11.535  68.158  1.00  0.00    -0.378 A  
HETATM    9  O   UNL     1     -10.861   9.374  67.483  1.00  0.00    -0.269 OA 
HETATM   10  C   UNL     1     -10.887  10.730  67.293  1.00  0.00    -0.288 A  
BRANCH   5  11
HETATM   11  C   UNL     1     -10.888  14.972  66.807  1.00  0.00    -0.318 C  
HETATM   12  C   UNL     1     -10.607  15.650  65.684  1.00  0.00    -0.393 C  
HETATM   13  C   UNL     1     -10.536  17.142  65.613  1.00  0.00    -0.208 C  
ENDBRANCH   5  11
ENDBRANCH   2   3
TORSDOF 2
ENDMDL
MODEL      110
REMARK 921   NORMALIZED FREE ENERGY PREDICTED BY IDOCK:   -3.05 KCAL/MOL
REMARK 922        TOTAL FREE ENERGY PREDICTED BY IDOCK:   -3.53 KCAL/MOL
REMARK 923 INTER-LIGAND FREE ENERGY PREDICTED BY IDOCK:   -3.37 KCAL/MOL
REMARK 924 INTRA-LIGAND FREE ENERGY PREDICTED BY IDOCK:   -0.16 KCAL/MOL
REMARK 927      BINDING AFFINITY PREDICTED BY RF-SCORE:    0.00 PKD
ROOT
HETATM    1  C   UNL     1      -7.163  20.697  67.009  1.00  0.00    -0.316 C  
HETATM    2  O   UNL     1      -8.277  20.165  67.712  1.00  0.00    -0.304 OA 
ENDROOT
BRANCH   2   3
HETATM    3  C   UNL     1      -8.760  18.949  67.303  1.00  0.00    -0.278 A  
HETATM    4  C   UNL     1      -8.205  17.711  67.643  1.00  0.00    -0.225 A  
HETATM    5  C   UNL     1      -8.756  16.511  67.162  1.00  0.00    -0.216 A  
HETATM    6  H   UNL     1     -11.186  20.203  65.545  1.00  0.00     0.000 HD 
HETATM    7  C   UNL     1      -9.875  16.570  66.322  1.00  0.00    -0.336 A  
HETATM    8  C   UNL     1     -10.444  17.799  65.977  1.00  0.00    -0.286 A  
HETATM    9  O   UNL     1     -10.425  20.185  66.113  1.00  0.00    -0.417 OA 
HETATM   10  C   UNL     1      -9.882  18.977  66.465  1.00  0.00    -0.369 A  
BRANCH   5  11
HETATM   11  C   UNL     1      -8.140  15.202  67.437  1.00  0.00    -0.209 C  
HETATM   12  C   UNL     1      -8.709  14.015  67.172  1.00  0.00    -0.234 C  
HETATM   13  C   UNL     1      -8.079  12.702  67.510  1.00  0.00    -0.178 C  
ENDBRANCH   5  11
ENDBRANCH   2   3
TORSDOF 2
ENDMDL
MODEL      111
REMARK 921   NORMALIZED FREE ENERGY PREDICTED BY IDOCK:   -3.04 KCAL/MOL
REMARK 922        TOTAL FREE ENERGY PREDICTED BY IDOCK:   -3.53 KCAL/MOL
REMARK 923 INTER-LIGAND FREE ENERGY PREDICTED BY IDOCK:   -3.36 KCAL/MOL
REMARK 924 INTRA-LIGAND FREE ENERGY PREDICTED BY IDOCK:   -0.17 KCAL/MOL
REMARK 927      BINDING AFFINITY PREDICTED BY RF-SCORE:    0.00 PKD
ROOT
HETATM    1  C   UNL     1      -7.179  14.101  67.501  1.00  0.00    -0.169 C  
HETATM    2  O   UNL     1      -8.457  14.600  67.868  1.00  0.00    -0.145 OA 
ENDROOT
BRANCH   2   3
HETATM    3  C   UNL     1      -9.553  13.874  67.480  1.00  0.00    -0.229 A  
HETATM    4  C   UNL     1      -9.669  12.483  67.578  1.00  0.00    -0.196 A  
HETATM    5  C   UNL     1     -10.825  11.818  67.137  1.00  0.00    -0.303 A  
HETATM    6  H   UNL     1     -11.228  16.454  66.438  1.00  0.00     0.000 HD 
HETATM    7  C   UNL     1     -11.870  12.570  66.584  1.00  0.00    -0.422 A  
HETATM    8  C   UNL     1     -11.771  13.960  66.484  1.00  0.00    -0.414 A  
HETATM    9  O   UNL     1     -10.507  15.962  66.813  1.00  0.00    -0.301 OA 
HETATM   10  C   UNL     1     -10.616  14.601  66.927  1.00  0.00    -0.281 A  
BRANCH   5  11
HETATM   11  C   UNL     1     -10.936  10.349  67.152  1.00  0.00    -0.263 C  
HETATM   12  C   UNL     1      -9.917   9.500  66.948  1.00  0.00    -0.278 C  
HETATM   13  C   UNL     1     -10.072   8.013  66.919  1.00  0.00    -0.362 C  
ENDBRANCH   5  11
ENDBRANCH   2   3
TORSDOF 2
ENDMDL
MODEL      112
REMARK 921   NORMALIZED FREE ENERGY PREDICTED BY IDOCK:   -3.01 KCAL/MOL
REMARK 922        TOTAL FREE ENERGY PREDICTED BY IDOCK:   -3.49 KCAL/MOL
REMARK 923 INTER-LIGAND FREE ENERGY PREDICTED BY IDOCK:   -3.47 KCAL/MOL
REMARK 924 INTRA-LIGAND FREE ENERGY PREDICTED BY IDOCK:   -0.02 KCAL/MOL
REMARK 927      BINDING AFFINITY PREDICTED BY RF-SCORE:    0.00 PKD
ROOT
HETATM    1  C   UNL     1     -10.679  11.283  63.922  1.00  0.00    -0.384 C  
HETATM    2  O   UNL     1      -9.914  11.561  65.087  1.00  0.00    -0.242 OA 
ENDROOT
BRANCH   2   3
HETATM    3  C   UNL     1     -10.337  11.005  66.266  1.00  0.00    -0.251 A  
HETATM    4  C   UNL     1     -11.129  11.654  67.220  1.00  0.00    -0.346 A  
HETATM    5  C   UNL     1     -11.502  11.012  68.413  1.00  0.00    -0.378 A  
HETATM    6  H   UNL     1      -8.841   8.165  65.775  1.00  0.00     0.000 HD 
HETATM    7  C   UNL     1     -11.061   9.703  68.643  1.00  0.00    -0.085 A  
HETATM    8  C   UNL     1     -10.274   9.040  67.698  1.00  0.00    -0.300 A  
HETATM    9  O   UNL     1      -9.127   9.054  65.602  1.00  0.00    -0.201 OA 
HETATM   10  C   UNL     1      -9.915   9.694  66.522  1.00  0.00    -0.246 A  
BRANCH   5  11
HETATM   11  C   UNL     1     -12.263  11.703  69.468  1.00  0.00    -0.257 C  
HETATM   12  C   UNL     1     -11.999  12.939  69.921  1.00  0.00    -0.377 C  
HETATM   13  C   UNL     1     -12.760  13.594  71.029  1.00  0.00    -0.408 C  
ENDBRANCH   5  11
ENDBRANCH   2   3
TORSDOF 2
ENDMDL
MODEL      113
REMARK 921   NORMALIZED FREE ENERGY PREDICTED BY IDOCK:   -3.01 KCAL/MOL
REMARK 922        TOTAL FREE ENERGY PREDICTED BY IDOCK:   -3.49 KCAL/MOL
REMARK 923 INTER-LIGAND FREE ENERGY PREDICTED BY IDOCK:   -3.30 KCAL/MOL
REMARK 924 INTRA-LIGAND FREE ENERGY PREDICTED BY IDOCK:   -0.19 KCAL/MOL
REMARK 927      BINDING AFFINITY PREDICTED BY RF-SCORE:    0.00 PKD
ROOT
HETATM    1  C   UNL     1      -8.577  17.998  67.850  1.00  0.00    -0.257 C  
HETATM    2  O   UNL     1      -8.380  16.799  68.586  1.00  0.00    -0.232 OA 
ENDROOT
BRANCH   2   3
HETATM    3  C   UNL     1      -8.705  15.619  67.969  1.00  0.00    -0.167 A  
HETATM    4  C   UNL     1      -9.516  15.506  66.834  1.00  0.00    -0.244 A  
HETATM    5  C   UNL     1      -9.813  14.251  66.276  1.00  0.00    -0.323 A  
HETATM    6  H   UNL     1      -7.062  13.759  70.062  1.00  0.00     0.000 HD 
HETATM    7  C   UNL     1      -9.290  13.101  66.881  1.00  0.00    -0.246 A  
HETATM    8  C   UNL     1      -8.475  13.198  68.011  1.00  0.00    -0.181 A  
HETATM    9  O   UNL     1      -7.410  14.551  69.669  1.00  0.00    -0.112 OA 
HETATM   10  C   UNL     1      -8.192  14.452  68.548  1.00  0.00    -0.151 A  
BRANCH   5  11
HETATM   11  C   UNL     1     -10.731  14.100  65.134  1.00  0.00    -0.400 C  
HETATM   12  C   UNL     1     -11.058  12.931  64.562  1.00  0.00    -0.373 C  
HETATM   13  C   UNL     1     -11.955  12.816  63.370  1.00  0.00    -0.613 C  
ENDBRANCH   5  11
ENDBRANCH   2   3
TORSDOF 2
ENDMDL
MODEL      114
REMARK 921   NORMALIZED FREE ENERGY PREDICTED BY IDOCK:   -3.00 KCAL/MOL
REMARK 922        TOTAL FREE ENERGY PREDICTED BY IDOCK:   -3.48 KCAL/MOL
REMARK 923 INTER-LIGAND FREE ENERGY PREDICTED BY IDOCK:   -3.29 KCAL/MOL
REMARK 924 INTRA-LIGAND FREE ENERGY PREDICTED BY IDOCK:   -0.20 KCAL/MOL
REMARK 927      BINDING AFFINITY PREDICTED BY RF-SCORE:    0.00 PKD
ROOT
HETATM    1  C   UNL     1      -7.089   6.330  72.097  1.00  0.00    -0.079 C  
HETATM    2  O   UNL     1      -7.722   6.362  70.826  1.00  0.00    -0.097 OA 
ENDROOT
BRANCH   2   3
HETATM    3  C   UNL     1      -9.037   6.748  70.786  1.00  0.00    -0.151 A  
HETATM    4  C   UNL     1      -9.495   8.056  70.983  1.00  0.00    -0.179 A  
HETATM    5  C   UNL     1     -10.866   8.360  70.942  1.00  0.00    -0.267 A  
HETATM    6  H   UNL     1     -10.176   3.763  70.207  1.00  0.00     0.000 HD 
HETATM    7  C   UNL     1     -11.781   7.326  70.707  1.00  0.00    -0.333 A  
HETATM    8  C   UNL     1     -11.339   6.016  70.504  1.00  0.00    -0.310 A  
HETATM    9  O   UNL     1      -9.539   4.449  70.369  1.00  0.00    -0.160 OA 
HETATM   10  C   UNL     1      -9.975   5.736  70.548  1.00  0.00    -0.195 A  
BRANCH   5  11
HETATM   11  C   UNL     1     -11.377   9.711  71.229  1.00  0.00    -0.458 C  
HETATM   12  C   UNL     1     -12.663  10.011  71.468  1.00  0.00    -0.532 C  
HETATM   13  C   UNL     1     -13.158  11.401  71.707  1.00  0.00    -0.523 C  
ENDBRANCH   5  11
ENDBRANCH   2   3
TORSDOF 2
ENDMDL
MODEL      115
REMARK 921   NORMALIZED FREE ENERGY PREDICTED BY IDOCK:   -3.00 KCAL/MOL
REMARK 922        TOTAL FREE ENERGY PREDICTED BY IDOCK:   -3.48 KCAL/MOL
REMARK 923 INTER-LIGAND FREE ENERGY PREDICTED BY IDOCK:   -3.29 KCAL/MOL
REMARK 924 INTRA-LIGAND FREE ENERGY PREDICTED BY IDOCK:   -0.19 KCAL/MOL
REMARK 927      BINDING AFFINITY PREDICTED BY RF-SCORE:    0.00 PKD
ROOT
HETATM    1  C   UNL     1     -10.193   5.005  73.807  1.00  0.00    -0.210 C  
HETATM    2  O   UNL     1     -11.331   5.517  73.127  1.00  0.00    -0.286 OA 
ENDROOT
BRANCH   2   3
HETATM    3  C   UNL     1     -11.128   6.078  71.892  1.00  0.00    -0.277 A  
HETATM    4  C   UNL     1     -10.797   5.367  70.733  1.00  0.00    -0.190 A  
HETATM    5  C   UNL     1     -10.590   6.028  69.511  1.00  0.00    -0.363 A  
HETATM    6  H   UNL     1     -11.636   9.124  72.897  1.00  0.00     0.000 HD 
HETATM    7  C   UNL     1     -10.710   7.423  69.466  1.00  0.00    -0.233 A  
HETATM    8  C   UNL     1     -11.045   8.146  70.614  1.00  0.00    -0.264 A  
HETATM    9  O   UNL     1     -11.555   8.179  72.949  1.00  0.00    -0.386 OA 
HETATM   10  C   UNL     1     -11.247   7.472  71.816  1.00  0.00    -0.246 A  
BRANCH   5  11
HETATM   11  C   UNL     1     -10.159   5.312  68.298  1.00  0.00    -0.219 C  
HETATM   12  C   UNL     1     -10.645   5.527  67.066  1.00  0.00    -0.332 C  
HETATM   13  C   UNL     1     -10.222   4.748  65.861  1.00  0.00    -0.286 C  
ENDBRANCH   5  11
ENDBRANCH   2   3
TORSDOF 2
ENDMDL
MODEL      116
REMARK 921   NORMALIZED FREE ENERGY PREDICTED BY IDOCK:   -2.99 KCAL/MOL
REMARK 922        TOTAL FREE ENERGY PREDICTED BY IDOCK:   -3.46 KCAL/MOL
REMARK 923 INTER-LIGAND FREE ENERGY PREDICTED BY IDOCK:   -3.27 KCAL/MOL
REMARK 924 INTRA-LIGAND FREE ENERGY PREDICTED BY IDOCK:   -0.19 KCAL/MOL
REMARK 927      BINDING AFFINITY PREDICTED BY RF-SCORE:    0.00 PKD
ROOT
HETATM    1  C   UNL     1     -10.838  13.182  65.644  1.00  0.00    -0.278 C  
HETATM    2  O   UNL     1      -9.689  12.857  66.414  1.00  0.00    -0.254 OA 
ENDROOT
BRANCH   2   3
HETATM    3  C   UNL     1      -9.824  11.880  67.366  1.00  0.00    -0.183 A  
HETATM    4  C   UNL     1     -10.937  11.720  68.198  1.00  0.00    -0.275 A  
HETATM    5  C   UNL     1     -10.983  10.699  69.162  1.00  0.00    -0.296 A  
HETATM    6  H   UNL     1      -6.908  10.562  66.812  1.00  0.00     0.000 HD 
HETATM    7  C   UNL     1      -9.885   9.838  69.289  1.00  0.00    -0.208 A  
HETATM    8  C   UNL     1      -8.768   9.982  68.462  1.00  0.00    -0.123 A  
HETATM    9  O   UNL     1      -7.641  11.158  66.713  1.00  0.00    -0.134 OA 
HETATM   10  C   UNL     1      -8.743  11.001  67.512  1.00  0.00    -0.128 A  
BRANCH   5  11
HETATM   11  C   UNL     1     -12.107  10.563  70.104  1.00  0.00    -0.380 C  
HETATM   12  C   UNL     1     -12.061   9.882  71.260  1.00  0.00    -0.485 C  
HETATM   13  C   UNL     1     -13.235   9.720  72.172  1.00  0.00    -0.530 C  
ENDBRANCH   5  11
ENDBRANCH   2   3
TORSDOF 2
ENDMDL
MODEL      117
REMARK 921   NORMALIZED FREE ENERGY PREDICTED BY IDOCK:   -2.98 KCAL/MOL
REMARK 922        TOTAL FREE ENERGY PREDICTED BY IDOCK:   -3.45 KCAL/MOL
REMARK 923 INTER-LIGAND FREE ENERGY PREDICTED BY IDOCK:   -3.34 KCAL/MOL
REMARK 924 INTRA-LIGAND FREE ENERGY PREDICTED BY IDOCK:   -0.11 KCAL/MOL
REMARK 927      BINDING AFFINITY PREDICTED BY RF-SCORE:    0.00 PKD
ROOT
HETATM    1  C   UNL     1     -12.771  10.425  70.595  1.00  0.00    -0.333 C  
HETATM    2  O   UNL     1     -11.756  10.135  71.546  1.00  0.00    -0.343 OA 
ENDROOT
BRANCH   2   3
HETATM    3  C   UNL     1     -11.179   8.893  71.492  1.00  0.00    -0.326 A  
HETATM    4  C   UNL     1     -11.641   7.764  72.177  1.00  0.00    -0.367 A  
HETATM    5  C   UNL     1     -10.975   6.531  72.077  1.00  0.00    -0.283 A  
HETATM    6  H   UNL     1      -8.779   9.799  69.501  1.00  0.00     0.000 HD 
HETATM    7  C   UNL     1      -9.825   6.445  71.283  1.00  0.00    -0.200 A  
HETATM    8  C   UNL     1      -9.354   7.562  70.589  1.00  0.00    -0.163 A  
HETATM    9  O   UNL     1      -9.559   9.879  70.038  1.00  0.00    -0.234 OA 
HETATM   10  C   UNL     1     -10.029   8.776  70.700  1.00  0.00    -0.198 A  
BRANCH   5  11
HETATM   11  C   UNL     1     -11.393   5.351  72.854  1.00  0.00    -0.365 C  
HETATM   12  C   UNL     1     -10.723   4.189  72.906  1.00  0.00    -0.230 C  
HETATM   13  C   UNL     1     -11.201   2.992  73.664  1.00  0.00    -0.298 C  
ENDBRANCH   5  11
ENDBRANCH   2   3
TORSDOF 2
ENDMDL
MODEL      118
REMARK 921   NORMALIZED FREE ENERGY PREDICTED BY IDOCK:   -2.97 KCAL/MOL
REMARK 922        TOTAL FREE ENERGY PREDICTED BY IDOCK:   -3.45 KCAL/MOL
REMARK 923 INTER-LIGAND FREE ENERGY PREDICTED BY IDOCK:   -3.29 KCAL/MOL
REMARK 924 INTRA-LIGAND FREE ENERGY PREDICTED BY IDOCK:   -0.16 KCAL/MOL
REMARK 927      BINDING AFFINITY PREDICTED BY RF-SCORE:    0.00 PKD
ROOT
HETATM    1  C   UNL     1      -9.431  11.206  65.522  1.00  0.00    -0.221 C  
HETATM    2  O   UNL     1     -10.487  11.920  66.150  1.00  0.00    -0.224 OA 
ENDROOT
BRANCH   2   3
HETATM    3  C   UNL     1     -10.851  11.527  67.412  1.00  0.00    -0.246 A  
HETATM    4  C   UNL     1     -10.467  10.326  68.019  1.00  0.00    -0.234 A  
HETATM    5  C   UNL     1     -10.903   9.995  69.313  1.00  0.00    -0.261 A  
HETATM    6  H   UNL     1     -12.651  14.163  68.005  1.00  0.00     0.000 HD 
HETATM    7  C   UNL     1     -11.744  10.885  69.992  1.00  0.00    -0.427 A  
HETATM    8  C   UNL     1     -12.132  12.090  69.401  1.00  0.00    -0.261 A  
HETATM    9  O   UNL     1     -12.083  13.571  67.526  1.00  0.00    -0.357 OA 
HETATM   10  C   UNL     1     -11.688  12.400  68.117  1.00  0.00    -0.353 A  
BRANCH   5  11
HETATM   11  C   UNL     1     -10.581   8.702  69.939  1.00  0.00    -0.227 C  
HETATM   12  C   UNL     1     -10.861   7.501  69.409  1.00  0.00    -0.161 C  
HETATM   13  C   UNL     1     -10.566   6.204  70.094  1.00  0.00    -0.321 C  
ENDBRANCH   5  11
ENDBRANCH   2   3
TORSDOF 2
ENDMDL
MODEL      119
REMARK 921   NORMALIZED FREE ENERGY PREDICTED BY IDOCK:   -2.97 KCAL/MOL
REMARK 922        TOTAL FREE ENERGY PREDICTED BY IDOCK:   -3.45 KCAL/MOL
REMARK 923 INTER-LIGAND FREE ENERGY PREDICTED BY IDOCK:   -3.26 KCAL/MOL
REMARK 924 INTRA-LIGAND FREE ENERGY PREDICTED BY IDOCK:   -0.19 KCAL/MOL
REMARK 927      BINDING AFFINITY PREDICTED BY RF-SCORE:    0.00 PKD
ROOT
HETATM    1  C   UNL     1      -6.489  17.228  68.878  1.00  0.00    -0.202 C  
HETATM    2  O   UNL     1      -7.610  17.798  68.218  1.00  0.00    -0.237 OA 
ENDROOT
BRANCH   2   3
HETATM    3  C   UNL     1      -8.730  17.018  68.088  1.00  0.00    -0.233 A  
HETATM    4  C   UNL     1      -8.738  15.701  67.615  1.00  0.00    -0.182 A  
HETATM    5  C   UNL     1      -9.938  14.979  67.498  1.00  0.00    -0.226 A  
HETATM    6  H   UNL     1     -10.778  19.309  69.136  1.00  0.00     0.000 HD 
HETATM    7  C   UNL     1     -11.140  15.601  67.856  1.00  0.00    -0.324 A  
HETATM    8  C   UNL     1     -11.147  16.913  68.335  1.00  0.00    -0.216 A  
HETATM    9  O   UNL     1      -9.952  18.906  68.895  1.00  0.00    -0.400 OA 
HETATM   10  C   UNL     1      -9.947  17.612  68.444  1.00  0.00    -0.356 A  
BRANCH   5  11
HETATM   11  C   UNL     1      -9.981  13.623  66.923  1.00  0.00    -0.260 C  
HETATM   12  C   UNL     1     -10.916  12.701  67.201  1.00  0.00    -0.296 C  
HETATM   13  C   UNL     1     -10.905  11.315  66.640  1.00  0.00    -0.325 C  
ENDBRANCH   5  11
ENDBRANCH   2   3
TORSDOF 2
ENDMDL
MODEL      120
REMARK 921   NORMALIZED FREE ENERGY PREDICTED BY IDOCK:   -2.97 KCAL/MOL
REMARK 922        TOTAL FREE ENERGY PREDICTED BY IDOCK:   -3.44 KCAL/MOL
REMARK 923 INTER-LIGAND FREE ENERGY PREDICTED BY IDOCK:   -3.28 KCAL/MOL
REMARK 924 INTRA-LIGAND FREE ENERGY PREDICTED BY IDOCK:   -0.16 KCAL/MOL
REMARK 927      BINDING AFFINITY PREDICTED BY RF-SCORE:    0.00 PKD
ROOT
HETATM    1  C   UNL     1      -9.575   9.927  67.176  1.00  0.00    -0.162 C  
HETATM    2  O   UNL     1     -10.288  10.550  68.235  1.00  0.00    -0.155 OA 
ENDROOT
BRANCH   2   3
HETATM    3  C   UNL     1     -10.719   9.750  69.262  1.00  0.00    -0.224 A  
HETATM    4  C   UNL     1     -10.380   8.402  69.423  1.00  0.00    -0.217 A  
HETATM    5  C   UNL     1     -10.883   7.650  70.498  1.00  0.00    -0.249 A  
HETATM    6  H   UNL     1     -12.510  12.062  70.671  1.00  0.00     0.000 HD 
HETATM    7  C   UNL     1     -11.744   8.270  71.413  1.00  0.00    -0.327 A  
HETATM    8  C   UNL     1     -12.087   9.616  71.268  1.00  0.00    -0.457 A  
HETATM    9  O   UNL     1     -11.928  11.659  70.038  1.00  0.00    -0.317 OA 
HETATM   10  C   UNL     1     -11.578  10.344  70.195  1.00  0.00    -0.312 A  
BRANCH   5  11
HETATM   11  C   UNL     1     -10.609   6.210  70.642  1.00  0.00    -0.307 C  
HETATM   12  C   UNL     1      -9.979   5.454  69.730  1.00  0.00    -0.294 C  
HETATM   13  C   UNL     1      -9.760   3.983  69.883  1.00  0.00    -0.263 C  
ENDBRANCH   5  11
ENDBRANCH   2   3
TORSDOF 2
ENDMDL
MODEL      121
REMARK 921   NORMALIZED FREE ENERGY PREDICTED BY IDOCK:   -2.96 KCAL/MOL
REMARK 922        TOTAL FREE ENERGY PREDICTED BY IDOCK:   -3.43 KCAL/MOL
REMARK 923 INTER-LIGAND FREE ENERGY PREDICTED BY IDOCK:   -3.31 KCAL/MOL
REMARK 924 INTRA-LIGAND FREE ENERGY PREDICTED BY IDOCK:   -0.12 KCAL/MOL
REMARK 927      BINDING AFFINITY PREDICTED BY RF-SCORE:    0.00 PKD
ROOT
HETATM    1  C   UNL     1      -5.992  19.969  70.197  1.00  0.00    -0.338 C  
HETATM    2  O   UNL     1      -7.233  19.894  69.511  1.00  0.00    -0.287 OA 
ENDROOT
BRANCH   2   3
HETATM    3  C   UNL     1      -7.272  19.155  68.356  1.00  0.00    -0.295 A  
HETATM    4  C   UNL     1      -7.431  17.766  68.299  1.00  0.00    -0.247 A  
HETATM    5  C   UNL     1      -7.441  17.087  67.069  1.00  0.00    -0.227 A  
HETATM    6  H   UNL     1      -6.841  21.705  66.392  1.00  0.00     0.000 HD 
HETATM    7  C   UNL     1      -7.280  17.822  65.888  1.00  0.00    -0.260 A  
HETATM    8  C   UNL     1      -7.124  19.210  65.929  1.00  0.00    -0.301 A  
HETATM    9  O   UNL     1      -6.946  21.224  67.204  1.00  0.00    -0.491 OA 
HETATM   10  C   UNL     1      -7.118  19.865  67.159  1.00  0.00    -0.224 A  
BRANCH   5  11
HETATM   11  C   UNL     1      -7.523  15.619  66.987  1.00  0.00    -0.228 C  
HETATM   12  C   UNL     1      -8.572  14.884  67.389  1.00  0.00    -0.208 C  
HETATM   13  C   UNL     1      -8.604  13.390  67.339  1.00  0.00    -0.204 C  
ENDBRANCH   5  11
ENDBRANCH   2   3
TORSDOF 2
ENDMDL
MODEL      122
REMARK 921   NORMALIZED FREE ENERGY PREDICTED BY IDOCK:   -2.94 KCAL/MOL
REMARK 922        TOTAL FREE ENERGY PREDICTED BY IDOCK:   -3.41 KCAL/MOL
REMARK 923 INTER-LIGAND FREE ENERGY PREDICTED BY IDOCK:   -3.23 KCAL/MOL
REMARK 924 INTRA-LIGAND FREE ENERGY PREDICTED BY IDOCK:   -0.18 KCAL/MOL
REMARK 927      BINDING AFFINITY PREDICTED BY RF-SCORE:    0.00 PKD
ROOT
HETATM    1  C   UNL     1      -9.735   4.654  65.706  1.00  0.00    -0.197 C  
HETATM    2  O   UNL     1     -10.742   4.943  66.666  1.00  0.00    -0.223 OA 
ENDROOT
BRANCH   2   3
HETATM    3  C   UNL     1     -10.589   6.080  67.417  1.00  0.00    -0.283 A  
HETATM    4  C   UNL     1     -10.641   7.385  66.915  1.00  0.00    -0.375 A  
HETATM    5  C   UNL     1     -10.456   8.494  67.757  1.00  0.00    -0.287 A  
HETATM    6  H   UNL     1     -10.109   4.493  70.209  1.00  0.00     0.000 HD 
HETATM    7  C   UNL     1     -10.207   8.277  69.118  1.00  0.00    -0.223 A  
HETATM    8  C   UNL     1     -10.157   6.980  69.635  1.00  0.00    -0.194 A  
HETATM    9  O   UNL     1     -10.276   4.619  69.283  1.00  0.00    -0.161 OA 
HETATM   10  C   UNL     1     -10.344   5.894  68.783  1.00  0.00    -0.219 A  
BRANCH   5  11
HETATM   11  C   UNL     1     -10.422   9.872  67.238  1.00  0.00    -0.319 C  
HETATM   12  C   UNL     1     -11.233  10.864  67.639  1.00  0.00    -0.379 C  
HETATM   13  C   UNL     1     -11.208  12.241  67.057  1.00  0.00    -0.367 C  
ENDBRANCH   5  11
ENDBRANCH   2   3
TORSDOF 2
ENDMDL
MODEL      123
REMARK 921   NORMALIZED FREE ENERGY PREDICTED BY IDOCK:   -2.91 KCAL/MOL
REMARK 922        TOTAL FREE ENERGY PREDICTED BY IDOCK:   -3.38 KCAL/MOL
REMARK 923 INTER-LIGAND FREE ENERGY PREDICTED BY IDOCK:   -3.27 KCAL/MOL
REMARK 924 INTRA-LIGAND FREE ENERGY PREDICTED BY IDOCK:   -0.11 KCAL/MOL
REMARK 927      BINDING AFFINITY PREDICTED BY RF-SCORE:    0.00 PKD
ROOT
HETATM    1  C   UNL     1     -12.695   9.416  71.336  1.00  0.00    -0.345 C  
HETATM    2  O   UNL     1     -11.729   8.534  70.783  1.00  0.00    -0.277 OA 
ENDROOT
BRANCH   2   3
HETATM    3  C   UNL     1     -11.038   7.730  71.653  1.00  0.00    -0.237 A  
HETATM    4  C   UNL     1     -11.489   6.495  72.132  1.00  0.00    -0.332 A  
HETATM    5  C   UNL     1     -10.722   5.743  73.037  1.00  0.00    -0.290 A  
HETATM    6  H   UNL     1      -8.516   9.753  71.944  1.00  0.00     0.000 HD 
HETATM    7  C   UNL     1      -9.489   6.253  73.466  1.00  0.00    -0.149 A  
HETATM    8  C   UNL     1      -9.024   7.482  72.993  1.00  0.00    -0.207 A  
HETATM    9  O   UNL     1      -9.355   9.427  71.643  1.00  0.00    -0.262 OA 
HETATM   10  C   UNL     1      -9.800   8.212  72.095  1.00  0.00    -0.246 A  
BRANCH   5  11
HETATM   11  C   UNL     1     -11.212   4.483  73.620  1.00  0.00    -0.346 C  
HETATM   12  C   UNL     1     -10.856   3.256  73.208  1.00  0.00    -0.283 C  
HETATM   13  C   UNL     1     -11.410   1.994  73.788  1.00  0.00    -0.294 C  
ENDBRANCH   5  11
ENDBRANCH   2   3
TORSDOF 2
ENDMDL
MODEL      124
REMARK 921   NORMALIZED FREE ENERGY PREDICTED BY IDOCK:   -2.89 KCAL/MOL
REMARK 922        TOTAL FREE ENERGY PREDICTED BY IDOCK:   -3.36 KCAL/MOL
REMARK 923 INTER-LIGAND FREE ENERGY PREDICTED BY IDOCK:   -3.31 KCAL/MOL
REMARK 924 INTRA-LIGAND FREE ENERGY PREDICTED BY IDOCK:   -0.05 KCAL/MOL
REMARK 927      BINDING AFFINITY PREDICTED BY RF-SCORE:    0.00 PKD
ROOT
HETATM    1  C   UNL     1     -14.376   7.824  71.643  1.00  0.00    -0.481 C  
HETATM    2  O   UNL     1     -13.208   8.311  72.290  1.00  0.00    -0.292 OA 
ENDROOT
BRANCH   2   3
HETATM    3  C   UNL     1     -12.200   8.788  71.493  1.00  0.00    -0.327 A  
HETATM    4  C   UNL     1     -11.094   8.043  71.067  1.00  0.00    -0.275 A  
HETATM    5  C   UNL     1     -10.096   8.620  70.264  1.00  0.00    -0.206 A  
HETATM    6  H   UNL     1     -13.430  11.785  71.269  1.00  0.00     0.000 HD 
HETATM    7  C   UNL     1     -10.216   9.967  69.898  1.00  0.00    -0.298 A  
HETATM    8  C   UNL     1     -11.316  10.722  70.312  1.00  0.00    -0.374 A  
HETATM    9  O   UNL     1     -13.366  10.874  71.531  1.00  0.00    -0.328 OA 
HETATM   10  C   UNL     1     -12.295  10.131  71.107  1.00  0.00    -0.385 A  
BRANCH   5  11
HETATM   11  C   UNL     1      -8.883   7.881  69.874  1.00  0.00    -0.141 C  
HETATM   12  C   UNL     1      -8.184   8.093  68.748  1.00  0.00    -0.125 C  
HETATM   13  C   UNL     1      -6.984   7.292  68.355  1.00  0.00    -0.079 C  
ENDBRANCH   5  11
ENDBRANCH   2   3
TORSDOF 2
ENDMDL
MODEL      125
REMARK 921   NORMALIZED FREE ENERGY PREDICTED BY IDOCK:   -2.89 KCAL/MOL
REMARK 922        TOTAL FREE ENERGY PREDICTED BY IDOCK:   -3.35 KCAL/MOL
REMARK 923 INTER-LIGAND FREE ENERGY PREDICTED BY IDOCK:   -3.18 KCAL/MOL
REMARK 924 INTRA-LIGAND FREE ENERGY PREDICTED BY IDOCK:   -0.18 KCAL/MOL
REMARK 927      BINDING AFFINITY PREDICTED BY RF-SCORE:    0.00 PKD
ROOT
HETATM    1  C   UNL     1     -11.337   9.963  70.647  1.00  0.00    -0.339 C  
HETATM    2  O   UNL     1     -12.125   8.801  70.868  1.00  0.00    -0.264 OA 
ENDROOT
BRANCH   2   3
HETATM    3  C   UNL     1     -11.479   7.592  70.870  1.00  0.00    -0.282 A  
HETATM    4  C   UNL     1     -11.086   6.892  69.724  1.00  0.00    -0.316 A  
HETATM    5  C   UNL     1     -10.443   5.647  69.819  1.00  0.00    -0.377 A  
HETATM    6  H   UNL     1     -11.443   7.312  74.105  1.00  0.00     0.000 HD 
HETATM    7  C   UNL     1     -10.204   5.103  71.088  1.00  0.00    -0.291 A  
HETATM    8  C   UNL     1     -10.586   5.792  72.241  1.00  0.00    -0.264 A  
HETATM    9  O   UNL     1     -11.617   7.696  73.254  1.00  0.00    -0.212 OA 
HETATM   10  C   UNL     1     -11.222   7.026  72.125  1.00  0.00    -0.256 A  
BRANCH   5  11
HETATM   11  C   UNL     1     -10.095   4.853  68.628  1.00  0.00    -0.159 C  
HETATM   12  C   UNL     1      -9.390   3.711  68.645  1.00  0.00    -0.228 C  
HETATM   13  C   UNL     1      -9.010   2.954  67.412  1.00  0.00    -0.189 C  
ENDBRANCH   5  11
ENDBRANCH   2   3
TORSDOF 2
ENDMDL
MODEL      126
REMARK 921   NORMALIZED FREE ENERGY PREDICTED BY IDOCK:   -2.87 KCAL/MOL
REMARK 922        TOTAL FREE ENERGY PREDICTED BY IDOCK:   -3.34 KCAL/MOL
REMARK 923 INTER-LIGAND FREE ENERGY PREDICTED BY IDOCK:   -3.18 KCAL/MOL
REMARK 924 INTRA-LIGAND FREE ENERGY PREDICTED BY IDOCK:   -0.16 KCAL/MOL
REMARK 927      BINDING AFFINITY PREDICTED BY RF-SCORE:    0.00 PKD
ROOT
HETATM    1  C   UNL     1      -9.522   2.673  71.715  1.00  0.00    -0.135 C  
HETATM    2  O   UNL     1      -9.316   4.032  72.076  1.00  0.00    -0.119 OA 
ENDROOT
BRANCH   2   3
HETATM    3  C   UNL     1     -10.159   4.965  71.530  1.00  0.00    -0.197 A  
HETATM    4  C   UNL     1     -10.078   5.449  70.220  1.00  0.00    -0.318 A  
HETATM    5  C   UNL     1     -10.976   6.421  69.748  1.00  0.00    -0.417 A  
HETATM    6  H   UNL     1     -11.911   5.358  74.236  1.00  0.00     0.000 HD 
HETATM    7  C   UNL     1     -11.960   6.912  70.616  1.00  0.00    -0.400 A  
HETATM    8  C   UNL     1     -12.056   6.435  71.926  1.00  0.00    -0.362 A  
HETATM    9  O   UNL     1     -11.235   5.014  73.664  1.00  0.00    -0.315 OA 
HETATM   10  C   UNL     1     -11.156   5.470  72.374  1.00  0.00    -0.256 A  
BRANCH   5  11
HETATM   11  C   UNL     1     -10.859   7.006  68.402  1.00  0.00    -0.191 C  
HETATM   12  C   UNL     1      -9.705   7.366  67.819  1.00  0.00    -0.171 C  
HETATM   13  C   UNL     1      -9.623   8.005  66.469  1.00  0.00    -0.295 C  
ENDBRANCH   5  11
ENDBRANCH   2   3
TORSDOF 2
ENDMDL
MODEL      127
REMARK 921   NORMALIZED FREE ENERGY PREDICTED BY IDOCK:   -2.87 KCAL/MOL
REMARK 922        TOTAL FREE ENERGY PREDICTED BY IDOCK:   -3.33 KCAL/MOL
REMARK 923 INTER-LIGAND FREE ENERGY PREDICTED BY IDOCK:   -3.17 KCAL/MOL
REMARK 924 INTRA-LIGAND FREE ENERGY PREDICTED BY IDOCK:   -0.17 KCAL/MOL
REMARK 927      BINDING AFFINITY PREDICTED BY RF-SCORE:    0.00 PKD
ROOT
HETATM    1  C   UNL     1     -10.647  11.497  63.318  1.00  0.00    -0.338 C  
HETATM    2  O   UNL     1     -10.322  11.902  64.641  1.00  0.00    -0.260 OA 
ENDROOT
BRANCH   2   3
HETATM    3  C   UNL     1     -10.417  10.958  65.631  1.00  0.00    -0.208 A  
HETATM    4  C   UNL     1      -9.895   9.662  65.554  1.00  0.00    -0.352 A  
HETATM    5  C   UNL     1     -10.054   8.751  66.612  1.00  0.00    -0.358 A  
HETATM    6  H   UNL     1     -12.108  12.855  67.651  1.00  0.00     0.000 HD 
HETATM    7  C   UNL     1     -10.756   9.157  67.754  1.00  0.00    -0.243 A  
HETATM    8  C   UNL     1     -11.279  10.449  67.847  1.00  0.00    -0.332 A  
HETATM    9  O   UNL     1     -11.638  12.599  66.866  1.00  0.00    -0.332 OA 
HETATM   10  C   UNL     1     -11.110  11.337  66.787  1.00  0.00    -0.250 A  
BRANCH   5  11
HETATM   11  C   UNL     1      -9.588   7.357  66.520  1.00  0.00    -0.228 C  
HETATM   12  C   UNL     1      -8.605   6.928  65.714  1.00  0.00    -0.139 C  
HETATM   13  C   UNL     1      -8.188   5.495  65.608  1.00  0.00    -0.127 C  
ENDBRANCH   5  11
ENDBRANCH   2   3
TORSDOF 2
ENDMDL
MODEL      128
REMARK 921   NORMALIZED FREE ENERGY PREDICTED BY IDOCK:   -2.86 KCAL/MOL
REMARK 922        TOTAL FREE ENERGY PREDICTED BY IDOCK:   -3.32 KCAL/MOL
REMARK 923 INTER-LIGAND FREE ENERGY PREDICTED BY IDOCK:   -3.12 KCAL/MOL
REMARK 924 INTRA-LIGAND FREE ENERGY PREDICTED BY IDOCK:   -0.19 KCAL/MOL
REMARK 927      BINDING AFFINITY PREDICTED BY RF-SCORE:    0.00 PKD
ROOT
HETATM    1  C   UNL     1      -7.415   3.001  69.193  1.00  0.00    -0.048 C  
HETATM    2  O   UNL     1      -8.790   2.902  68.851  1.00  0.00    -0.080 OA 
ENDROOT
BRANCH   2   3
HETATM    3  C   UNL     1      -9.522   4.061  68.836  1.00  0.00    -0.167 A  
HETATM    4  C   UNL     1      -9.926   4.768  69.975  1.00  0.00    -0.314 A  
HETATM    5  C   UNL     1     -10.691   5.941  69.867  1.00  0.00    -0.406 A  
HETATM    6  H   UNL     1      -9.774   4.179  65.601  1.00  0.00     0.000 HD 
HETATM    7  C   UNL     1     -11.056   6.397  68.594  1.00  0.00    -0.393 A  
HETATM    8  C   UNL     1     -10.656   5.705  67.448  1.00  0.00    -0.312 A  
HETATM    9  O   UNL     1      -9.520   3.852  66.456  1.00  0.00    -0.175 OA 
HETATM   10  C   UNL     1      -9.897   4.544  67.576  1.00  0.00    -0.140 A  
BRANCH   5  11
HETATM   11  C   UNL     1     -11.199   6.655  71.051  1.00  0.00    -0.349 C  
HETATM   12  C   UNL     1     -11.896   7.801  71.017  1.00  0.00    -0.290 C  
HETATM   13  C   UNL     1     -12.355   8.528  72.240  1.00  0.00    -0.450 C  
ENDBRANCH   5  11
ENDBRANCH   2   3
TORSDOF 2
ENDMDL
MODEL      129
REMARK 921   NORMALIZED FREE ENERGY PREDICTED BY IDOCK:   -2.86 KCAL/MOL
REMARK 922        TOTAL FREE ENERGY PREDICTED BY IDOCK:   -3.32 KCAL/MOL
REMARK 923 INTER-LIGAND FREE ENERGY PREDICTED BY IDOCK:   -3.18 KCAL/MOL
REMARK 924 INTRA-LIGAND FREE ENERGY PREDICTED BY IDOCK:   -0.14 KCAL/MOL
REMARK 927      BINDING AFFINITY PREDICTED BY RF-SCORE:    0.00 PKD
ROOT
HETATM    1  C   UNL     1      -7.356   9.100  70.102  1.00  0.00    -0.077 C  
HETATM    2  O   UNL     1      -8.604   8.567  69.681  1.00  0.00    -0.127 OA 
ENDROOT
BRANCH   2   3
HETATM    3  C   UNL     1      -9.565   8.377  70.641  1.00  0.00    -0.171 A  
HETATM    4  C   UNL     1      -9.650   7.259  71.478  1.00  0.00    -0.164 A  
HETATM    5  C   UNL     1     -10.682   7.138  72.424  1.00  0.00    -0.273 A  
HETATM    6  H   UNL     1     -11.124  11.155  70.014  1.00  0.00     0.000 HD 
HETATM    7  C   UNL     1     -11.639   8.156  72.516  1.00  0.00    -0.468 A  
HETATM    8  C   UNL     1     -11.564   9.281  71.691  1.00  0.00    -0.463 A  
HETATM    9  O   UNL     1     -10.467  10.474  69.934  1.00  0.00    -0.241 OA 
HETATM   10  C   UNL     1     -10.533   9.382  70.759  1.00  0.00    -0.304 A  
BRANCH   5  11
HETATM   11  C   UNL     1     -10.841   5.934  73.257  1.00  0.00    -0.291 C  
HETATM   12  C   UNL     1     -10.780   4.673  72.803  1.00  0.00    -0.273 C  
HETATM   13  C   UNL     1     -10.996   3.471  73.667  1.00  0.00    -0.329 C  
ENDBRANCH   5  11
ENDBRANCH   2   3
TORSDOF 2
ENDMDL
MODEL      130
REMARK 921   NORMALIZED FREE ENERGY PREDICTED BY IDOCK:   -2.85 KCAL/MOL
REMARK 922        TOTAL FREE ENERGY PREDICTED BY IDOCK:   -3.31 KCAL/MOL
REMARK 923 INTER-LIGAND FREE ENERGY PREDICTED BY IDOCK:   -3.15 KCAL/MOL
REMARK 924 INTRA-LIGAND FREE ENERGY PREDICTED BY IDOCK:   -0.16 KCAL/MOL
REMARK 927      BINDING AFFINITY PREDICTED BY RF-SCORE:    0.00 PKD
ROOT
HETATM    1  C   UNL     1      -9.217   8.875  67.153  1.00  0.00    -0.139 C  
HETATM    2  O   UNL     1      -9.592   9.065  68.510  1.00  0.00    -0.149 OA 
ENDROOT
BRANCH   2   3
HETATM    3  C   UNL     1     -10.249  10.226  68.826  1.00  0.00    -0.192 A  
HETATM    4  C   UNL     1     -10.033  11.463  68.208  1.00  0.00    -0.203 A  
HETATM    5  C   UNL     1     -10.741  12.608  68.609  1.00  0.00    -0.269 A  
HETATM    6  H   UNL     1     -12.032   8.890  71.187  1.00  0.00     0.000 HD 
HETATM    7  C   UNL     1     -11.670  12.499  69.651  1.00  0.00    -0.372 A  
HETATM    8  C   UNL     1     -11.900  11.270  70.275  1.00  0.00    -0.446 A  
HETATM    9  O   UNL     1     -11.396   8.943  70.485  1.00  0.00    -0.260 OA 
HETATM   10  C   UNL     1     -11.188  10.146  69.862  1.00  0.00    -0.287 A  
BRANCH   5  11
HETATM   11  C   UNL     1     -10.471  13.936  68.031  1.00  0.00    -0.243 C  
HETATM   12  C   UNL     1      -9.693  14.165  66.962  1.00  0.00    -0.258 C  
HETATM   13  C   UNL     1      -9.398  15.531  66.430  1.00  0.00    -0.330 C  
ENDBRANCH   5  11
ENDBRANCH   2   3
TORSDOF 2
ENDMDL
MODEL      131
REMARK 921   NORMALIZED FREE ENERGY PREDICTED BY IDOCK:   -2.78 KCAL/MOL
REMARK 922        TOTAL FREE ENERGY PREDICTED BY IDOCK:   -3.23 KCAL/MOL
REMARK 923 INTER-LIGAND FREE ENERGY PREDICTED BY IDOCK:   -3.04 KCAL/MOL
REMARK 924 INTRA-LIGAND FREE ENERGY PREDICTED BY IDOCK:   -0.19 KCAL/MOL
REMARK 927      BINDING AFFINITY PREDICTED BY RF-SCORE:    0.00 PKD
ROOT
HETATM    1  C   UNL     1     -13.635   8.757  71.939  1.00  0.00    -0.424 C  
HETATM    2  O   UNL     1     -12.491   8.497  72.740  1.00  0.00    -0.320 OA 
ENDROOT
BRANCH   2   3
HETATM    3  C   UNL     1     -11.289   8.355  72.096  1.00  0.00    -0.366 A  
HETATM    4  C   UNL     1     -10.697   9.328  71.282  1.00  0.00    -0.422 A  
HETATM    5  C   UNL     1      -9.468   9.090  70.644  1.00  0.00    -0.286 A  
HETATM    6  H   UNL     1     -10.769   5.332  73.159  1.00  0.00     0.000 HD 
HETATM    7  C   UNL     1      -8.839   7.852  70.827  1.00  0.00    -0.139 A  
HETATM    8  C   UNL     1      -9.416   6.873  71.640  1.00  0.00    -0.157 A  
HETATM    9  O   UNL     1     -11.213   6.163  73.046  1.00  0.00    -0.242 OA 
HETATM   10  C   UNL     1     -10.635   7.128  72.264  1.00  0.00    -0.215 A  
BRANCH   5  11
HETATM   11  C   UNL     1      -8.867  10.064  69.718  1.00  0.00    -0.205 C  
HETATM   12  C   UNL     1      -7.554  10.327  69.626  1.00  0.00    -0.167 C  
HETATM   13  C   UNL     1      -6.978  11.359  68.709  1.00  0.00    -0.097 C  
ENDBRANCH   5  11
ENDBRANCH   2   3
TORSDOF 2
ENDMDL
MODEL      132
REMARK 921   NORMALIZED FREE ENERGY PREDICTED BY IDOCK:   -2.77 KCAL/MOL
REMARK 922        TOTAL FREE ENERGY PREDICTED BY IDOCK:   -3.23 KCAL/MOL
REMARK 923 INTER-LIGAND FREE ENERGY PREDICTED BY IDOCK:   -3.06 KCAL/MOL
REMARK 924 INTRA-LIGAND FREE ENERGY PREDICTED BY IDOCK:   -0.17 KCAL/MOL
REMARK 927      BINDING AFFINITY PREDICTED BY RF-SCORE:    0.00 PKD
ROOT
HETATM    1  C   UNL     1      -7.767  10.185  69.637  1.00  0.00    -0.163 C  
HETATM    2  O   UNL     1      -8.965  10.195  68.873  1.00  0.00    -0.137 OA 
ENDROOT
BRANCH   2   3
HETATM    3  C   UNL     1      -9.643   9.009  68.749  1.00  0.00    -0.152 A  
HETATM    4  C   UNL     1     -10.124   8.245  69.818  1.00  0.00    -0.197 A  
HETATM    5  C   UNL     1     -10.794   7.030  69.598  1.00  0.00    -0.275 A  
HETATM    6  H   UNL     1      -9.489   8.952  65.506  1.00  0.00     0.000 HD 
HETATM    7  C   UNL     1     -10.970   6.583  68.283  1.00  0.00    -0.362 A  
HETATM    8  C   UNL     1     -10.499   7.336  67.205  1.00  0.00    -0.394 A  
HETATM    9  O   UNL     1      -9.357   9.271  66.390  1.00  0.00    -0.164 OA 
HETATM   10  C   UNL     1      -9.837   8.539  67.444  1.00  0.00    -0.187 A  
BRANCH   5  11
HETATM   11  C   UNL     1     -11.235   6.169  70.708  1.00  0.00    -0.373 C  
HETATM   12  C   UNL     1     -10.592   6.035  71.878  1.00  0.00    -0.272 C  
HETATM   13  C   UNL     1     -11.039   5.112  72.967  1.00  0.00    -0.379 C  
ENDBRANCH   5  11
ENDBRANCH   2   3
TORSDOF 2
ENDMDL
MODEL      133
REMARK 921   NORMALIZED FREE ENERGY PREDICTED BY IDOCK:   -2.77 KCAL/MOL
REMARK 922        TOTAL FREE ENERGY PREDICTED BY IDOCK:   -3.22 KCAL/MOL
REMARK 923 INTER-LIGAND FREE ENERGY PREDICTED BY IDOCK:   -3.02 KCAL/MOL
REMARK 924 INTRA-LIGAND FREE ENERGY PREDICTED BY IDOCK:   -0.20 KCAL/MOL
REMARK 927      BINDING AFFINITY PREDICTED BY RF-SCORE:    0.00 PKD
ROOT
HETATM    1  C   UNL     1      -9.639  10.054  69.666  1.00  0.00    -0.226 C  
HETATM    2  O   UNL     1     -10.822   9.295  69.463  1.00  0.00    -0.232 OA 
ENDROOT
BRANCH   2   3
HETATM    3  C   UNL     1     -10.995   8.176  70.237  1.00  0.00    -0.240 A  
HETATM    4  C   UNL     1     -10.192   7.031  70.180  1.00  0.00    -0.206 A  
HETATM    5  C   UNL     1     -10.453   5.921  71.001  1.00  0.00    -0.296 A  
HETATM    6  H   UNL     1     -13.607   9.324  71.787  1.00  0.00     0.000 HD 
HETATM    7  C   UNL     1     -11.543   5.970  71.880  1.00  0.00    -0.312 A  
HETATM    8  C   UNL     1     -12.350   7.108  71.951  1.00  0.00    -0.352 A  
HETATM    9  O   UNL     1     -12.875   9.309  71.182  1.00  0.00    -0.299 OA 
HETATM   10  C   UNL     1     -12.074   8.199  71.129  1.00  0.00    -0.260 A  
BRANCH   5  11
HETATM   11  C   UNL     1      -9.675   4.674  70.900  1.00  0.00    -0.262 C  
HETATM   12  C   UNL     1      -9.988   3.522  71.513  1.00  0.00    -0.172 C  
HETATM   13  C   UNL     1      -9.150   2.287  71.431  1.00  0.00    -0.161 C  
ENDBRANCH   5  11
ENDBRANCH   2   3
TORSDOF 2
ENDMDL
MODEL      134
REMARK 921   NORMALIZED FREE ENERGY PREDICTED BY IDOCK:   -2.77 KCAL/MOL
REMARK 922        TOTAL FREE ENERGY PREDICTED BY IDOCK:   -3.22 KCAL/MOL
REMARK 923 INTER-LIGAND FREE ENERGY PREDICTED BY IDOCK:   -3.70 KCAL/MOL
REMARK 924 INTRA-LIGAND FREE ENERGY PREDICTED BY IDOCK:    0.48 KCAL/MOL
REMARK 927      BINDING AFFINITY PREDICTED BY RF-SCORE:    0.00 PKD
ROOT
HETATM    1  C   UNL     1     -10.501  15.185  64.970  1.00  0.00    -0.389 C  
HETATM    2  O   UNL     1     -10.648  13.828  64.576  1.00  0.00    -0.423 OA 
ENDROOT
BRANCH   2   3
HETATM    3  C   UNL     1     -10.714  12.886  65.571  1.00  0.00    -0.279 A  
HETATM    4  C   UNL     1      -9.869  11.776  65.681  1.00  0.00    -0.265 A  
HETATM    5  C   UNL     1     -10.020  10.850  66.727  1.00  0.00    -0.245 A  
HETATM    6  H   UNL     1     -13.253  14.253  67.065  1.00  0.00     0.000 HD 
HETATM    7  C   UNL     1     -11.043  11.047  67.663  1.00  0.00    -0.363 A  
HETATM    8  C   UNL     1     -11.892  12.153  67.569  1.00  0.00    -0.307 A  
HETATM    9  O   UNL     1     -12.567  14.136  66.418  1.00  0.00    -0.427 OA 
HETATM   10  C   UNL     1     -11.725  13.060  66.525  1.00  0.00    -0.382 A  
BRANCH   5  11
HETATM   11  C   UNL     1      -9.199   9.631  66.816  1.00  0.00    -0.181 C  
HETATM   12  C   UNL     1      -9.603   8.404  66.452  1.00  0.00    -0.307 C  
HETATM   13  C   UNL     1      -8.762   7.177  66.602  1.00  0.00    -0.131 C  
ENDBRANCH   5  11
ENDBRANCH   2   3
TORSDOF 2
ENDMDL
MODEL      135
REMARK 921   NORMALIZED FREE ENERGY PREDICTED BY IDOCK:   -2.76 KCAL/MOL
REMARK 922        TOTAL FREE ENERGY PREDICTED BY IDOCK:   -3.21 KCAL/MOL
REMARK 923 INTER-LIGAND FREE ENERGY PREDICTED BY IDOCK:   -3.08 KCAL/MOL
REMARK 924 INTRA-LIGAND FREE ENERGY PREDICTED BY IDOCK:   -0.13 KCAL/MOL
REMARK 927      BINDING AFFINITY PREDICTED BY RF-SCORE:    0.00 PKD
ROOT
HETATM    1  C   UNL     1     -11.217   8.633  70.610  1.00  0.00    -0.252 C  
HETATM    2  O   UNL     1     -10.784   8.283  69.303  1.00  0.00    -0.211 OA 
ENDROOT
BRANCH   2   3
HETATM    3  C   UNL     1     -10.175   9.259  68.558  1.00  0.00    -0.201 A  
HETATM    4  C   UNL     1     -10.847  10.231  67.808  1.00  0.00    -0.346 A  
HETATM    5  C   UNL     1     -10.140  11.186  67.057  1.00  0.00    -0.235 A  
HETATM    6  H   UNL     1      -7.157   8.286  69.256  1.00  0.00     0.000 HD 
HETATM    7  C   UNL     1      -8.740  11.148  67.060  1.00  0.00    -0.148 A  
HETATM    8  C   UNL     1      -8.055  10.187  67.808  1.00  0.00    -0.109 A  
HETATM    9  O   UNL     1      -8.107   8.292  69.264  1.00  0.00    -0.112 OA 
HETATM   10  C   UNL     1      -8.774   9.249  68.546  1.00  0.00    -0.128 A  
BRANCH   5  11
HETATM   11  C   UNL     1     -10.824  12.164  66.194  1.00  0.00    -0.317 C  
HETATM   12  C   UNL     1     -11.883  12.903  66.561  1.00  0.00    -0.473 C  
HETATM   13  C   UNL     1     -12.587  13.853  65.645  1.00  0.00    -0.553 C  
ENDBRANCH   5  11
ENDBRANCH   2   3
TORSDOF 2
ENDMDL
MODEL      136
REMARK 921   NORMALIZED FREE ENERGY PREDICTED BY IDOCK:   -2.76 KCAL/MOL
REMARK 922        TOTAL FREE ENERGY PREDICTED BY IDOCK:   -3.21 KCAL/MOL
REMARK 923 INTER-LIGAND FREE ENERGY PREDICTED BY IDOCK:   -3.04 KCAL/MOL
REMARK 924 INTRA-LIGAND FREE ENERGY PREDICTED BY IDOCK:   -0.16 KCAL/MOL
REMARK 927      BINDING AFFINITY PREDICTED BY RF-SCORE:    0.00 PKD
ROOT
HETATM    1  C   UNL     1     -11.125  15.303  66.293  1.00  0.00    -0.273 C  
HETATM    2  O   UNL     1      -9.855  14.974  65.748  1.00  0.00    -0.314 OA 
ENDROOT
BRANCH   2   3
HETATM    3  C   UNL     1      -8.751  15.524  66.345  1.00  0.00    -0.298 A  
HETATM    4  C   UNL     1      -8.350  16.858  66.214  1.00  0.00    -0.331 A  
HETATM    5  C   UNL     1      -7.190  17.334  66.849  1.00  0.00    -0.235 A  
HETATM    6  H   UNL     1      -7.815  12.762  67.773  1.00  0.00     0.000 HD 
HETATM    7  C   UNL     1      -6.427  16.445  67.617  1.00  0.00    -0.175 A  
HETATM    8  C   UNL     1      -6.817  15.112  67.761  1.00  0.00    -0.190 A  
HETATM    9  O   UNL     1      -8.345  13.348  67.246  1.00  0.00    -0.182 OA 
HETATM   10  C   UNL     1      -7.970  14.660  67.123  1.00  0.00    -0.154 A  
BRANCH   5  11
HETATM   11  C   UNL     1      -6.703  18.710  66.659  1.00  0.00    -0.218 C  
HETATM   12  C   UNL     1      -7.021  19.753  67.442  1.00  0.00    -0.251 C  
HETATM   13  C   UNL     1      -6.549  21.150  67.192  1.00  0.00    -0.424 C  
ENDBRANCH   5  11
ENDBRANCH   2   3
TORSDOF 2
ENDMDL
MODEL      137
REMARK 921   NORMALIZED FREE ENERGY PREDICTED BY IDOCK:   -2.76 KCAL/MOL
REMARK 922        TOTAL FREE ENERGY PREDICTED BY IDOCK:   -3.21 KCAL/MOL
REMARK 923 INTER-LIGAND FREE ENERGY PREDICTED BY IDOCK:   -3.02 KCAL/MOL
REMARK 924 INTRA-LIGAND FREE ENERGY PREDICTED BY IDOCK:   -0.19 KCAL/MOL
REMARK 927      BINDING AFFINITY PREDICTED BY RF-SCORE:    0.00 PKD
ROOT
HETATM    1  C   UNL     1      -6.888   7.934  73.573  1.00  0.00    -0.099 C  
HETATM    2  O   UNL     1      -6.899   8.530  72.284  1.00  0.00    -0.093 OA 
ENDROOT
BRANCH   2   3
HETATM    3  C   UNL     1      -8.121   8.775  71.712  1.00  0.00    -0.065 A  
HETATM    4  C   UNL     1      -9.354   8.447  72.286  1.00  0.00    -0.356 A  
HETATM    5  C   UNL     1     -10.560   8.719  71.619  1.00  0.00    -0.401 A  
HETATM    6  H   UNL     1      -6.893  10.104  69.015  1.00  0.00     0.000 HD 
HETATM    7  C   UNL     1     -10.514   9.322  70.355  1.00  0.00    -0.296 A  
HETATM    8  C   UNL     1      -9.291   9.659  69.771  1.00  0.00    -0.238 A  
HETATM    9  O   UNL     1      -6.903   9.693  69.871  1.00  0.00    -0.056 OA 
HETATM   10  C   UNL     1      -8.106   9.381  70.449  1.00  0.00    -0.175 A  
BRANCH   5  11
HETATM   11  C   UNL     1     -11.865   8.308  72.164  1.00  0.00    -0.431 C  
HETATM   12  C   UNL     1     -13.055   8.627  71.632  1.00  0.00    -0.381 C  
HETATM   13  C   UNL     1     -14.365   8.236  72.238  1.00  0.00    -0.432 C  
ENDBRANCH   5  11
ENDBRANCH   2   3
TORSDOF 2
ENDMDL
MODEL      138
REMARK 921   NORMALIZED FREE ENERGY PREDICTED BY IDOCK:   -2.74 KCAL/MOL
REMARK 922        TOTAL FREE ENERGY PREDICTED BY IDOCK:   -3.19 KCAL/MOL
REMARK 923 INTER-LIGAND FREE ENERGY PREDICTED BY IDOCK:   -2.99 KCAL/MOL
REMARK 924 INTRA-LIGAND FREE ENERGY PREDICTED BY IDOCK:   -0.20 KCAL/MOL
REMARK 927      BINDING AFFINITY PREDICTED BY RF-SCORE:    0.00 PKD
ROOT
HETATM    1  C   UNL     1      -9.335   4.705  66.571  1.00  0.00    -0.149 C  
HETATM    2  O   UNL     1     -10.407   5.579  66.895  1.00  0.00    -0.209 OA 
ENDROOT
BRANCH   2   3
HETATM    3  C   UNL     1     -10.440   6.094  68.165  1.00  0.00    -0.230 A  
HETATM    4  C   UNL     1     -10.355   5.337  69.339  1.00  0.00    -0.313 A  
HETATM    5  C   UNL     1     -10.415   5.948  70.603  1.00  0.00    -0.316 A  
HETATM    6  H   UNL     1     -10.796   9.173  67.198  1.00  0.00     0.000 HD 
HETATM    7  C   UNL     1     -10.572   7.338  70.676  1.00  0.00    -0.240 A  
HETATM    8  C   UNL     1     -10.655   8.107  69.513  1.00  0.00    -0.215 A  
HETATM    9  O   UNL     1     -10.693   8.232  67.126  1.00  0.00    -0.302 OA 
HETATM   10  C   UNL     1     -10.592   7.483  68.269  1.00  0.00    -0.136 A  
BRANCH   5  11
HETATM   11  C   UNL     1     -10.411   5.165  71.850  1.00  0.00    -0.272 C  
HETATM   12  C   UNL     1     -10.708   5.654  73.064  1.00  0.00    -0.290 C  
HETATM   13  C   UNL     1     -10.646   4.845  74.320  1.00  0.00    -0.321 C  
ENDBRANCH   5  11
ENDBRANCH   2   3
TORSDOF 2
ENDMDL
MODEL      139
REMARK 921   NORMALIZED FREE ENERGY PREDICTED BY IDOCK:   -2.74 KCAL/MOL
REMARK 922        TOTAL FREE ENERGY PREDICTED BY IDOCK:   -3.19 KCAL/MOL
REMARK 923 INTER-LIGAND FREE ENERGY PREDICTED BY IDOCK:   -3.01 KCAL/MOL
REMARK 924 INTRA-LIGAND FREE ENERGY PREDICTED BY IDOCK:   -0.17 KCAL/MOL
REMARK 927      BINDING AFFINITY PREDICTED BY RF-SCORE:    0.00 PKD
ROOT
HETATM    1  C   UNL     1      -9.829   4.851  71.423  1.00  0.00    -0.186 C  
HETATM    2  O   UNL     1      -9.206   6.117  71.585  1.00  0.00    -0.146 OA 
ENDROOT
BRANCH   2   3
HETATM    3  C   UNL     1      -9.854   7.209  71.068  1.00  0.00    -0.180 A  
HETATM    4  C   UNL     1      -9.988   7.490  69.704  1.00  0.00    -0.184 A  
HETATM    5  C   UNL     1     -10.655   8.645  69.262  1.00  0.00    -0.204 A  
HETATM    6  H   UNL     1     -10.624   8.459  73.964  1.00  0.00     0.000 HD 
HETATM    7  C   UNL     1     -11.182   9.528  70.214  1.00  0.00    -0.307 A  
HETATM    8  C   UNL     1     -11.060   9.259  71.579  1.00  0.00    -0.443 A  
HETATM    9  O   UNL     1     -10.257   7.850  73.335  1.00  0.00    -0.321 OA 
HETATM   10  C   UNL     1     -10.396   8.107  71.996  1.00  0.00    -0.254 A  
BRANCH   5  11
HETATM   11  C   UNL     1     -10.736   9.005  67.836  1.00  0.00    -0.200 C  
HETATM   12  C   UNL     1      -9.743   9.564  67.128  1.00  0.00    -0.221 C  
HETATM   13  C   UNL     1      -9.873   9.964  65.693  1.00  0.00    -0.368 C  
ENDBRANCH   5  11
ENDBRANCH   2   3
TORSDOF 2
ENDMDL
MODEL      140
REMARK 921   NORMALIZED FREE ENERGY PREDICTED BY IDOCK:   -2.73 KCAL/MOL
REMARK 922        TOTAL FREE ENERGY PREDICTED BY IDOCK:   -3.18 KCAL/MOL
REMARK 923 INTER-LIGAND FREE ENERGY PREDICTED BY IDOCK:   -3.00 KCAL/MOL
REMARK 924 INTRA-LIGAND FREE ENERGY PREDICTED BY IDOCK:   -0.18 KCAL/MOL
REMARK 927      BINDING AFFINITY PREDICTED BY RF-SCORE:    0.00 PKD
ROOT
HETATM    1  C   UNL     1     -11.122   2.368  73.548  1.00  0.00    -0.210 C  
HETATM    2  O   UNL     1     -10.674   3.431  74.377  1.00  0.00    -0.194 OA 
ENDROOT
BRANCH   2   3
HETATM    3  C   UNL     1     -10.428   4.639  73.777  1.00  0.00    -0.238 A  
HETATM    4  C   UNL     1     -11.397   5.442  73.166  1.00  0.00    -0.325 A  
HETATM    5  C   UNL     1     -11.051   6.660  72.558  1.00  0.00    -0.296 A  
HETATM    6  H   UNL     1      -7.232   4.575  74.349  1.00  0.00     0.000 HD 
HETATM    7  C   UNL     1      -9.710   7.063  72.563  1.00  0.00    -0.170 A  
HETATM    8  C   UNL     1      -8.732   6.274  73.173  1.00  0.00    -0.123 A  
HETATM    9  O   UNL     1      -8.136   4.283  74.354  1.00  0.00    -0.090 OA 
HETATM   10  C   UNL     1      -9.095   5.069  73.771  1.00  0.00    -0.116 A  
BRANCH   5  11
HETATM   11  C   UNL     1     -12.038   7.481  71.835  1.00  0.00    -0.338 C  
HETATM   12  C   UNL     1     -12.420   8.717  72.196  1.00  0.00    -0.453 C  
HETATM   13  C   UNL     1     -13.462   9.506  71.469  1.00  0.00    -0.444 C  
ENDBRANCH   5  11
ENDBRANCH   2   3
TORSDOF 2
ENDMDL
MODEL      141
REMARK 921   NORMALIZED FREE ENERGY PREDICTED BY IDOCK:   -2.72 KCAL/MOL
REMARK 922        TOTAL FREE ENERGY PREDICTED BY IDOCK:   -3.17 KCAL/MOL
REMARK 923 INTER-LIGAND FREE ENERGY PREDICTED BY IDOCK:   -2.98 KCAL/MOL
REMARK 924 INTRA-LIGAND FREE ENERGY PREDICTED BY IDOCK:   -0.18 KCAL/MOL
REMARK 927      BINDING AFFINITY PREDICTED BY RF-SCORE:    0.00 PKD
ROOT
HETATM    1  C   UNL     1      -7.575   9.007  71.015  1.00  0.00    -0.115 C  
HETATM    2  O   UNL     1      -8.421   8.161  71.780  1.00  0.00    -0.120 OA 
ENDROOT
BRANCH   2   3
HETATM    3  C   UNL     1      -9.384   7.455  71.106  1.00  0.00    -0.155 A  
HETATM    4  C   UNL     1      -9.147   6.637  69.996  1.00  0.00    -0.151 A  
HETATM    5  C   UNL     1     -10.198   5.962  69.354  1.00  0.00    -0.284 A  
HETATM    6  H   UNL     1     -11.834   8.501  72.962  1.00  0.00     0.000 HD 
HETATM    7  C   UNL     1     -11.503   6.125  69.837  1.00  0.00    -0.371 A  
HETATM    8  C   UNL     1     -11.754   6.935  70.947  1.00  0.00    -0.408 A  
HETATM    9  O   UNL     1     -10.943   8.406  72.647  1.00  0.00    -0.353 OA 
HETATM   10  C   UNL     1     -10.698   7.595  71.570  1.00  0.00    -0.221 A  
BRANCH   5  11
HETATM   11  C   UNL     1      -9.986   5.164  68.134  1.00  0.00    -0.203 C  
HETATM   12  C   UNL     1     -10.444   5.487  66.915  1.00  0.00    -0.348 C  
HETATM   13  C   UNL     1     -10.254   4.630  65.705  1.00  0.00    -0.255 C  
ENDBRANCH   5  11
ENDBRANCH   2   3
TORSDOF 2
ENDMDL
MODEL      142
REMARK 921   NORMALIZED FREE ENERGY PREDICTED BY IDOCK:   -2.70 KCAL/MOL
REMARK 922        TOTAL FREE ENERGY PREDICTED BY IDOCK:   -3.14 KCAL/MOL
REMARK 923 INTER-LIGAND FREE ENERGY PREDICTED BY IDOCK:   -3.00 KCAL/MOL
REMARK 924 INTRA-LIGAND FREE ENERGY PREDICTED BY IDOCK:   -0.14 KCAL/MOL
REMARK 927      BINDING AFFINITY PREDICTED BY RF-SCORE:    0.00 PKD
ROOT
HETATM    1  C   UNL     1     -13.486  10.075  71.638  1.00  0.00    -0.309 C  
HETATM    2  O   UNL     1     -12.879   9.171  72.550  1.00  0.00    -0.388 OA 
ENDROOT
BRANCH   2   3
HETATM    3  C   UNL     1     -11.876   8.369  72.069  1.00  0.00    -0.353 A  
HETATM    4  C   UNL     1     -10.534   8.749  71.949  1.00  0.00    -0.423 A  
HETATM    5  C   UNL     1      -9.574   7.866  71.428  1.00  0.00    -0.187 A  
HETATM    6  H   UNL     1     -13.819   5.837  71.473  1.00  0.00     0.000 HD 
HETATM    7  C   UNL     1      -9.979   6.590  71.017  1.00  0.00    -0.203 A  
HETATM    8  C   UNL     1     -11.314   6.195  71.135  1.00  0.00    -0.340 A  
HETATM    9  O   UNL     1     -13.565   6.708  71.754  1.00  0.00    -0.198 OA 
HETATM   10  C   UNL     1     -12.251   7.085  71.655  1.00  0.00    -0.357 A  
BRANCH   5  11
HETATM   11  C   UNL     1      -8.174   8.271  71.214  1.00  0.00    -0.147 C  
HETATM   12  C   UNL     1      -7.462   8.017  70.105  1.00  0.00    -0.073 C  
HETATM   13  C   UNL     1      -6.026   8.398  69.938  1.00  0.00    -0.025 C  
ENDBRANCH   5  11
ENDBRANCH   2   3
TORSDOF 2
ENDMDL
MODEL      143
REMARK 921   NORMALIZED FREE ENERGY PREDICTED BY IDOCK:   -2.69 KCAL/MOL
REMARK 922        TOTAL FREE ENERGY PREDICTED BY IDOCK:   -3.13 KCAL/MOL
REMARK 923 INTER-LIGAND FREE ENERGY PREDICTED BY IDOCK:   -2.97 KCAL/MOL
REMARK 924 INTRA-LIGAND FREE ENERGY PREDICTED BY IDOCK:   -0.16 KCAL/MOL
REMARK 927      BINDING AFFINITY PREDICTED BY RF-SCORE:    0.00 PKD
ROOT
HETATM    1  C   UNL     1     -10.376   5.470  67.938  1.00  0.00    -0.182 C  
HETATM    2  O   UNL     1     -11.281   6.066  68.857  1.00  0.00    -0.344 OA 
ENDROOT
BRANCH   2   3
HETATM    3  C   UNL     1     -10.863   7.198  69.509  1.00  0.00    -0.225 A  
HETATM    4  C   UNL     1     -10.198   8.271  68.904  1.00  0.00    -0.222 A  
HETATM    5  C   UNL     1      -9.789   9.387  69.654  1.00  0.00    -0.205 A  
HETATM    6  H   UNL     1     -11.924   6.238  72.423  1.00  0.00     0.000 HD 
HETATM    7  C   UNL     1     -10.051   9.411  71.030  1.00  0.00    -0.353 A  
HETATM    8  C   UNL     1     -10.718   8.350  71.646  1.00  0.00    -0.333 A  
HETATM    9  O   UNL     1     -11.753   6.201  71.490  1.00  0.00    -0.290 OA 
HETATM   10  C   UNL     1     -11.116   7.252  70.885  1.00  0.00    -0.261 A  
BRANCH   5  11
HETATM   11  C   UNL     1      -9.014  10.488  69.058  1.00  0.00    -0.183 C  
HETATM   12  C   UNL     1      -9.540  11.510  68.364  1.00  0.00    -0.195 C  
HETATM   13  C   UNL     1      -8.721  12.587  67.728  1.00  0.00    -0.178 C  
ENDBRANCH   5  11
ENDBRANCH   2   3
TORSDOF 2
ENDMDL
MODEL      144
REMARK 921   NORMALIZED FREE ENERGY PREDICTED BY IDOCK:   -2.67 KCAL/MOL
REMARK 922        TOTAL FREE ENERGY PREDICTED BY IDOCK:   -3.12 KCAL/MOL
REMARK 923 INTER-LIGAND FREE ENERGY PREDICTED BY IDOCK:   -2.95 KCAL/MOL
REMARK 924 INTRA-LIGAND FREE ENERGY PREDICTED BY IDOCK:   -0.16 KCAL/MOL
REMARK 927      BINDING AFFINITY PREDICTED BY RF-SCORE:    0.00 PKD
ROOT
HETATM    1  C   UNL     1      -7.874   6.920  69.059  1.00  0.00    -0.111 C  
HETATM    2  O   UNL     1      -7.527   6.998  70.435  1.00  0.00    -0.082 OA 
ENDROOT
BRANCH   2   3
HETATM    3  C   UNL     1      -8.554   7.070  71.341  1.00  0.00    -0.121 A  
HETATM    4  C   UNL     1      -9.710   7.842  71.182  1.00  0.00    -0.182 A  
HETATM    5  C   UNL     1     -10.705   7.870  72.173  1.00  0.00    -0.316 A  
HETATM    6  H   UNL     1      -7.161   5.065  73.482  1.00  0.00     0.000 HD 
HETATM    7  C   UNL     1     -10.522   7.115  73.338  1.00  0.00    -0.410 A  
HETATM    8  C   UNL     1      -9.376   6.335  73.509  1.00  0.00    -0.139 A  
HETATM    9  O   UNL     1      -7.265   5.573  72.686  1.00  0.00    -0.086 OA 
HETATM   10  C   UNL     1      -8.400   6.320  72.514  1.00  0.00    -0.113 A  
BRANCH   5  11
HETATM   11  C   UNL     1     -11.890   8.739  72.067  1.00  0.00    -0.442 C  
HETATM   12  C   UNL     1     -11.897   9.963  71.516  1.00  0.00    -0.445 C  
HETATM   13  C   UNL     1     -13.106  10.842  71.469  1.00  0.00    -0.503 C  
ENDBRANCH   5  11
ENDBRANCH   2   3
TORSDOF 2
ENDMDL
MODEL      145
REMARK 921   NORMALIZED FREE ENERGY PREDICTED BY IDOCK:   -2.66 KCAL/MOL
REMARK 922        TOTAL FREE ENERGY PREDICTED BY IDOCK:   -3.10 KCAL/MOL
REMARK 923 INTER-LIGAND FREE ENERGY PREDICTED BY IDOCK:   -2.92 KCAL/MOL
REMARK 924 INTRA-LIGAND FREE ENERGY PREDICTED BY IDOCK:   -0.18 KCAL/MOL
REMARK 927      BINDING AFFINITY PREDICTED BY RF-SCORE:    0.00 PKD
ROOT
HETATM    1  C   UNL     1     -10.326  17.706  68.266  1.00  0.00    -0.384 C  
HETATM    2  O   UNL     1     -10.400  16.746  69.310  1.00  0.00    -0.300 OA 
ENDROOT
BRANCH   2   3
HETATM    3  C   UNL     1     -10.354  15.422  68.954  1.00  0.00    -0.233 A  
HETATM    4  C   UNL     1      -9.278  14.804  68.306  1.00  0.00    -0.187 A  
HETATM    5  C   UNL     1      -9.324  13.442  67.962  1.00  0.00    -0.217 A  
HETATM    6  H   UNL     1     -13.323  14.739  70.077  1.00  0.00     0.000 HD 
HETATM    7  C   UNL     1     -10.474  12.705  68.270  1.00  0.00    -0.249 A  
HETATM    8  C   UNL     1     -11.554  13.307  68.920  1.00  0.00    -0.357 A  
HETATM    9  O   UNL     1     -12.553  15.258  69.874  1.00  0.00    -0.275 OA 
HETATM   10  C   UNL     1     -11.489  14.658  69.254  1.00  0.00    -0.291 A  
BRANCH   5  11
HETATM   11  C   UNL     1      -8.241  12.790  67.207  1.00  0.00    -0.181 C  
HETATM   12  C   UNL     1      -7.429  11.839  67.694  1.00  0.00    -0.123 C  
HETATM   13  C   UNL     1      -6.306  11.232  66.917  1.00  0.00    -0.125 C  
ENDBRANCH   5  11
ENDBRANCH   2   3
TORSDOF 2
ENDMDL
MODEL      146
REMARK 921   NORMALIZED FREE ENERGY PREDICTED BY IDOCK:   -2.64 KCAL/MOL
REMARK 922        TOTAL FREE ENERGY PREDICTED BY IDOCK:   -3.07 KCAL/MOL
REMARK 923 INTER-LIGAND FREE ENERGY PREDICTED BY IDOCK:   -2.89 KCAL/MOL
REMARK 924 INTRA-LIGAND FREE ENERGY PREDICTED BY IDOCK:   -0.18 KCAL/MOL
REMARK 927      BINDING AFFINITY PREDICTED BY RF-SCORE:    0.00 PKD
ROOT
HETATM    1  C   UNL     1      -7.044  10.096  65.097  1.00  0.00    -0.137 C  
HETATM    2  O   UNL     1      -8.365   9.638  64.849  1.00  0.00    -0.131 OA 
ENDROOT
BRANCH   2   3
HETATM    3  C   UNL     1      -9.148   9.352  65.938  1.00  0.00    -0.195 A  
HETATM    4  C   UNL     1      -9.784  10.306  66.741  1.00  0.00    -0.231 A  
HETATM    5  C   UNL     1     -10.555   9.923  67.851  1.00  0.00    -0.303 A  
HETATM    6  H   UNL     1      -8.757   6.137  65.713  1.00  0.00     0.000 HD 
HETATM    7  C   UNL     1     -10.675   8.561  68.154  1.00  0.00    -0.101 A  
HETATM    8  C   UNL     1     -10.050   7.597  67.360  1.00  0.00    -0.287 A  
HETATM    9  O   UNL     1      -8.660   7.055  65.492  1.00  0.00    -0.146 OA 
HETATM   10  C   UNL     1      -9.291   7.997  66.263  1.00  0.00    -0.184 A  
BRANCH   5  11
HETATM   11  C   UNL     1     -11.163  10.911  68.758  1.00  0.00    -0.329 C  
HETATM   12  C   UNL     1     -11.650  10.635  69.978  1.00  0.00    -0.406 C  
HETATM   13  C   UNL     1     -12.308  11.651  70.856  1.00  0.00    -0.436 C  
ENDBRANCH   5  11
ENDBRANCH   2   3
TORSDOF 2
ENDMDL
MODEL      147
REMARK 921   NORMALIZED FREE ENERGY PREDICTED BY IDOCK:   -2.61 KCAL/MOL
REMARK 922        TOTAL FREE ENERGY PREDICTED BY IDOCK:   -3.05 KCAL/MOL
REMARK 923 INTER-LIGAND FREE ENERGY PREDICTED BY IDOCK:   -3.06 KCAL/MOL
REMARK 924 INTRA-LIGAND FREE ENERGY PREDICTED BY IDOCK:    0.02 KCAL/MOL
REMARK 927      BINDING AFFINITY PREDICTED BY RF-SCORE:    0.00 PKD
ROOT
HETATM    1  C   UNL     1      -8.386   6.883  71.417  1.00  0.00    -0.115 C  
HETATM    2  O   UNL     1      -9.626   7.482  71.066  1.00  0.00    -0.161 OA 
ENDROOT
BRANCH   2   3
HETATM    3  C   UNL     1      -9.937   7.553  69.733  1.00  0.00    -0.186 A  
HETATM    4  C   UNL     1      -9.769   8.688  68.931  1.00  0.00    -0.171 A  
HETATM    5  C   UNL     1     -10.133   8.677  67.574  1.00  0.00    -0.277 A  
HETATM    6  H   UNL     1     -11.033   4.502  69.550  1.00  0.00     0.000 HD 
HETATM    7  C   UNL     1     -10.679   7.508  67.028  1.00  0.00    -0.367 A  
HETATM    8  C   UNL     1     -10.849   6.367  67.816  1.00  0.00    -0.418 A  
HETATM    9  O   UNL     1     -10.664   5.286  69.939  1.00  0.00    -0.291 OA 
HETATM   10  C   UNL     1     -10.481   6.397  69.159  1.00  0.00    -0.229 A  
BRANCH   5  11
HETATM   11  C   UNL     1     -10.045   9.882  66.731  1.00  0.00    -0.292 C  
HETATM   12  C   UNL     1     -10.532  11.088  67.062  1.00  0.00    -0.284 C  
HETATM   13  C   UNL     1     -10.471  12.281  66.162  1.00  0.00    -0.270 C  
ENDBRANCH   5  11
ENDBRANCH   2   3
TORSDOF 2
ENDMDL
MODEL      148
REMARK 921   NORMALIZED FREE ENERGY PREDICTED BY IDOCK:   -2.60 KCAL/MOL
REMARK 922        TOTAL FREE ENERGY PREDICTED BY IDOCK:   -3.03 KCAL/MOL
REMARK 923 INTER-LIGAND FREE ENERGY PREDICTED BY IDOCK:   -2.92 KCAL/MOL
REMARK 924 INTRA-LIGAND FREE ENERGY PREDICTED BY IDOCK:   -0.11 KCAL/MOL
REMARK 927      BINDING AFFINITY PREDICTED BY RF-SCORE:    0.00 PKD
ROOT
HETATM    1  C   UNL     1     -13.153   7.754  71.593  1.00  0.00    -0.345 C  
HETATM    2  O   UNL     1     -11.771   8.061  71.705  1.00  0.00    -0.264 OA 
ENDROOT
BRANCH   2   3
HETATM    3  C   UNL     1     -11.088   8.327  70.546  1.00  0.00    -0.249 A  
HETATM    4  C   UNL     1     -10.994   9.586  69.943  1.00  0.00    -0.263 A  
HETATM    5  C   UNL     1     -10.286   9.765  68.742  1.00  0.00    -0.227 A  
HETATM    6  H   UNL     1     -10.136   5.257  70.083  1.00  0.00     0.000 HD 
HETATM    7  C   UNL     1      -9.675   8.656  68.145  1.00  0.00    -0.178 A  
HETATM    8  C   UNL     1      -9.756   7.393  68.738  1.00  0.00    -0.149 A  
HETATM    9  O   UNL     1     -10.560   5.997  70.502  1.00  0.00    -0.230 OA 
HETATM   10  C   UNL     1     -10.462   7.237  69.928  1.00  0.00    -0.225 A  
BRANCH   5  11
HETATM   11  C   UNL     1     -10.245  11.062  68.045  1.00  0.00    -0.201 C  
HETATM   12  C   UNL     1     -10.544  11.248  66.750  1.00  0.00    -0.305 C  
HETATM   13  C   UNL     1     -10.443  12.569  66.058  1.00  0.00    -0.282 C  
ENDBRANCH   5  11
ENDBRANCH   2   3
TORSDOF 2
ENDMDL
MODEL      149
REMARK 921   NORMALIZED FREE ENERGY PREDICTED BY IDOCK:   -2.57 KCAL/MOL
REMARK 922        TOTAL FREE ENERGY PREDICTED BY IDOCK:   -2.99 KCAL/MOL
REMARK 923 INTER-LIGAND FREE ENERGY PREDICTED BY IDOCK:   -2.84 KCAL/MOL
REMARK 924 INTRA-LIGAND FREE ENERGY PREDICTED BY IDOCK:   -0.16 KCAL/MOL
REMARK 927      BINDING AFFINITY PREDICTED BY RF-SCORE:    0.00 PKD
ROOT
HETATM    1  C   UNL     1      -8.726  16.010  67.276  1.00  0.00    -0.185 C  
HETATM    2  O   UNL     1     -10.030  15.525  66.992  1.00  0.00    -0.233 OA 
ENDROOT
BRANCH   2   3
HETATM    3  C   UNL     1     -10.171  14.177  66.785  1.00  0.00    -0.262 A  
HETATM    4  C   UNL     1      -9.112  13.268  66.679  1.00  0.00    -0.181 A  
HETATM    5  C   UNL     1      -9.348  11.903  66.448  1.00  0.00    -0.233 A  
HETATM    6  H   UNL     1     -13.414  14.264  66.648  1.00  0.00     0.000 HD 
HETATM    7  C   UNL     1     -10.669  11.457  66.314  1.00  0.00    -0.322 A  
HETATM    8  C   UNL     1     -11.737  12.352  66.422  1.00  0.00    -0.453 A  
HETATM    9  O   UNL     1     -12.525  14.586  66.738  1.00  0.00    -0.257 OA 
HETATM   10  C   UNL     1     -11.482  13.702  66.652  1.00  0.00    -0.343 A  
BRANCH   5  11
HETATM   11  C   UNL     1      -8.250  10.942  66.249  1.00  0.00    -0.165 C  
HETATM   12  C   UNL     1      -6.990  11.116  66.679  1.00  0.00    -0.142 C  
HETATM   13  C   UNL     1      -5.884  10.144  66.417  1.00  0.00    -0.062 C  
ENDBRANCH   5  11
ENDBRANCH   2   3
TORSDOF 2
ENDMDL
MODEL      150
REMARK 921   NORMALIZED FREE ENERGY PREDICTED BY IDOCK:   -2.56 KCAL/MOL
REMARK 922        TOTAL FREE ENERGY PREDICTED BY IDOCK:   -2.99 KCAL/MOL
REMARK 923 INTER-LIGAND FREE ENERGY PREDICTED BY IDOCK:   -2.82 KCAL/MOL
REMARK 924 INTRA-LIGAND FREE ENERGY PREDICTED BY IDOCK:   -0.17 KCAL/MOL
REMARK 927      BINDING AFFINITY PREDICTED BY RF-SCORE:    0.00 PKD
ROOT
HETATM    1  C   UNL     1      -8.885   8.653  69.406  1.00  0.00    -0.144 C  
HETATM    2  O   UNL     1      -8.366   9.313  68.260  1.00  0.00    -0.118 OA 
ENDROOT
BRANCH   2   3
HETATM    3  C   UNL     1      -9.231  10.093  67.535  1.00  0.00    -0.137 A  
HETATM    4  C   UNL     1      -9.977  11.157  68.054  1.00  0.00    -0.190 A  
HETATM    5  C   UNL     1     -10.855  11.892  67.241  1.00  0.00    -0.294 A  
HETATM    6  H   UNL     1      -8.760   8.495  64.748  1.00  0.00     0.000 HD 
HETATM    7  C   UNL     1     -10.983  11.540  65.891  1.00  0.00    -0.301 A  
HETATM    8  C   UNL     1     -10.242  10.483  65.358  1.00  0.00    -0.340 A  
HETATM    9  O   UNL     1      -8.662   8.716  65.666  1.00  0.00    -0.163 OA 
HETATM   10  C   UNL     1      -9.376   9.766  66.181  1.00  0.00    -0.191 A  
BRANCH   5  11
HETATM   11  C   UNL     1     -11.712  12.961  67.782  1.00  0.00    -0.412 C  
HETATM   12  C   UNL     1     -11.445  13.674  68.887  1.00  0.00    -0.344 C  
HETATM   13  C   UNL     1     -12.361  14.719  69.439  1.00  0.00    -0.184 C  
ENDBRANCH   5  11
ENDBRANCH   2   3
TORSDOF 2
ENDMDL
MODEL      151
REMARK 921   NORMALIZED FREE ENERGY PREDICTED BY IDOCK:   -2.55 KCAL/MOL
REMARK 922        TOTAL FREE ENERGY PREDICTED BY IDOCK:   -2.97 KCAL/MOL
REMARK 923 INTER-LIGAND FREE ENERGY PREDICTED BY IDOCK:   -2.78 KCAL/MOL
REMARK 924 INTRA-LIGAND FREE ENERGY PREDICTED BY IDOCK:   -0.19 KCAL/MOL
REMARK 927      BINDING AFFINITY PREDICTED BY RF-SCORE:    0.00 PKD
ROOT
HETATM    1  C   UNL     1     -10.095   6.334  74.329  1.00  0.00    -0.335 C  
HETATM    2  O   UNL     1     -11.067   5.839  73.419  1.00  0.00    -0.254 OA 
ENDROOT
BRANCH   2   3
HETATM    3  C   UNL     1     -10.768   5.901  72.082  1.00  0.00    -0.231 A  
HETATM    4  C   UNL     1      -9.602   5.395  71.497  1.00  0.00    -0.195 A  
HETATM    5  C   UNL     1      -9.369   5.519  70.118  1.00  0.00    -0.185 A  
HETATM    6  H   UNL     1     -13.483   7.490  71.274  1.00  0.00     0.000 HD 
HETATM    7  C   UNL     1     -10.324   6.170  69.326  1.00  0.00    -0.276 A  
HETATM    8  C   UNL     1     -11.495   6.676  69.894  1.00  0.00    -0.414 A  
HETATM    9  O   UNL     1     -12.846   7.055  71.829  1.00  0.00    -0.353 OA 
HETATM   10  C   UNL     1     -11.707   6.542  71.264  1.00  0.00    -0.331 A  
BRANCH   5  11
HETATM   11  C   UNL     1      -8.113   5.070  69.493  1.00  0.00    -0.078 C  
HETATM   12  C   UNL     1      -7.995   4.641  68.227  1.00  0.00    -0.084 C  
HETATM   13  C   UNL     1      -6.714   4.144  67.637  1.00  0.00    -0.047 C  
ENDBRANCH   5  11
ENDBRANCH   2   3
TORSDOF 2
ENDMDL
MODEL      152
REMARK 921   NORMALIZED FREE ENERGY PREDICTED BY IDOCK:   -2.55 KCAL/MOL
REMARK 922        TOTAL FREE ENERGY PREDICTED BY IDOCK:   -2.97 KCAL/MOL
REMARK 923 INTER-LIGAND FREE ENERGY PREDICTED BY IDOCK:   -2.78 KCAL/MOL
REMARK 924 INTRA-LIGAND FREE ENERGY PREDICTED BY IDOCK:   -0.19 KCAL/MOL
REMARK 927      BINDING AFFINITY PREDICTED BY RF-SCORE:    0.00 PKD
ROOT
HETATM    1  C   UNL     1      -9.756   6.051  74.481  1.00  0.00    -0.258 C  
HETATM    2  O   UNL     1     -10.457   5.148  73.637  1.00  0.00    -0.203 OA 
ENDROOT
BRANCH   2   3
HETATM    3  C   UNL     1     -10.294   5.295  72.283  1.00  0.00    -0.212 A  
HETATM    4  C   UNL     1     -10.471   6.492  71.580  1.00  0.00    -0.245 A  
HETATM    5  C   UNL     1     -10.300   6.547  70.187  1.00  0.00    -0.241 A  
HETATM    6  H   UNL     1      -9.546   2.178  71.764  1.00  0.00     0.000 HD 
HETATM    7  C   UNL     1      -9.955   5.376  69.500  1.00  0.00    -0.289 A  
HETATM    8  C   UNL     1      -9.770   4.174  70.189  1.00  0.00    -0.278 A  
HETATM    9  O   UNL     1      -9.783   2.960  72.248  1.00  0.00    -0.132 OA 
HETATM   10  C   UNL     1      -9.944   4.141  71.571  1.00  0.00    -0.160 A  
BRANCH   5  11
HETATM   11  C   UNL     1     -10.562   7.773  69.414  1.00  0.00    -0.211 C  
HETATM   12  C   UNL     1     -10.044   8.046  68.207  1.00  0.00    -0.227 C  
HETATM   13  C   UNL     1     -10.289   9.324  67.470  1.00  0.00    -0.323 C  
ENDBRANCH   5  11
ENDBRANCH   2   3
TORSDOF 2
ENDMDL
MODEL      153
REMARK 921   NORMALIZED FREE ENERGY PREDICTED BY IDOCK:   -2.54 KCAL/MOL
REMARK 922        TOTAL FREE ENERGY PREDICTED BY IDOCK:   -2.97 KCAL/MOL
REMARK 923 INTER-LIGAND FREE ENERGY PREDICTED BY IDOCK:   -2.80 KCAL/MOL
REMARK 924 INTRA-LIGAND FREE ENERGY PREDICTED BY IDOCK:   -0.17 KCAL/MOL
REMARK 927      BINDING AFFINITY PREDICTED BY RF-SCORE:    0.00 PKD
ROOT
HETATM    1  C   UNL     1      -8.268   4.927  70.693  1.00  0.00    -0.096 C  
HETATM    2  O   UNL     1      -8.274   5.942  71.687  1.00  0.00    -0.117 OA 
ENDROOT
BRANCH   2   3
HETATM    3  C   UNL     1      -9.335   6.810  71.696  1.00  0.00    -0.151 A  
HETATM    4  C   UNL     1      -9.570   7.798  70.733  1.00  0.00    -0.167 A  
HETATM    5  C   UNL     1     -10.676   8.659  70.830  1.00  0.00    -0.269 A  
HETATM    6  H   UNL     1     -10.600   5.660  74.456  1.00  0.00     0.000 HD 
HETATM    7  C   UNL     1     -11.546   8.521  71.919  1.00  0.00    -0.410 A  
HETATM    8  C   UNL     1     -11.328   7.537  72.886  1.00  0.00    -0.355 A  
HETATM    9  O   UNL     1      -9.996   5.739  73.728  1.00  0.00    -0.170 OA 
HETATM   10  C   UNL     1     -10.225   6.693  72.771  1.00  0.00    -0.187 A  
BRANCH   5  11
HETATM   11  C   UNL     1     -10.897   9.759  69.877  1.00  0.00    -0.306 C  
HETATM   12  C   UNL     1     -10.630   9.701  68.563  1.00  0.00    -0.253 C  
HETATM   13  C   UNL     1     -10.819  10.853  67.628  1.00  0.00    -0.317 C  
ENDBRANCH   5  11
ENDBRANCH   2   3
TORSDOF 2
ENDMDL
MODEL      154
REMARK 921   NORMALIZED FREE ENERGY PREDICTED BY IDOCK:   -2.53 KCAL/MOL
REMARK 922        TOTAL FREE ENERGY PREDICTED BY IDOCK:   -2.96 KCAL/MOL
REMARK 923 INTER-LIGAND FREE ENERGY PREDICTED BY IDOCK:   -2.79 KCAL/MOL
REMARK 924 INTRA-LIGAND FREE ENERGY PREDICTED BY IDOCK:   -0.17 KCAL/MOL
REMARK 927      BINDING AFFINITY PREDICTED BY RF-SCORE:    0.00 PKD
ROOT
HETATM    1  C   UNL     1      -8.427   7.136  70.551  1.00  0.00    -0.139 C  
HETATM    2  O   UNL     1      -9.465   6.987  69.593  1.00  0.00    -0.149 OA 
ENDROOT
BRANCH   2   3
HETATM    3  C   UNL     1      -9.701   8.042  68.750  1.00  0.00    -0.156 A  
HETATM    4  C   UNL     1      -9.970   9.352  69.162  1.00  0.00    -0.184 A  
HETATM    5  C   UNL     1     -10.219  10.371  68.227  1.00  0.00    -0.184 A  
HETATM    6  H   UNL     1      -9.431   6.282  66.034  1.00  0.00     0.000 HD 
HETATM    7  C   UNL     1     -10.203  10.056  66.863  1.00  0.00    -0.299 A  
HETATM    8  C   UNL     1      -9.932   8.753  66.436  1.00  0.00    -0.346 A  
HETATM    9  O   UNL     1      -9.441   6.475  66.964  1.00  0.00    -0.129 OA 
HETATM   10  C   UNL     1      -9.687   7.758  67.379  1.00  0.00    -0.163 A  
BRANCH   5  11
HETATM   11  C   UNL     1     -10.586  11.736  68.638  1.00  0.00    -0.250 C  
HETATM   12  C   UNL     1     -11.653  12.052  69.388  1.00  0.00    -0.393 C  
HETATM   13  C   UNL     1     -12.028  13.454  69.747  1.00  0.00    -0.396 C  
ENDBRANCH   5  11
ENDBRANCH   2   3
TORSDOF 2
ENDMDL
MODEL      155
REMARK 921   NORMALIZED FREE ENERGY PREDICTED BY IDOCK:   -2.50 KCAL/MOL
REMARK 922        TOTAL FREE ENERGY PREDICTED BY IDOCK:   -2.92 KCAL/MOL
REMARK 923 INTER-LIGAND FREE ENERGY PREDICTED BY IDOCK:   -2.84 KCAL/MOL
REMARK 924 INTRA-LIGAND FREE ENERGY PREDICTED BY IDOCK:   -0.08 KCAL/MOL
REMARK 927      BINDING AFFINITY PREDICTED BY RF-SCORE:    0.00 PKD
ROOT
HETATM    1  C   UNL     1     -14.072   7.996  71.592  1.00  0.00    -0.431 C  
HETATM    2  O   UNL     1     -13.140   6.926  71.533  1.00  0.00    -0.359 OA 
ENDROOT
BRANCH   2   3
HETATM    3  C   UNL     1     -11.885   7.208  71.058  1.00  0.00    -0.333 A  
HETATM    4  C   UNL     1     -11.493   7.104  69.719  1.00  0.00    -0.097 A  
HETATM    5  C   UNL     1     -10.177   7.397  69.323  1.00  0.00    -0.199 A  
HETATM    6  H   UNL     1     -10.663   7.971  73.969  1.00  0.00     0.000 HD 
HETATM    7  C   UNL     1      -9.249   7.791  70.296  1.00  0.00    -0.156 A  
HETATM    8  C   UNL     1      -9.627   7.904  71.636  1.00  0.00    -0.206 A  
HETATM    9  O   UNL     1     -11.307   7.699  73.325  1.00  0.00    -0.313 OA 
HETATM   10  C   UNL     1     -10.937   7.609  72.008  1.00  0.00    -0.246 A  
BRANCH   5  11
HETATM   11  C   UNL     1      -9.719   7.215  67.935  1.00  0.00    -0.156 C  
HETATM   12  C   UNL     1      -9.200   8.183  67.165  1.00  0.00    -0.175 C  
HETATM   13  C   UNL     1      -8.790   7.978  65.741  1.00  0.00    -0.170 C  
ENDBRANCH   5  11
ENDBRANCH   2   3
TORSDOF 2
ENDMDL
MODEL      156
REMARK 921   NORMALIZED FREE ENERGY PREDICTED BY IDOCK:   -2.47 KCAL/MOL
REMARK 922        TOTAL FREE ENERGY PREDICTED BY IDOCK:   -2.89 KCAL/MOL
REMARK 923 INTER-LIGAND FREE ENERGY PREDICTED BY IDOCK:   -2.70 KCAL/MOL
REMARK 924 INTRA-LIGAND FREE ENERGY PREDICTED BY IDOCK:   -0.18 KCAL/MOL
REMARK 927      BINDING AFFINITY PREDICTED BY RF-SCORE:    0.00 PKD
ROOT
HETATM    1  C   UNL     1      -9.757   4.965  67.867  1.00  0.00    -0.155 C  
HETATM    2  O   UNL     1      -9.717   6.104  67.019  1.00  0.00    -0.130 OA 
ENDROOT
BRANCH   2   3
HETATM    3  C   UNL     1      -9.735   7.337  67.618  1.00  0.00    -0.142 A  
HETATM    4  C   UNL     1     -10.499   7.670  68.743  1.00  0.00    -0.208 A  
HETATM    5  C   UNL     1     -10.471   8.967  69.281  1.00  0.00    -0.238 A  
HETATM    6  H   UNL     1      -7.656   8.686  65.521  1.00  0.00     0.000 HD 
HETATM    7  C   UNL     1      -9.667   9.937  68.669  1.00  0.00    -0.163 A  
HETATM    8  C   UNL     1      -8.896   9.618  67.548  1.00  0.00    -0.129 A  
HETATM    9  O   UNL     1      -8.197   8.015  65.919  1.00  0.00    -0.112 OA 
HETATM   10  C   UNL     1      -8.937   8.326  67.030  1.00  0.00    -0.140 A  
BRANCH   5  11
HETATM   11  C   UNL     1     -11.328   9.363  70.411  1.00  0.00    -0.295 C  
HETATM   12  C   UNL     1     -12.015  10.514  70.487  1.00  0.00    -0.436 C  
HETATM   13  C   UNL     1     -12.838  10.910  71.671  1.00  0.00    -0.554 C  
ENDBRANCH   5  11
ENDBRANCH   2   3
TORSDOF 2
ENDMDL
MODEL      157
REMARK 921   NORMALIZED FREE ENERGY PREDICTED BY IDOCK:   -2.43 KCAL/MOL
REMARK 922        TOTAL FREE ENERGY PREDICTED BY IDOCK:   -2.84 KCAL/MOL
REMARK 923 INTER-LIGAND FREE ENERGY PREDICTED BY IDOCK:   -2.65 KCAL/MOL
REMARK 924 INTRA-LIGAND FREE ENERGY PREDICTED BY IDOCK:   -0.19 KCAL/MOL
REMARK 927      BINDING AFFINITY PREDICTED BY RF-SCORE:    0.00 PKD
ROOT
HETATM    1  C   UNL     1      -7.343   9.787  69.976  1.00  0.00    -0.144 C  
HETATM    2  O   UNL     1      -8.162   8.795  69.374  1.00  0.00    -0.104 OA 
ENDROOT
BRANCH   2   3
HETATM    3  C   UNL     1      -8.814   9.133  68.216  1.00  0.00    -0.129 A  
HETATM    4  C   UNL     1      -9.426  10.367  67.971  1.00  0.00    -0.152 A  
HETATM    5  C   UNL     1     -10.089  10.621  66.759  1.00  0.00    -0.272 A  
HETATM    6  H   UNL     1      -8.332   6.256  66.789  1.00  0.00     0.000 HD 
HETATM    7  C   UNL     1     -10.137   9.612  65.789  1.00  0.00    -0.274 A  
HETATM    8  C   UNL     1      -9.526   8.376  66.017  1.00  0.00    -0.224 A  
HETATM    9  O   UNL     1      -8.290   6.926  67.461  1.00  0.00    -0.121 OA 
HETATM   10  C   UNL     1      -8.874   8.144  67.226  1.00  0.00    -0.130 A  
BRANCH   5  11
HETATM   11  C   UNL     1     -10.812  11.880  66.512  1.00  0.00    -0.317 C  
HETATM   12  C   UNL     1     -11.827  12.025  65.647  1.00  0.00    -0.242 C  
HETATM   13  C   UNL     1     -12.509  13.330  65.381  1.00  0.00    -0.543 C  
ENDBRANCH   5  11
ENDBRANCH   2   3
TORSDOF 2
ENDMDL
MODEL      158
REMARK 921   NORMALIZED FREE ENERGY PREDICTED BY IDOCK:   -2.43 KCAL/MOL
REMARK 922        TOTAL FREE ENERGY PREDICTED BY IDOCK:   -2.84 KCAL/MOL
REMARK 923 INTER-LIGAND FREE ENERGY PREDICTED BY IDOCK:   -2.66 KCAL/MOL
REMARK 924 INTRA-LIGAND FREE ENERGY PREDICTED BY IDOCK:   -0.18 KCAL/MOL
REMARK 927      BINDING AFFINITY PREDICTED BY RF-SCORE:    0.00 PKD
ROOT
HETATM    1  C   UNL     1      -6.145   9.687  63.263  1.00  0.00    -0.103 C  
HETATM    2  O   UNL     1      -7.441  10.213  63.011  1.00  0.00    -0.140 OA 
ENDROOT
BRANCH   2   3
HETATM    3  C   UNL     1      -8.342  10.193  64.044  1.00  0.00    -0.172 A  
HETATM    4  C   UNL     1      -8.275   9.336  65.148  1.00  0.00    -0.143 A  
HETATM    5  C   UNL     1      -9.255   9.372  66.155  1.00  0.00    -0.241 A  
HETATM    6  H   UNL     1     -10.219  12.536  62.808  1.00  0.00     0.000 HD 
HETATM    7  C   UNL     1     -10.315  10.279  66.035  1.00  0.00    -0.248 A  
HETATM    8  C   UNL     1     -10.393  11.144  64.941  1.00  0.00    -0.375 A  
HETATM    9  O   UNL     1      -9.494  11.926  62.869  1.00  0.00    -0.358 OA 
HETATM   10  C   UNL     1      -9.411  11.093  63.954  1.00  0.00    -0.227 A  
BRANCH   5  11
HETATM   11  C   UNL     1      -9.253   8.424  67.282  1.00  0.00    -0.165 C  
HETATM   12  C   UNL     1     -10.342   7.816  67.776  1.00  0.00    -0.284 C  
HETATM   13  C   UNL     1     -10.314   6.896  68.955  1.00  0.00    -0.203 C  
ENDBRANCH   5  11
ENDBRANCH   2   3
TORSDOF 2
ENDMDL
MODEL      159
REMARK 921   NORMALIZED FREE ENERGY PREDICTED BY IDOCK:   -2.42 KCAL/MOL
REMARK 922        TOTAL FREE ENERGY PREDICTED BY IDOCK:   -2.83 KCAL/MOL
REMARK 923 INTER-LIGAND FREE ENERGY PREDICTED BY IDOCK:   -2.77 KCAL/MOL
REMARK 924 INTRA-LIGAND FREE ENERGY PREDICTED BY IDOCK:   -0.06 KCAL/MOL
REMARK 927      BINDING AFFINITY PREDICTED BY RF-SCORE:    0.00 PKD
ROOT
HETATM    1  C   UNL     1      -6.603   4.845  67.808  1.00  0.00    -0.050 C  
HETATM    2  O   UNL     1      -7.423   4.972  66.655  1.00  0.00    -0.084 OA 
ENDROOT
BRANCH   2   3
HETATM    3  C   UNL     1      -8.490   5.829  66.732  1.00  0.00    -0.112 A  
HETATM    4  C   UNL     1      -8.453   7.187  66.396  1.00  0.00    -0.130 A  
HETATM    5  C   UNL     1      -9.594   7.998  66.523  1.00  0.00    -0.295 A  
HETATM    6  H   UNL     1     -10.550   3.591  67.867  1.00  0.00     0.000 HD 
HETATM    7  C   UNL     1     -10.780   7.427  67.001  1.00  0.00    -0.389 A  
HETATM    8  C   UNL     1     -10.834   6.072  67.335  1.00  0.00    -0.394 A  
HETATM    9  O   UNL     1      -9.735   3.960  67.548  1.00  0.00    -0.187 OA 
HETATM   10  C   UNL     1      -9.692   5.285  67.202  1.00  0.00    -0.151 A  
BRANCH   5  11
HETATM   11  C   UNL     1      -9.557   9.446  66.257  1.00  0.00    -0.297 C  
HETATM   12  C   UNL     1      -9.886  10.021  65.089  1.00  0.00    -0.388 C  
HETATM   13  C   UNL     1      -9.790  11.491  64.835  1.00  0.00    -0.289 C  
ENDBRANCH   5  11
ENDBRANCH   2   3
TORSDOF 2
ENDMDL
MODEL      160
REMARK 921   NORMALIZED FREE ENERGY PREDICTED BY IDOCK:   -2.41 KCAL/MOL
REMARK 922        TOTAL FREE ENERGY PREDICTED BY IDOCK:   -2.82 KCAL/MOL
REMARK 923 INTER-LIGAND FREE ENERGY PREDICTED BY IDOCK:   -2.65 KCAL/MOL
REMARK 924 INTRA-LIGAND FREE ENERGY PREDICTED BY IDOCK:   -0.17 KCAL/MOL
REMARK 927      BINDING AFFINITY PREDICTED BY RF-SCORE:    0.00 PKD
ROOT
HETATM    1  C   UNL     1      -6.407   7.994  68.201  1.00  0.00    -0.054 C  
HETATM    2  O   UNL     1      -7.574   8.016  67.391  1.00  0.00    -0.094 OA 
ENDROOT
BRANCH   2   3
HETATM    3  C   UNL     1      -8.720   7.483  67.921  1.00  0.00    -0.124 A  
HETATM    4  C   UNL     1      -9.307   7.882  69.127  1.00  0.00    -0.154 A  
HETATM    5  C   UNL     1     -10.475   7.266  69.605  1.00  0.00    -0.239 A  
HETATM    6  H   UNL     1      -9.150   5.336  65.523  1.00  0.00     0.000 HD 
HETATM    7  C   UNL     1     -11.049   6.230  68.857  1.00  0.00    -0.434 A  
HETATM    8  C   UNL     1     -10.477   5.823  67.649  1.00  0.00    -0.299 A  
HETATM    9  O   UNL     1      -8.744   6.038  66.017  1.00  0.00    -0.143 OA 
HETATM   10  C   UNL     1      -9.319   6.447  67.192  1.00  0.00    -0.124 A  
BRANCH   5  11
HETATM   11  C   UNL     1     -11.063   7.611  70.911  1.00  0.00    -0.275 C  
HETATM   12  C   UNL     1     -12.150   8.380  71.084  1.00  0.00    -0.275 C  
HETATM   13  C   UNL     1     -12.693   8.753  72.427  1.00  0.00    -0.433 C  
ENDBRANCH   5  11
ENDBRANCH   2   3
TORSDOF 2
ENDMDL
MODEL      161
REMARK 921   NORMALIZED FREE ENERGY PREDICTED BY IDOCK:   -2.39 KCAL/MOL
REMARK 922        TOTAL FREE ENERGY PREDICTED BY IDOCK:   -2.80 KCAL/MOL
REMARK 923 INTER-LIGAND FREE ENERGY PREDICTED BY IDOCK:   -2.62 KCAL/MOL
REMARK 924 INTRA-LIGAND FREE ENERGY PREDICTED BY IDOCK:   -0.19 KCAL/MOL
REMARK 927      BINDING AFFINITY PREDICTED BY RF-SCORE:    0.00 PKD
ROOT
HETATM    1  C   UNL     1      -7.577   9.985  69.977  1.00  0.00    -0.172 C  
HETATM    2  O   UNL     1      -8.777   9.620  69.309  1.00  0.00    -0.138 OA 
ENDROOT
BRANCH   2   3
HETATM    3  C   UNL     1      -9.162  10.387  68.240  1.00  0.00    -0.149 A  
HETATM    4  C   UNL     1      -8.819  11.731  68.053  1.00  0.00    -0.164 A  
HETATM    5  C   UNL     1      -9.274  12.447  66.933  1.00  0.00    -0.209 A  
HETATM    6  H   UNL     1     -10.884   8.026  66.823  1.00  0.00     0.000 HD 
HETATM    7  C   UNL     1     -10.091  11.797  66.000  1.00  0.00    -0.263 A  
HETATM    8  C   UNL     1     -10.438  10.454  66.171  1.00  0.00    -0.224 A  
HETATM    9  O   UNL     1     -10.331   8.450  67.469  1.00  0.00    -0.229 OA 
HETATM   10  C   UNL     1      -9.977   9.761  67.287  1.00  0.00    -0.191 A  
BRANCH   5  11
HETATM   11  C   UNL     1      -8.996  13.882  66.757  1.00  0.00    -0.206 C  
HETATM   12  C   UNL     1      -9.799  14.747  66.118  1.00  0.00    -0.335 C  
HETATM   13  C   UNL     1      -9.465  16.190  65.912  1.00  0.00    -0.337 C  
ENDBRANCH   5  11
ENDBRANCH   2   3
TORSDOF 2
ENDMDL
MODEL      162
REMARK 921   NORMALIZED FREE ENERGY PREDICTED BY IDOCK:   -2.39 KCAL/MOL
REMARK 922        TOTAL FREE ENERGY PREDICTED BY IDOCK:   -2.80 KCAL/MOL
REMARK 923 INTER-LIGAND FREE ENERGY PREDICTED BY IDOCK:   -2.64 KCAL/MOL
REMARK 924 INTRA-LIGAND FREE ENERGY PREDICTED BY IDOCK:   -0.15 KCAL/MOL
REMARK 927      BINDING AFFINITY PREDICTED BY RF-SCORE:    0.00 PKD
ROOT
HETATM    1  C   UNL     1     -10.867  17.274  67.991  1.00  0.00    -0.297 C  
HETATM    2  O   UNL     1     -11.396  16.132  67.334  1.00  0.00    -0.121 OA 
ENDROOT
BRANCH   2   3
HETATM    3  C   UNL     1     -10.558  15.061  67.157  1.00  0.00    -0.295 A  
HETATM    4  C   UNL     1      -9.253  14.975  67.654  1.00  0.00    -0.182 A  
HETATM    5  C   UNL     1      -8.456  13.844  67.409  1.00  0.00    -0.208 A  
HETATM    6  H   UNL     1     -12.678  13.351  65.388  1.00  0.00     0.000 HD 
HETATM    7  C   UNL     1      -8.986  12.794  66.647  1.00  0.00    -0.152 A  
HETATM    8  C   UNL     1     -10.290  12.864  66.149  1.00  0.00    -0.286 A  
HETATM    9  O   UNL     1     -12.335  14.074  65.900  1.00  0.00    -0.444 OA 
HETATM   10  C   UNL     1     -11.064  13.994  66.403  1.00  0.00    -0.316 A  
BRANCH   5  11
HETATM   11  C   UNL     1      -7.053  13.766  67.848  1.00  0.00    -0.161 C  
HETATM   12  C   UNL     1      -6.640  13.231  69.008  1.00  0.00    -0.104 C  
HETATM   13  C   UNL     1      -5.211  13.212  69.448  1.00  0.00    -0.075 C  
ENDBRANCH   5  11
ENDBRANCH   2   3
TORSDOF 2
ENDMDL
MODEL      163
REMARK 921   NORMALIZED FREE ENERGY PREDICTED BY IDOCK:   -2.39 KCAL/MOL
REMARK 922        TOTAL FREE ENERGY PREDICTED BY IDOCK:   -2.79 KCAL/MOL
REMARK 923 INTER-LIGAND FREE ENERGY PREDICTED BY IDOCK:   -2.63 KCAL/MOL
REMARK 924 INTRA-LIGAND FREE ENERGY PREDICTED BY IDOCK:   -0.17 KCAL/MOL
REMARK 927      BINDING AFFINITY PREDICTED BY RF-SCORE:    0.00 PKD
ROOT
HETATM    1  C   UNL     1     -10.932   6.148  68.013  1.00  0.00    -0.305 C  
HETATM    2  O   UNL     1      -9.659   6.621  68.428  1.00  0.00    -0.125 OA 
ENDROOT
BRANCH   2   3
HETATM    3  C   UNL     1      -9.481   7.979  68.496  1.00  0.00    -0.142 A  
HETATM    4  C   UNL     1      -9.802   8.881  67.475  1.00  0.00    -0.237 A  
HETATM    5  C   UNL     1      -9.570  10.258  67.624  1.00  0.00    -0.173 A  
HETATM    6  H   UNL     1      -8.201   7.933  71.480  1.00  0.00     0.000 HD 
HETATM    7  C   UNL     1      -8.999  10.724  68.815  1.00  0.00    -0.171 A  
HETATM    8  C   UNL     1      -8.678   9.836  69.845  1.00  0.00    -0.238 A  
HETATM    9  O   UNL     1      -8.585   7.598  70.678  1.00  0.00    -0.132 OA 
HETATM   10  C   UNL     1      -8.917   8.474  69.678  1.00  0.00    -0.145 A  
BRANCH   5  11
HETATM   11  C   UNL     1      -9.820  11.216  66.533  1.00  0.00    -0.242 C  
HETATM   12  C   UNL     1     -10.118  10.879  65.269  1.00  0.00    -0.340 C  
HETATM   13  C   UNL     1     -10.318  11.875  64.172  1.00  0.00    -0.377 C  
ENDBRANCH   5  11
ENDBRANCH   2   3
TORSDOF 2
ENDMDL
MODEL      164
REMARK 921   NORMALIZED FREE ENERGY PREDICTED BY IDOCK:   -2.38 KCAL/MOL
REMARK 922        TOTAL FREE ENERGY PREDICTED BY IDOCK:   -2.79 KCAL/MOL
REMARK 923 INTER-LIGAND FREE ENERGY PREDICTED BY IDOCK:   -2.60 KCAL/MOL
REMARK 924 INTRA-LIGAND FREE ENERGY PREDICTED BY IDOCK:   -0.19 KCAL/MOL
REMARK 927      BINDING AFFINITY PREDICTED BY RF-SCORE:    0.00 PKD
ROOT
HETATM    1  C   UNL     1     -10.453   9.685  70.884  1.00  0.00    -0.289 C  
HETATM    2  O   UNL     1     -11.384   8.742  70.372  1.00  0.00    -0.256 OA 
ENDROOT
BRANCH   2   3
HETATM    3  C   UNL     1     -10.878   7.598  69.810  1.00  0.00    -0.217 A  
HETATM    4  C   UNL     1     -10.260   7.527  68.557  1.00  0.00    -0.216 A  
HETATM    5  C   UNL     1      -9.786   6.305  68.050  1.00  0.00    -0.122 A  
HETATM    6  H   UNL     1     -11.735   5.682  72.287  1.00  0.00     0.000 HD 
HETATM    7  C   UNL     1      -9.947   5.145  68.818  1.00  0.00    -0.237 A  
HETATM    8  C   UNL     1     -10.558   5.202  70.074  1.00  0.00    -0.219 A  
HETATM    9  O   UNL     1     -11.639   6.479  71.780  1.00  0.00    -0.281 OA 
HETATM   10  C   UNL     1     -11.021   6.423  70.558  1.00  0.00    -0.306 A  
BRANCH   5  11
HETATM   11  C   UNL     1      -9.208   6.190  66.700  1.00  0.00    -0.155 C  
HETATM   12  C   UNL     1      -9.208   5.072  65.958  1.00  0.00    -0.154 C  
HETATM   13  C   UNL     1      -8.568   4.973  64.610  1.00  0.00    -0.150 C  
ENDBRANCH   5  11
ENDBRANCH   2   3
TORSDOF 2
ENDMDL
MODEL      165
REMARK 921   NORMALIZED FREE ENERGY PREDICTED BY IDOCK:   -2.38 KCAL/MOL
REMARK 922        TOTAL FREE ENERGY PREDICTED BY IDOCK:   -2.78 KCAL/MOL
REMARK 923 INTER-LIGAND FREE ENERGY PREDICTED BY IDOCK:   -2.61 KCAL/MOL
REMARK 924 INTRA-LIGAND FREE ENERGY PREDICTED BY IDOCK:   -0.17 KCAL/MOL
REMARK 927      BINDING AFFINITY PREDICTED BY RF-SCORE:    0.00 PKD
ROOT
HETATM    1  C   UNL     1      -7.021  19.952  70.113  1.00  0.00     0.055 C  
HETATM    2  O   UNL     1      -7.991  19.434  69.215  1.00  0.00    -0.277 OA 
ENDROOT
BRANCH   2   3
HETATM    3  C   UNL     1      -7.541  18.930  68.022  1.00  0.00    -0.265 A  
HETATM    4  C   UNL     1      -6.727  19.620  67.116  1.00  0.00    -0.219 A  
HETATM    5  C   UNL     1      -6.326  19.030  65.906  1.00  0.00    -0.246 A  
HETATM    6  H   UNL     1      -9.047  16.072  68.355  1.00  0.00     0.000 HD 
HETATM    7  C   UNL     1      -6.761  17.732  65.608  1.00  0.00    -0.118 A  
HETATM    8  C   UNL     1      -7.570  17.029  66.505  1.00  0.00    -0.326 A  
HETATM    9  O   UNL     1      -8.765  16.952  68.573  1.00  0.00    -0.234 OA 
HETATM   10  C   UNL     1      -7.956  17.631  67.700  1.00  0.00    -0.208 A  
BRANCH   5  11
HETATM   11  C   UNL     1      -5.542  19.765  64.900  1.00  0.00    -0.222 C  
HETATM   12  C   UNL     1      -6.063  20.520  63.920  1.00  0.00    -0.315 C  
HETATM   13  C   UNL     1      -5.240  21.214  62.882  1.00  0.00    -0.234 C  
ENDBRANCH   5  11
ENDBRANCH   2   3
TORSDOF 2
ENDMDL
MODEL      166
REMARK 921   NORMALIZED FREE ENERGY PREDICTED BY IDOCK:   -2.37 KCAL/MOL
REMARK 922        TOTAL FREE ENERGY PREDICTED BY IDOCK:   -2.77 KCAL/MOL
REMARK 923 INTER-LIGAND FREE ENERGY PREDICTED BY IDOCK:   -2.63 KCAL/MOL
REMARK 924 INTRA-LIGAND FREE ENERGY PREDICTED BY IDOCK:   -0.14 KCAL/MOL
REMARK 927      BINDING AFFINITY PREDICTED BY RF-SCORE:    0.00 PKD
ROOT
HETATM    1  C   UNL     1      -8.450   4.810  71.517  1.00  0.00    -0.116 C  
HETATM    2  O   UNL     1      -9.684   4.546  70.865  1.00  0.00    -0.166 OA 
ENDROOT
BRANCH   2   3
HETATM    3  C   UNL     1      -9.788   4.897  69.544  1.00  0.00    -0.217 A  
HETATM    4  C   UNL     1     -10.080   6.184  69.078  1.00  0.00    -0.213 A  
HETATM    5  C   UNL     1     -10.184   6.452  67.703  1.00  0.00    -0.206 A  
HETATM    6  H   UNL     1      -9.206   1.906  68.424  1.00  0.00     0.000 HD 
HETATM    7  C   UNL     1      -9.999   5.403  66.793  1.00  0.00    -0.217 A  
HETATM    8  C   UNL     1      -9.702   4.114  67.243  1.00  0.00    -0.214 A  
HETATM    9  O   UNL     1      -9.331   2.603  69.057  1.00  0.00    -0.149 OA 
HETATM   10  C   UNL     1      -9.603   3.869  68.611  1.00  0.00    -0.111 A  
BRANCH   5  11
HETATM   11  C   UNL     1     -10.573   7.777  67.191  1.00  0.00    -0.401 C  
HETATM   12  C   UNL     1      -9.722   8.688  66.695  1.00  0.00    -0.315 C  
HETATM   13  C   UNL     1     -10.142  10.046  66.229  1.00  0.00    -0.310 C  
ENDBRANCH   5  11
ENDBRANCH   2   3
TORSDOF 2
ENDMDL
MODEL      167
REMARK 921   NORMALIZED FREE ENERGY PREDICTED BY IDOCK:   -2.34 KCAL/MOL
REMARK 922        TOTAL FREE ENERGY PREDICTED BY IDOCK:   -2.75 KCAL/MOL
REMARK 923 INTER-LIGAND FREE ENERGY PREDICTED BY IDOCK:   -2.90 KCAL/MOL
REMARK 924 INTRA-LIGAND FREE ENERGY PREDICTED BY IDOCK:    0.15 KCAL/MOL
REMARK 927      BINDING AFFINITY PREDICTED BY RF-SCORE:    0.00 PKD
ROOT
HETATM    1  C   UNL     1     -10.751  18.939  66.552  1.00  0.00    -0.296 C  
HETATM    2  O   UNL     1      -9.554  18.236  66.251  1.00  0.00    -0.378 OA 
ENDROOT
BRANCH   2   3
HETATM    3  C   UNL     1      -9.288  17.103  66.977  1.00  0.00    -0.243 A  
HETATM    4  C   UNL     1      -9.396  15.796  66.490  1.00  0.00    -0.312 A  
HETATM    5  C   UNL     1      -9.120  14.690  67.312  1.00  0.00    -0.215 A  
HETATM    6  H   UNL     1      -8.545  18.702  69.704  1.00  0.00     0.000 HD 
HETATM    7  C   UNL     1      -8.740  14.913  68.642  1.00  0.00    -0.177 A  
HETATM    8  C   UNL     1      -8.624  16.213  69.141  1.00  0.00    -0.235 A  
HETATM    9  O   UNL     1      -8.808  18.572  68.801  1.00  0.00    -0.312 OA 
HETATM   10  C   UNL     1      -8.901  17.296  68.309  1.00  0.00    -0.258 A  
BRANCH   5  11
HETATM   11  C   UNL     1      -9.307  13.305  66.848  1.00  0.00    -0.244 C  
HETATM   12  C   UNL     1      -8.344  12.372  66.808  1.00  0.00    -0.060 C  
HETATM   13  C   UNL     1      -8.553  10.987  66.284  1.00  0.00    -0.167 C  
ENDBRANCH   5  11
ENDBRANCH   2   3
TORSDOF 2
ENDMDL
MODEL      168
REMARK 921   NORMALIZED FREE ENERGY PREDICTED BY IDOCK:   -2.34 KCAL/MOL
REMARK 922        TOTAL FREE ENERGY PREDICTED BY IDOCK:   -2.74 KCAL/MOL
REMARK 923 INTER-LIGAND FREE ENERGY PREDICTED BY IDOCK:   -2.54 KCAL/MOL
REMARK 924 INTRA-LIGAND FREE ENERGY PREDICTED BY IDOCK:   -0.20 KCAL/MOL
REMARK 927      BINDING AFFINITY PREDICTED BY RF-SCORE:    0.00 PKD
ROOT
HETATM    1  C   UNL     1     -10.335   4.750  66.200  1.00  0.00    -0.300 C  
HETATM    2  O   UNL     1     -11.144   5.780  66.750  1.00  0.00    -0.230 OA 
ENDROOT
BRANCH   2   3
HETATM    3  C   UNL     1     -10.503   6.861  67.299  1.00  0.00    -0.287 A  
HETATM    4  C   UNL     1      -9.657   7.730  66.601  1.00  0.00    -0.286 A  
HETATM    5  C   UNL     1      -9.026   8.805  67.250  1.00  0.00    -0.144 A  
HETATM    6  H   UNL     1     -11.668   6.371  70.290  1.00  0.00     0.000 HD 
HETATM    7  C   UNL     1      -9.249   8.994  68.620  1.00  0.00    -0.136 A  
HETATM    8  C   UNL     1     -10.095   8.138  69.328  1.00  0.00    -0.202 A  
HETATM    9  O   UNL     1     -11.527   6.224  69.363  1.00  0.00    -0.427 OA 
HETATM   10  C   UNL     1     -10.712   7.078  68.667  1.00  0.00    -0.189 A  
BRANCH   5  11
HETATM   11  C   UNL     1      -8.067   9.681  66.557  1.00  0.00    -0.119 C  
HETATM   12  C   UNL     1      -6.965  10.207  67.116  1.00  0.00    -0.087 C  
HETATM   13  C   UNL     1      -6.037  11.135  66.400  1.00  0.00    -0.137 C  
ENDBRANCH   5  11
ENDBRANCH   2   3
TORSDOF 2
ENDMDL
MODEL      169
REMARK 921   NORMALIZED FREE ENERGY PREDICTED BY IDOCK:   -2.31 KCAL/MOL
REMARK 922        TOTAL FREE ENERGY PREDICTED BY IDOCK:   -2.71 KCAL/MOL
REMARK 923 INTER-LIGAND FREE ENERGY PREDICTED BY IDOCK:   -2.55 KCAL/MOL
REMARK 924 INTRA-LIGAND FREE ENERGY PREDICTED BY IDOCK:   -0.16 KCAL/MOL
REMARK 927      BINDING AFFINITY PREDICTED BY RF-SCORE:    0.00 PKD
ROOT
HETATM    1  C   UNL     1      -7.556   9.041  65.331  1.00  0.00    -0.090 C  
HETATM    2  O   UNL     1      -8.912   8.870  65.718  1.00  0.00    -0.178 OA 
ENDROOT
BRANCH   2   3
HETATM    3  C   UNL     1      -9.291   9.383  66.932  1.00  0.00    -0.147 A  
HETATM    4  C   UNL     1      -9.102   8.747  68.165  1.00  0.00    -0.142 A  
HETATM    5  C   UNL     1      -9.539   9.339  69.361  1.00  0.00    -0.170 A  
HETATM    6  H   UNL     1     -10.566  12.098  65.690  1.00  0.00     0.000 HD 
HETATM    7  C   UNL     1     -10.180  10.583  69.306  1.00  0.00    -0.245 A  
HETATM    8  C   UNL     1     -10.370  11.233  68.084  1.00  0.00    -0.205 A  
HETATM    9  O   UNL     1     -10.133  11.253  65.706  1.00  0.00    -0.228 OA 
HETATM   10  C   UNL     1      -9.930  10.629  66.909  1.00  0.00    -0.202 A  
BRANCH   5  11
HETATM   11  C   UNL     1      -9.428   8.652  70.660  1.00  0.00    -0.218 C  
HETATM   12  C   UNL     1     -10.342   8.712  71.640  1.00  0.00    -0.366 C  
HETATM   13  C   UNL     1     -10.177   8.043  72.968  1.00  0.00    -0.357 C  
ENDBRANCH   5  11
ENDBRANCH   2   3
TORSDOF 2
ENDMDL
MODEL      170
REMARK 921   NORMALIZED FREE ENERGY PREDICTED BY IDOCK:   -2.31 KCAL/MOL
REMARK 922        TOTAL FREE ENERGY PREDICTED BY IDOCK:   -2.71 KCAL/MOL
REMARK 923 INTER-LIGAND FREE ENERGY PREDICTED BY IDOCK:   -2.52 KCAL/MOL
REMARK 924 INTRA-LIGAND FREE ENERGY PREDICTED BY IDOCK:   -0.19 KCAL/MOL
REMARK 927      BINDING AFFINITY PREDICTED BY RF-SCORE:    0.00 PKD
ROOT
HETATM    1  C   UNL     1     -13.309   7.749  71.129  1.00  0.00    -0.087 C  
HETATM    2  O   UNL     1     -12.097   7.314  71.729  1.00  0.00    -0.292 OA 
ENDROOT
BRANCH   2   3
HETATM    3  C   UNL     1     -11.086   6.915  70.893  1.00  0.00    -0.272 A  
HETATM    4  C   UNL     1     -11.268   6.226  69.689  1.00  0.00    -0.506 A  
HETATM    5  C   UNL     1     -10.171   5.839  68.901  1.00  0.00    -0.267 A  
HETATM    6  H   UNL     1      -8.708   8.078  72.773  1.00  0.00     0.000 HD 
HETATM    7  C   UNL     1      -8.878   6.148  69.343  1.00  0.00    -0.126 A  
HETATM    8  C   UNL     1      -8.681   6.840  70.541  1.00  0.00    -0.147 A  
HETATM    9  O   UNL     1      -9.593   7.876  72.492  1.00  0.00    -0.175 OA 
HETATM   10  C   UNL     1      -9.782   7.215  71.307  1.00  0.00    -0.170 A  
BRANCH   5  11
HETATM   11  C   UNL     1     -10.332   5.041  67.674  1.00  0.00    -0.131 C  
HETATM   12  C   UNL     1      -9.449   4.998  66.665  1.00  0.00    -0.148 C  
HETATM   13  C   UNL     1      -9.665   4.215  65.409  1.00  0.00    -0.201 C  
ENDBRANCH   5  11
ENDBRANCH   2   3
TORSDOF 2
ENDMDL
MODEL      171
REMARK 921   NORMALIZED FREE ENERGY PREDICTED BY IDOCK:   -2.31 KCAL/MOL
REMARK 922        TOTAL FREE ENERGY PREDICTED BY IDOCK:   -2.70 KCAL/MOL
REMARK 923 INTER-LIGAND FREE ENERGY PREDICTED BY IDOCK:   -2.50 KCAL/MOL
REMARK 924 INTRA-LIGAND FREE ENERGY PREDICTED BY IDOCK:   -0.20 KCAL/MOL
REMARK 927      BINDING AFFINITY PREDICTED BY RF-SCORE:    0.00 PKD
ROOT
HETATM    1  C   UNL     1      -7.627   4.599  70.447  1.00  0.00    -0.054 C  
HETATM    2  O   UNL     1      -9.045   4.637  70.360  1.00  0.00    -0.102 OA 
ENDROOT
BRANCH   2   3
HETATM    3  C   UNL     1      -9.594   4.927  69.138  1.00  0.00    -0.163 A  
HETATM    4  C   UNL     1      -9.383   4.188  67.969  1.00  0.00    -0.213 A  
HETATM    5  C   UNL     1      -9.974   4.569  66.753  1.00  0.00    -0.240 A  
HETATM    6  H   UNL     1     -11.160   7.578  70.171  1.00  0.00     0.000 HD 
HETATM    7  C   UNL     1     -10.779   5.715  66.721  1.00  0.00    -0.358 A  
HETATM    8  C   UNL     1     -11.003   6.461  67.881  1.00  0.00    -0.416 A  
HETATM    9  O   UNL     1     -10.609   6.806  70.213  1.00  0.00    -0.201 OA 
HETATM   10  C   UNL     1     -10.408   6.066  69.077  1.00  0.00    -0.225 A  
BRANCH   5  11
HETATM   11  C   UNL     1      -9.700   3.856  65.493  1.00  0.00    -0.176 C  
HETATM   12  C   UNL     1     -10.360   4.052  64.341  1.00  0.00    -0.216 C  
HETATM   13  C   UNL     1     -10.091   3.276  63.091  1.00  0.00    -0.141 C  
ENDBRANCH   5  11
ENDBRANCH   2   3
TORSDOF 2
ENDMDL
MODEL      172
REMARK 921   NORMALIZED FREE ENERGY PREDICTED BY IDOCK:   -2.29 KCAL/MOL
REMARK 922        TOTAL FREE ENERGY PREDICTED BY IDOCK:   -2.68 KCAL/MOL
REMARK 923 INTER-LIGAND FREE ENERGY PREDICTED BY IDOCK:   -2.49 KCAL/MOL
REMARK 924 INTRA-LIGAND FREE ENERGY PREDICTED BY IDOCK:   -0.19 KCAL/MOL
REMARK 927      BINDING AFFINITY PREDICTED BY RF-SCORE:    0.00 PKD
ROOT
HETATM    1  C   UNL     1     -11.396   8.904  70.808  1.00  0.00    -0.278 C  
HETATM    2  O   UNL     1     -10.398   9.641  70.115  1.00  0.00    -0.229 OA 
ENDROOT
BRANCH   2   3
HETATM    3  C   UNL     1     -10.292   9.442  68.763  1.00  0.00    -0.209 A  
HETATM    4  C   UNL     1      -9.773   8.290  68.160  1.00  0.00    -0.178 A  
HETATM    5  C   UNL     1      -9.686   8.179  66.763  1.00  0.00    -0.303 A  
HETATM    6  H   UNL     1     -11.512  12.344  67.969  1.00  0.00     0.000 HD 
HETATM    7  C   UNL     1     -10.121   9.248  65.969  1.00  0.00    -0.262 A  
HETATM    8  C   UNL     1     -10.645  10.403  66.556  1.00  0.00    -0.220 A  
HETATM    9  O   UNL     1     -11.220  11.632  68.524  1.00  0.00    -0.214 OA 
HETATM   10  C   UNL     1     -10.724  10.493  67.944  1.00  0.00    -0.260 A  
BRANCH   5  11
HETATM   11  C   UNL     1      -9.067   7.013  66.108  1.00  0.00    -0.149 C  
HETATM   12  C   UNL     1      -8.272   7.071  65.029  1.00  0.00    -0.091 C  
HETATM   13  C   UNL     1      -7.699   5.864  64.357  1.00  0.00    -0.099 C  
ENDBRANCH   5  11
ENDBRANCH   2   3
TORSDOF 2
ENDMDL
MODEL      173
REMARK 921   NORMALIZED FREE ENERGY PREDICTED BY IDOCK:   -2.27 KCAL/MOL
REMARK 922        TOTAL FREE ENERGY PREDICTED BY IDOCK:   -2.66 KCAL/MOL
REMARK 923 INTER-LIGAND FREE ENERGY PREDICTED BY IDOCK:   -2.47 KCAL/MOL
REMARK 924 INTRA-LIGAND FREE ENERGY PREDICTED BY IDOCK:   -0.20 KCAL/MOL
REMARK 927      BINDING AFFINITY PREDICTED BY RF-SCORE:    0.00 PKD
ROOT
HETATM    1  C   UNL     1     -11.038   7.658  72.953  1.00  0.00    -0.393 C  
HETATM    2  O   UNL     1      -9.694   7.371  72.592  1.00  0.00    -0.151 OA 
ENDROOT
BRANCH   2   3
HETATM    3  C   UNL     1      -9.396   7.328  71.254  1.00  0.00    -0.154 A  
HETATM    4  C   UNL     1      -9.946   6.423  70.339  1.00  0.00    -0.213 A  
HETATM    5  C   UNL     1      -9.569   6.438  68.986  1.00  0.00    -0.136 A  
HETATM    6  H   UNL     1      -7.256   9.766  71.378  1.00  0.00     0.000 HD 
HETATM    7  C   UNL     1      -8.619   7.375  68.559  1.00  0.00    -0.128 A  
HETATM    8  C   UNL     1      -8.064   8.288  69.460  1.00  0.00    -0.114 A  
HETATM    9  O   UNL     1      -7.896   9.137  71.688  1.00  0.00    -0.340 OA 
HETATM   10  C   UNL     1      -8.452   8.256  70.797  1.00  0.00    -0.132 A  
BRANCH   5  11
HETATM   11  C   UNL     1     -10.070   5.443  68.023  1.00  0.00    -0.224 C  
HETATM   12  C   UNL     1      -9.948   5.536  66.690  1.00  0.00    -0.213 C  
HETATM   13  C   UNL     1     -10.513   4.533  65.735  1.00  0.00    -0.268 C  
ENDBRANCH   5  11
ENDBRANCH   2   3
TORSDOF 2
ENDMDL
MODEL      174
REMARK 921   NORMALIZED FREE ENERGY PREDICTED BY IDOCK:   -2.27 KCAL/MOL
REMARK 922        TOTAL FREE ENERGY PREDICTED BY IDOCK:   -2.66 KCAL/MOL
REMARK 923 INTER-LIGAND FREE ENERGY PREDICTED BY IDOCK:   -2.49 KCAL/MOL
REMARK 924 INTRA-LIGAND FREE ENERGY PREDICTED BY IDOCK:   -0.17 KCAL/MOL
REMARK 927      BINDING AFFINITY PREDICTED BY RF-SCORE:    0.00 PKD
ROOT
HETATM    1  C   UNL     1     -10.956   6.984  73.180  1.00  0.00    -0.281 C  
HETATM    2  O   UNL     1     -11.354   7.816  72.099  1.00  0.00    -0.267 OA 
ENDROOT
BRANCH   2   3
HETATM    3  C   UNL     1     -10.463   7.982  71.070  1.00  0.00    -0.203 A  
HETATM    4  C   UNL     1      -9.378   8.866  71.084  1.00  0.00    -0.326 A  
HETATM    5  C   UNL     1      -8.524   8.985  69.974  1.00  0.00    -0.149 A  
HETATM    6  H   UNL     1     -11.912   5.834  69.113  1.00  0.00     0.000 HD 
HETATM    7  C   UNL     1      -8.779   8.206  68.838  1.00  0.00    -0.137 A  
HETATM    8  C   UNL     1      -9.855   7.316  68.811  1.00  0.00    -0.161 A  
HETATM    9  O   UNL     1     -11.758   6.355  69.892  1.00  0.00    -0.426 OA 
HETATM   10  C   UNL     1     -10.690   7.213  69.922  1.00  0.00    -0.239 A  
BRANCH   5  11
HETATM   11  C   UNL     1      -7.428   9.967  69.933  1.00  0.00    -0.171 C  
HETATM   12  C   UNL     1      -7.146  10.759  68.887  1.00  0.00    -0.082 C  
HETATM   13  C   UNL     1      -5.993  11.712  68.858  1.00  0.00    -0.050 C  
ENDBRANCH   5  11
ENDBRANCH   2   3
TORSDOF 2
ENDMDL
MODEL      175
REMARK 921   NORMALIZED FREE ENERGY PREDICTED BY IDOCK:   -2.25 KCAL/MOL
REMARK 922        TOTAL FREE ENERGY PREDICTED BY IDOCK:   -2.64 KCAL/MOL
REMARK 923 INTER-LIGAND FREE ENERGY PREDICTED BY IDOCK:   -2.73 KCAL/MOL
REMARK 924 INTRA-LIGAND FREE ENERGY PREDICTED BY IDOCK:    0.09 KCAL/MOL
REMARK 927      BINDING AFFINITY PREDICTED BY RF-SCORE:    0.00 PKD
ROOT
HETATM    1  C   UNL     1     -11.477  12.403  67.031  1.00  0.00    -0.358 C  
HETATM    2  O   UNL     1     -11.738  11.072  67.454  1.00  0.00    -0.539 OA 
ENDROOT
BRANCH   2   3
HETATM    3  C   UNL     1     -10.660  10.292  67.785  1.00  0.00    -0.250 A  
HETATM    4  C   UNL     1     -10.272   9.975  69.091  1.00  0.00    -0.224 A  
HETATM    5  C   UNL     1      -9.140   9.181  69.340  1.00  0.00    -0.148 A  
HETATM    6  H   UNL     1      -9.736   9.794  64.712  1.00  0.00     0.000 HD 
HETATM    7  C   UNL     1      -8.390   8.713  68.253  1.00  0.00    -0.127 A  
HETATM    8  C   UNL     1      -8.767   9.018  66.943  1.00  0.00    -0.132 A  
HETATM    9  O   UNL     1     -10.256  10.124  65.435  1.00  0.00    -0.298 OA 
HETATM   10  C   UNL     1      -9.894   9.806  66.718  1.00  0.00    -0.208 A  
BRANCH   5  11
HETATM   11  C   UNL     1      -8.663   8.903  70.705  1.00  0.00    -0.245 C  
HETATM   12  C   UNL     1      -7.374   8.792  71.061  1.00  0.00    -0.096 C  
HETATM   13  C   UNL     1      -6.924   8.460  72.448  1.00  0.00    -0.108 C  
ENDBRANCH   5  11
ENDBRANCH   2   3
TORSDOF 2
ENDMDL
MODEL      176
REMARK 921   NORMALIZED FREE ENERGY PREDICTED BY IDOCK:   -2.25 KCAL/MOL
REMARK 922        TOTAL FREE ENERGY PREDICTED BY IDOCK:   -2.64 KCAL/MOL
REMARK 923 INTER-LIGAND FREE ENERGY PREDICTED BY IDOCK:   -2.45 KCAL/MOL
REMARK 924 INTRA-LIGAND FREE ENERGY PREDICTED BY IDOCK:   -0.19 KCAL/MOL
REMARK 927      BINDING AFFINITY PREDICTED BY RF-SCORE:    0.00 PKD
ROOT
HETATM    1  C   UNL     1      -7.366   2.988  73.066  1.00  0.00    -0.046 C  
HETATM    2  O   UNL     1      -7.614   2.740  71.689  1.00  0.00    -0.043 OA 
ENDROOT
BRANCH   2   3
HETATM    3  C   UNL     1      -8.493   3.574  71.047  1.00  0.00    -0.067 A  
HETATM    4  C   UNL     1      -9.383   4.446  71.685  1.00  0.00    -0.199 A  
HETATM    5  C   UNL     1     -10.262   5.254  70.946  1.00  0.00    -0.304 A  
HETATM    6  H   UNL     1      -7.639   2.617  68.064  1.00  0.00     0.000 HD 
HETATM    7  C   UNL     1     -10.245   5.171  69.547  1.00  0.00    -0.318 A  
HETATM    8  C   UNL     1      -9.359   4.310  68.896  1.00  0.00    -0.222 A  
HETATM    9  O   UNL     1      -7.637   2.656  69.013  1.00  0.00    -0.047 OA 
HETATM   10  C   UNL     1      -8.494   3.517  69.647  1.00  0.00    -0.060 A  
BRANCH   5  11
HETATM   11  C   UNL     1     -11.265   6.116  71.595  1.00  0.00    -0.342 C  
HETATM   12  C   UNL     1     -12.156   6.881  70.945  1.00  0.00    -0.424 C  
HETATM   13  C   UNL     1     -13.129   7.784  71.634  1.00  0.00    -0.378 C  
ENDBRANCH   5  11
ENDBRANCH   2   3
TORSDOF 2
ENDMDL
MODEL      177
REMARK 921   NORMALIZED FREE ENERGY PREDICTED BY IDOCK:   -2.24 KCAL/MOL
REMARK 922        TOTAL FREE ENERGY PREDICTED BY IDOCK:   -2.63 KCAL/MOL
REMARK 923 INTER-LIGAND FREE ENERGY PREDICTED BY IDOCK:   -2.43 KCAL/MOL
REMARK 924 INTRA-LIGAND FREE ENERGY PREDICTED BY IDOCK:   -0.20 KCAL/MOL
REMARK 927      BINDING AFFINITY PREDICTED BY RF-SCORE:    0.00 PKD
ROOT
HETATM    1  C   UNL     1      -6.982   3.450  69.649  1.00  0.00    -0.041 C  
HETATM    2  O   UNL     1      -7.711   4.316  70.508  1.00  0.00    -0.051 OA 
ENDROOT
BRANCH   2   3
HETATM    3  C   UNL     1      -8.683   5.097  69.939  1.00  0.00    -0.103 A  
HETATM    4  C   UNL     1      -8.496   5.925  68.826  1.00  0.00    -0.111 A  
HETATM    5  C   UNL     1      -9.547   6.707  68.318  1.00  0.00    -0.125 A  
HETATM    6  H   UNL     1     -10.989   4.243  72.060  1.00  0.00     0.000 HD 
HETATM    7  C   UNL     1     -10.796   6.655  68.951  1.00  0.00    -0.326 A  
HETATM    8  C   UNL     1     -10.999   5.830  70.060  1.00  0.00    -0.382 A  
HETATM    9  O   UNL     1     -10.134   4.267  71.647  1.00  0.00    -0.186 OA 
HETATM   10  C   UNL     1      -9.944   5.062  70.547  1.00  0.00    -0.242 A  
BRANCH   5  11
HETATM   11  C   UNL     1      -9.353   7.648  67.202  1.00  0.00    -0.180 C  
HETATM   12  C   UNL     1     -10.192   8.646  66.884  1.00  0.00    -0.367 C  
HETATM   13  C   UNL     1      -9.993   9.554  65.713  1.00  0.00    -0.316 C  
ENDBRANCH   5  11
ENDBRANCH   2   3
TORSDOF 2
ENDMDL
MODEL      178
REMARK 921   NORMALIZED FREE ENERGY PREDICTED BY IDOCK:   -2.20 KCAL/MOL
REMARK 922        TOTAL FREE ENERGY PREDICTED BY IDOCK:   -2.59 KCAL/MOL
REMARK 923 INTER-LIGAND FREE ENERGY PREDICTED BY IDOCK:   -2.43 KCAL/MOL
REMARK 924 INTRA-LIGAND FREE ENERGY PREDICTED BY IDOCK:   -0.16 KCAL/MOL
REMARK 927      BINDING AFFINITY PREDICTED BY RF-SCORE:    0.00 PKD
ROOT
HETATM    1  C   UNL     1      -9.789   4.364  69.297  1.00  0.00    -0.148 C  
HETATM    2  O   UNL     1     -10.167   5.526  68.572  1.00  0.00    -0.169 OA 
ENDROOT
BRANCH   2   3
HETATM    3  C   UNL     1      -9.810   6.741  69.098  1.00  0.00    -0.157 A  
HETATM    4  C   UNL     1      -9.080   6.920  70.278  1.00  0.00    -0.153 A  
HETATM    5  C   UNL     1      -8.774   8.206  70.754  1.00  0.00    -0.145 A  
HETATM    6  H   UNL     1     -11.257   8.477  66.766  1.00  0.00     0.000 HD 
HETATM    7  C   UNL     1      -9.220   9.319  70.031  1.00  0.00    -0.231 A  
HETATM    8  C   UNL     1      -9.946   9.156  68.848  1.00  0.00    -0.189 A  
HETATM    9  O   UNL     1     -10.967   7.709  67.244  1.00  0.00    -0.245 OA 
HETATM   10  C   UNL     1     -10.238   7.873  68.393  1.00  0.00    -0.202 A  
BRANCH   5  11
HETATM   11  C   UNL     1      -8.081   8.420  72.036  1.00  0.00    -0.194 C  
HETATM   12  C   UNL     1      -8.551   8.044  73.236  1.00  0.00    -0.297 C  
HETATM   13  C   UNL     1      -7.846   8.321  74.525  1.00  0.00    -0.300 C  
ENDBRANCH   5  11
ENDBRANCH   2   3
TORSDOF 2
ENDMDL
MODEL      179
REMARK 921   NORMALIZED FREE ENERGY PREDICTED BY IDOCK:   -2.19 KCAL/MOL
REMARK 922        TOTAL FREE ENERGY PREDICTED BY IDOCK:   -2.58 KCAL/MOL
REMARK 923 INTER-LIGAND FREE ENERGY PREDICTED BY IDOCK:   -2.38 KCAL/MOL
REMARK 924 INTRA-LIGAND FREE ENERGY PREDICTED BY IDOCK:   -0.19 KCAL/MOL
REMARK 927      BINDING AFFINITY PREDICTED BY RF-SCORE:    0.00 PKD
ROOT
HETATM    1  C   UNL     1     -11.526  11.486  67.741  1.00  0.00    -0.286 C  
HETATM    2  O   UNL     1     -10.892  11.076  66.537  1.00  0.00    -0.261 OA 
ENDROOT
BRANCH   2   3
HETATM    3  C   UNL     1     -10.063   9.986  66.600  1.00  0.00    -0.227 A  
HETATM    4  C   UNL     1     -10.490   8.662  66.751  1.00  0.00    -0.298 A  
HETATM    5  C   UNL     1      -9.567   7.606  66.824  1.00  0.00    -0.269 A  
HETATM    6  H   UNL     1      -7.327  11.716  66.341  1.00  0.00     0.000 HD 
HETATM    7  C   UNL     1      -8.199   7.896  66.752  1.00  0.00    -0.116 A  
HETATM    8  C   UNL     1      -7.757   9.212  66.596  1.00  0.00    -0.097 A  
HETATM    9  O   UNL     1      -8.259  11.540  66.392  1.00  0.00    -0.161 OA 
HETATM   10  C   UNL     1      -8.689  10.246  66.525  1.00  0.00    -0.131 A  
BRANCH   5  11
HETATM   11  C   UNL     1      -9.988   6.215  67.067  1.00  0.00    -0.200 C  
HETATM   12  C   UNL     1      -9.189   5.142  66.962  1.00  0.00    -0.117 C  
HETATM   13  C   UNL     1      -9.659   3.737  67.166  1.00  0.00    -0.218 C  
ENDBRANCH   5  11
ENDBRANCH   2   3
TORSDOF 2
ENDMDL
MODEL      180
REMARK 921   NORMALIZED FREE ENERGY PREDICTED BY IDOCK:   -2.19 KCAL/MOL
REMARK 922        TOTAL FREE ENERGY PREDICTED BY IDOCK:   -2.57 KCAL/MOL
REMARK 923 INTER-LIGAND FREE ENERGY PREDICTED BY IDOCK:   -2.38 KCAL/MOL
REMARK 924 INTRA-LIGAND FREE ENERGY PREDICTED BY IDOCK:   -0.19 KCAL/MOL
REMARK 927      BINDING AFFINITY PREDICTED BY RF-SCORE:    0.00 PKD
ROOT
HETATM    1  C   UNL     1      -7.057   9.045  67.030  1.00  0.00    -0.079 C  
HETATM    2  O   UNL     1      -8.371   9.045  66.491  1.00  0.00    -0.112 OA 
ENDROOT
BRANCH   2   3
HETATM    3  C   UNL     1      -9.042   7.849  66.466  1.00  0.00    -0.170 A  
HETATM    4  C   UNL     1      -8.582   6.685  65.840  1.00  0.00    -0.153 A  
HETATM    5  C   UNL     1      -9.345   5.506  65.849  1.00  0.00    -0.140 A  
HETATM    6  H   UNL     1     -11.601   8.942  68.139  1.00  0.00     0.000 HD 
HETATM    7  C   UNL     1     -10.590   5.510  66.490  1.00  0.00    -0.343 A  
HETATM    8  C   UNL     1     -11.061   6.663  67.123  1.00  0.00    -0.427 A  
HETATM    9  O   UNL     1     -10.756   8.961  67.706  1.00  0.00    -0.223 OA 
HETATM   10  C   UNL     1     -10.289   7.822  67.104  1.00  0.00    -0.319 A  
BRANCH   5  11
HETATM   11  C   UNL     1      -8.921   4.294  65.126  1.00  0.00    -0.139 C  
HETATM   12  C   UNL     1      -9.748   3.448  64.494  1.00  0.00    -0.167 C  
HETATM   13  C   UNL     1      -9.291   2.198  63.811  1.00  0.00    -0.106 C  
ENDBRANCH   5  11
ENDBRANCH   2   3
TORSDOF 2
ENDMDL
MODEL      181
REMARK 921   NORMALIZED FREE ENERGY PREDICTED BY IDOCK:   -2.18 KCAL/MOL
REMARK 922        TOTAL FREE ENERGY PREDICTED BY IDOCK:   -2.56 KCAL/MOL
REMARK 923 INTER-LIGAND FREE ENERGY PREDICTED BY IDOCK:   -2.40 KCAL/MOL
REMARK 924 INTRA-LIGAND FREE ENERGY PREDICTED BY IDOCK:   -0.16 KCAL/MOL
REMARK 927      BINDING AFFINITY PREDICTED BY RF-SCORE:    0.00 PKD
ROOT
HETATM    1  C   UNL     1      -7.248   6.766  67.663  1.00  0.00    -0.094 C  
HETATM    2  O   UNL     1      -8.635   7.069  67.608  1.00  0.00    -0.122 OA 
ENDROOT
BRANCH   2   3
HETATM    3  C   UNL     1      -9.366   6.883  68.753  1.00  0.00    -0.129 A  
HETATM    4  C   UNL     1      -8.868   7.023  70.053  1.00  0.00    -0.142 A  
HETATM    5  C   UNL     1      -9.687   6.795  71.172  1.00  0.00    -0.181 A  
HETATM    6  H   UNL     1     -12.105   6.097  67.196  1.00  0.00     0.000 HD 
HETATM    7  C   UNL     1     -11.020   6.415  70.970  1.00  0.00    -0.328 A  
HETATM    8  C   UNL     1     -11.532   6.276  69.678  1.00  0.00    -0.425 A  
HETATM    9  O   UNL     1     -11.198   6.352  67.313  1.00  0.00    -0.364 OA 
HETATM   10  C   UNL     1     -10.704   6.507  68.581  1.00  0.00    -0.271 A  
BRANCH   5  11
HETATM   11  C   UNL     1      -9.164   6.854  72.548  1.00  0.00    -0.149 C  
HETATM   12  C   UNL     1      -7.864   6.821  72.878  1.00  0.00    -0.098 C  
HETATM   13  C   UNL     1      -7.366   6.831  74.288  1.00  0.00    -0.099 C  
ENDBRANCH   5  11
ENDBRANCH   2   3
TORSDOF 2
ENDMDL
MODEL      182
REMARK 921   NORMALIZED FREE ENERGY PREDICTED BY IDOCK:   -2.17 KCAL/MOL
REMARK 922        TOTAL FREE ENERGY PREDICTED BY IDOCK:   -2.55 KCAL/MOL
REMARK 923 INTER-LIGAND FREE ENERGY PREDICTED BY IDOCK:   -2.39 KCAL/MOL
REMARK 924 INTRA-LIGAND FREE ENERGY PREDICTED BY IDOCK:   -0.16 KCAL/MOL
REMARK 927      BINDING AFFINITY PREDICTED BY RF-SCORE:    0.00 PKD
ROOT
HETATM    1  C   UNL     1      -6.904   5.661  68.775  1.00  0.00    -0.059 C  
HETATM    2  O   UNL     1      -7.567   6.030  67.574  1.00  0.00    -0.087 OA 
ENDROOT
BRANCH   2   3
HETATM    3  C   UNL     1      -8.539   6.993  67.661  1.00  0.00    -0.122 A  
HETATM    4  C   UNL     1      -9.150   7.410  68.849  1.00  0.00    -0.136 A  
HETATM    5  C   UNL     1     -10.152   8.394  68.843  1.00  0.00    -0.209 A  
HETATM    6  H   UNL     1      -8.645   7.556  64.464  1.00  0.00     0.000 HD 
HETATM    7  C   UNL     1     -10.545   8.953  67.620  1.00  0.00    -0.292 A  
HETATM    8  C   UNL     1      -9.941   8.550  66.426  1.00  0.00    -0.314 A  
HETATM    9  O   UNL     1      -8.367   7.162  65.283  1.00  0.00    -0.136 OA 
HETATM   10  C   UNL     1      -8.948   7.574  66.454  1.00  0.00    -0.167 A  
BRANCH   5  11
HETATM   11  C   UNL     1     -10.868   8.789  70.068  1.00  0.00    -0.231 C  
HETATM   12  C   UNL     1     -10.740   8.186  71.260  1.00  0.00    -0.270 C  
HETATM   13  C   UNL     1     -11.519   8.578  72.475  1.00  0.00    -0.368 C  
ENDBRANCH   5  11
ENDBRANCH   2   3
TORSDOF 2
ENDMDL
MODEL      183
REMARK 921   NORMALIZED FREE ENERGY PREDICTED BY IDOCK:   -2.06 KCAL/MOL
REMARK 922        TOTAL FREE ENERGY PREDICTED BY IDOCK:   -2.43 KCAL/MOL
REMARK 923 INTER-LIGAND FREE ENERGY PREDICTED BY IDOCK:   -2.67 KCAL/MOL
REMARK 924 INTRA-LIGAND FREE ENERGY PREDICTED BY IDOCK:    0.24 KCAL/MOL
REMARK 927      BINDING AFFINITY PREDICTED BY RF-SCORE:    0.00 PKD
ROOT
HETATM    1  C   UNL     1     -14.132   7.861  71.473  1.00  0.00    -0.395 C  
HETATM    2  O   UNL     1     -13.187   6.957  70.918  1.00  0.00    -0.169 OA 
ENDROOT
BRANCH   2   3
HETATM    3  C   UNL     1     -11.918   6.974  71.437  1.00  0.00    -0.340 A  
HETATM    4  C   UNL     1     -11.350   5.945  72.197  1.00  0.00    -0.344 A  
HETATM    5  C   UNL     1     -10.045   6.055  72.705  1.00  0.00    -0.198 A  
HETATM    6  H   UNL     1     -11.201   9.927  70.294  1.00  0.00     0.000 HD 
HETATM    7  C   UNL     1      -9.313   7.221  72.447  1.00  0.00    -0.166 A  
HETATM    8  C   UNL     1      -9.866   8.255  71.686  1.00  0.00    -0.263 A  
HETATM    9  O   UNL     1     -11.714   9.146  70.461  1.00  0.00    -0.247 OA 
HETATM   10  C   UNL     1     -11.161   8.126  71.191  1.00  0.00    -0.257 A  
BRANCH   5  11
HETATM   11  C   UNL     1      -9.456   5.024  73.576  1.00  0.00    -0.137 C  
HETATM   12  C   UNL     1      -8.448   4.209  73.229  1.00  0.00    -0.089 C  
HETATM   13  C   UNL     1      -7.905   3.137  74.120  1.00  0.00    -0.065 C  
ENDBRANCH   5  11
ENDBRANCH   2   3
TORSDOF 2
ENDMDL
MODEL      184
REMARK 921   NORMALIZED FREE ENERGY PREDICTED BY IDOCK:   -2.01 KCAL/MOL
REMARK 922        TOTAL FREE ENERGY PREDICTED BY IDOCK:   -2.37 KCAL/MOL
REMARK 923 INTER-LIGAND FREE ENERGY PREDICTED BY IDOCK:   -2.24 KCAL/MOL
REMARK 924 INTRA-LIGAND FREE ENERGY PREDICTED BY IDOCK:   -0.13 KCAL/MOL
REMARK 927      BINDING AFFINITY PREDICTED BY RF-SCORE:    0.00 PKD
ROOT
HETATM    1  C   UNL     1      -7.417   9.397  67.058  1.00  0.00    -0.091 C  
HETATM    2  O   UNL     1      -8.508   8.487  67.052  1.00  0.00    -0.112 OA 
ENDROOT
BRANCH   2   3
HETATM    3  C   UNL     1      -9.248   8.381  68.201  1.00  0.00    -0.137 A  
HETATM    4  C   UNL     1     -10.275   9.255  68.576  1.00  0.00    -0.225 A  
HETATM    5  C   UNL     1     -10.971   9.082  69.784  1.00  0.00    -0.177 A  
HETATM    6  H   UNL     1      -7.680   5.754  69.289  1.00  0.00     0.000 HD 
HETATM    7  C   UNL     1     -10.615   8.018  70.623  1.00  0.00    -0.227 A  
HETATM    8  C   UNL     1      -9.595   7.135  70.261  1.00  0.00    -0.169 A  
HETATM    9  O   UNL     1      -7.904   6.471  68.708  1.00  0.00    -0.106 OA 
HETATM   10  C   UNL     1      -8.918   7.323  69.058  1.00  0.00    -0.134 A  
BRANCH   5  11
HETATM   11  C   UNL     1     -11.997  10.035  70.239  1.00  0.00    -0.264 C  
HETATM   12  C   UNL     1     -11.766  11.319  70.556  1.00  0.00    -0.345 C  
HETATM   13  C   UNL     1     -12.821  12.249  71.064  1.00  0.00    -0.251 C  
ENDBRANCH   5  11
ENDBRANCH   2   3
TORSDOF 2
ENDMDL
MODEL      185
REMARK 921   NORMALIZED FREE ENERGY PREDICTED BY IDOCK:   -2.01 KCAL/MOL
REMARK 922        TOTAL FREE ENERGY PREDICTED BY IDOCK:   -2.37 KCAL/MOL
REMARK 923 INTER-LIGAND FREE ENERGY PREDICTED BY IDOCK:   -2.19 KCAL/MOL
REMARK 924 INTRA-LIGAND FREE ENERGY PREDICTED BY IDOCK:   -0.18 KCAL/MOL
REMARK 927      BINDING AFFINITY PREDICTED BY RF-SCORE:    0.00 PKD
ROOT
HETATM    1  C   UNL     1      -8.232   6.840  71.704  1.00  0.00    -0.110 C  
HETATM    2  O   UNL     1      -9.337   6.159  71.127  1.00  0.00    -0.162 OA 
ENDROOT
BRANCH   2   3
HETATM    3  C   UNL     1      -9.508   6.271  69.771  1.00  0.00    -0.151 A  
HETATM    4  C   UNL     1      -8.470   6.364  68.837  1.00  0.00    -0.121 A  
HETATM    5  C   UNL     1      -8.739   6.495  67.464  1.00  0.00    -0.114 A  
HETATM    6  H   UNL     1     -12.753   6.269  69.910  1.00  0.00     0.000 HD 
HETATM    7  C   UNL     1     -10.072   6.541  67.036  1.00  0.00    -0.236 A  
HETATM    8  C   UNL     1     -11.119   6.444  67.956  1.00  0.00    -0.365 A  
HETATM    9  O   UNL     1     -11.855   6.240  70.221  1.00  0.00    -0.344 OA 
HETATM   10  C   UNL     1     -10.831   6.315  69.313  1.00  0.00    -0.342 A  
BRANCH   5  11
HETATM   11  C   UNL     1      -7.666   6.679  66.472  1.00  0.00    -0.102 C  
HETATM   12  C   UNL     1      -7.617   7.672  65.570  1.00  0.00    -0.092 C  
HETATM   13  C   UNL     1      -6.539   7.803  64.541  1.00  0.00    -0.048 C  
ENDBRANCH   5  11
ENDBRANCH   2   3
TORSDOF 2
ENDMDL
MODEL      186
REMARK 921   NORMALIZED FREE ENERGY PREDICTED BY IDOCK:   -2.00 KCAL/MOL
REMARK 922        TOTAL FREE ENERGY PREDICTED BY IDOCK:   -2.36 KCAL/MOL
REMARK 923 INTER-LIGAND FREE ENERGY PREDICTED BY IDOCK:   -2.18 KCAL/MOL
REMARK 924 INTRA-LIGAND FREE ENERGY PREDICTED BY IDOCK:   -0.18 KCAL/MOL
REMARK 927      BINDING AFFINITY PREDICTED BY RF-SCORE:    0.00 PKD
ROOT
HETATM    1  C   UNL     1      -8.168   9.181  68.594  1.00  0.00    -0.114 C  
HETATM    2  O   UNL     1      -7.582   7.887  68.586  1.00  0.00    -0.097 OA 
ENDROOT
BRANCH   2   3
HETATM    3  C   UNL     1      -8.381   6.831  68.944  1.00  0.00    -0.121 A  
HETATM    4  C   UNL     1      -9.107   6.744  70.137  1.00  0.00    -0.155 A  
HETATM    5  C   UNL     1      -9.889   5.614  70.430  1.00  0.00    -0.253 A  
HETATM    6  H   UNL     1      -7.765   5.108  66.261  1.00  0.00     0.000 HD 
HETATM    7  C   UNL     1      -9.927   4.559  69.509  1.00  0.00    -0.235 A  
HETATM    8  C   UNL     1      -9.211   4.634  68.311  1.00  0.00    -0.166 A  
HETATM    9  O   UNL     1      -7.723   5.832  66.875  1.00  0.00    -0.098 OA 
HETATM   10  C   UNL     1      -8.442   5.764  68.039  1.00  0.00    -0.106 A  
BRANCH   5  11
HETATM   11  C   UNL     1     -10.594   5.462  71.714  1.00  0.00    -0.286 C  
HETATM   12  C   UNL     1     -10.267   4.578  72.670  1.00  0.00    -0.236 C  
HETATM   13  C   UNL     1     -11.034   4.414  73.943  1.00  0.00    -0.315 C  
ENDBRANCH   5  11
ENDBRANCH   2   3
TORSDOF 2
ENDMDL
MODEL      187
REMARK 921   NORMALIZED FREE ENERGY PREDICTED BY IDOCK:   -1.99 KCAL/MOL
REMARK 922        TOTAL FREE ENERGY PREDICTED BY IDOCK:   -2.35 KCAL/MOL
REMARK 923 INTER-LIGAND FREE ENERGY PREDICTED BY IDOCK:   -2.16 KCAL/MOL
REMARK 924 INTRA-LIGAND FREE ENERGY PREDICTED BY IDOCK:   -0.19 KCAL/MOL
REMARK 927      BINDING AFFINITY PREDICTED BY RF-SCORE:    0.00 PKD
ROOT
HETATM    1  C   UNL     1     -12.285   9.246  70.962  1.00  0.00    -0.255 C  
HETATM    2  O   UNL     1     -11.485   8.561  70.009  1.00  0.00    -0.098 OA 
ENDROOT
BRANCH   2   3
HETATM    3  C   UNL     1     -10.709   7.526  70.463  1.00  0.00    -0.235 A  
HETATM    4  C   UNL     1      -9.840   7.597  71.558  1.00  0.00    -0.192 A  
HETATM    5  C   UNL     1      -9.067   6.489  71.944  1.00  0.00    -0.148 A  
HETATM    6  H   UNL     1     -11.689   5.434  68.181  1.00  0.00     0.000 HD 
HETATM    7  C   UNL     1      -9.170   5.302  71.207  1.00  0.00    -0.178 A  
HETATM    8  C   UNL     1     -10.037   5.215  70.115  1.00  0.00    -0.342 A  
HETATM    9  O   UNL     1     -11.631   6.249  68.665  1.00  0.00    -0.125 OA 
HETATM   10  C   UNL     1     -10.795   6.324  69.748  1.00  0.00    -0.336 A  
BRANCH   5  11
HETATM   11  C   UNL     1      -8.085   6.564  73.038  1.00  0.00    -0.107 C  
HETATM   12  C   UNL     1      -6.945   5.858  73.097  1.00  0.00    -0.084 C  
HETATM   13  C   UNL     1      -5.992   5.919  74.247  1.00  0.00    -0.063 C  
ENDBRANCH   5  11
ENDBRANCH   2   3
TORSDOF 2
ENDMDL
MODEL      188
REMARK 921   NORMALIZED FREE ENERGY PREDICTED BY IDOCK:   -1.99 KCAL/MOL
REMARK 922        TOTAL FREE ENERGY PREDICTED BY IDOCK:   -2.35 KCAL/MOL
REMARK 923 INTER-LIGAND FREE ENERGY PREDICTED BY IDOCK:   -2.18 KCAL/MOL
REMARK 924 INTRA-LIGAND FREE ENERGY PREDICTED BY IDOCK:   -0.16 KCAL/MOL
REMARK 927      BINDING AFFINITY PREDICTED BY RF-SCORE:    0.00 PKD
ROOT
HETATM    1  C   UNL     1     -10.821   5.396  70.883  1.00  0.00    -0.120 C  
HETATM    2  O   UNL     1     -10.653   6.676  71.476  1.00  0.00    -0.218 OA 
ENDROOT
BRANCH   2   3
HETATM    3  C   UNL     1     -10.432   7.737  70.636  1.00  0.00    -0.213 A  
HETATM    4  C   UNL     1      -9.367   7.835  69.733  1.00  0.00    -0.153 A  
HETATM    5  C   UNL     1      -9.207   8.970  68.921  1.00  0.00    -0.140 A  
HETATM    6  H   UNL     1     -12.996   9.438  71.671  1.00  0.00     0.000 HD 
HETATM    7  C   UNL     1     -10.130  10.017  69.032  1.00  0.00    -0.211 A  
HETATM    8  C   UNL     1     -11.200   9.932  69.926  1.00  0.00    -0.298 A  
HETATM    9  O   UNL     1     -12.379   8.718  71.614  1.00  0.00    -0.304 OA 
HETATM   10  C   UNL     1     -11.342   8.798  70.722  1.00  0.00    -0.272 A  
BRANCH   5  11
HETATM   11  C   UNL     1      -8.049   9.133  68.025  1.00  0.00    -0.105 C  
HETATM   12  C   UNL     1      -7.786   8.357  66.962  1.00  0.00    -0.093 C  
HETATM   13  C   UNL     1      -6.574   8.517  66.100  1.00  0.00    -0.057 C  
ENDBRANCH   5  11
ENDBRANCH   2   3
TORSDOF 2
ENDMDL
MODEL      189
REMARK 921   NORMALIZED FREE ENERGY PREDICTED BY IDOCK:   -1.89 KCAL/MOL
REMARK 922        TOTAL FREE ENERGY PREDICTED BY IDOCK:   -2.24 KCAL/MOL
REMARK 923 INTER-LIGAND FREE ENERGY PREDICTED BY IDOCK:   -2.08 KCAL/MOL
REMARK 924 INTRA-LIGAND FREE ENERGY PREDICTED BY IDOCK:   -0.17 KCAL/MOL
REMARK 927      BINDING AFFINITY PREDICTED BY RF-SCORE:    0.00 PKD
ROOT
HETATM    1  C   UNL     1      -8.855  14.173  68.248  1.00  0.00    -0.187 C  
HETATM    2  O   UNL     1      -8.164  13.293  67.372  1.00  0.00    -0.169 OA 
ENDROOT
BRANCH   2   3
HETATM    3  C   UNL     1      -7.947  12.011  67.808  1.00  0.00    -0.147 A  
HETATM    4  C   UNL     1      -8.900  11.211  68.449  1.00  0.00    -0.157 A  
HETATM    5  C   UNL     1      -8.585   9.911  68.879  1.00  0.00    -0.135 A  
HETATM    6  H   UNL     1      -4.845  11.924  66.853  1.00  0.00     0.000 HD 
HETATM    7  C   UNL     1      -7.290   9.423  68.665  1.00  0.00    -0.075 A  
HETATM    8  C   UNL     1      -6.329  10.208  68.023  1.00  0.00    -0.057 A  
HETATM    9  O   UNL     1      -5.717  12.275  66.991  1.00  0.00    -0.244 OA 
HETATM   10  C   UNL     1      -6.662  11.494  67.604  1.00  0.00    -0.079 A  
BRANCH   5  11
HETATM   11  C   UNL     1      -9.543   9.082  69.629  1.00  0.00    -0.175 C  
HETATM   12  C   UNL     1     -10.604   9.553  70.302  1.00  0.00    -0.317 C  
HETATM   13  C   UNL     1     -11.532   8.690  71.096  1.00  0.00    -0.332 C  
ENDBRANCH   5  11
ENDBRANCH   2   3
TORSDOF 2
ENDMDL
MODEL      190
REMARK 921   NORMALIZED FREE ENERGY PREDICTED BY IDOCK:   -1.85 KCAL/MOL
REMARK 922        TOTAL FREE ENERGY PREDICTED BY IDOCK:   -2.19 KCAL/MOL
REMARK 923 INTER-LIGAND FREE ENERGY PREDICTED BY IDOCK:   -2.01 KCAL/MOL
REMARK 924 INTRA-LIGAND FREE ENERGY PREDICTED BY IDOCK:   -0.18 KCAL/MOL
REMARK 927      BINDING AFFINITY PREDICTED BY RF-SCORE:    0.00 PKD
ROOT
HETATM    1  C   UNL     1     -12.240   6.992  71.125  1.00  0.00    -0.382 C  
HETATM    2  O   UNL     1     -11.274   5.969  70.933  1.00  0.00    -0.299 OA 
ENDROOT
BRANCH   2   3
HETATM    3  C   UNL     1     -10.100   6.317  70.318  1.00  0.00    -0.184 A  
HETATM    4  C   UNL     1     -10.003   7.095  69.159  1.00  0.00    -0.168 A  
HETATM    5  C   UNL     1      -8.755   7.389  68.584  1.00  0.00    -0.128 A  
HETATM    6  H   UNL     1      -8.211   4.720  72.421  1.00  0.00     0.000 HD 
HETATM    7  C   UNL     1      -7.596   6.882  69.186  1.00  0.00    -0.097 A  
HETATM    8  C   UNL     1      -7.677   6.107  70.346  1.00  0.00    -0.098 A  
HETATM    9  O   UNL     1      -9.008   5.051  72.026  1.00  0.00    -0.130 OA 
HETATM   10  C   UNL     1      -8.924   5.827  70.900  1.00  0.00    -0.145 A  
BRANCH   5  11
HETATM   11  C   UNL     1      -8.632   8.134  67.320  1.00  0.00    -0.124 C  
HETATM   12  C   UNL     1      -8.173   7.621  66.168  1.00  0.00    -0.124 C  
HETATM   13  C   UNL     1      -8.013   8.418  64.912  1.00  0.00    -0.136 C  
ENDBRANCH   5  11
ENDBRANCH   2   3
TORSDOF 2
ENDMDL
MODEL      191
REMARK 921   NORMALIZED FREE ENERGY PREDICTED BY IDOCK:   -1.76 KCAL/MOL
REMARK 922        TOTAL FREE ENERGY PREDICTED BY IDOCK:   -2.09 KCAL/MOL
REMARK 923 INTER-LIGAND FREE ENERGY PREDICTED BY IDOCK:   -3.00 KCAL/MOL
REMARK 924 INTRA-LIGAND FREE ENERGY PREDICTED BY IDOCK:    0.91 KCAL/MOL
REMARK 927      BINDING AFFINITY PREDICTED BY RF-SCORE:    0.00 PKD
ROOT
HETATM    1  C   UNL     1     -11.396   8.904  70.808  1.00  0.00    -0.278 C  
HETATM    2  O   UNL     1     -10.398   9.641  70.115  1.00  0.00    -0.229 OA 
ENDROOT
BRANCH   2   3
HETATM    3  C   UNL     1     -10.292   9.442  68.763  1.00  0.00    -0.209 A  
HETATM    4  C   UNL     1     -10.047  10.448  67.822  1.00  0.00    -0.212 A  
HETATM    5  C   UNL     1      -9.972  10.157  66.449  1.00  0.00    -0.295 A  
HETATM    6  H   UNL     1     -10.839   6.245  68.918  1.00  0.00     0.000 HD 
HETATM    7  C   UNL     1     -10.155   8.833  66.028  1.00  0.00    -0.031 A  
HETATM    8  C   UNL     1     -10.396   7.817  66.956  1.00  0.00    -0.405 A  
HETATM    9  O   UNL     1     -10.721   7.137  69.224  1.00  0.00    -0.224 OA 
HETATM   10  C   UNL     1     -10.466   8.127  68.312  1.00  0.00    -0.160 A  
BRANCH   5  11
HETATM   11  C   UNL     1      -9.800  11.209  65.434  1.00  0.00    -0.289 C  
HETATM   12  C   UNL     1     -10.425  11.242  64.247  1.00  0.00    -0.419 C  
HETATM   13  C   UNL     1     -10.190  12.299  63.216  1.00  0.00    -0.245 C  
ENDBRANCH   5  11
ENDBRANCH   2   3
TORSDOF 2
ENDMDL
MODEL      192
REMARK 921   NORMALIZED FREE ENERGY PREDICTED BY IDOCK:   -1.63 KCAL/MOL
REMARK 922        TOTAL FREE ENERGY PREDICTED BY IDOCK:   -1.95 KCAL/MOL
REMARK 923 INTER-LIGAND FREE ENERGY PREDICTED BY IDOCK:   -1.79 KCAL/MOL
REMARK 924 INTRA-LIGAND FREE ENERGY PREDICTED BY IDOCK:   -0.16 KCAL/MOL
REMARK 927      BINDING AFFINITY PREDICTED BY RF-SCORE:    0.00 PKD
ROOT
HETATM    1  C   UNL     1     -10.674   5.473  69.512  1.00  0.00    -0.262 C  
HETATM    2  O   UNL     1     -10.162   6.665  70.091  1.00  0.00    -0.182 OA 
ENDROOT
BRANCH   2   3
HETATM    3  C   UNL     1      -9.616   7.593  69.242  1.00  0.00    -0.159 A  
HETATM    4  C   UNL     1      -9.223   7.340  67.923  1.00  0.00    -0.131 A  
HETATM    5  C   UNL     1      -8.653   8.349  67.129  1.00  0.00    -0.123 A  
HETATM    6  H   UNL     1      -9.669  10.006  71.415  1.00  0.00     0.000 HD 
HETATM    7  C   UNL     1      -8.473   9.624  67.680  1.00  0.00    -0.125 A  
HETATM    8  C   UNL     1      -8.865   9.894  68.994  1.00  0.00    -0.156 A  
HETATM    9  O   UNL     1      -9.796   9.134  71.060  1.00  0.00    -0.253 OA 
HETATM   10  C   UNL     1      -9.429   8.879  69.765  1.00  0.00    -0.170 A  
BRANCH   5  11
HETATM   11  C   UNL     1      -8.155   8.085  65.768  1.00  0.00    -0.121 C  
HETATM   12  C   UNL     1      -7.068   7.354  65.477  1.00  0.00    -0.061 C  
HETATM   13  C   UNL     1      -6.559   7.146  64.086  1.00  0.00    -0.043 C  
ENDBRANCH   5  11
ENDBRANCH   2   3
TORSDOF 2
ENDMDL
MODEL      193
REMARK 921   NORMALIZED FREE ENERGY PREDICTED BY IDOCK:   -1.60 KCAL/MOL
REMARK 922        TOTAL FREE ENERGY PREDICTED BY IDOCK:   -1.91 KCAL/MOL
REMARK 923 INTER-LIGAND FREE ENERGY PREDICTED BY IDOCK:   -1.74 KCAL/MOL
REMARK 924 INTRA-LIGAND FREE ENERGY PREDICTED BY IDOCK:   -0.17 KCAL/MOL
REMARK 927      BINDING AFFINITY PREDICTED BY RF-SCORE:    0.00 PKD
ROOT
HETATM    1  C   UNL     1      -7.001   3.463  69.998  1.00  0.00    -0.034 C  
HETATM    2  O   UNL     1      -7.326   3.574  68.619  1.00  0.00    -0.050 OA 
ENDROOT
BRANCH   2   3
HETATM    3  C   UNL     1      -8.297   4.477  68.271  1.00  0.00    -0.090 A  
HETATM    4  C   UNL     1      -8.334   5.813  68.686  1.00  0.00    -0.107 A  
HETATM    5  C   UNL     1      -9.379   6.666  68.294  1.00  0.00    -0.119 A  
HETATM    6  H   UNL     1     -10.010   2.361  66.501  1.00  0.00     0.000 HD 
HETATM    7  C   UNL     1     -10.400   6.157  67.481  1.00  0.00    -0.259 A  
HETATM    8  C   UNL     1     -10.374   4.826  67.055  1.00  0.00    -0.171 A  
HETATM    9  O   UNL     1      -9.310   2.686  67.055  1.00  0.00    -0.141 OA 
HETATM   10  C   UNL     1      -9.328   3.997  67.454  1.00  0.00    -0.183 A  
BRANCH   5  11
HETATM   11  C   UNL     1      -9.485   8.051  68.785  1.00  0.00    -0.147 C  
HETATM   12  C   UNL     1      -9.855   8.398  70.027  1.00  0.00    -0.182 C  
HETATM   13  C   UNL     1     -10.001   9.816  70.481  1.00  0.00    -0.258 C  
ENDBRANCH   5  11
ENDBRANCH   2   3
TORSDOF 2
ENDMDL
MODEL      194
REMARK 921   NORMALIZED FREE ENERGY PREDICTED BY IDOCK:   -1.58 KCAL/MOL
REMARK 922        TOTAL FREE ENERGY PREDICTED BY IDOCK:   -1.90 KCAL/MOL
REMARK 923 INTER-LIGAND FREE ENERGY PREDICTED BY IDOCK:   -1.80 KCAL/MOL
REMARK 924 INTRA-LIGAND FREE ENERGY PREDICTED BY IDOCK:   -0.10 KCAL/MOL
REMARK 927      BINDING AFFINITY PREDICTED BY RF-SCORE:    0.00 PKD
ROOT
HETATM    1  C   UNL     1     -10.442   5.432  69.414  1.00  0.00    -0.261 C  
HETATM    2  O   UNL     1      -9.536   6.443  69.832  1.00  0.00    -0.153 OA 
ENDROOT
BRANCH   2   3
HETATM    3  C   UNL     1      -8.681   6.953  68.889  1.00  0.00    -0.130 A  
HETATM    4  C   UNL     1      -8.980   8.013  68.026  1.00  0.00    -0.130 A  
HETATM    5  C   UNL     1      -8.048   8.460  67.075  1.00  0.00    -0.104 A  
HETATM    6  H   UNL     1      -6.280   4.868  69.549  1.00  0.00     0.000 HD 
HETATM    7  C   UNL     1      -6.804   7.820  66.993  1.00  0.00    -0.069 A  
HETATM    8  C   UNL     1      -6.489   6.764  67.851  1.00  0.00    -0.050 A  
HETATM    9  O   UNL     1      -7.130   5.287  69.618  1.00  0.00    -0.056 OA 
HETATM   10  C   UNL     1      -7.427   6.336  68.788  1.00  0.00    -0.088 A  
BRANCH   5  11
HETATM   11  C   UNL     1      -8.370   9.516  66.100  1.00  0.00    -0.118 C  
HETATM   12  C   UNL     1      -9.234   9.385  65.082  1.00  0.00    -0.287 C  
HETATM   13  C   UNL     1      -9.502  10.461  64.079  1.00  0.00    -0.351 C  
ENDBRANCH   5  11
ENDBRANCH   2   3
TORSDOF 2
ENDMDL
MODEL      195
REMARK 921   NORMALIZED FREE ENERGY PREDICTED BY IDOCK:   -1.56 KCAL/MOL
REMARK 922        TOTAL FREE ENERGY PREDICTED BY IDOCK:   -1.87 KCAL/MOL
REMARK 923 INTER-LIGAND FREE ENERGY PREDICTED BY IDOCK:   -1.71 KCAL/MOL
REMARK 924 INTRA-LIGAND FREE ENERGY PREDICTED BY IDOCK:   -0.17 KCAL/MOL
REMARK 927      BINDING AFFINITY PREDICTED BY RF-SCORE:    0.00 PKD
ROOT
HETATM    1  C   UNL     1      -6.774   7.071  74.165  1.00  0.00    -0.081 C  
HETATM    2  O   UNL     1      -7.084   5.685  74.141  1.00  0.00    -0.081 OA 
ENDROOT
BRANCH   2   3
HETATM    3  C   UNL     1      -7.721   5.200  73.027  1.00  0.00    -0.097 A  
HETATM    4  C   UNL     1      -8.889   5.737  72.475  1.00  0.00    -0.130 A  
HETATM    5  C   UNL     1      -9.486   5.164  71.340  1.00  0.00    -0.200 A  
HETATM    6  H   UNL     1      -5.630   2.759  72.563  1.00  0.00     0.000 HD 
HETATM    7  C   UNL     1      -8.897   4.031  70.765  1.00  0.00    -0.134 A  
HETATM    8  C   UNL     1      -7.728   3.486  71.302  1.00  0.00    -0.055 A  
HETATM    9  O   UNL     1      -6.016   3.526  72.970  1.00  0.00    -0.007 OA 
HETATM   10  C   UNL     1      -7.152   4.069  72.428  1.00  0.00    -0.056 A  
BRANCH   5  11
HETATM   11  C   UNL     1     -10.760   5.660  70.791  1.00  0.00    -0.320 C  
HETATM   12  C   UNL     1     -11.558   6.556  71.392  1.00  0.00    -0.371 C  
HETATM   13  C   UNL     1     -12.871   7.002  70.832  1.00  0.00    -0.172 C  
ENDBRANCH   5  11
ENDBRANCH   2   3
TORSDOF 2
ENDMDL
MODEL      196
REMARK 921   NORMALIZED FREE ENERGY PREDICTED BY IDOCK:   -1.51 KCAL/MOL
REMARK 922        TOTAL FREE ENERGY PREDICTED BY IDOCK:   -1.81 KCAL/MOL
REMARK 923 INTER-LIGAND FREE ENERGY PREDICTED BY IDOCK:   -1.65 KCAL/MOL
REMARK 924 INTRA-LIGAND FREE ENERGY PREDICTED BY IDOCK:   -0.16 KCAL/MOL
REMARK 927      BINDING AFFINITY PREDICTED BY RF-SCORE:    0.00 PKD
ROOT
HETATM    1  C   UNL     1     -11.692   6.576  72.091  1.00  0.00    -0.311 C  
HETATM    2  O   UNL     1     -11.002   5.534  71.415  1.00  0.00    -0.224 OA 
ENDROOT
BRANCH   2   3
HETATM    3  C   UNL     1      -9.664   5.715  71.177  1.00  0.00    -0.172 A  
HETATM    4  C   UNL     1      -8.809   6.496  71.963  1.00  0.00    -0.133 A  
HETATM    5  C   UNL     1      -7.451   6.640  71.634  1.00  0.00    -0.088 A  
HETATM    6  H   UNL     1      -9.621   3.890  68.492  1.00  0.00     0.000 HD 
HETATM    7  C   UNL     1      -6.958   5.994  70.493  1.00  0.00    -0.059 A  
HETATM    8  C   UNL     1      -7.799   5.208  69.701  1.00  0.00    -0.072 A  
HETATM    9  O   UNL     1      -9.975   4.323  69.260  1.00  0.00    -0.167 OA 
HETATM   10  C   UNL     1      -9.143   5.077  70.045  1.00  0.00    -0.123 A  
BRANCH   5  11
HETATM   11  C   UNL     1      -6.551   7.523  72.396  1.00  0.00    -0.055 C  
HETATM   12  C   UNL     1      -6.728   7.877  73.678  1.00  0.00    -0.112 C  
HETATM   13  C   UNL     1      -5.822   8.815  74.410  1.00  0.00    -0.138 C  
ENDBRANCH   5  11
ENDBRANCH   2   3
TORSDOF 2
ENDMDL
MODEL      197
REMARK 921   NORMALIZED FREE ENERGY PREDICTED BY IDOCK:   -1.50 KCAL/MOL
REMARK 922        TOTAL FREE ENERGY PREDICTED BY IDOCK:   -1.80 KCAL/MOL
REMARK 923 INTER-LIGAND FREE ENERGY PREDICTED BY IDOCK:   -1.64 KCAL/MOL
REMARK 924 INTRA-LIGAND FREE ENERGY PREDICTED BY IDOCK:   -0.16 KCAL/MOL
REMARK 927      BINDING AFFINITY PREDICTED BY RF-SCORE:    0.00 PKD
ROOT
HETATM    1  C   UNL     1      -8.913   8.559  71.443  1.00  0.00    -0.204 C  
HETATM    2  O   UNL     1      -9.043   9.519  70.405  1.00  0.00    -0.238 OA 
ENDROOT
BRANCH   2   3
HETATM    3  C   UNL     1      -8.740   9.116  69.130  1.00  0.00    -0.138 A  
HETATM    4  C   UNL     1      -9.052   7.862  68.591  1.00  0.00    -0.136 A  
HETATM    5  C   UNL     1      -8.686   7.526  67.277  1.00  0.00    -0.121 A  
HETATM    6  H   UNL     1      -7.254  11.886  68.318  1.00  0.00     0.000 HD 
HETATM    7  C   UNL     1      -7.990   8.466  66.507  1.00  0.00    -0.096 A  
HETATM    8  C   UNL     1      -7.675   9.723  67.030  1.00  0.00    -0.095 A  
HETATM    9  O   UNL     1      -7.723  11.261  68.858  1.00  0.00    -0.133 OA 
HETATM   10  C   UNL     1      -8.048  10.037  68.335  1.00  0.00    -0.101 A  
BRANCH   5  11
HETATM   11  C   UNL     1      -8.929   6.186  66.717  1.00  0.00    -0.125 C  
HETATM   12  C   UNL     1     -10.011   5.836  66.005  1.00  0.00     0.008 C  
HETATM   13  C   UNL     1     -10.253   4.452  65.491  1.00  0.00    -0.260 C  
ENDBRANCH   5  11
ENDBRANCH   2   3
TORSDOF 2
ENDMDL
MODEL      198
REMARK 921   NORMALIZED FREE ENERGY PREDICTED BY IDOCK:   -1.41 KCAL/MOL
REMARK 922        TOTAL FREE ENERGY PREDICTED BY IDOCK:   -1.71 KCAL/MOL
REMARK 923 INTER-LIGAND FREE ENERGY PREDICTED BY IDOCK:   -1.70 KCAL/MOL
REMARK 924 INTRA-LIGAND FREE ENERGY PREDICTED BY IDOCK:   -0.00 KCAL/MOL
REMARK 927      BINDING AFFINITY PREDICTED BY RF-SCORE:    0.00 PKD
ROOT
HETATM    1  C   UNL     1      -9.384   7.165  71.046  1.00  0.00    -0.158 C  
HETATM    2  O   UNL     1      -9.262   8.512  71.479  1.00  0.00    -0.178 OA 
ENDROOT
BRANCH   2   3
HETATM    3  C   UNL     1      -8.377   9.313  70.804  1.00  0.00    -0.186 A  
HETATM    4  C   UNL     1      -8.715  10.172  69.752  1.00  0.00    -0.148 A  
HETATM    5  C   UNL     1      -7.738  10.946  69.104  1.00  0.00    -0.127 A  
HETATM    6  H   UNL     1      -5.784   8.331  72.493  1.00  0.00     0.000 HD 
HETATM    7  C   UNL     1      -6.405  10.841  69.521  1.00  0.00    -0.079 A  
HETATM    8  C   UNL     1      -6.053   9.992  70.573  1.00  0.00    -0.100 A  
HETATM    9  O   UNL     1      -6.693   8.385  72.222  1.00  0.00    -0.081 OA 
HETATM   10  C   UNL     1      -7.037   9.233  71.203  1.00  0.00    -0.041 A  
BRANCH   5  11
HETATM   11  C   UNL     1      -8.055  11.792  67.941  1.00  0.00    -0.144 C  
HETATM   12  C   UNL     1      -9.167  12.531  67.810  1.00  0.00    -0.198 C  
HETATM   13  C   UNL     1      -9.484  13.342  66.593  1.00  0.00    -0.262 C  
ENDBRANCH   5  11
ENDBRANCH   2   3
TORSDOF 2
ENDMDL
MODEL      199
REMARK 921   NORMALIZED FREE ENERGY PREDICTED BY IDOCK:   -1.34 KCAL/MOL
REMARK 922        TOTAL FREE ENERGY PREDICTED BY IDOCK:   -1.62 KCAL/MOL
REMARK 923 INTER-LIGAND FREE ENERGY PREDICTED BY IDOCK:   -1.45 KCAL/MOL
REMARK 924 INTRA-LIGAND FREE ENERGY PREDICTED BY IDOCK:   -0.17 KCAL/MOL
REMARK 927      BINDING AFFINITY PREDICTED BY RF-SCORE:    0.00 PKD
ROOT
HETATM    1  C   UNL     1     -10.777  10.772  67.847  1.00  0.00    -0.239 C  
HETATM    2  O   UNL     1      -9.478  10.460  67.362  1.00  0.00    -0.148 OA 
ENDROOT
BRANCH   2   3
HETATM    3  C   UNL     1      -8.408  10.962  68.057  1.00  0.00    -0.122 A  
HETATM    4  C   UNL     1      -8.149  12.322  68.258  1.00  0.00    -0.166 A  
HETATM    5  C   UNL     1      -7.015  12.748  68.970  1.00  0.00    -0.059 A  
HETATM    6  H   UNL     1      -7.137   8.050  68.728  1.00  0.00     0.000 HD 
HETATM    7  C   UNL     1      -6.133  11.785  69.476  1.00  0.00    -0.106 A  
HETATM    8  C   UNL     1      -6.380  10.423  69.287  1.00  0.00    -0.048 A  
HETATM    9  O   UNL     1      -7.746   8.687  68.375  1.00  0.00    -0.097 OA 
HETATM   10  C   UNL     1      -7.510  10.021  68.579  1.00  0.00    -0.086 A  
BRANCH   5  11
HETATM   11  C   UNL     1      -6.677  14.173  69.122  1.00  0.00    -0.118 C  
HETATM   12  C   UNL     1      -7.068  15.148  68.287  1.00  0.00    -0.114 C  
HETATM   13  C   UNL     1      -6.666  16.580  68.441  1.00  0.00    -0.143 C  
ENDBRANCH   5  11
ENDBRANCH   2   3
TORSDOF 2
ENDMDL
MODEL      200
REMARK 921   NORMALIZED FREE ENERGY PREDICTED BY IDOCK:   -1.28 KCAL/MOL
REMARK 922        TOTAL FREE ENERGY PREDICTED BY IDOCK:   -1.56 KCAL/MOL
REMARK 923 INTER-LIGAND FREE ENERGY PREDICTED BY IDOCK:   -1.41 KCAL/MOL
REMARK 924 INTRA-LIGAND FREE ENERGY PREDICTED BY IDOCK:   -0.15 KCAL/MOL
REMARK 927      BINDING AFFINITY PREDICTED BY RF-SCORE:    0.00 PKD
ROOT
HETATM    1  C   UNL     1      -7.273   3.057  73.121  1.00  0.00    -0.045 C  
HETATM    2  O   UNL     1      -7.484   3.082  71.716  1.00  0.00    -0.045 OA 
ENDROOT
BRANCH   2   3
HETATM    3  C   UNL     1      -8.270   4.087  71.215  1.00  0.00    -0.072 A  
HETATM    4  C   UNL     1      -7.824   5.380  70.919  1.00  0.00    -0.099 A  
HETATM    5  C   UNL     1      -8.705   6.356  70.423  1.00  0.00    -0.147 A  
HETATM    6  H   UNL     1     -10.987   2.309  71.172  1.00  0.00     0.000 HD 
HETATM    7  C   UNL     1     -10.052   6.019  70.233  1.00  0.00    -0.249 A  
HETATM    8  C   UNL     1     -10.510   4.731  70.520  1.00  0.00    -0.082 A  
HETATM    9  O   UNL     1     -10.071   2.519  71.311  1.00  0.00    -0.040 OA 
HETATM   10  C   UNL     1      -9.621   3.777  71.010  1.00  0.00    -0.179 A  
BRANCH   5  11
HETATM   11  C   UNL     1      -8.279   7.745  70.184  1.00  0.00    -0.123 C  
HETATM   12  C   UNL     1      -9.080   8.730  69.748  1.00  0.00    -0.151 C  
HETATM   13  C   UNL     1      -8.605  10.120  69.467  1.00  0.00    -0.177 C  
ENDBRANCH   5  11
ENDBRANCH   2   3
TORSDOF 2
ENDMDL
MODEL      201
REMARK 921   NORMALIZED FREE ENERGY PREDICTED BY IDOCK:   -1.28 KCAL/MOL
REMARK 922        TOTAL FREE ENERGY PREDICTED BY IDOCK:   -1.56 KCAL/MOL
REMARK 923 INTER-LIGAND FREE ENERGY PREDICTED BY IDOCK:   -1.38 KCAL/MOL
REMARK 924 INTRA-LIGAND FREE ENERGY PREDICTED BY IDOCK:   -0.17 KCAL/MOL
REMARK 927      BINDING AFFINITY PREDICTED BY RF-SCORE:    0.00 PKD
ROOT
HETATM    1  C   UNL     1      -8.143   1.965  72.798  1.00  0.00    -0.053 C  
HETATM    2  O   UNL     1      -7.888   2.626  71.567  1.00  0.00    -0.046 OA 
ENDROOT
BRANCH   2   3
HETATM    3  C   UNL     1      -8.388   3.894  71.417  1.00  0.00    -0.076 A  
HETATM    4  C   UNL     1      -7.929   5.023  72.106  1.00  0.00    -0.111 A  
HETATM    5  C   UNL     1      -8.513   6.284  71.903  1.00  0.00    -0.124 A  
HETATM    6  H   UNL     1     -10.639   3.040  69.238  1.00  0.00     0.000 HD 
HETATM    7  C   UNL     1      -9.578   6.400  71.000  1.00  0.00    -0.188 A  
HETATM    8  C   UNL     1     -10.044   5.283  70.301  1.00  0.00    -0.329 A  
HETATM    9  O   UNL     1      -9.918   2.940  69.849  1.00  0.00     0.136 OA 
HETATM   10  C   UNL     1      -9.451   4.041  70.517  1.00  0.00    -0.178 A  
BRANCH   5  11
HETATM   11  C   UNL     1      -8.104   7.469  72.676  1.00  0.00    -0.134 C  
HETATM   12  C   UNL     1      -7.226   7.458  73.691  1.00  0.00    -0.105 C  
HETATM   13  C   UNL     1      -6.869   8.670  74.491  1.00  0.00    -0.176 C  
ENDBRANCH   5  11
ENDBRANCH   2   3
TORSDOF 2
ENDMDL
MODEL      202
REMARK 921   NORMALIZED FREE ENERGY PREDICTED BY IDOCK:   -1.26 KCAL/MOL
REMARK 922        TOTAL FREE ENERGY PREDICTED BY IDOCK:   -1.53 KCAL/MOL
REMARK 923 INTER-LIGAND FREE ENERGY PREDICTED BY IDOCK:   -1.38 KCAL/MOL
REMARK 924 INTRA-LIGAND FREE ENERGY PREDICTED BY IDOCK:   -0.16 KCAL/MOL
REMARK 927      BINDING AFFINITY PREDICTED BY RF-SCORE:    0.00 PKD
ROOT
HETATM    1  C   UNL     1      -8.054   8.821  71.424  1.00  0.00    -0.142 C  
HETATM    2  O   UNL     1      -8.068   9.187  70.052  1.00  0.00    -0.101 OA 
ENDROOT
BRANCH   2   3
HETATM    3  C   UNL     1      -8.164   8.177  69.130  1.00  0.00    -0.123 A  
HETATM    4  C   UNL     1      -8.470   6.845  69.431  1.00  0.00    -0.133 A  
HETATM    5  C   UNL     1      -8.530   5.868  68.423  1.00  0.00    -0.111 A  
HETATM    6  H   UNL     1      -7.429  10.060  66.589  1.00  0.00     0.000 HD 
HETATM    7  C   UNL     1      -8.270   6.245  67.099  1.00  0.00    -0.109 A  
HETATM    8  C   UNL     1      -7.969   7.572  66.783  1.00  0.00    -0.115 A  
HETATM    9  O   UNL     1      -7.599   9.824  67.494  1.00  0.00    -0.091 OA 
HETATM   10  C   UNL     1      -7.914   8.525  67.797  1.00  0.00    -0.107 A  
BRANCH   5  11
HETATM   11  C   UNL     1      -8.766   4.446  68.724  1.00  0.00    -0.120 C  
HETATM   12  C   UNL     1      -8.570   3.872  69.921  1.00  0.00    -0.104 C  
HETATM   13  C   UNL     1      -8.771   2.414  70.183  1.00  0.00    -0.121 C  
ENDBRANCH   5  11
ENDBRANCH   2   3
TORSDOF 2
ENDMDL
MODEL      203
REMARK 921   NORMALIZED FREE ENERGY PREDICTED BY IDOCK:   -1.26 KCAL/MOL
REMARK 922        TOTAL FREE ENERGY PREDICTED BY IDOCK:   -1.53 KCAL/MOL
REMARK 923 INTER-LIGAND FREE ENERGY PREDICTED BY IDOCK:   -1.50 KCAL/MOL
REMARK 924 INTRA-LIGAND FREE ENERGY PREDICTED BY IDOCK:   -0.03 KCAL/MOL
REMARK 927      BINDING AFFINITY PREDICTED BY RF-SCORE:    0.00 PKD
ROOT
HETATM    1  C   UNL     1      -8.393   7.482  70.149  1.00  0.00    -0.134 C  
HETATM    2  O   UNL     1      -7.360   8.457  70.117  1.00  0.00    -0.056 OA 
ENDROOT
BRANCH   2   3
HETATM    3  C   UNL     1      -7.376   9.359  69.085  1.00  0.00    -0.071 A  
HETATM    4  C   UNL     1      -7.938  10.639  69.148  1.00  0.00    -0.139 A  
HETATM    5  C   UNL     1      -7.925  11.493  68.033  1.00  0.00    -0.130 A  
HETATM    6  H   UNL     1      -5.866   7.393  66.987  1.00  0.00     0.000 HD 
HETATM    7  C   UNL     1      -7.345  11.042  66.841  1.00  0.00    -0.133 A  
HETATM    8  C   UNL     1      -6.775   9.768  66.764  1.00  0.00    -0.079 A  
HETATM    9  O   UNL     1      -6.258   7.679  67.804  1.00  0.00    -0.046 OA 
HETATM   10  C   UNL     1      -6.798   8.937  67.881  1.00  0.00    -0.070 A  
BRANCH   5  11
HETATM   11  C   UNL     1      -8.584  12.810  68.050  1.00  0.00    -0.186 C  
HETATM   12  C   UNL     1      -8.802  13.573  66.968  1.00  0.00    -0.219 C  
HETATM   13  C   UNL     1      -9.429  14.930  67.024  1.00  0.00    -0.239 C  
ENDBRANCH   5  11
ENDBRANCH   2   3
TORSDOF 2
ENDMDL
MODEL      204
REMARK 921   NORMALIZED FREE ENERGY PREDICTED BY IDOCK:   -1.22 KCAL/MOL
REMARK 922        TOTAL FREE ENERGY PREDICTED BY IDOCK:   -1.49 KCAL/MOL
REMARK 923 INTER-LIGAND FREE ENERGY PREDICTED BY IDOCK:   -1.33 KCAL/MOL
REMARK 924 INTRA-LIGAND FREE ENERGY PREDICTED BY IDOCK:   -0.16 KCAL/MOL
REMARK 927      BINDING AFFINITY PREDICTED BY RF-SCORE:    0.00 PKD
ROOT
HETATM    1  C   UNL     1      -7.676   8.567  71.452  1.00  0.00    -0.109 C  
HETATM    2  O   UNL     1      -6.871   9.714  71.216  1.00  0.00    -0.311 OA 
ENDROOT
BRANCH   2   3
HETATM    3  C   UNL     1      -6.664  10.082  69.912  1.00  0.00    -0.099 A  
HETATM    4  C   UNL     1      -7.112   9.365  68.796  1.00  0.00    -0.069 A  
HETATM    5  C   UNL     1      -6.838   9.808  67.492  1.00  0.00    -0.082 A  
HETATM    6  H   UNL     1      -4.975  12.754  70.653  1.00  0.00     0.000 HD 
HETATM    7  C   UNL     1      -6.097  10.984  67.317  1.00  0.00    -0.066 A  
HETATM    8  C   UNL     1      -5.647  11.713  68.421  1.00  0.00    -0.045 A  
HETATM    9  O   UNL     1      -5.473  11.958  70.792  1.00  0.00    -0.141 OA 
HETATM   10  C   UNL     1      -5.929  11.257  69.707  1.00  0.00    -0.103 A  
BRANCH   5  11
HETATM   11  C   UNL     1      -7.225   9.029  66.304  1.00  0.00    -0.090 C  
HETATM   12  C   UNL     1      -7.647   7.755  66.326  1.00  0.00    -0.087 C  
HETATM   13  C   UNL     1      -7.986   6.974  65.096  1.00  0.00    -0.128 C  
ENDBRANCH   5  11
ENDBRANCH   2   3
TORSDOF 2
ENDMDL
MODEL      205
REMARK 921   NORMALIZED FREE ENERGY PREDICTED BY IDOCK:   -1.20 KCAL/MOL
REMARK 922        TOTAL FREE ENERGY PREDICTED BY IDOCK:   -1.47 KCAL/MOL
REMARK 923 INTER-LIGAND FREE ENERGY PREDICTED BY IDOCK:   -1.32 KCAL/MOL
REMARK 924 INTRA-LIGAND FREE ENERGY PREDICTED BY IDOCK:   -0.15 KCAL/MOL
REMARK 927      BINDING AFFINITY PREDICTED BY RF-SCORE:    0.00 PKD
ROOT
HETATM    1  C   UNL     1      -7.114   3.345  68.819  1.00  0.00    -0.049 C  
HETATM    2  O   UNL     1      -8.249   4.176  68.615  1.00  0.00    -0.081 OA 
ENDROOT
BRANCH   2   3
HETATM    3  C   UNL     1      -8.413   4.724  67.368  1.00  0.00    -0.104 A  
HETATM    4  C   UNL     1      -8.925   4.046  66.256  1.00  0.00    -0.127 A  
HETATM    5  C   UNL     1      -9.042   4.682  65.009  1.00  0.00    -0.156 A  
HETATM    6  H   UNL     1      -7.223   7.630  68.195  1.00  0.00     0.000 HD 
HETATM    7  C   UNL     1      -8.628   6.015  64.887  1.00  0.00    -0.008 A  
HETATM    8  C   UNL     1      -8.119   6.706  65.990  1.00  0.00    -0.122 A  
HETATM    9  O   UNL     1      -7.495   6.726  68.297  1.00  0.00    -0.094 OA 
HETATM   10  C   UNL     1      -8.012   6.057  67.218  1.00  0.00    -0.102 A  
BRANCH   5  11
HETATM   11  C   UNL     1      -9.498   3.966  63.806  1.00  0.00    -0.153 C  
HETATM   12  C   UNL     1     -10.305   2.893  63.810  1.00  0.00    -0.180 C  
HETATM   13  C   UNL     1     -10.710   2.157  62.573  1.00  0.00    -0.147 C  
ENDBRANCH   5  11
ENDBRANCH   2   3
TORSDOF 2
ENDMDL
MODEL      206
REMARK 921   NORMALIZED FREE ENERGY PREDICTED BY IDOCK:   -1.16 KCAL/MOL
REMARK 922        TOTAL FREE ENERGY PREDICTED BY IDOCK:   -1.43 KCAL/MOL
REMARK 923 INTER-LIGAND FREE ENERGY PREDICTED BY IDOCK:   -1.33 KCAL/MOL
REMARK 924 INTRA-LIGAND FREE ENERGY PREDICTED BY IDOCK:   -0.09 KCAL/MOL
REMARK 927      BINDING AFFINITY PREDICTED BY RF-SCORE:    0.00 PKD
ROOT
HETATM    1  C   UNL     1      -6.922   3.349  68.857  1.00  0.00    -0.045 C  
HETATM    2  O   UNL     1      -7.886   4.365  69.094  1.00  0.00    -0.062 OA 
ENDROOT
BRANCH   2   3
HETATM    3  C   UNL     1      -8.071   5.302  68.111  1.00  0.00    -0.095 A  
HETATM    4  C   UNL     1      -7.376   6.513  68.018  1.00  0.00    -0.090 A  
HETATM    5  C   UNL     1      -7.642   7.425  66.983  1.00  0.00    -0.106 A  
HETATM    6  H   UNL     1     -10.407   3.637  66.589  1.00  0.00     0.000 HD 
HETATM    7  C   UNL     1      -8.628   7.109  66.039  1.00  0.00    -0.158 A  
HETATM    8  C   UNL     1      -9.327   5.902  66.116  1.00  0.00    -0.150 A  
HETATM    9  O   UNL     1      -9.744   3.834  67.240  1.00  0.00    -0.204 OA 
HETATM   10  C   UNL     1      -9.047   5.011  67.150  1.00  0.00    -0.114 A  
BRANCH   5  11
HETATM   11  C   UNL     1      -6.985   8.741  66.912  1.00  0.00    -0.074 C  
HETATM   12  C   UNL     1      -7.627   9.917  66.831  1.00  0.00    -0.095 C  
HETATM   13  C   UNL     1      -6.930  11.234  66.710  1.00  0.00    -0.141 C  
ENDBRANCH   5  11
ENDBRANCH   2   3
TORSDOF 2
ENDMDL
MODEL      207
REMARK 921   NORMALIZED FREE ENERGY PREDICTED BY IDOCK:   -1.15 KCAL/MOL
REMARK 922        TOTAL FREE ENERGY PREDICTED BY IDOCK:   -1.42 KCAL/MOL
REMARK 923 INTER-LIGAND FREE ENERGY PREDICTED BY IDOCK:   -1.22 KCAL/MOL
REMARK 924 INTRA-LIGAND FREE ENERGY PREDICTED BY IDOCK:   -0.20 KCAL/MOL
REMARK 927      BINDING AFFINITY PREDICTED BY RF-SCORE:    0.00 PKD
ROOT
HETATM    1  C   UNL     1      -8.279   7.547  70.165  1.00  0.00    -0.132 C  
HETATM    2  O   UNL     1      -7.308   8.525  69.821  1.00  0.00    -0.054 OA 
ENDROOT
BRANCH   2   3
HETATM    3  C   UNL     1      -7.505   9.229  68.661  1.00  0.00    -0.080 A  
HETATM    4  C   UNL     1      -7.652   8.657  67.392  1.00  0.00    -0.093 A  
HETATM    5  C   UNL     1      -7.833   9.458  66.252  1.00  0.00    -0.100 A  
HETATM    6  H   UNL     1      -7.400  12.141  70.094  1.00  0.00     0.000 HD 
HETATM    7  C   UNL     1      -7.856  10.851  66.400  1.00  0.00    -0.154 A  
HETATM    8  C   UNL     1      -7.715  11.436  67.661  1.00  0.00    -0.121 A  
HETATM    9  O   UNL     1      -7.378  11.194  70.015  1.00  0.00     0.040 OA 
HETATM   10  C   UNL     1      -7.537  10.624  68.779  1.00  0.00    -0.109 A  
BRANCH   5  11
HETATM   11  C   UNL     1      -7.906   8.885  64.898  1.00  0.00    -0.121 C  
HETATM   12  C   UNL     1      -7.928   9.599  63.762  1.00  0.00    -0.143 C  
HETATM   13  C   UNL     1      -8.053   8.989  62.402  1.00  0.00    -0.151 C  
ENDBRANCH   5  11
ENDBRANCH   2   3
TORSDOF 2
ENDMDL
MODEL      208
REMARK 921   NORMALIZED FREE ENERGY PREDICTED BY IDOCK:   -1.02 KCAL/MOL
REMARK 922        TOTAL FREE ENERGY PREDICTED BY IDOCK:   -1.27 KCAL/MOL
REMARK 923 INTER-LIGAND FREE ENERGY PREDICTED BY IDOCK:   -1.59 KCAL/MOL
REMARK 924 INTRA-LIGAND FREE ENERGY PREDICTED BY IDOCK:    0.32 KCAL/MOL
REMARK 927      BINDING AFFINITY PREDICTED BY RF-SCORE:    0.00 PKD
ROOT
HETATM    1  C   UNL     1     -10.684   8.070  67.430  1.00  0.00    -0.190 C  
HETATM    2  O   UNL     1      -9.280   8.284  67.473  1.00  0.00    -0.136 OA 
ENDROOT
BRANCH   2   3
HETATM    3  C   UNL     1      -8.834   9.574  67.336  1.00  0.00    -0.128 A  
HETATM    4  C   UNL     1      -8.168  10.301  68.328  1.00  0.00    -0.115 A  
HETATM    5  C   UNL     1      -7.761  11.627  68.107  1.00  0.00    -0.122 A  
HETATM    6  H   UNL     1      -9.937   9.917  64.301  1.00  0.00     0.000 HD 
HETATM    7  C   UNL     1      -8.040  12.223  66.870  1.00  0.00    -0.090 A  
HETATM    8  C   UNL     1      -8.700  11.508  65.868  1.00  0.00    -0.058 A  
HETATM    9  O   UNL     1      -9.760   9.496  65.134  1.00  0.00    -0.277 OA 
HETATM   10  C   UNL     1      -9.095  10.194  66.107  1.00  0.00    -0.155 A  
BRANCH   5  11
HETATM   11  C   UNL     1      -7.134  12.440  69.163  1.00  0.00     0.007 C  
HETATM   12  C   UNL     1      -6.107  12.042  69.930  1.00  0.00    -0.150 C  
HETATM   13  C   UNL     1      -5.525  12.872  71.029  1.00  0.00    -0.176 C  
ENDBRANCH   5  11
ENDBRANCH   2   3
TORSDOF 2
ENDMDL
MODEL      209
REMARK 921   NORMALIZED FREE ENERGY PREDICTED BY IDOCK:   -0.92 KCAL/MOL
REMARK 922        TOTAL FREE ENERGY PREDICTED BY IDOCK:   -1.16 KCAL/MOL
REMARK 923 INTER-LIGAND FREE ENERGY PREDICTED BY IDOCK:   -1.02 KCAL/MOL
REMARK 924 INTRA-LIGAND FREE ENERGY PREDICTED BY IDOCK:   -0.13 KCAL/MOL
REMARK 927      BINDING AFFINITY PREDICTED BY RF-SCORE:    0.00 PKD
ROOT
HETATM    1  C   UNL     1      -7.448   8.514  67.610  1.00  0.00    -0.094 C  
HETATM    2  O   UNL     1      -6.460   7.523  67.856  1.00  0.00    -0.050 OA 
ENDROOT
BRANCH   2   3
HETATM    3  C   UNL     1      -6.864   6.213  67.843  1.00  0.00    -0.066 A  
HETATM    4  C   UNL     1      -7.398   5.528  68.940  1.00  0.00    -0.081 A  
HETATM    5  C   UNL     1      -7.770   4.177  68.842  1.00  0.00    -0.054 A  
HETATM    6  H   UNL     1      -6.055   5.713  64.738  1.00  0.00     0.000 HD 
HETATM    7  C   UNL     1      -7.590   3.512  67.622  1.00  0.00    -0.069 A  
HETATM    8  C   UNL     1      -7.063   4.184  66.516  1.00  0.00    -0.064 A  
HETATM    9  O   UNL     1      -6.165   6.181  65.557  1.00  0.00    -0.035 OA 
HETATM   10  C   UNL     1      -6.701   5.524  66.634  1.00  0.00    -0.058 A  
BRANCH   5  11
HETATM   11  C   UNL     1      -8.254   3.413  70.004  1.00  0.00    -0.069 C  
HETATM   12  C   UNL     1      -9.144   2.409  69.946  1.00  0.00    -0.176 C  
HETATM   13  C   UNL     1      -9.654   1.685  71.151  1.00  0.00    -0.205 C  
ENDBRANCH   5  11
ENDBRANCH   2   3
TORSDOF 2
ENDMDL
MODEL      210
REMARK 921   NORMALIZED FREE ENERGY PREDICTED BY IDOCK:   -0.89 KCAL/MOL
REMARK 922        TOTAL FREE ENERGY PREDICTED BY IDOCK:   -1.12 KCAL/MOL
REMARK 923 INTER-LIGAND FREE ENERGY PREDICTED BY IDOCK:   -0.96 KCAL/MOL
REMARK 924 INTRA-LIGAND FREE ENERGY PREDICTED BY IDOCK:   -0.16 KCAL/MOL
REMARK 927      BINDING AFFINITY PREDICTED BY RF-SCORE:    0.00 PKD
ROOT
HETATM    1  C   UNL     1      -5.690   3.217  71.795  1.00  0.00    -0.009 C  
HETATM    2  O   UNL     1      -5.882   3.111  70.392  1.00  0.00    -0.016 OA 
ENDROOT
BRANCH   2   3
HETATM    3  C   UNL     1      -6.877   3.871  69.832  1.00  0.00    -0.037 A  
HETATM    4  C   UNL     1      -7.058   5.241  70.053  1.00  0.00    -0.061 A  
HETATM    5  C   UNL     1      -8.118   5.939  69.450  1.00  0.00    -0.109 A  
HETATM    6  H   UNL     1      -8.230   1.398  68.220  1.00  0.00     0.000 HD 
HETATM    7  C   UNL     1      -9.007   5.239  68.624  1.00  0.00    -0.120 A  
HETATM    8  C   UNL     1      -8.836   3.872  68.391  1.00  0.00    -0.145 A  
HETATM    9  O   UNL     1      -7.618   1.854  68.787  1.00  0.00    -0.043 OA 
HETATM   10  C   UNL     1      -7.778   3.199  68.997  1.00  0.00    -0.047 A  
BRANCH   5  11
HETATM   11  C   UNL     1      -8.379   7.361  69.733  1.00  0.00    -0.134 C  
HETATM   12  C   UNL     1      -7.600   8.378  69.336  1.00  0.00    -0.091 C  
HETATM   13  C   UNL     1      -7.865   9.809  69.682  1.00  0.00    -0.142 C  
ENDBRANCH   5  11
ENDBRANCH   2   3
TORSDOF 2
ENDMDL
MODEL      211
REMARK 921   NORMALIZED FREE ENERGY PREDICTED BY IDOCK:    0.19 KCAL/MOL
REMARK 922        TOTAL FREE ENERGY PREDICTED BY IDOCK:    0.09 KCAL/MOL
REMARK 923 INTER-LIGAND FREE ENERGY PREDICTED BY IDOCK:   -1.19 KCAL/MOL
REMARK 924 INTRA-LIGAND FREE ENERGY PREDICTED BY IDOCK:    1.27 KCAL/MOL
REMARK 927      BINDING AFFINITY PREDICTED BY RF-SCORE:    0.00 PKD
ROOT
HETATM    1  C   UNL     1     -14.319   7.413  70.833  1.00  0.00     0.348 C  
HETATM    2  O   UNL     1     -13.131   6.877  70.269  1.00  0.00     0.415 OA 
ENDROOT
BRANCH   2   3
HETATM    3  C   UNL     1     -11.952   7.515  70.556  1.00  0.00    -0.061 A  
HETATM    4  C   UNL     1     -10.688   6.916  70.524  1.00  0.00    -0.267 A  
HETATM    5  C   UNL     1      -9.532   7.643  70.852  1.00  0.00    -0.166 A  
HETATM    6  H   UNL     1     -13.349  10.368  71.227  1.00  0.00     0.000 HD 
HETATM    7  C   UNL     1      -9.660   8.987  71.224  1.00  0.00    -0.361 A  
HETATM    8  C   UNL     1     -10.915   9.601  71.256  1.00  0.00    -0.399 A  
HETATM    9  O   UNL     1     -13.284   9.455  70.976  1.00  0.00    -0.261 OA 
HETATM   10  C   UNL     1     -12.049   8.862  70.927  1.00  0.00    -0.177 A  
BRANCH   5  11
HETATM   11  C   UNL     1      -8.202   7.013  70.907  1.00  0.00    -0.121 C  
HETATM   12  C   UNL     1      -7.581   6.626  72.033  1.00  0.00    -0.096 C  
HETATM   13  C   UNL     1      -6.208   6.035  72.060  1.00  0.00    -0.041 C  
ENDBRANCH   5  11
ENDBRANCH   2   3
TORSDOF 2
ENDMDL
