MODEL        1
REMARK 921   NORMALIZED FREE ENERGY PREDICTED BY IDOCK:   -6.44 KCAL/MOL
REMARK 922        TOTAL FREE ENERGY PREDICTED BY IDOCK:   -9.00 KCAL/MOL
REMARK 923 INTER-LIGAND FREE ENERGY PREDICTED BY IDOCK:   -8.32 KCAL/MOL
REMARK 924 INTRA-LIGAND FREE ENERGY PREDICTED BY IDOCK:   -0.67 KCAL/MOL
REMARK 927      BINDING AFFINITY PREDICTED BY RF-SCORE:    0.00 PKD
ROOT
HETATM    1  C   UNL     1     -12.125  10.913  69.493  1.00  0.00    -0.380 C  
HETATM    2  C   UNL     1     -11.539  12.226  69.995  1.00  0.00    -0.236 C  
ENDROOT
BRANCH   2   3
HETATM    3  C   UNL     1     -12.131  13.501  69.343  1.00  0.00    -0.289 C  
BRANCH   3   4
HETATM    4  N   UNL     1     -12.770  14.447  70.280  1.00  0.00    -0.469 NA 
HETATM    5  H   UNL     1     -13.568  15.010  69.989  1.00  0.00     0.000 HD 
BRANCH   4   6
HETATM    6  C   UNL     1     -12.229  14.559  71.638  1.00  0.00    -0.331 C  
HETATM    7  C   UNL     1     -11.837  16.027  71.862  1.00  0.00    -0.619 C  
HETATM    8  C   UNL     1     -13.215  14.166  72.740  1.00  0.00    -0.604 C  
ENDBRANCH   4   6
ENDBRANCH   3   4
BRANCH   3   9
HETATM    9  C   UNL     1     -11.081  14.134  68.355  1.00  0.00    -0.252 C  
HETATM   10  H   UNL     1      -9.185  13.852  67.891  1.00  0.00     0.000 HD 
HETATM   11  O   UNL     1      -9.819  13.470  68.487  1.00  0.00    -0.232 OA 
BRANCH   9  12
HETATM   12  C   UNL     1     -11.430  14.131  66.876  1.00  0.00    -0.373 A  
HETATM   13  C   UNL     1     -11.274  15.258  66.053  1.00  0.00    -0.231 A  
HETATM   14  C   UNL     1     -11.619  15.189  64.704  1.00  0.00    -0.357 A  
HETATM   15  O   UNL     1     -11.473  16.260  63.866  1.00  0.00    -1.484 OA 
HETATM   16  C   UNL     1     -12.117  14.010  64.161  1.00  0.00    -0.422 A  
HETATM   17  H   UNL     1     -11.708  16.213  62.947  1.00  0.00     0.000 HD 
HETATM   18  C   UNL     1     -12.297  12.892  64.956  1.00  0.00    -0.541 A  
HETATM   19  O   UNL     1     -12.436  13.950  62.834  1.00  0.00    -1.034 OA 
HETATM   20  H   UNL     1     -12.776  13.145  62.463  1.00  0.00     0.000 HD 
HETATM   21  C   UNL     1     -11.964  12.955  66.311  1.00  0.00    -0.472 A  
ENDBRANCH   9  12
ENDBRANCH   3   9
ENDBRANCH   2   3
TORSDOF 5
ENDMDL
MODEL        2
REMARK 921   NORMALIZED FREE ENERGY PREDICTED BY IDOCK:   -6.28 KCAL/MOL
REMARK 922        TOTAL FREE ENERGY PREDICTED BY IDOCK:   -8.79 KCAL/MOL
REMARK 923 INTER-LIGAND FREE ENERGY PREDICTED BY IDOCK:   -8.22 KCAL/MOL
REMARK 924 INTRA-LIGAND FREE ENERGY PREDICTED BY IDOCK:   -0.57 KCAL/MOL
REMARK 927      BINDING AFFINITY PREDICTED BY RF-SCORE:    0.00 PKD
ROOT
HETATM    1  C   UNL     1     -12.655  11.133  70.965  1.00  0.00    -0.503 C  
HETATM    2  C   UNL     1     -12.019  11.133  69.580  1.00  0.00    -0.429 C  
ENDROOT
BRANCH   2   3
HETATM    3  C   UNL     1     -11.778  12.536  68.969  1.00  0.00    -0.318 C  
BRANCH   3   4
HETATM    4  N   UNL     1     -11.342  13.572  69.928  1.00  0.00    -0.485 NA 
HETATM    5  H   UNL     1     -10.527  13.423  70.522  1.00  0.00     0.000 HD 
BRANCH   4   6
HETATM    6  C   UNL     1     -12.108  14.820  70.006  1.00  0.00    -0.329 C  
HETATM    7  C   UNL     1     -13.091  14.688  71.178  1.00  0.00    -0.428 C  
HETATM    8  C   UNL     1     -11.254  16.065  70.253  1.00  0.00    -0.397 C  
ENDBRANCH   4   6
ENDBRANCH   3   4
BRANCH   3   9
HETATM    9  C   UNL     1     -10.902  12.410  67.668  1.00  0.00    -0.225 C  
HETATM   10  H   UNL     1     -10.594  11.061  66.261  1.00  0.00     0.000 HD 
HETATM   11  O   UNL     1     -11.123  11.137  67.047  1.00  0.00    -0.291 OA 
BRANCH   9  12
HETATM   12  C   UNL     1     -11.098  13.466  66.593  1.00  0.00    -0.310 A  
HETATM   13  C   UNL     1     -11.777  13.215  65.391  1.00  0.00    -0.383 A  
HETATM   14  C   UNL     1     -11.915  14.229  64.443  1.00  0.00    -0.456 A  
HETATM   15  O   UNL     1     -12.579  14.028  63.265  1.00  0.00    -1.073 OA 
HETATM   16  C   UNL     1     -11.387  15.493  64.678  1.00  0.00    -0.357 A  
HETATM   17  H   UNL     1     -12.673  14.719  62.619  1.00  0.00     0.000 HD 
HETATM   18  C   UNL     1     -10.697  15.759  65.848  1.00  0.00    -0.320 A  
HETATM   19  O   UNL     1     -11.544  16.481  63.750  1.00  0.00    -1.617 OA 
HETATM   20  H   UNL     1     -11.183  17.345  63.910  1.00  0.00     0.000 HD 
HETATM   21  C   UNL     1     -10.544  14.747  66.798  1.00  0.00    -0.302 A  
ENDBRANCH   9  12
ENDBRANCH   3   9
ENDBRANCH   2   3
TORSDOF 5
ENDMDL
MODEL        3
REMARK 921   NORMALIZED FREE ENERGY PREDICTED BY IDOCK:   -6.16 KCAL/MOL
REMARK 922        TOTAL FREE ENERGY PREDICTED BY IDOCK:   -8.64 KCAL/MOL
REMARK 923 INTER-LIGAND FREE ENERGY PREDICTED BY IDOCK:   -7.90 KCAL/MOL
REMARK 924 INTRA-LIGAND FREE ENERGY PREDICTED BY IDOCK:   -0.73 KCAL/MOL
REMARK 927      BINDING AFFINITY PREDICTED BY RF-SCORE:    0.00 PKD
ROOT
HETATM    1  C   UNL     1     -10.898  14.783  67.866  1.00  0.00    -0.269 C  
HETATM    2  C   UNL     1     -11.994  13.798  68.252  1.00  0.00    -0.392 C  
ENDROOT
BRANCH   2   3
HETATM    3  C   UNL     1     -11.651  12.866  69.441  1.00  0.00    -0.302 C  
BRANCH   3   4
HETATM    4  N   UNL     1     -11.816  13.468  70.780  1.00  0.00    -0.511 NA 
HETATM    5  H   UNL     1     -11.069  13.415  71.471  1.00  0.00     0.000 HD 
BRANCH   4   6
HETATM    6  C   UNL     1     -13.080  14.142  71.092  1.00  0.00    -0.328 C  
HETATM    7  C   UNL     1     -13.622  13.533  72.393  1.00  0.00    -0.709 C  
HETATM    8  C   UNL     1     -12.949  15.652  71.303  1.00  0.00    -0.556 C  
ENDBRANCH   4   6
ENDBRANCH   3   4
BRANCH   3   9
HETATM    9  C   UNL     1     -12.342  11.466  69.240  1.00  0.00    -0.082 C  
HETATM   10  H   UNL     1     -12.271   9.997  67.925  1.00  0.00     0.000 HD 
HETATM   11  O   UNL     1     -11.853  10.842  68.046  1.00  0.00    -0.585 OA 
BRANCH   9  12
HETATM   12  C   UNL     1     -12.195  10.451  70.361  1.00  0.00    -0.389 A  
HETATM   13  C   UNL     1     -13.231  10.148  71.258  1.00  0.00    -0.453 A  
HETATM   14  C   UNL     1     -13.026   9.210  72.269  1.00  0.00    -0.420 A  
HETATM   15  O   UNL     1     -14.013   8.879  73.157  1.00  0.00    -1.118 OA 
HETATM   16  C   UNL     1     -11.801   8.567  72.399  1.00  0.00    -0.367 A  
HETATM   17  H   UNL     1     -13.873   8.240  73.846  1.00  0.00     0.000 HD 
HETATM   18  C   UNL     1     -10.758   8.863  71.539  1.00  0.00    -0.398 A  
HETATM   19  O   UNL     1     -11.618   7.638  73.384  1.00  0.00    -0.641 OA 
HETATM   20  H   UNL     1     -10.781   7.198  73.472  1.00  0.00     0.000 HD 
HETATM   21  C   UNL     1     -10.951   9.808  70.530  1.00  0.00    -0.384 A  
ENDBRANCH   9  12
ENDBRANCH   3   9
ENDBRANCH   2   3
TORSDOF 5
ENDMDL
MODEL        4
REMARK 921   NORMALIZED FREE ENERGY PREDICTED BY IDOCK:   -6.16 KCAL/MOL
REMARK 922        TOTAL FREE ENERGY PREDICTED BY IDOCK:   -8.63 KCAL/MOL
REMARK 923 INTER-LIGAND FREE ENERGY PREDICTED BY IDOCK:   -8.07 KCAL/MOL
REMARK 924 INTRA-LIGAND FREE ENERGY PREDICTED BY IDOCK:   -0.57 KCAL/MOL
REMARK 927      BINDING AFFINITY PREDICTED BY RF-SCORE:    0.00 PKD
ROOT
HETATM    1  C   UNL     1     -12.285  15.861  71.673  1.00  0.00    -0.544 C  
HETATM    2  C   UNL     1     -12.418  15.121  70.348  1.00  0.00    -0.416 C  
ENDROOT
BRANCH   2   3
HETATM    3  C   UNL     1     -11.567  15.696  69.188  1.00  0.00    -0.383 C  
BRANCH   3   4
HETATM    4  N   UNL     1     -10.647  16.788  69.564  1.00  0.00    -0.320 NA 
HETATM    5  H   UNL     1     -10.492  17.024  70.544  1.00  0.00     0.000 HD 
BRANCH   4   6
HETATM    6  C   UNL     1      -9.962  17.525  68.497  1.00  0.00    -0.344 C  
HETATM    7  C   UNL     1     -10.028  19.018  68.849  1.00  0.00    -0.460 C  
HETATM    8  C   UNL     1      -8.488  17.152  68.325  1.00  0.00    -0.236 C  
ENDBRANCH   4   6
ENDBRANCH   3   4
BRANCH   3   9
HETATM    9  C   UNL     1     -10.918  14.519  68.367  1.00  0.00    -0.245 C  
HETATM   10  H   UNL     1     -10.796  12.555  68.511  1.00  0.00     0.000 HD 
HETATM   11  O   UNL     1     -11.188  13.266  69.006  1.00  0.00    -0.256 OA 
BRANCH   9  12
HETATM   12  C   UNL     1     -11.335  14.373  66.914  1.00  0.00    -0.357 A  
HETATM   13  C   UNL     1     -11.259  15.426  65.987  1.00  0.00    -0.168 A  
HETATM   14  C   UNL     1     -11.665  15.224  64.669  1.00  0.00    -0.308 A  
HETATM   15  O   UNL     1     -11.596  16.220  63.734  1.00  0.00    -1.539 OA 
HETATM   16  C   UNL     1     -12.146  13.987  64.258  1.00  0.00    -0.445 A  
HETATM   17  H   UNL     1     -11.873  16.083  62.835  1.00  0.00     0.000 HD 
HETATM   18  C   UNL     1     -12.248  12.940  65.157  1.00  0.00    -0.519 A  
HETATM   19  O   UNL     1     -12.524  13.799  62.959  1.00  0.00    -1.068 OA 
HETATM   20  H   UNL     1     -12.853  12.953  62.678  1.00  0.00     0.000 HD 
HETATM   21  C   UNL     1     -11.854  13.135  66.482  1.00  0.00    -0.456 A  
ENDBRANCH   9  12
ENDBRANCH   3   9
ENDBRANCH   2   3
TORSDOF 5
ENDMDL
MODEL        5
REMARK 921   NORMALIZED FREE ENERGY PREDICTED BY IDOCK:   -6.09 KCAL/MOL
REMARK 922        TOTAL FREE ENERGY PREDICTED BY IDOCK:   -8.54 KCAL/MOL
REMARK 923 INTER-LIGAND FREE ENERGY PREDICTED BY IDOCK:   -7.90 KCAL/MOL
REMARK 924 INTRA-LIGAND FREE ENERGY PREDICTED BY IDOCK:   -0.64 KCAL/MOL
REMARK 927      BINDING AFFINITY PREDICTED BY RF-SCORE:    0.00 PKD
ROOT
HETATM    1  C   UNL     1     -10.587   8.349  67.249  1.00  0.00    -0.328 C  
HETATM    2  C   UNL     1     -10.063   9.758  67.005  1.00  0.00    -0.277 C  
ENDROOT
BRANCH   2   3
HETATM    3  C   UNL     1     -11.048  10.897  67.368  1.00  0.00    -0.307 C  
BRANCH   3   4
HETATM    4  N   UNL     1     -11.950  10.610  68.502  1.00  0.00    -0.794 NA 
HETATM    5  H   UNL     1     -12.893  10.257  68.343  1.00  0.00     0.000 HD 
BRANCH   4   6
HETATM    6  C   UNL     1     -11.457  10.844  69.864  1.00  0.00    -0.323 C  
HETATM    7  C   UNL     1     -12.354  11.913  70.504  1.00  0.00    -0.372 C  
HETATM    8  C   UNL     1     -11.491   9.607  70.763  1.00  0.00    -0.399 C  
ENDBRANCH   4   6
ENDBRANCH   3   4
BRANCH   3   9
HETATM    9  C   UNL     1     -10.277  12.267  67.449  1.00  0.00    -0.203 C  
HETATM   10  H   UNL     1      -8.402  12.874  67.354  1.00  0.00     0.000 HD 
HETATM   11  O   UNL     1      -8.868  12.048  67.305  1.00  0.00    -0.169 OA 
BRANCH   9  12
HETATM   12  C   UNL     1     -10.662  13.341  66.446  1.00  0.00    -0.291 A  
HETATM   13  C   UNL     1     -11.357  13.063  65.258  1.00  0.00    -0.325 A  
HETATM   14  C   UNL     1     -11.673  14.097  64.377  1.00  0.00    -0.392 A  
HETATM   15  O   UNL     1     -12.357  13.870  63.215  1.00  0.00    -1.115 OA 
HETATM   16  C   UNL     1     -11.308  15.407  64.664  1.00  0.00    -0.355 A  
HETATM   17  H   UNL     1     -12.573  14.574  62.615  1.00  0.00     0.000 HD 
HETATM   18  C   UNL     1     -10.606  15.703  65.819  1.00  0.00    -0.374 A  
HETATM   19  O   UNL     1     -11.638  16.412  63.801  1.00  0.00    -1.605 OA 
HETATM   20  H   UNL     1     -11.389  17.308  63.997  1.00  0.00     0.000 HD 
HETATM   21  C   UNL     1     -10.276  14.673  66.702  1.00  0.00    -0.275 A  
ENDBRANCH   9  12
ENDBRANCH   3   9
ENDBRANCH   2   3
TORSDOF 5
ENDMDL
MODEL        6
REMARK 921   NORMALIZED FREE ENERGY PREDICTED BY IDOCK:   -6.02 KCAL/MOL
REMARK 922        TOTAL FREE ENERGY PREDICTED BY IDOCK:   -8.46 KCAL/MOL
REMARK 923 INTER-LIGAND FREE ENERGY PREDICTED BY IDOCK:   -7.87 KCAL/MOL
REMARK 924 INTRA-LIGAND FREE ENERGY PREDICTED BY IDOCK:   -0.59 KCAL/MOL
REMARK 927      BINDING AFFINITY PREDICTED BY RF-SCORE:    0.00 PKD
ROOT
HETATM    1  C   UNL     1      -9.091  17.022  68.934  1.00  0.00    -0.208 C  
HETATM    2  C   UNL     1     -10.578  16.727  69.088  1.00  0.00    -0.343 C  
ENDROOT
BRANCH   2   3
HETATM    3  C   UNL     1     -10.932  15.232  69.291  1.00  0.00    -0.261 C  
BRANCH   3   4
HETATM    4  N   UNL     1     -12.365  14.950  69.509  1.00  0.00    -0.541 NA 
HETATM    5  H   UNL     1     -13.031  15.008  68.740  1.00  0.00     0.000 HD 
BRANCH   4   6
HETATM    6  C   UNL     1     -12.809  14.585  70.858  1.00  0.00    -0.360 C  
HETATM    7  C   UNL     1     -12.519  13.090  71.053  1.00  0.00    -0.385 C  
HETATM    8  C   UNL     1     -12.101  15.347  71.979  1.00  0.00    -0.477 C  
ENDBRANCH   4   6
ENDBRANCH   3   4
BRANCH   3   9
HETATM    9  C   UNL     1     -10.235  14.361  68.180  1.00  0.00    -0.232 C  
HETATM   10  H   UNL     1      -9.702  12.476  67.948  1.00  0.00     0.000 HD 
HETATM   11  O   UNL     1     -10.123  13.002  68.618  1.00  0.00    -0.218 OA 
BRANCH   9  12
HETATM   12  C   UNL     1     -10.888  14.331  66.809  1.00  0.00    -0.298 A  
HETATM   13  C   UNL     1     -10.842  15.415  65.917  1.00  0.00    -0.328 A  
HETATM   14  C   UNL     1     -11.469  15.322  64.675  1.00  0.00    -0.354 A  
HETATM   15  O   UNL     1     -11.439  16.351  63.774  1.00  0.00    -1.590 OA 
HETATM   16  C   UNL     1     -12.143  14.163  64.308  1.00  0.00    -0.444 A  
HETATM   17  H   UNL     1     -11.867  16.288  62.928  1.00  0.00     0.000 HD 
HETATM   18  C   UNL     1     -12.218  13.090  65.177  1.00  0.00    -0.507 A  
HETATM   19  O   UNL     1     -12.739  14.080  63.082  1.00  0.00    -0.928 OA 
HETATM   20  H   UNL     1     -13.198  13.288  62.830  1.00  0.00     0.000 HD 
HETATM   21  C   UNL     1     -11.602  13.176  66.427  1.00  0.00    -0.394 A  
ENDBRANCH   9  12
ENDBRANCH   3   9
ENDBRANCH   2   3
TORSDOF 5
ENDMDL
MODEL        7
REMARK 921   NORMALIZED FREE ENERGY PREDICTED BY IDOCK:   -5.94 KCAL/MOL
REMARK 922        TOTAL FREE ENERGY PREDICTED BY IDOCK:   -8.35 KCAL/MOL
REMARK 923 INTER-LIGAND FREE ENERGY PREDICTED BY IDOCK:   -7.75 KCAL/MOL
REMARK 924 INTRA-LIGAND FREE ENERGY PREDICTED BY IDOCK:   -0.60 KCAL/MOL
REMARK 927      BINDING AFFINITY PREDICTED BY RF-SCORE:    0.00 PKD
ROOT
HETATM    1  C   UNL     1     -12.595  11.230  71.132  1.00  0.00    -0.501 C  
HETATM    2  C   UNL     1     -12.249  11.153  69.651  1.00  0.00    -0.360 C  
ENDROOT
BRANCH   2   3
HETATM    3  C   UNL     1     -12.004  12.519  68.962  1.00  0.00    -0.233 C  
BRANCH   3   4
HETATM    4  N   UNL     1     -11.467  13.578  69.841  1.00  0.00    -0.478 NA 
HETATM    5  H   UNL     1     -10.629  13.417  70.399  1.00  0.00     0.000 HD 
BRANCH   4   6
HETATM    6  C   UNL     1     -12.166  14.866  69.892  1.00  0.00    -0.309 C  
HETATM    7  C   UNL     1     -13.228  14.774  70.996  1.00  0.00    -0.435 C  
HETATM    8  C   UNL     1     -11.261  16.057  70.213  1.00  0.00    -0.397 C  
ENDBRANCH   4   6
ENDBRANCH   3   4
BRANCH   3   9
HETATM    9  C   UNL     1     -11.227  12.305  67.610  1.00  0.00    -0.290 C  
HETATM   10  H   UNL     1     -11.212  10.979  66.149  1.00  0.00     0.000 HD 
HETATM   11  O   UNL     1     -11.681  11.109  66.965  1.00  0.00    -0.460 OA 
BRANCH   9  12
HETATM   12  C   UNL     1     -11.303  13.419  66.581  1.00  0.00    -0.350 A  
HETATM   13  C   UNL     1     -10.480  14.556  66.623  1.00  0.00    -0.274 A  
HETATM   14  C   UNL     1     -10.608  15.545  65.648  1.00  0.00    -0.373 A  
HETATM   15  O   UNL     1      -9.819  16.662  65.647  1.00  0.00    -0.528 OA 
HETATM   16  C   UNL     1     -11.545  15.417  64.629  1.00  0.00    -0.311 A  
HETATM   17  H   UNL     1      -9.906  17.336  64.984  1.00  0.00     0.000 HD 
HETATM   18  C   UNL     1     -12.380  14.316  64.578  1.00  0.00    -0.432 A  
HETATM   19  O   UNL     1     -11.648  16.386  63.672  1.00  0.00    -1.514 OA 
HETATM   20  H   UNL     1     -12.287  16.299  62.975  1.00  0.00     0.000 HD 
HETATM   21  C   UNL     1     -12.266  13.325  65.555  1.00  0.00    -0.506 A  
ENDBRANCH   9  12
ENDBRANCH   3   9
ENDBRANCH   2   3
TORSDOF 5
ENDMDL
MODEL        8
REMARK 921   NORMALIZED FREE ENERGY PREDICTED BY IDOCK:   -5.81 KCAL/MOL
REMARK 922        TOTAL FREE ENERGY PREDICTED BY IDOCK:   -8.18 KCAL/MOL
REMARK 923 INTER-LIGAND FREE ENERGY PREDICTED BY IDOCK:   -7.30 KCAL/MOL
REMARK 924 INTRA-LIGAND FREE ENERGY PREDICTED BY IDOCK:   -0.88 KCAL/MOL
REMARK 927      BINDING AFFINITY PREDICTED BY RF-SCORE:    0.00 PKD
ROOT
HETATM    1  C   UNL     1      -8.223  11.763  68.079  1.00  0.00    -0.152 C  
HETATM    2  C   UNL     1      -9.553  11.336  68.686  1.00  0.00    -0.195 C  
ENDROOT
BRANCH   2   3
HETATM    3  C   UNL     1     -10.639  10.921  67.662  1.00  0.00    -0.224 C  
BRANCH   3   4
HETATM    4  N   UNL     1     -11.075   9.512  67.746  1.00  0.00    -0.494 NA 
HETATM    5  H   UNL     1     -11.847   9.241  68.354  1.00  0.00     0.000 HD 
BRANCH   4   6
HETATM    6  C   UNL     1     -10.372   8.512  66.936  1.00  0.00    -0.297 C  
HETATM    7  C   UNL     1      -9.748   9.241  65.738  1.00  0.00    -0.339 C  
HETATM    8  C   UNL     1      -9.248   7.784  67.676  1.00  0.00    -0.146 C  
ENDBRANCH   4   6
ENDBRANCH   3   4
BRANCH   3   9
HETATM    9  C   UNL     1     -11.798  11.986  67.649  1.00  0.00    -0.224 C  
HETATM   10  H   UNL     1     -12.594  13.268  68.921  1.00  0.00     0.000 HD 
HETATM   11  O   UNL     1     -11.894  12.625  68.928  1.00  0.00    -0.302 OA 
BRANCH   9  12
HETATM   12  C   UNL     1     -11.715  13.090  66.609  1.00  0.00    -0.438 A  
HETATM   13  C   UNL     1     -12.148  12.925  65.284  1.00  0.00    -0.496 A  
HETATM   14  C   UNL     1     -12.037  13.980  64.378  1.00  0.00    -0.458 A  
HETATM   15  O   UNL     1     -12.456  13.863  63.082  1.00  0.00    -1.121 OA 
HETATM   16  C   UNL     1     -11.500  15.199  64.775  1.00  0.00    -0.383 A  
HETATM   17  H   UNL     1     -12.381  14.581  62.464  1.00  0.00     0.000 HD 
HETATM   18  C   UNL     1     -11.049  15.379  66.070  1.00  0.00    -0.233 A  
HETATM   19  O   UNL     1     -11.412  16.229  63.882  1.00  0.00    -1.484 OA 
HETATM   20  H   UNL     1     -11.046  17.062  64.152  1.00  0.00     0.000 HD 
HETATM   21  C   UNL     1     -11.147  14.326  66.981  1.00  0.00    -0.317 A  
ENDBRANCH   9  12
ENDBRANCH   3   9
ENDBRANCH   2   3
TORSDOF 5
ENDMDL
MODEL        9
REMARK 921   NORMALIZED FREE ENERGY PREDICTED BY IDOCK:   -5.75 KCAL/MOL
REMARK 922        TOTAL FREE ENERGY PREDICTED BY IDOCK:   -8.10 KCAL/MOL
REMARK 923 INTER-LIGAND FREE ENERGY PREDICTED BY IDOCK:   -7.30 KCAL/MOL
REMARK 924 INTRA-LIGAND FREE ENERGY PREDICTED BY IDOCK:   -0.80 KCAL/MOL
REMARK 927      BINDING AFFINITY PREDICTED BY RF-SCORE:    0.00 PKD
ROOT
HETATM    1  C   UNL     1     -12.408  12.848  64.566  1.00  0.00    -0.483 C  
HETATM    2  C   UNL     1     -12.085  14.337  64.543  1.00  0.00    -0.499 C  
ENDROOT
BRANCH   2   3
HETATM    3  C   UNL     1     -10.918  14.769  65.465  1.00  0.00    -0.346 C  
BRANCH   3   4
HETATM    4  N   UNL     1      -9.810  13.799  65.573  1.00  0.00    -0.504 NA 
HETATM    5  H   UNL     1      -9.207  13.604  64.774  1.00  0.00     0.000 HD 
BRANCH   4   6
HETATM    6  C   UNL     1      -9.595  13.121  66.856  1.00  0.00    -0.248 C  
HETATM    7  C   UNL     1      -8.407  13.804  67.548  1.00  0.00    -0.197 C  
HETATM    8  C   UNL     1     -10.791  13.189  67.808  1.00  0.00    -0.261 C  
ENDBRANCH   4   6
ENDBRANCH   3   4
BRANCH   3   9
HETATM    9  C   UNL     1     -10.491  16.247  65.130  1.00  0.00    -0.227 C  
HETATM   10  H   UNL     1     -11.139  17.710  63.975  1.00  0.00     0.000 HD 
HETATM   11  O   UNL     1     -11.397  16.818  64.178  1.00  0.00    -1.194 OA 
BRANCH   9  12
HETATM   12  C   UNL     1     -10.396  17.223  66.290  1.00  0.00    -0.323 A  
HETATM   13  C   UNL     1     -10.169  18.597  66.116  1.00  0.00    -0.450 A  
HETATM   14  C   UNL     1     -10.087  19.437  67.226  1.00  0.00    -0.390 A  
HETATM   15  O   UNL     1      -9.877  20.782  67.099  1.00  0.00    -0.577 OA 
HETATM   16  C   UNL     1     -10.231  18.926  68.511  1.00  0.00    -0.347 A  
HETATM   17  H   UNL     1      -9.821  21.355  67.855  1.00  0.00     0.000 HD 
HETATM   18  C   UNL     1     -10.437  17.573  68.709  1.00  0.00    -0.318 A  
HETATM   19  O   UNL     1     -10.165  19.762  69.589  1.00  0.00    -0.611 OA 
HETATM   20  H   UNL     1     -10.264  19.414  70.467  1.00  0.00     0.000 HD 
HETATM   21  C   UNL     1     -10.510  16.723  67.604  1.00  0.00    -0.328 A  
ENDBRANCH   9  12
ENDBRANCH   3   9
ENDBRANCH   2   3
TORSDOF 5
ENDMDL
MODEL       10
REMARK 921   NORMALIZED FREE ENERGY PREDICTED BY IDOCK:   -5.74 KCAL/MOL
REMARK 922        TOTAL FREE ENERGY PREDICTED BY IDOCK:   -8.09 KCAL/MOL
REMARK 923 INTER-LIGAND FREE ENERGY PREDICTED BY IDOCK:   -7.75 KCAL/MOL
REMARK 924 INTRA-LIGAND FREE ENERGY PREDICTED BY IDOCK:   -0.34 KCAL/MOL
REMARK 927      BINDING AFFINITY PREDICTED BY RF-SCORE:    0.00 PKD
ROOT
HETATM    1  C   UNL     1      -9.994  17.252  68.949  1.00  0.00    -0.307 C  
HETATM    2  C   UNL     1     -11.260  16.438  68.711  1.00  0.00    -0.313 C  
ENDROOT
BRANCH   2   3
HETATM    3  C   UNL     1     -11.266  15.031  69.358  1.00  0.00    -0.284 C  
BRANCH   3   4
HETATM    4  N   UNL     1     -12.553  14.620  69.956  1.00  0.00    -0.525 NA 
HETATM    5  H   UNL     1     -13.039  13.787  69.627  1.00  0.00     0.000 HD 
BRANCH   4   6
HETATM    6  C   UNL     1     -13.116  15.438  71.035  1.00  0.00    -0.501 C  
HETATM    7  C   UNL     1     -14.338  14.694  71.592  1.00  0.00    -0.601 C  
HETATM    8  C   UNL     1     -12.154  15.689  72.198  1.00  0.00    -0.539 C  
ENDBRANCH   4   6
ENDBRANCH   3   4
BRANCH   3   9
HETATM    9  C   UNL     1     -10.616  13.987  68.374  1.00  0.00    -0.254 C  
HETATM   10  H   UNL     1     -10.405  12.028  68.284  1.00  0.00     0.000 HD 
HETATM   11  O   UNL     1     -10.798  12.658  68.877  1.00  0.00    -0.237 OA 
BRANCH   9  12
HETATM   12  C   UNL     1     -11.109  13.987  66.937  1.00  0.00    -0.310 A  
HETATM   13  C   UNL     1     -12.036  13.053  66.447  1.00  0.00    -0.466 A  
HETATM   14  C   UNL     1     -12.441  13.106  65.114  1.00  0.00    -0.483 A  
HETATM   15  O   UNL     1     -13.349  12.222  64.601  1.00  0.00    -0.717 OA 
HETATM   16  C   UNL     1     -11.936  14.080  64.260  1.00  0.00    -0.435 A  
HETATM   17  H   UNL     1     -13.625  12.258  63.693  1.00  0.00     0.000 HD 
HETATM   18  C   UNL     1     -11.008  14.999  64.715  1.00  0.00    -0.389 A  
HETATM   19  O   UNL     1     -12.354  14.131  62.961  1.00  0.00    -1.070 OA 
HETATM   20  H   UNL     1     -12.009  14.796  62.377  1.00  0.00     0.000 HD 
HETATM   21  C   UNL     1     -10.588  14.947  66.045  1.00  0.00    -0.321 A  
ENDBRANCH   9  12
ENDBRANCH   3   9
ENDBRANCH   2   3
TORSDOF 5
ENDMDL
MODEL       11
REMARK 921   NORMALIZED FREE ENERGY PREDICTED BY IDOCK:   -5.69 KCAL/MOL
REMARK 922        TOTAL FREE ENERGY PREDICTED BY IDOCK:   -8.03 KCAL/MOL
REMARK 923 INTER-LIGAND FREE ENERGY PREDICTED BY IDOCK:   -7.05 KCAL/MOL
REMARK 924 INTRA-LIGAND FREE ENERGY PREDICTED BY IDOCK:   -0.98 KCAL/MOL
REMARK 927      BINDING AFFINITY PREDICTED BY RF-SCORE:    0.00 PKD
ROOT
HETATM    1  C   UNL     1     -12.952  14.682  70.970  1.00  0.00    -0.419 C  
HETATM    2  C   UNL     1     -12.432  13.457  70.230  1.00  0.00    -0.285 C  
ENDROOT
BRANCH   2   3
HETATM    3  C   UNL     1     -11.468  13.759  69.056  1.00  0.00    -0.305 C  
BRANCH   3   4
HETATM    4  N   UNL     1     -10.181  14.373  69.442  1.00  0.00    -0.424 NA 
HETATM    5  H   UNL     1      -9.567  13.916  70.115  1.00  0.00     0.000 HD 
BRANCH   4   6
HETATM    6  C   UNL     1      -9.806  15.654  68.835  1.00  0.00    -0.219 C  
HETATM    7  C   UNL     1      -8.987  15.348  67.574  1.00  0.00    -0.191 C  
HETATM    8  C   UNL     1     -10.995  16.522  68.420  1.00  0.00    -0.348 C  
ENDBRANCH   4   6
ENDBRANCH   3   4
BRANCH   3   9
HETATM    9  C   UNL     1     -11.361  12.502  68.114  1.00  0.00    -0.295 C  
HETATM   10  H   UNL     1     -12.209  10.726  67.976  1.00  0.00     0.000 HD 
HETATM   11  O   UNL     1     -12.274  11.485  68.544  1.00  0.00    -0.524 OA 
BRANCH   9  12
HETATM   12  C   UNL     1     -11.610  12.722  66.631  1.00  0.00    -0.430 A  
HETATM   13  C   UNL     1     -11.198  11.812  65.645  1.00  0.00    -0.324 A  
HETATM   14  C   UNL     1     -11.454  12.079  64.300  1.00  0.00    -0.361 A  
HETATM   15  O   UNL     1     -11.079  11.214  63.310  1.00  0.00    -0.771 OA 
HETATM   16  C   UNL     1     -12.119  13.240  63.924  1.00  0.00    -0.468 A  
HETATM   17  H   UNL     1     -11.253  11.396  62.393  1.00  0.00     0.000 HD 
HETATM   18  C   UNL     1     -12.518  14.161  64.877  1.00  0.00    -0.419 A  
HETATM   19  O   UNL     1     -12.378  13.481  62.605  1.00  0.00    -0.763 OA 
HETATM   20  H   UNL     1     -12.832  14.275  62.347  1.00  0.00     0.000 HD 
HETATM   21  C   UNL     1     -12.257  13.907  66.225  1.00  0.00    -0.498 A  
ENDBRANCH   9  12
ENDBRANCH   3   9
ENDBRANCH   2   3
TORSDOF 5
ENDMDL
MODEL       12
REMARK 921   NORMALIZED FREE ENERGY PREDICTED BY IDOCK:   -5.64 KCAL/MOL
REMARK 922        TOTAL FREE ENERGY PREDICTED BY IDOCK:   -7.96 KCAL/MOL
REMARK 923 INTER-LIGAND FREE ENERGY PREDICTED BY IDOCK:   -7.25 KCAL/MOL
REMARK 924 INTRA-LIGAND FREE ENERGY PREDICTED BY IDOCK:   -0.71 KCAL/MOL
REMARK 927      BINDING AFFINITY PREDICTED BY RF-SCORE:    0.00 PKD
ROOT
HETATM    1  C   UNL     1     -11.937  11.639  68.940  1.00  0.00    -0.355 C  
HETATM    2  C   UNL     1     -11.356  13.010  69.264  1.00  0.00    -0.310 C  
ENDROOT
BRANCH   2   3
HETATM    3  C   UNL     1     -12.091  14.206  68.610  1.00  0.00    -0.285 C  
BRANCH   3   4
HETATM    4  N   UNL     1     -12.463  15.296  69.534  1.00  0.00    -0.597 NA 
HETATM    5  H   UNL     1     -12.588  16.249  69.193  1.00  0.00     0.000 HD 
BRANCH   4   6
HETATM    6  C   UNL     1     -12.649  14.978  70.954  1.00  0.00    -0.356 C  
HETATM    7  C   UNL     1     -11.801  15.968  71.765  1.00  0.00    -0.599 C  
HETATM    8  C   UNL     1     -14.095  15.096  71.438  1.00  0.00    -0.598 C  
ENDBRANCH   4   6
ENDBRANCH   3   4
BRANCH   3   9
HETATM    9  C   UNL     1     -11.328  14.655  67.308  1.00  0.00    -0.353 C  
HETATM   10  H   UNL     1      -9.487  15.167  66.819  1.00  0.00     0.000 HD 
HETATM   11  O   UNL     1      -9.947  14.895  67.605  1.00  0.00    -0.224 OA 
BRANCH   9  12
HETATM   12  C   UNL     1     -11.367  13.710  66.119  1.00  0.00    -0.324 A  
HETATM   13  C   UNL     1     -10.217  13.106  65.586  1.00  0.00    -0.294 A  
HETATM   14  C   UNL     1     -10.324  12.253  64.488  1.00  0.00    -0.311 A  
HETATM   15  O   UNL     1      -9.230  11.636  63.946  1.00  0.00    -0.443 OA 
HETATM   16  C   UNL     1     -11.562  11.990  63.914  1.00  0.00    -0.449 A  
HETATM   17  H   UNL     1      -9.302  11.055  63.198  1.00  0.00     0.000 HD 
HETATM   18  C   UNL     1     -12.707  12.588  64.410  1.00  0.00    -0.447 A  
HETATM   19  O   UNL     1     -11.654  11.139  62.850  1.00  0.00    -0.784 OA 
HETATM   20  H   UNL     1     -12.500  10.960  62.457  1.00  0.00     0.000 HD 
HETATM   21  C   UNL     1     -12.609  13.452  65.502  1.00  0.00    -0.520 A  
ENDBRANCH   9  12
ENDBRANCH   3   9
ENDBRANCH   2   3
TORSDOF 5
ENDMDL
MODEL       13
REMARK 921   NORMALIZED FREE ENERGY PREDICTED BY IDOCK:   -5.61 KCAL/MOL
REMARK 922        TOTAL FREE ENERGY PREDICTED BY IDOCK:   -7.92 KCAL/MOL
REMARK 923 INTER-LIGAND FREE ENERGY PREDICTED BY IDOCK:   -7.08 KCAL/MOL
REMARK 924 INTRA-LIGAND FREE ENERGY PREDICTED BY IDOCK:   -0.83 KCAL/MOL
REMARK 927      BINDING AFFINITY PREDICTED BY RF-SCORE:    0.00 PKD
ROOT
HETATM    1  C   UNL     1      -9.469   9.965  69.520  1.00  0.00    -0.239 C  
HETATM    2  C   UNL     1     -10.815  10.562  69.130  1.00  0.00    -0.277 C  
ENDROOT
BRANCH   2   3
HETATM    3  C   UNL     1     -10.835  11.303  67.770  1.00  0.00    -0.235 C  
BRANCH   3   4
HETATM    4  N   UNL     1     -11.033  10.440  66.588  1.00  0.00    -0.074 NA 
HETATM    5  H   UNL     1     -11.919   9.957  66.437  1.00  0.00     0.000 HD 
BRANCH   4   6
HETATM    6  C   UNL     1      -9.928  10.292  65.636  1.00  0.00    -0.280 C  
HETATM    7  C   UNL     1     -10.409  10.827  64.279  1.00  0.00    -0.401 C  
HETATM    8  C   UNL     1      -8.664  11.064  66.019  1.00  0.00    -0.192 C  
ENDBRANCH   4   6
ENDBRANCH   3   4
BRANCH   3   9
HETATM    9  C   UNL     1     -11.785  12.555  67.857  1.00  0.00    -0.359 C  
HETATM   10  H   UNL     1     -12.169  13.986  69.160  1.00  0.00     0.000 HD 
HETATM   11  O   UNL     1     -11.596  13.230  69.107  1.00  0.00    -0.279 OA 
BRANCH   9  12
HETATM   12  C   UNL     1     -11.653  13.604  66.765  1.00  0.00    -0.393 A  
HETATM   13  C   UNL     1     -12.302  13.499  65.524  1.00  0.00    -0.524 A  
HETATM   14  C   UNL     1     -12.133  14.496  64.564  1.00  0.00    -0.484 A  
HETATM   15  O   UNL     1     -12.755  14.437  63.347  1.00  0.00    -0.938 OA 
HETATM   16  C   UNL     1     -11.326  15.598  64.822  1.00  0.00    -0.343 A  
HETATM   17  H   UNL     1     -12.640  15.116  62.692  1.00  0.00     0.000 HD 
HETATM   18  C   UNL     1     -10.661  15.713  66.030  1.00  0.00    -0.322 A  
HETATM   19  O   UNL     1     -11.182  16.574  63.878  1.00  0.00    -1.440 OA 
HETATM   20  H   UNL     1     -10.631  17.328  64.055  1.00  0.00     0.000 HD 
HETATM   21  C   UNL     1     -10.817  14.716  66.995  1.00  0.00    -0.304 A  
ENDBRANCH   9  12
ENDBRANCH   3   9
ENDBRANCH   2   3
TORSDOF 5
ENDMDL
MODEL       14
REMARK 921   NORMALIZED FREE ENERGY PREDICTED BY IDOCK:   -5.57 KCAL/MOL
REMARK 922        TOTAL FREE ENERGY PREDICTED BY IDOCK:   -7.88 KCAL/MOL
REMARK 923 INTER-LIGAND FREE ENERGY PREDICTED BY IDOCK:   -7.04 KCAL/MOL
REMARK 924 INTRA-LIGAND FREE ENERGY PREDICTED BY IDOCK:   -0.84 KCAL/MOL
REMARK 927      BINDING AFFINITY PREDICTED BY RF-SCORE:    0.00 PKD
ROOT
HETATM    1  C   UNL     1     -12.426  10.629  71.218  1.00  0.00    -0.515 C  
HETATM    2  C   UNL     1     -12.052  11.771  70.282  1.00  0.00    -0.426 C  
ENDROOT
BRANCH   2   3
HETATM    3  C   UNL     1     -11.113  11.381  69.114  1.00  0.00    -0.258 C  
BRANCH   3   4
HETATM    4  N   UNL     1     -11.653  10.368  68.185  1.00  0.00    -0.703 NA 
HETATM    5  H   UNL     1     -12.552  10.509  67.725  1.00  0.00     0.000 HD 
BRANCH   4   6
HETATM    6  C   UNL     1     -10.868   9.154  67.938  1.00  0.00    -0.083 C  
HETATM    7  C   UNL     1     -10.170   9.321  66.581  1.00  0.00    -0.323 C  
HETATM    8  C   UNL     1      -9.788   8.883  68.987  1.00  0.00    -0.182 C  
ENDBRANCH   4   6
ENDBRANCH   3   4
BRANCH   3   9
HETATM    9  C   UNL     1     -10.536  12.679  68.435  1.00  0.00    -0.238 C  
HETATM   10  H   UNL     1      -8.756  13.409  67.998  1.00  0.00     0.000 HD 
HETATM   11  O   UNL     1      -9.104  12.625  68.407  1.00  0.00    -0.190 OA 
BRANCH   9  12
HETATM   12  C   UNL     1     -10.994  12.984  67.019  1.00  0.00    -0.289 A  
HETATM   13  C   UNL     1     -10.185  12.770  65.891  1.00  0.00    -0.300 A  
HETATM   14  C   UNL     1     -10.666  13.078  64.620  1.00  0.00    -0.367 A  
HETATM   15  O   UNL     1      -9.914  12.875  63.496  1.00  0.00    -0.681 OA 
HETATM   16  C   UNL     1     -11.945  13.597  64.454  1.00  0.00    -0.437 A  
HETATM   17  H   UNL     1     -10.241  13.085  62.629  1.00  0.00     0.000 HD 
HETATM   18  C   UNL     1     -12.753  13.834  65.551  1.00  0.00    -0.530 A  
HETATM   19  O   UNL     1     -12.410  13.879  63.201  1.00  0.00    -1.122 OA 
HETATM   20  H   UNL     1     -13.284  14.233  63.088  1.00  0.00     0.000 HD 
HETATM   21  C   UNL     1     -12.277  13.538  66.829  1.00  0.00    -0.392 A  
ENDBRANCH   9  12
ENDBRANCH   3   9
ENDBRANCH   2   3
TORSDOF 5
ENDMDL
MODEL       15
REMARK 921   NORMALIZED FREE ENERGY PREDICTED BY IDOCK:   -5.57 KCAL/MOL
REMARK 922        TOTAL FREE ENERGY PREDICTED BY IDOCK:   -7.88 KCAL/MOL
REMARK 923 INTER-LIGAND FREE ENERGY PREDICTED BY IDOCK:   -7.14 KCAL/MOL
REMARK 924 INTRA-LIGAND FREE ENERGY PREDICTED BY IDOCK:   -0.73 KCAL/MOL
REMARK 927      BINDING AFFINITY PREDICTED BY RF-SCORE:    0.00 PKD
ROOT
HETATM    1  C   UNL     1     -12.040  12.797  63.536  1.00  0.00    -0.642 C  
HETATM    2  C   UNL     1     -12.167  14.161  64.203  1.00  0.00    -0.423 C  
ENDROOT
BRANCH   2   3
HETATM    3  C   UNL     1     -11.008  14.533  65.160  1.00  0.00    -0.379 C  
BRANCH   3   4
HETATM    4  N   UNL     1      -9.891  13.567  65.200  1.00  0.00    -0.567 NA 
HETATM    5  H   UNL     1      -9.392  13.312  64.349  1.00  0.00     0.000 HD 
BRANCH   4   6
HETATM    6  C   UNL     1      -9.517  12.983  66.492  1.00  0.00    -0.245 C  
HETATM    7  C   UNL     1     -10.794  12.866  67.336  1.00  0.00    -0.272 C  
HETATM    8  C   UNL     1      -8.895  11.589  66.393  1.00  0.00    -0.193 C  
ENDBRANCH   4   6
ENDBRANCH   3   4
BRANCH   3   9
HETATM    9  C   UNL     1     -10.593  16.036  64.938  1.00  0.00    -0.214 C  
HETATM   10  H   UNL     1     -11.260  17.580  63.908  1.00  0.00     0.000 HD 
HETATM   11  O   UNL     1     -11.511  16.673  64.042  1.00  0.00    -1.192 OA 
BRANCH   9  12
HETATM   12  C   UNL     1     -10.494  16.918  66.171  1.00  0.00    -0.276 A  
HETATM   13  C   UNL     1     -10.708  16.439  67.473  1.00  0.00    -0.298 A  
HETATM   14  C   UNL     1     -10.608  17.306  68.561  1.00  0.00    -0.350 A  
HETATM   15  O   UNL     1     -10.798  16.876  69.845  1.00  0.00    -0.381 OA 
HETATM   16  C   UNL     1     -10.294  18.646  68.370  1.00  0.00    -0.311 A  
HETATM   17  H   UNL     1     -10.730  17.467  70.586  1.00  0.00     0.000 HD 
HETATM   18  C   UNL     1     -10.097  19.146  67.095  1.00  0.00    -0.457 A  
HETATM   19  O   UNL     1     -10.183  19.481  69.445  1.00  0.00    -0.610 OA 
HETATM   20  H   UNL     1      -9.968  20.397  69.315  1.00  0.00     0.000 HD 
HETATM   21  C   UNL     1     -10.206  18.288  65.999  1.00  0.00    -0.334 A  
ENDBRANCH   9  12
ENDBRANCH   3   9
ENDBRANCH   2   3
TORSDOF 5
ENDMDL
MODEL       16
REMARK 921   NORMALIZED FREE ENERGY PREDICTED BY IDOCK:   -5.57 KCAL/MOL
REMARK 922        TOTAL FREE ENERGY PREDICTED BY IDOCK:   -7.87 KCAL/MOL
REMARK 923 INTER-LIGAND FREE ENERGY PREDICTED BY IDOCK:   -7.26 KCAL/MOL
REMARK 924 INTRA-LIGAND FREE ENERGY PREDICTED BY IDOCK:   -0.61 KCAL/MOL
REMARK 927      BINDING AFFINITY PREDICTED BY RF-SCORE:    0.00 PKD
ROOT
HETATM    1  C   UNL     1      -9.523   9.848  67.444  1.00  0.00    -0.173 C  
HETATM    2  C   UNL     1      -9.386  11.052  68.368  1.00  0.00    -0.179 C  
ENDROOT
BRANCH   2   3
HETATM    3  C   UNL     1     -10.707  11.804  68.666  1.00  0.00    -0.220 C  
BRANCH   3   4
HETATM    4  N   UNL     1     -11.208  11.669  70.050  1.00  0.00    -0.489 NA 
HETATM    5  H   UNL     1     -11.137  12.445  70.707  1.00  0.00     0.000 HD 
BRANCH   4   6
HETATM    6  C   UNL     1     -11.808  10.395  70.456  1.00  0.00    -0.337 C  
HETATM    7  C   UNL     1     -10.772   9.644  71.304  1.00  0.00    -0.317 C  
HETATM    8  C   UNL     1     -13.079  10.540  71.294  1.00  0.00    -0.478 C  
ENDBRANCH   4   6
ENDBRANCH   3   4
BRANCH   3   9
HETATM    9  C   UNL     1     -10.618  13.278  68.121  1.00  0.00    -0.249 C  
HETATM   10  H   UNL     1      -9.205  14.620  67.815  1.00  0.00     0.000 HD 
HETATM   11  O   UNL     1      -9.259  13.730  68.144  1.00  0.00    -0.188 OA 
BRANCH   9  12
HETATM   12  C   UNL     1     -11.145  13.533  66.719  1.00  0.00    -0.311 A  
HETATM   13  C   UNL     1     -10.976  14.756  66.050  1.00  0.00    -0.328 A  
HETATM   14  C   UNL     1     -11.491  14.924  64.765  1.00  0.00    -0.410 A  
HETATM   15  O   UNL     1     -11.339  16.095  64.076  1.00  0.00    -1.193 OA 
HETATM   16  C   UNL     1     -12.172  13.889  64.135  1.00  0.00    -0.393 A  
HETATM   17  H   UNL     1     -11.690  16.211  63.201  1.00  0.00     0.000 HD 
HETATM   18  C   UNL     1     -12.368  12.682  64.781  1.00  0.00    -0.556 A  
HETATM   19  O   UNL     1     -12.657  14.062  62.870  1.00  0.00    -0.958 OA 
HETATM   20  H   UNL     1     -13.122  13.355  62.439  1.00  0.00     0.000 HD 
HETATM   21  C   UNL     1     -11.865  12.507  66.072  1.00  0.00    -0.478 A  
ENDBRANCH   9  12
ENDBRANCH   3   9
ENDBRANCH   2   3
TORSDOF 5
ENDMDL
MODEL       17
REMARK 921   NORMALIZED FREE ENERGY PREDICTED BY IDOCK:   -5.57 KCAL/MOL
REMARK 922        TOTAL FREE ENERGY PREDICTED BY IDOCK:   -7.87 KCAL/MOL
REMARK 923 INTER-LIGAND FREE ENERGY PREDICTED BY IDOCK:   -7.10 KCAL/MOL
REMARK 924 INTRA-LIGAND FREE ENERGY PREDICTED BY IDOCK:   -0.77 KCAL/MOL
REMARK 927      BINDING AFFINITY PREDICTED BY RF-SCORE:    0.00 PKD
ROOT
HETATM    1  C   UNL     1     -10.464  20.128  66.993  1.00  0.00    -0.435 C  
HETATM    2  C   UNL     1     -10.113  19.282  68.210  1.00  0.00    -0.516 C  
ENDROOT
BRANCH   2   3
HETATM    3  C   UNL     1      -8.935  18.296  68.006  1.00  0.00    -0.290 C  
BRANCH   3   4
HETATM    4  N   UNL     1      -7.674  18.676  68.674  1.00  0.00    -0.314 NA 
HETATM    5  H   UNL     1      -7.564  18.564  69.681  1.00  0.00     0.000 HD 
BRANCH   4   6
HETATM    6  C   UNL     1      -6.584  19.218  67.856  1.00  0.00    -0.231 C  
HETATM    7  C   UNL     1      -6.671  18.560  66.472  1.00  0.00    -0.225 C  
HETATM    8  C   UNL     1      -6.645  20.734  67.657  1.00  0.00    -0.390 C  
ENDBRANCH   4   6
ENDBRANCH   3   4
BRANCH   3   9
HETATM    9  C   UNL     1      -9.420  16.822  68.269  1.00  0.00    -0.240 C  
HETATM   10  H   UNL     1     -10.756  15.925  69.410  1.00  0.00     0.000 HD 
HETATM   11  O   UNL     1     -10.464  16.815  69.251  1.00  0.00    -0.311 OA 
BRANCH   9  12
HETATM   12  C   UNL     1      -9.933  16.035  67.074  1.00  0.00    -0.257 A  
HETATM   13  C   UNL     1     -10.479  16.647  65.935  1.00  0.00    -0.324 A  
HETATM   14  C   UNL     1     -10.937  15.864  64.875  1.00  0.00    -0.411 A  
HETATM   15  O   UNL     1     -11.466  16.421  63.744  1.00  0.00    -1.590 OA 
HETATM   16  C   UNL     1     -10.856  14.478  64.934  1.00  0.00    -0.421 A  
HETATM   17  H   UNL     1     -11.778  15.888  63.022  1.00  0.00     0.000 HD 
HETATM   18  C   UNL     1     -10.339  13.852  66.054  1.00  0.00    -0.310 A  
HETATM   19  O   UNL     1     -11.293  13.724  63.883  1.00  0.00    -0.593 OA 
HETATM   20  H   UNL     1     -11.238  12.777  63.922  1.00  0.00     0.000 HD 
HETATM   21  C   UNL     1      -9.888  14.627  67.124  1.00  0.00    -0.237 A  
ENDBRANCH   9  12
ENDBRANCH   3   9
ENDBRANCH   2   3
TORSDOF 5
ENDMDL
MODEL       18
REMARK 921   NORMALIZED FREE ENERGY PREDICTED BY IDOCK:   -5.56 KCAL/MOL
REMARK 922        TOTAL FREE ENERGY PREDICTED BY IDOCK:   -7.86 KCAL/MOL
REMARK 923 INTER-LIGAND FREE ENERGY PREDICTED BY IDOCK:   -7.17 KCAL/MOL
REMARK 924 INTRA-LIGAND FREE ENERGY PREDICTED BY IDOCK:   -0.69 KCAL/MOL
REMARK 927      BINDING AFFINITY PREDICTED BY RF-SCORE:    0.00 PKD
ROOT
HETATM    1  C   UNL     1     -12.498  13.015  65.352  1.00  0.00    -0.531 C  
HETATM    2  C   UNL     1     -12.100  13.984  66.458  1.00  0.00    -0.488 C  
ENDROOT
BRANCH   2   3
HETATM    3  C   UNL     1     -12.147  13.397  67.891  1.00  0.00    -0.251 C  
BRANCH   3   4
HETATM    4  N   UNL     1     -11.923  11.940  67.982  1.00  0.00    -0.553 NA 
HETATM    5  H   UNL     1     -12.542  11.287  67.502  1.00  0.00     0.000 HD 
BRANCH   4   6
HETATM    6  C   UNL     1     -10.791  11.454  68.777  1.00  0.00    -0.208 C  
HETATM    7  C   UNL     1     -11.348  10.502  69.845  1.00  0.00    -0.380 C  
HETATM    8  C   UNL     1      -9.743  10.685  67.970  1.00  0.00    -0.170 C  
ENDBRANCH   4   6
ENDBRANCH   3   4
BRANCH   3   9
HETATM    9  C   UNL     1     -11.268  14.276  68.858  1.00  0.00    -0.264 C  
HETATM   10  H   UNL     1     -10.392  16.043  68.805  1.00  0.00     0.000 HD 
HETATM   11  O   UNL     1     -10.923  15.512  68.222  1.00  0.00    -0.278 OA 
BRANCH   9  12
HETATM   12  C   UNL     1     -11.863  14.626  70.212  1.00  0.00    -0.363 A  
HETATM   13  C   UNL     1     -12.828  13.832  70.850  1.00  0.00    -0.341 A  
HETATM   14  C   UNL     1     -13.337  14.216  72.090  1.00  0.00    -0.436 A  
HETATM   15  O   UNL     1     -14.271  13.466  72.750  1.00  0.00    -0.693 OA 
HETATM   16  C   UNL     1     -12.895  15.382  72.706  1.00  0.00    -0.427 A  
HETATM   17  H   UNL     1     -14.618  13.727  73.595  1.00  0.00     0.000 HD 
HETATM   18  C   UNL     1     -11.958  16.190  72.088  1.00  0.00    -0.623 A  
HETATM   19  O   UNL     1     -13.390  15.737  73.928  1.00  0.00    -0.724 OA 
HETATM   20  H   UNL     1     -13.088  16.533  74.349  1.00  0.00     0.000 HD 
HETATM   21  C   UNL     1     -11.451  15.819  70.841  1.00  0.00    -0.438 A  
ENDBRANCH   9  12
ENDBRANCH   3   9
ENDBRANCH   2   3
TORSDOF 5
ENDMDL
MODEL       19
REMARK 921   NORMALIZED FREE ENERGY PREDICTED BY IDOCK:   -5.54 KCAL/MOL
REMARK 922        TOTAL FREE ENERGY PREDICTED BY IDOCK:   -7.84 KCAL/MOL
REMARK 923 INTER-LIGAND FREE ENERGY PREDICTED BY IDOCK:   -7.15 KCAL/MOL
REMARK 924 INTRA-LIGAND FREE ENERGY PREDICTED BY IDOCK:   -0.68 KCAL/MOL
REMARK 927      BINDING AFFINITY PREDICTED BY RF-SCORE:    0.00 PKD
ROOT
HETATM    1  C   UNL     1      -9.411  15.363  66.052  1.00  0.00    -0.381 C  
HETATM    2  C   UNL     1     -10.901  15.586  66.280  1.00  0.00    -0.283 C  
ENDROOT
BRANCH   2   3
HETATM    3  C   UNL     1     -11.576  14.572  67.237  1.00  0.00    -0.385 C  
BRANCH   3   4
HETATM    4  N   UNL     1     -12.334  15.170  68.355  1.00  0.00    -0.509 NA 
HETATM    5  H   UNL     1     -13.111  15.805  68.176  1.00  0.00     0.000 HD 
BRANCH   4   6
HETATM    6  C   UNL     1     -11.942  14.831  69.727  1.00  0.00    -0.321 C  
HETATM    7  C   UNL     1     -10.647  15.593  70.041  1.00  0.00    -0.342 C  
HETATM    8  C   UNL     1     -12.977  15.214  70.786  1.00  0.00    -0.468 C  
ENDBRANCH   4   6
ENDBRANCH   3   4
BRANCH   3   9
HETATM    9  C   UNL     1     -12.351  13.484  66.403  1.00  0.00    -0.357 C  
HETATM   10  H   UNL     1     -13.527  13.448  64.819  1.00  0.00     0.000 HD 
HETATM   11  O   UNL     1     -13.059  14.105  65.322  1.00  0.00    -0.763 OA 
BRANCH   9  12
HETATM   12  C   UNL     1     -11.531  12.354  65.803  1.00  0.00    -0.416 A  
HETATM   13  C   UNL     1     -11.373  12.177  64.419  1.00  0.00    -0.407 A  
HETATM   14  C   UNL     1     -10.612  11.113  63.936  1.00  0.00    -0.364 A  
HETATM   15  O   UNL     1     -10.425  10.911  62.596  1.00  0.00    -0.760 OA 
HETATM   16  C   UNL     1     -10.002  10.223  64.813  1.00  0.00    -0.321 A  
HETATM   17  H   UNL     1      -9.906  10.187  62.266  1.00  0.00     0.000 HD 
HETATM   18  C   UNL     1     -10.159  10.367  66.180  1.00  0.00    -0.299 A  
HETATM   19  O   UNL     1      -9.246   9.196  64.326  1.00  0.00    -0.433 OA 
HETATM   20  H   UNL     1      -8.829   8.588  64.925  1.00  0.00     0.000 HD 
HETATM   21  C   UNL     1     -10.928  11.423  66.673  1.00  0.00    -0.341 A  
ENDBRANCH   9  12
ENDBRANCH   3   9
ENDBRANCH   2   3
TORSDOF 5
ENDMDL
MODEL       20
REMARK 921   NORMALIZED FREE ENERGY PREDICTED BY IDOCK:   -5.53 KCAL/MOL
REMARK 922        TOTAL FREE ENERGY PREDICTED BY IDOCK:   -7.83 KCAL/MOL
REMARK 923 INTER-LIGAND FREE ENERGY PREDICTED BY IDOCK:   -7.08 KCAL/MOL
REMARK 924 INTRA-LIGAND FREE ENERGY PREDICTED BY IDOCK:   -0.74 KCAL/MOL
REMARK 927      BINDING AFFINITY PREDICTED BY RF-SCORE:    0.00 PKD
ROOT
HETATM    1  C   UNL     1      -8.928   9.426  68.458  1.00  0.00    -0.128 C  
HETATM    2  C   UNL     1     -10.421   9.197  68.262  1.00  0.00    -0.254 C  
ENDROOT
BRANCH   2   3
HETATM    3  C   UNL     1     -11.129  10.230  67.350  1.00  0.00    -0.189 C  
BRANCH   3   4
HETATM    4  N   UNL     1     -11.983  11.209  68.055  1.00  0.00    -0.700 NA 
HETATM    5  H   UNL     1     -12.837  11.560  67.624  1.00  0.00     0.000 HD 
BRANCH   4   6
HETATM    6  C   UNL     1     -11.572  11.664  69.387  1.00  0.00    -0.327 C  
HETATM    7  C   UNL     1     -11.772  13.186  69.438  1.00  0.00    -0.386 C  
HETATM    8  C   UNL     1     -12.376  11.049  70.534  1.00  0.00    -0.462 C  
ENDBRANCH   4   6
ENDBRANCH   3   4
BRANCH   3   9
HETATM    9  C   UNL     1     -10.096  10.844  66.334  1.00  0.00    -0.231 C  
HETATM   10  H   UNL     1      -9.318  10.347  64.590  1.00  0.00     0.000 HD 
HETATM   11  O   UNL     1      -9.942   9.977  65.204  1.00  0.00    -0.323 OA 
BRANCH   9  12
HETATM   12  C   UNL     1     -10.396  12.230  65.791  1.00  0.00    -0.287 A  
HETATM   13  C   UNL     1     -11.243  12.453  64.693  1.00  0.00    -0.356 A  
HETATM   14  C   UNL     1     -11.471  13.753  64.241  1.00  0.00    -0.340 A  
HETATM   15  O   UNL     1     -12.296  14.013  63.183  1.00  0.00    -1.133 OA 
HETATM   16  C   UNL     1     -10.867  14.836  64.869  1.00  0.00    -0.416 A  
HETATM   17  H   UNL     1     -12.452  14.898  62.875  1.00  0.00     0.000 HD 
HETATM   18  C   UNL     1     -10.014  14.640  65.941  1.00  0.00    -0.352 A  
HETATM   19  O   UNL     1     -11.111  16.104  64.427  1.00  0.00    -0.919 OA 
HETATM   20  H   UNL     1     -10.699  16.845  64.856  1.00  0.00     0.000 HD 
HETATM   21  C   UNL     1      -9.771  13.341  66.394  1.00  0.00    -0.279 A  
ENDBRANCH   9  12
ENDBRANCH   3   9
ENDBRANCH   2   3
TORSDOF 5
ENDMDL
MODEL       21
REMARK 921   NORMALIZED FREE ENERGY PREDICTED BY IDOCK:   -5.53 KCAL/MOL
REMARK 922        TOTAL FREE ENERGY PREDICTED BY IDOCK:   -7.82 KCAL/MOL
REMARK 923 INTER-LIGAND FREE ENERGY PREDICTED BY IDOCK:   -7.27 KCAL/MOL
REMARK 924 INTRA-LIGAND FREE ENERGY PREDICTED BY IDOCK:   -0.55 KCAL/MOL
REMARK 927      BINDING AFFINITY PREDICTED BY RF-SCORE:    0.00 PKD
ROOT
HETATM    1  C   UNL     1     -10.408   7.626  68.277  1.00  0.00    -0.238 C  
HETATM    2  C   UNL     1     -10.333   9.020  68.884  1.00  0.00    -0.232 C  
ENDROOT
BRANCH   2   3
HETATM    3  C   UNL     1     -11.223  10.085  68.195  1.00  0.00    -0.127 C  
BRANCH   3   4
HETATM    4  N   UNL     1     -12.328  10.611  69.022  1.00  0.00    -0.779 NA 
HETATM    5  H   UNL     1     -13.280  10.647  68.658  1.00  0.00     0.000 HD 
BRANCH   4   6
HETATM    6  C   UNL     1     -12.026  11.079  70.378  1.00  0.00    -0.368 C  
HETATM    7  C   UNL     1     -12.207  12.603  70.393  1.00  0.00    -0.368 C  
HETATM    8  C   UNL     1     -12.933  10.491  71.461  1.00  0.00    -0.565 C  
ENDBRANCH   4   6
ENDBRANCH   3   4
BRANCH   3   9
HETATM    9  C   UNL     1     -10.319  11.174  67.506  1.00  0.00    -0.196 C  
HETATM   10  H   UNL     1      -8.560  11.235  66.613  1.00  0.00     0.000 HD 
HETATM   11  O   UNL     1      -9.107  10.577  67.029  1.00  0.00    -0.143 OA 
BRANCH   9  12
HETATM   12  C   UNL     1     -10.921  11.942  66.341  1.00  0.00    -0.337 A  
HETATM   13  C   UNL     1     -12.023  12.801  66.481  1.00  0.00    -0.428 A  
HETATM   14  C   UNL     1     -12.530  13.471  65.368  1.00  0.00    -0.497 A  
HETATM   15  O   UNL     1     -13.594  14.324  65.464  1.00  0.00    -0.650 OA 
HETATM   16  C   UNL     1     -11.953  13.298  64.115  1.00  0.00    -0.447 A  
HETATM   17  H   UNL     1     -13.940  14.781  64.706  1.00  0.00     0.000 HD 
HETATM   18  C   UNL     1     -10.879  12.442  63.949  1.00  0.00    -0.465 A  
HETATM   19  O   UNL     1     -12.450  13.972  63.037  1.00  0.00    -1.101 OA 
HETATM   20  H   UNL     1     -12.056  13.855  62.181  1.00  0.00     0.000 HD 
HETATM   21  C   UNL     1     -10.371  11.759  65.056  1.00  0.00    -0.325 A  
ENDBRANCH   9  12
ENDBRANCH   3   9
ENDBRANCH   2   3
TORSDOF 5
ENDMDL
MODEL       22
REMARK 921   NORMALIZED FREE ENERGY PREDICTED BY IDOCK:   -5.48 KCAL/MOL
REMARK 922        TOTAL FREE ENERGY PREDICTED BY IDOCK:   -7.75 KCAL/MOL
REMARK 923 INTER-LIGAND FREE ENERGY PREDICTED BY IDOCK:   -7.12 KCAL/MOL
REMARK 924 INTRA-LIGAND FREE ENERGY PREDICTED BY IDOCK:   -0.63 KCAL/MOL
REMARK 927      BINDING AFFINITY PREDICTED BY RF-SCORE:    0.00 PKD
ROOT
HETATM    1  C   UNL     1     -11.758  15.289  69.266  1.00  0.00    -0.359 C  
HETATM    2  C   UNL     1     -10.378  15.854  68.952  1.00  0.00    -0.228 C  
ENDROOT
BRANCH   2   3
HETATM    3  C   UNL     1     -10.138  16.209  67.464  1.00  0.00    -0.256 C  
BRANCH   3   4
HETATM    4  N   UNL     1      -9.643  17.579  67.217  1.00  0.00    -0.267 NA 
HETATM    5  H   UNL     1      -8.676  17.742  66.937  1.00  0.00     0.000 HD 
BRANCH   4   6
HETATM    6  C   UNL     1     -10.574  18.700  67.383  1.00  0.00    -0.441 C  
HETATM    7  C   UNL     1     -10.118  19.503  68.609  1.00  0.00    -0.535 C  
HETATM    8  C   UNL     1     -10.622  19.657  66.191  1.00  0.00    -0.584 C  
ENDBRANCH   4   6
ENDBRANCH   3   4
BRANCH   3   9
HETATM    9  C   UNL     1      -9.319  15.061  66.765  1.00  0.00    -0.251 C  
HETATM   10  H   UNL     1      -8.236  13.511  67.330  1.00  0.00     0.000 HD 
HETATM   11  O   UNL     1      -8.730  14.205  67.752  1.00  0.00    -0.163 OA 
BRANCH   9  12
HETATM   12  C   UNL     1     -10.070  14.164  65.794  1.00  0.00    -0.352 A  
HETATM   13  C   UNL     1     -11.025  14.651  64.888  1.00  0.00    -0.419 A  
HETATM   14  C   UNL     1     -11.682  13.771  64.028  1.00  0.00    -0.328 A  
HETATM   15  O   UNL     1     -12.611  14.206  63.124  1.00  0.00    -1.058 OA 
HETATM   16  C   UNL     1     -11.399  12.411  64.058  1.00  0.00    -0.399 A  
HETATM   17  H   UNL     1     -13.059  13.607  62.538  1.00  0.00     0.000 HD 
HETATM   18  C   UNL     1     -10.476  11.905  64.955  1.00  0.00    -0.331 A  
HETATM   19  O   UNL     1     -12.038  11.562  63.199  1.00  0.00    -0.925 OA 
HETATM   20  H   UNL     1     -11.845  10.633  63.219  1.00  0.00     0.000 HD 
HETATM   21  C   UNL     1      -9.820  12.776  65.827  1.00  0.00    -0.222 A  
ENDBRANCH   9  12
ENDBRANCH   3   9
ENDBRANCH   2   3
TORSDOF 5
ENDMDL
MODEL       23
REMARK 921   NORMALIZED FREE ENERGY PREDICTED BY IDOCK:   -5.48 KCAL/MOL
REMARK 922        TOTAL FREE ENERGY PREDICTED BY IDOCK:   -7.75 KCAL/MOL
REMARK 923 INTER-LIGAND FREE ENERGY PREDICTED BY IDOCK:   -7.29 KCAL/MOL
REMARK 924 INTRA-LIGAND FREE ENERGY PREDICTED BY IDOCK:   -0.46 KCAL/MOL
REMARK 927      BINDING AFFINITY PREDICTED BY RF-SCORE:    0.00 PKD
ROOT
HETATM    1  C   UNL     1     -12.641  15.615  70.791  1.00  0.00    -0.482 C  
HETATM    2  C   UNL     1     -12.170  15.180  69.409  1.00  0.00    -0.237 C  
ENDROOT
BRANCH   2   3
HETATM    3  C   UNL     1     -11.356  13.862  69.378  1.00  0.00    -0.258 C  
BRANCH   3   4
HETATM    4  N   UNL     1     -12.156  12.626  69.497  1.00  0.00    -0.240 NA 
HETATM    5  H   UNL     1     -12.813  12.358  68.766  1.00  0.00     0.000 HD 
BRANCH   4   6
HETATM    6  C   UNL     1     -11.984  11.794  70.693  1.00  0.00    -0.222 C  
HETATM    7  C   UNL     1     -13.044  12.227  71.715  1.00  0.00    -0.449 C  
HETATM    8  C   UNL     1     -12.161  10.295  70.443  1.00  0.00    -0.373 C  
ENDBRANCH   4   6
ENDBRANCH   3   4
BRANCH   3   9
HETATM    9  C   UNL     1     -10.336  13.892  68.179  1.00  0.00    -0.247 C  
HETATM   10  H   UNL     1      -8.931  12.714  67.450  1.00  0.00     0.000 HD 
HETATM   11  O   UNL     1      -9.547  12.696  68.174  1.00  0.00    -0.210 OA 
BRANCH   9  12
HETATM   12  C   UNL     1     -10.911  14.048  66.781  1.00  0.00    -0.298 A  
HETATM   13  C   UNL     1     -10.801  15.233  66.037  1.00  0.00    -0.331 A  
HETATM   14  C   UNL     1     -11.358  15.310  64.761  1.00  0.00    -0.391 A  
HETATM   15  O   UNL     1     -11.263  16.442  64.001  1.00  0.00    -1.333 OA 
HETATM   16  C   UNL     1     -12.024  14.220  64.214  1.00  0.00    -0.425 A  
HETATM   17  H   UNL     1     -11.643  16.495  63.131  1.00  0.00     0.000 HD 
HETATM   18  C   UNL     1     -12.162  13.047  64.935  1.00  0.00    -0.490 A  
HETATM   19  O   UNL     1     -12.550  14.303  62.957  1.00  0.00    -0.884 OA 
HETATM   20  H   UNL     1     -13.005  13.558  62.582  1.00  0.00     0.000 HD 
HETATM   21  C   UNL     1     -11.616  12.964  66.217  1.00  0.00    -0.424 A  
ENDBRANCH   9  12
ENDBRANCH   3   9
ENDBRANCH   2   3
TORSDOF 5
ENDMDL
MODEL       24
REMARK 921   NORMALIZED FREE ENERGY PREDICTED BY IDOCK:   -5.48 KCAL/MOL
REMARK 922        TOTAL FREE ENERGY PREDICTED BY IDOCK:   -7.75 KCAL/MOL
REMARK 923 INTER-LIGAND FREE ENERGY PREDICTED BY IDOCK:   -7.01 KCAL/MOL
REMARK 924 INTRA-LIGAND FREE ENERGY PREDICTED BY IDOCK:   -0.74 KCAL/MOL
REMARK 927      BINDING AFFINITY PREDICTED BY RF-SCORE:    0.00 PKD
ROOT
HETATM    1  C   UNL     1      -9.755  10.310  64.631  1.00  0.00    -0.398 C  
HETATM    2  C   UNL     1      -9.651  10.685  66.104  1.00  0.00    -0.232 C  
ENDROOT
BRANCH   2   3
HETATM    3  C   UNL     1     -10.980  10.605  66.896  1.00  0.00    -0.161 C  
BRANCH   3   4
HETATM    4  N   UNL     1     -11.080   9.474  67.841  1.00  0.00    -0.515 NA 
HETATM    5  H   UNL     1     -11.727   9.508  68.628  1.00  0.00     0.000 HD 
BRANCH   4   6
HETATM    6  C   UNL     1     -10.228   8.301  67.622  1.00  0.00    -0.231 C  
HETATM    7  C   UNL     1      -9.546   7.967  68.956  1.00  0.00    -0.156 C  
HETATM    8  C   UNL     1     -10.985   7.054  67.161  1.00  0.00    -0.393 C  
ENDBRANCH   4   6
ENDBRANCH   3   4
BRANCH   3   9
HETATM    9  C   UNL     1     -11.332  12.018  67.495  1.00  0.00    -0.319 C  
HETATM   10  H   UNL     1     -10.626  13.203  68.905  1.00  0.00     0.000 HD 
HETATM   11  O   UNL     1     -10.414  12.350  68.544  1.00  0.00    -0.226 OA 
BRANCH   9  12
HETATM   12  C   UNL     1     -11.350  13.194  66.534  1.00  0.00    -0.350 A  
HETATM   13  C   UNL     1     -10.438  14.259  66.613  1.00  0.00    -0.278 A  
HETATM   14  C   UNL     1     -10.515  15.312  65.702  1.00  0.00    -0.358 A  
HETATM   15  O   UNL     1      -9.641  16.363  65.739  1.00  0.00    -0.452 OA 
HETATM   16  C   UNL     1     -11.488  15.318  64.709  1.00  0.00    -0.363 A  
HETATM   17  H   UNL     1      -9.693  17.080  65.118  1.00  0.00     0.000 HD 
HETATM   18  C   UNL     1     -12.409  14.289  64.622  1.00  0.00    -0.433 A  
HETATM   19  O   UNL     1     -11.542  16.347  63.813  1.00  0.00    -1.605 OA 
HETATM   20  H   UNL     1     -12.206  16.351  63.134  1.00  0.00     0.000 HD 
HETATM   21  C   UNL     1     -12.346  13.236  65.537  1.00  0.00    -0.533 A  
ENDBRANCH   9  12
ENDBRANCH   3   9
ENDBRANCH   2   3
TORSDOF 5
ENDMDL
MODEL       25
REMARK 921   NORMALIZED FREE ENERGY PREDICTED BY IDOCK:   -5.46 KCAL/MOL
REMARK 922        TOTAL FREE ENERGY PREDICTED BY IDOCK:   -7.72 KCAL/MOL
REMARK 923 INTER-LIGAND FREE ENERGY PREDICTED BY IDOCK:   -6.92 KCAL/MOL
REMARK 924 INTRA-LIGAND FREE ENERGY PREDICTED BY IDOCK:   -0.80 KCAL/MOL
REMARK 927      BINDING AFFINITY PREDICTED BY RF-SCORE:    0.00 PKD
ROOT
HETATM    1  C   UNL     1      -8.609  14.387  68.419  1.00  0.00    -0.174 C  
HETATM    2  C   UNL     1     -10.091  14.495  68.752  1.00  0.00    -0.239 C  
ENDROOT
BRANCH   2   3
HETATM    3  C   UNL     1     -10.904  13.191  68.558  1.00  0.00    -0.262 C  
BRANCH   3   4
HETATM    4  N   UNL     1     -11.546  12.662  69.779  1.00  0.00    -0.473 NA 
HETATM    5  H   UNL     1     -11.679  13.256  70.597  1.00  0.00     0.000 HD 
BRANCH   4   6
HETATM    6  C   UNL     1     -11.988  11.264  69.789  1.00  0.00    -0.360 C  
HETATM    7  C   UNL     1     -10.745  10.384  69.593  1.00  0.00    -0.304 C  
HETATM    8  C   UNL     1     -12.666  10.830  71.089  1.00  0.00    -0.532 C  
ENDBRANCH   4   6
ENDBRANCH   3   4
BRANCH   3   9
HETATM    9  C   UNL     1     -11.848  13.330  67.306  1.00  0.00    -0.372 C  
HETATM   10  H   UNL     1     -12.563  14.795  66.194  1.00  0.00     0.000 HD 
HETATM   11  O   UNL     1     -11.993  14.711  66.950  1.00  0.00    -0.373 OA 
BRANCH   9  12
HETATM   12  C   UNL     1     -11.443  12.588  66.044  1.00  0.00    -0.423 A  
HETATM   13  C   UNL     1     -12.299  12.429  64.943  1.00  0.00    -0.475 A  
HETATM   14  C   UNL     1     -11.865  11.730  63.817  1.00  0.00    -0.380 A  
HETATM   15  O   UNL     1     -12.664  11.561  62.721  1.00  0.00    -0.907 OA 
HETATM   16  C   UNL     1     -10.585  11.189  63.771  1.00  0.00    -0.356 A  
HETATM   17  H   UNL     1     -12.368  11.085  61.953  1.00  0.00     0.000 HD 
HETATM   18  C   UNL     1      -9.730  11.317  64.851  1.00  0.00    -0.297 A  
HETATM   19  O   UNL     1     -10.166  10.521  62.656  1.00  0.00    -0.736 OA 
HETATM   20  H   UNL     1      -9.292  10.152  62.624  1.00  0.00     0.000 HD 
HETATM   21  C   UNL     1     -10.159  12.006  65.987  1.00  0.00    -0.257 A  
ENDBRANCH   9  12
ENDBRANCH   3   9
ENDBRANCH   2   3
TORSDOF 5
ENDMDL
MODEL       26
REMARK 921   NORMALIZED FREE ENERGY PREDICTED BY IDOCK:   -5.42 KCAL/MOL
REMARK 922        TOTAL FREE ENERGY PREDICTED BY IDOCK:   -7.68 KCAL/MOL
REMARK 923 INTER-LIGAND FREE ENERGY PREDICTED BY IDOCK:   -6.84 KCAL/MOL
REMARK 924 INTRA-LIGAND FREE ENERGY PREDICTED BY IDOCK:   -0.84 KCAL/MOL
REMARK 927      BINDING AFFINITY PREDICTED BY RF-SCORE:    0.00 PKD
ROOT
HETATM    1  C   UNL     1     -10.127   9.069  71.298  1.00  0.00    -0.384 C  
HETATM    2  C   UNL     1     -11.558   9.219  70.798  1.00  0.00    -0.345 C  
ENDROOT
BRANCH   2   3
HETATM    3  C   UNL     1     -11.860  10.548  70.062  1.00  0.00    -0.308 C  
BRANCH   3   4
HETATM    4  N   UNL     1     -12.060  10.427  68.603  1.00  0.00    -0.715 NA 
HETATM    5  H   UNL     1     -12.887   9.965  68.227  1.00  0.00     0.000 HD 
BRANCH   4   6
HETATM    6  C   UNL     1     -11.042  10.987  67.708  1.00  0.00    -0.295 C  
HETATM    7  C   UNL     1     -11.654  12.216  67.022  1.00  0.00    -0.406 C  
HETATM    8  C   UNL     1      -9.764  11.437  68.417  1.00  0.00    -0.203 C  
ENDBRANCH   4   6
ENDBRANCH   3   4
BRANCH   3   9
HETATM    9  C   UNL     1     -12.978  11.344  70.832  1.00  0.00    -0.121 C  
HETATM   10  H   UNL     1     -13.985  11.152  72.518  1.00  0.00     0.000 HD 
HETATM   11  O   UNL     1     -13.309  10.671  72.053  1.00  0.00    -0.440 OA 
BRANCH   9  12
HETATM   12  C   UNL     1     -12.679  12.790  71.191  1.00  0.00    -0.355 A  
HETATM   13  C   UNL     1     -13.191  13.413  72.341  1.00  0.00    -0.564 A  
HETATM   14  C   UNL     1     -12.882  14.746  72.607  1.00  0.00    -0.405 A  
HETATM   15  O   UNL     1     -13.351  15.386  73.721  1.00  0.00    -0.630 OA 
HETATM   16  C   UNL     1     -12.066  15.469  71.745  1.00  0.00    -0.402 A  
HETATM   17  H   UNL     1     -13.141  16.295  73.903  1.00  0.00     0.000 HD 
HETATM   18  C   UNL     1     -11.565  14.882  70.596  1.00  0.00    -0.341 A  
HETATM   19  O   UNL     1     -11.757  16.769  72.026  1.00  0.00    -0.595 OA 
HETATM   20  H   UNL     1     -11.200  17.263  71.437  1.00  0.00     0.000 HD 
HETATM   21  C   UNL     1     -11.878  13.551  70.315  1.00  0.00    -0.327 A  
ENDBRANCH   9  12
ENDBRANCH   3   9
ENDBRANCH   2   3
TORSDOF 5
ENDMDL
MODEL       27
REMARK 921   NORMALIZED FREE ENERGY PREDICTED BY IDOCK:   -5.38 KCAL/MOL
REMARK 922        TOTAL FREE ENERGY PREDICTED BY IDOCK:   -7.62 KCAL/MOL
REMARK 923 INTER-LIGAND FREE ENERGY PREDICTED BY IDOCK:   -6.95 KCAL/MOL
REMARK 924 INTRA-LIGAND FREE ENERGY PREDICTED BY IDOCK:   -0.67 KCAL/MOL
REMARK 927      BINDING AFFINITY PREDICTED BY RF-SCORE:    0.00 PKD
ROOT
HETATM    1  C   UNL     1     -12.749  14.790  70.392  1.00  0.00    -0.368 C  
HETATM    2  C   UNL     1     -12.054  13.449  70.589  1.00  0.00    -0.374 C  
ENDROOT
BRANCH   2   3
HETATM    3  C   UNL     1     -11.579  12.758  69.287  1.00  0.00    -0.314 C  
BRANCH   3   4
HETATM    4  N   UNL     1     -10.117  12.760  69.071  1.00  0.00    -0.421 NA 
HETATM    5  H   UNL     1      -9.499  12.236  69.689  1.00  0.00     0.000 HD 
BRANCH   4   6
HETATM    6  C   UNL     1      -9.576  13.535  67.949  1.00  0.00    -0.218 C  
HETATM    7  C   UNL     1     -10.746  13.879  67.017  1.00  0.00    -0.283 C  
HETATM    8  C   UNL     1      -8.905  14.846  68.359  1.00  0.00    -0.178 C  
ENDBRANCH   4   6
ENDBRANCH   3   4
BRANCH   3   9
HETATM    9  C   UNL     1     -12.280  11.356  69.138  1.00  0.00    -0.175 C  
HETATM   10  H   UNL     1     -12.216   9.837  67.881  1.00  0.00     0.000 HD 
HETATM   11  O   UNL     1     -11.792  10.683  67.971  1.00  0.00    -0.494 OA 
BRANCH   9  12
HETATM   12  C   UNL     1     -12.143  10.384  70.298  1.00  0.00    -0.370 A  
HETATM   13  C   UNL     1     -13.190  10.109  71.192  1.00  0.00    -0.438 A  
HETATM   14  C   UNL     1     -12.994   9.211  72.240  1.00  0.00    -0.420 A  
HETATM   15  O   UNL     1     -13.990   8.908  73.126  1.00  0.00    -1.118 OA 
HETATM   16  C   UNL     1     -11.767   8.579  72.410  1.00  0.00    -0.358 A  
HETATM   17  H   UNL     1     -13.857   8.295  73.840  1.00  0.00     0.000 HD 
HETATM   18  C   UNL     1     -10.715   8.848  71.553  1.00  0.00    -0.398 A  
HETATM   19  O   UNL     1     -11.593   7.688  73.430  1.00  0.00    -0.641 OA 
HETATM   20  H   UNL     1     -10.756   7.256  73.546  1.00  0.00     0.000 HD 
HETATM   21  C   UNL     1     -10.898   9.754  70.507  1.00  0.00    -0.387 A  
ENDBRANCH   9  12
ENDBRANCH   3   9
ENDBRANCH   2   3
TORSDOF 5
ENDMDL
MODEL       28
REMARK 921   NORMALIZED FREE ENERGY PREDICTED BY IDOCK:   -5.37 KCAL/MOL
REMARK 922        TOTAL FREE ENERGY PREDICTED BY IDOCK:   -7.62 KCAL/MOL
REMARK 923 INTER-LIGAND FREE ENERGY PREDICTED BY IDOCK:   -7.05 KCAL/MOL
REMARK 924 INTRA-LIGAND FREE ENERGY PREDICTED BY IDOCK:   -0.56 KCAL/MOL
REMARK 927      BINDING AFFINITY PREDICTED BY RF-SCORE:    0.00 PKD
ROOT
HETATM    1  C   UNL     1      -9.128   9.675  68.253  1.00  0.00    -0.123 C  
HETATM    2  C   UNL     1     -10.046  10.406  69.224  1.00  0.00    -0.248 C  
ENDROOT
BRANCH   2   3
HETATM    3  C   UNL     1     -11.388  10.889  68.620  1.00  0.00    -0.295 C  
BRANCH   3   4
HETATM    4  N   UNL     1     -12.585  10.600  69.437  1.00  0.00    -0.678 NA 
HETATM    5  H   UNL     1     -13.492  10.447  68.997  1.00  0.00     0.000 HD 
BRANCH   4   6
HETATM    6  C   UNL     1     -12.439  10.538  70.895  1.00  0.00    -0.390 C  
HETATM    7  C   UNL     1     -13.155  11.761  71.485  1.00  0.00    -0.389 C  
HETATM    8  C   UNL     1     -13.049   9.289  71.533  1.00  0.00    -0.430 C  
ENDBRANCH   4   6
ENDBRANCH   3   4
BRANCH   3   9
HETATM    9  C   UNL     1     -11.249  12.379  68.131  1.00  0.00    -0.265 C  
HETATM   10  H   UNL     1      -9.849  13.768  68.118  1.00  0.00     0.000 HD 
HETATM   11  O   UNL     1      -9.933  12.869  68.413  1.00  0.00    -0.227 OA 
BRANCH   9  12
HETATM   12  C   UNL     1     -11.518  12.655  66.661  1.00  0.00    -0.409 A  
HETATM   13  C   UNL     1     -11.129  11.779  65.636  1.00  0.00    -0.340 A  
HETATM   14  C   UNL     1     -11.402  12.097  64.306  1.00  0.00    -0.360 A  
HETATM   15  O   UNL     1     -11.049  11.266  63.279  1.00  0.00    -0.771 OA 
HETATM   16  C   UNL     1     -12.060  13.278  63.982  1.00  0.00    -0.447 A  
HETATM   17  H   UNL     1     -11.234  11.483  62.373  1.00  0.00     0.000 HD 
HETATM   18  C   UNL     1     -12.436  14.166  64.974  1.00  0.00    -0.434 A  
HETATM   19  O   UNL     1     -12.335  13.570  62.677  1.00  0.00    -0.763 OA 
HETATM   20  H   UNL     1     -12.785  14.376  62.455  1.00  0.00     0.000 HD 
HETATM   21  C   UNL     1     -12.158  13.861  66.308  1.00  0.00    -0.484 A  
ENDBRANCH   9  12
ENDBRANCH   3   9
ENDBRANCH   2   3
TORSDOF 5
ENDMDL
MODEL       29
REMARK 921   NORMALIZED FREE ENERGY PREDICTED BY IDOCK:   -5.34 KCAL/MOL
REMARK 922        TOTAL FREE ENERGY PREDICTED BY IDOCK:   -7.58 KCAL/MOL
REMARK 923 INTER-LIGAND FREE ENERGY PREDICTED BY IDOCK:   -6.94 KCAL/MOL
REMARK 924 INTRA-LIGAND FREE ENERGY PREDICTED BY IDOCK:   -0.63 KCAL/MOL
REMARK 927      BINDING AFFINITY PREDICTED BY RF-SCORE:    0.00 PKD
ROOT
HETATM    1  C   UNL     1     -10.235   8.835  67.704  1.00  0.00    -0.298 C  
HETATM    2  C   UNL     1     -10.449   9.984  66.727  1.00  0.00    -0.267 C  
ENDROOT
BRANCH   2   3
HETATM    3  C   UNL     1      -9.320  11.044  66.702  1.00  0.00    -0.177 C  
BRANCH   3   4
HETATM    4  N   UNL     1      -8.630  11.197  65.405  1.00  0.00    -0.367 NA 
HETATM    5  H   UNL     1      -7.968  11.957  65.254  1.00  0.00     0.000 HD 
BRANCH   4   6
HETATM    6  C   UNL     1      -8.919  10.231  64.340  1.00  0.00    -0.227 C  
HETATM    7  C   UNL     1      -9.384  11.023  63.110  1.00  0.00    -0.339 C  
HETATM    8  C   UNL     1      -7.718   9.382  63.921  1.00  0.00    -0.121 C  
ENDBRANCH   4   6
ENDBRANCH   3   4
BRANCH   3   9
HETATM    9  C   UNL     1      -9.828  12.382  67.358  1.00  0.00    -0.199 C  
HETATM   10  H   UNL     1      -9.106  13.755  68.577  1.00  0.00     0.000 HD 
HETATM   11  O   UNL     1      -8.800  12.948  68.181  1.00  0.00    -0.186 OA 
BRANCH   9  12
HETATM   12  C   UNL     1     -10.297  13.481  66.420  1.00  0.00    -0.289 A  
HETATM   13  C   UNL     1     -11.227  13.261  65.391  1.00  0.00    -0.306 A  
HETATM   14  C   UNL     1     -11.610  14.314  64.561  1.00  0.00    -0.387 A  
HETATM   15  O   UNL     1     -12.520  14.145  63.555  1.00  0.00    -1.076 OA 
HETATM   16  C   UNL     1     -11.080  15.587  64.743  1.00  0.00    -0.407 A  
HETATM   17  H   UNL     1     -12.781  14.862  62.989  1.00  0.00     0.000 HD 
HETATM   18  C   UNL     1     -10.148  15.823  65.737  1.00  0.00    -0.399 A  
HETATM   19  O   UNL     1     -11.476  16.613  63.933  1.00  0.00    -1.604 OA 
HETATM   20  H   UNL     1     -11.114  17.482  64.057  1.00  0.00     0.000 HD 
HETATM   21  C   UNL     1      -9.750  14.773  66.567  1.00  0.00    -0.295 A  
ENDBRANCH   9  12
ENDBRANCH   3   9
ENDBRANCH   2   3
TORSDOF 5
ENDMDL
MODEL       30
REMARK 921   NORMALIZED FREE ENERGY PREDICTED BY IDOCK:   -5.34 KCAL/MOL
REMARK 922        TOTAL FREE ENERGY PREDICTED BY IDOCK:   -7.58 KCAL/MOL
REMARK 923 INTER-LIGAND FREE ENERGY PREDICTED BY IDOCK:   -6.63 KCAL/MOL
REMARK 924 INTRA-LIGAND FREE ENERGY PREDICTED BY IDOCK:   -0.94 KCAL/MOL
REMARK 927      BINDING AFFINITY PREDICTED BY RF-SCORE:    0.00 PKD
ROOT
HETATM    1  C   UNL     1     -10.047  11.657  63.669  1.00  0.00    -0.435 C  
HETATM    2  C   UNL     1     -10.942  12.889  63.632  1.00  0.00    -0.321 C  
ENDROOT
BRANCH   2   3
HETATM    3  C   UNL     1     -10.888  13.777  64.900  1.00  0.00    -0.391 C  
BRANCH   3   4
HETATM    4  N   UNL     1     -10.594  15.204  64.656  1.00  0.00    -0.573 NA 
HETATM    5  H   UNL     1     -10.997  15.690  63.856  1.00  0.00     0.000 HD 
BRANCH   4   6
HETATM    6  C   UNL     1      -9.709  15.907  65.591  1.00  0.00    -0.271 C  
HETATM    7  C   UNL     1     -10.581  16.837  66.445  1.00  0.00    -0.192 C  
HETATM    8  C   UNL     1      -8.942  14.985  66.540  1.00  0.00    -0.310 C  
ENDBRANCH   4   6
ENDBRANCH   3   4
BRANCH   3   9
HETATM    9  C   UNL     1     -12.144  13.493  65.806  1.00  0.00    -0.433 C  
HETATM   10  H   UNL     1     -13.854  12.524  65.639  1.00  0.00     0.000 HD 
HETATM   11  O   UNL     1     -13.096  12.696  65.092  1.00  0.00    -0.726 OA 
BRANCH   9  12
HETATM   12  C   UNL     1     -11.898  12.802  67.137  1.00  0.00    -0.415 A  
HETATM   13  C   UNL     1     -11.988  13.466  68.371  1.00  0.00    -0.359 A  
HETATM   14  C   UNL     1     -11.743  12.772  69.555  1.00  0.00    -0.318 A  
HETATM   15  O   UNL     1     -11.831  13.379  70.777  1.00  0.00    -0.509 OA 
HETATM   16  C   UNL     1     -11.412  11.422  69.528  1.00  0.00    -0.312 A  
HETATM   17  H   UNL     1     -11.664  12.906  71.585  1.00  0.00     0.000 HD 
HETATM   18  C   UNL     1     -11.299  10.751  68.324  1.00  0.00    -0.376 A  
HETATM   19  O   UNL     1     -11.191  10.750  70.697  1.00  0.00    -0.427 OA 
HETATM   20  H   UNL     1     -10.965   9.828  70.679  1.00  0.00     0.000 HD 
HETATM   21  C   UNL     1     -11.532  11.440  67.132  1.00  0.00    -0.268 A  
ENDBRANCH   9  12
ENDBRANCH   3   9
ENDBRANCH   2   3
TORSDOF 5
ENDMDL
MODEL       31
REMARK 921   NORMALIZED FREE ENERGY PREDICTED BY IDOCK:   -5.31 KCAL/MOL
REMARK 922        TOTAL FREE ENERGY PREDICTED BY IDOCK:   -7.54 KCAL/MOL
REMARK 923 INTER-LIGAND FREE ENERGY PREDICTED BY IDOCK:   -6.57 KCAL/MOL
REMARK 924 INTRA-LIGAND FREE ENERGY PREDICTED BY IDOCK:   -0.97 KCAL/MOL
REMARK 927      BINDING AFFINITY PREDICTED BY RF-SCORE:    0.00 PKD
ROOT
HETATM    1  C   UNL     1      -7.944  15.614  67.437  1.00  0.00    -0.204 C  
HETATM    2  C   UNL     1      -8.692  15.879  66.137  1.00  0.00    -0.328 C  
ENDROOT
BRANCH   2   3
HETATM    3  C   UNL     1     -10.129  16.432  66.307  1.00  0.00    -0.331 C  
BRANCH   3   4
HETATM    4  N   UNL     1     -10.396  17.709  65.614  1.00  0.00    -0.635 NA 
HETATM    5  H   UNL     1     -10.647  17.724  64.626  1.00  0.00     0.000 HD 
BRANCH   4   6
HETATM    6  C   UNL     1     -10.292  18.956  66.379  1.00  0.00    -0.443 C  
HETATM    7  C   UNL     1     -10.648  18.636  67.838  1.00  0.00    -0.397 C  
HETATM    8  C   UNL     1      -8.898  19.585  66.367  1.00  0.00    -0.400 C  
ENDBRANCH   4   6
ENDBRANCH   3   4
BRANCH   3   9
HETATM    9  C   UNL     1     -11.178  15.289  66.042  1.00  0.00    -0.231 C  
HETATM   10  H   UNL     1     -11.406  13.810  64.757  1.00  0.00     0.000 HD 
HETATM   11  O   UNL     1     -10.773  14.500  64.917  1.00  0.00    -0.396 OA 
BRANCH   9  12
HETATM   12  C   UNL     1     -11.455  14.323  67.182  1.00  0.00    -0.377 A  
HETATM   13  C   UNL     1     -11.554  12.934  66.999  1.00  0.00    -0.419 A  
HETATM   14  C   UNL     1     -11.817  12.105  68.089  1.00  0.00    -0.299 A  
HETATM   15  O   UNL     1     -11.912  10.748  67.956  1.00  0.00    -0.780 OA 
HETATM   16  C   UNL     1     -11.980  12.640  69.362  1.00  0.00    -0.260 A  
HETATM   17  H   UNL     1     -12.091  10.182  68.698  1.00  0.00     0.000 HD 
HETATM   18  C   UNL     1     -11.905  14.007  69.563  1.00  0.00    -0.378 A  
HETATM   19  O   UNL     1     -12.221  11.815  70.423  1.00  0.00    -0.346 OA 
HETATM   20  H   UNL     1     -12.332  12.180  71.293  1.00  0.00     0.000 HD 
HETATM   21  C   UNL     1     -11.653  14.846  68.477  1.00  0.00    -0.347 A  
ENDBRANCH   9  12
ENDBRANCH   3   9
ENDBRANCH   2   3
TORSDOF 5
ENDMDL
MODEL       32
REMARK 921   NORMALIZED FREE ENERGY PREDICTED BY IDOCK:   -5.30 KCAL/MOL
REMARK 922        TOTAL FREE ENERGY PREDICTED BY IDOCK:   -7.52 KCAL/MOL
REMARK 923 INTER-LIGAND FREE ENERGY PREDICTED BY IDOCK:   -6.59 KCAL/MOL
REMARK 924 INTRA-LIGAND FREE ENERGY PREDICTED BY IDOCK:   -0.93 KCAL/MOL
REMARK 927      BINDING AFFINITY PREDICTED BY RF-SCORE:    0.00 PKD
ROOT
HETATM    1  C   UNL     1     -11.849  10.058  71.058  1.00  0.00    -0.476 C  
HETATM    2  C   UNL     1     -11.547  11.254  70.165  1.00  0.00    -0.393 C  
ENDROOT
BRANCH   2   3
HETATM    3  C   UNL     1     -10.659  10.946  68.933  1.00  0.00    -0.210 C  
BRANCH   3   4
HETATM    4  N   UNL     1     -11.238   9.992  67.965  1.00  0.00    -0.508 NA 
HETATM    5  H   UNL     1     -12.137  10.178  67.523  1.00  0.00     0.000 HD 
BRANCH   4   6
HETATM    6  C   UNL     1     -10.488   8.770  67.653  1.00  0.00    -0.244 C  
HETATM    7  C   UNL     1      -9.910   8.929  66.240  1.00  0.00    -0.355 C  
HETATM    8  C   UNL     1      -9.324   8.489  68.605  1.00  0.00    -0.142 C  
ENDBRANCH   4   6
ENDBRANCH   3   4
BRANCH   3   9
HETATM    9  C   UNL     1     -10.117  12.289  68.315  1.00  0.00    -0.218 C  
HETATM   10  H   UNL     1      -8.375  13.009  67.733  1.00  0.00     0.000 HD 
HETATM   11  O   UNL     1      -8.702  12.199  68.106  1.00  0.00    -0.174 OA 
BRANCH   9  12
HETATM   12  C   UNL     1     -10.729  12.746  67.001  1.00  0.00    -0.272 A  
HETATM   13  C   UNL     1     -12.010  13.314  66.912  1.00  0.00    -0.430 A  
HETATM   14  C   UNL     1     -12.513  13.706  65.672  1.00  0.00    -0.496 A  
HETATM   15  O   UNL     1     -13.751  14.272  65.543  1.00  0.00    -0.543 OA 
HETATM   16  C   UNL     1     -11.757  13.541  64.517  1.00  0.00    -0.397 A  
HETATM   17  H   UNL     1     -14.095  14.539  64.699  1.00  0.00     0.000 HD 
HETATM   18  C   UNL     1     -10.500  12.967  64.578  1.00  0.00    -0.400 A  
HETATM   19  O   UNL     1     -12.255  13.945  63.312  1.00  0.00    -1.061 OA 
HETATM   20  H   UNL     1     -11.739  13.833  62.523  1.00  0.00     0.000 HD 
HETATM   21  C   UNL     1      -9.991  12.562  65.813  1.00  0.00    -0.272 A  
ENDBRANCH   9  12
ENDBRANCH   3   9
ENDBRANCH   2   3
TORSDOF 5
ENDMDL
MODEL       33
REMARK 921   NORMALIZED FREE ENERGY PREDICTED BY IDOCK:   -5.29 KCAL/MOL
REMARK 922        TOTAL FREE ENERGY PREDICTED BY IDOCK:   -7.52 KCAL/MOL
REMARK 923 INTER-LIGAND FREE ENERGY PREDICTED BY IDOCK:   -6.81 KCAL/MOL
REMARK 924 INTRA-LIGAND FREE ENERGY PREDICTED BY IDOCK:   -0.71 KCAL/MOL
REMARK 927      BINDING AFFINITY PREDICTED BY RF-SCORE:    0.00 PKD
ROOT
HETATM    1  C   UNL     1     -11.763  14.250  67.189  1.00  0.00    -0.430 C  
HETATM    2  C   UNL     1     -11.562  14.477  68.682  1.00  0.00    -0.346 C  
ENDROOT
BRANCH   2   3
HETATM    3  C   UNL     1     -11.823  15.926  69.166  1.00  0.00    -0.330 C  
BRANCH   3   4
HETATM    4  N   UNL     1     -12.804  16.054  70.263  1.00  0.00    -0.616 NA 
HETATM    5  H   UNL     1     -13.383  16.889  70.349  1.00  0.00     0.000 HD 
BRANCH   4   6
HETATM    6  C   UNL     1     -12.925  14.955  71.226  1.00  0.00    -0.363 C  
HETATM    7  C   UNL     1     -12.041  15.296  72.433  1.00  0.00    -0.497 C  
HETATM    8  C   UNL     1     -14.348  14.726  71.740  1.00  0.00    -0.656 C  
ENDBRANCH   4   6
ENDBRANCH   3   4
BRANCH   3   9
HETATM    9  C   UNL     1     -10.454  16.668  69.395  1.00  0.00    -0.320 C  
HETATM   10  H   UNL     1      -8.578  16.163  69.741  1.00  0.00     0.000 HD 
HETATM   11  O   UNL     1      -9.405  15.715  69.603  1.00  0.00    -0.280 OA 
BRANCH   9  12
HETATM   12  C   UNL     1      -9.983  17.611  68.300  1.00  0.00    -0.339 A  
HETATM   13  C   UNL     1      -8.889  17.328  67.467  1.00  0.00    -0.219 A  
HETATM   14  C   UNL     1      -8.506  18.241  66.485  1.00  0.00    -0.268 A  
HETATM   15  O   UNL     1      -7.453  17.999  65.647  1.00  0.00    -0.542 OA 
HETATM   16  C   UNL     1      -9.201  19.434  66.319  1.00  0.00    -0.348 A  
HETATM   17  H   UNL     1      -7.192  18.621  64.978  1.00  0.00     0.000 HD 
HETATM   18  C   UNL     1     -10.271  19.743  67.139  1.00  0.00    -0.574 A  
HETATM   19  O   UNL     1      -8.826  20.312  65.342  1.00  0.00    -0.389 OA 
HETATM   20  H   UNL     1      -9.301  21.126  65.228  1.00  0.00     0.000 HD 
HETATM   21  C   UNL     1     -10.655  18.840  68.132  1.00  0.00    -0.292 A  
ENDBRANCH   9  12
ENDBRANCH   3   9
ENDBRANCH   2   3
TORSDOF 5
ENDMDL
MODEL       34
REMARK 921   NORMALIZED FREE ENERGY PREDICTED BY IDOCK:   -5.27 KCAL/MOL
REMARK 922        TOTAL FREE ENERGY PREDICTED BY IDOCK:   -7.48 KCAL/MOL
REMARK 923 INTER-LIGAND FREE ENERGY PREDICTED BY IDOCK:   -6.77 KCAL/MOL
REMARK 924 INTRA-LIGAND FREE ENERGY PREDICTED BY IDOCK:   -0.71 KCAL/MOL
REMARK 927      BINDING AFFINITY PREDICTED BY RF-SCORE:    0.00 PKD
ROOT
HETATM    1  C   UNL     1      -9.302  15.479  66.150  1.00  0.00    -0.380 C  
HETATM    2  C   UNL     1     -10.825  15.504  66.170  1.00  0.00    -0.295 C  
ENDROOT
BRANCH   2   3
HETATM    3  C   UNL     1     -11.487  14.445  67.087  1.00  0.00    -0.362 C  
BRANCH   3   4
HETATM    4  N   UNL     1     -12.235  14.991  68.238  1.00  0.00    -0.556 NA 
HETATM    5  H   UNL     1     -13.014  15.634  68.096  1.00  0.00     0.000 HD 
BRANCH   4   6
HETATM    6  C   UNL     1     -11.833  14.587  69.589  1.00  0.00    -0.318 C  
HETATM    7  C   UNL     1     -12.720  15.348  70.584  1.00  0.00    -0.490 C  
HETATM    8  C   UNL     1     -11.993  13.092  69.870  1.00  0.00    -0.381 C  
ENDBRANCH   4   6
ENDBRANCH   3   4
BRANCH   3   9
HETATM    9  C   UNL     1     -12.267  13.393  66.213  1.00  0.00    -0.398 C  
HETATM   10  H   UNL     1     -13.534  13.429  64.701  1.00  0.00     0.000 HD 
HETATM   11  O   UNL     1     -13.063  14.064  65.228  1.00  0.00    -0.782 OA 
BRANCH   9  12
HETATM   12  C   UNL     1     -11.440  12.352  65.477  1.00  0.00    -0.404 A  
HETATM   13  C   UNL     1     -10.752  11.320  66.135  1.00  0.00    -0.307 A  
HETATM   14  C   UNL     1     -10.006  10.400  65.398  1.00  0.00    -0.295 A  
HETATM   15  O   UNL     1      -9.330   9.374  65.999  1.00  0.00    -0.183 OA 
HETATM   16  C   UNL     1      -9.936  10.494  64.013  1.00  0.00    -0.297 A  
HETATM   17  H   UNL     1      -8.821   8.748  65.498  1.00  0.00     0.000 HD 
HETATM   18  C   UNL     1     -10.590  11.513  63.345  1.00  0.00    -0.460 A  
HETATM   19  O   UNL     1      -9.215   9.577  63.303  1.00  0.00    -0.396 OA 
HETATM   20  H   UNL     1      -9.168   9.640  62.356  1.00  0.00     0.000 HD 
HETATM   21  C   UNL     1     -11.331  12.445  64.074  1.00  0.00    -0.465 A  
ENDBRANCH   9  12
ENDBRANCH   3   9
ENDBRANCH   2   3
TORSDOF 5
ENDMDL
MODEL       35
REMARK 921   NORMALIZED FREE ENERGY PREDICTED BY IDOCK:   -5.26 KCAL/MOL
REMARK 922        TOTAL FREE ENERGY PREDICTED BY IDOCK:   -7.47 KCAL/MOL
REMARK 923 INTER-LIGAND FREE ENERGY PREDICTED BY IDOCK:   -6.78 KCAL/MOL
REMARK 924 INTRA-LIGAND FREE ENERGY PREDICTED BY IDOCK:   -0.69 KCAL/MOL
REMARK 927      BINDING AFFINITY PREDICTED BY RF-SCORE:    0.00 PKD
ROOT
HETATM    1  C   UNL     1      -8.544  13.654  68.220  1.00  0.00    -0.170 C  
HETATM    2  C   UNL     1      -9.307  14.938  68.515  1.00  0.00    -0.196 C  
ENDROOT
BRANCH   2   3
HETATM    3  C   UNL     1     -10.819  14.895  68.177  1.00  0.00    -0.256 C  
BRANCH   3   4
HETATM    4  N   UNL     1     -11.703  15.538  69.171  1.00  0.00    -0.349 NA 
HETATM    5  H   UNL     1     -12.152  16.431  68.969  1.00  0.00     0.000 HD 
BRANCH   4   6
HETATM    6  C   UNL     1     -11.921  14.863  70.454  1.00  0.00    -0.314 C  
HETATM    7  C   UNL     1     -13.184  15.465  71.086  1.00  0.00    -0.583 C  
HETATM    8  C   UNL     1     -12.132  13.352  70.340  1.00  0.00    -0.405 C  
ENDBRANCH   4   6
ENDBRANCH   3   4
BRANCH   3   9
HETATM    9  C   UNL     1     -11.046  15.340  66.684  1.00  0.00    -0.276 C  
HETATM   10  H   UNL     1     -10.065  16.378  65.323  1.00  0.00     0.000 HD 
HETATM   11  O   UNL     1      -9.928  16.109  66.224  1.00  0.00    -0.278 OA 
BRANCH   9  12
HETATM   12  C   UNL     1     -11.278  14.242  65.660  1.00  0.00    -0.314 A  
HETATM   13  C   UNL     1     -10.251  13.711  64.864  1.00  0.00    -0.363 A  
HETATM   14  C   UNL     1     -10.536  12.708  63.938  1.00  0.00    -0.411 A  
HETATM   15  O   UNL     1      -9.563  12.157  63.150  1.00  0.00    -0.617 OA 
HETATM   16  C   UNL     1     -11.831  12.224  63.794  1.00  0.00    -0.498 A  
HETATM   17  H   UNL     1      -9.756  11.474  62.519  1.00  0.00     0.000 HD 
HETATM   18  C   UNL     1     -12.863  12.745  64.555  1.00  0.00    -0.323 A  
HETATM   19  O   UNL     1     -12.093  11.230  62.895  1.00  0.00    -0.879 OA 
HETATM   20  H   UNL     1     -12.977  10.899  62.798  1.00  0.00     0.000 HD 
HETATM   21  C   UNL     1     -12.590  13.757  65.477  1.00  0.00    -0.551 A  
ENDBRANCH   9  12
ENDBRANCH   3   9
ENDBRANCH   2   3
TORSDOF 5
ENDMDL
MODEL       36
REMARK 921   NORMALIZED FREE ENERGY PREDICTED BY IDOCK:   -5.25 KCAL/MOL
REMARK 922        TOTAL FREE ENERGY PREDICTED BY IDOCK:   -7.46 KCAL/MOL
REMARK 923 INTER-LIGAND FREE ENERGY PREDICTED BY IDOCK:   -6.83 KCAL/MOL
REMARK 924 INTRA-LIGAND FREE ENERGY PREDICTED BY IDOCK:   -0.63 KCAL/MOL
REMARK 927      BINDING AFFINITY PREDICTED BY RF-SCORE:    0.00 PKD
ROOT
HETATM    1  C   UNL     1     -12.139  11.610  70.570  1.00  0.00    -0.458 C  
HETATM    2  C   UNL     1     -11.773  12.554  69.432  1.00  0.00    -0.383 C  
ENDROOT
BRANCH   2   3
HETATM    3  C   UNL     1     -10.455  12.211  68.692  1.00  0.00    -0.216 C  
BRANCH   3   4
HETATM    4  N   UNL     1      -9.627  11.171  69.336  1.00  0.00    -0.408 NA 
HETATM    5  H   UNL     1      -9.218  11.326  70.257  1.00  0.00     0.000 HD 
BRANCH   4   6
HETATM    6  C   UNL     1      -9.404   9.910  68.620  1.00  0.00    -0.149 C  
HETATM    7  C   UNL     1      -7.958   9.473  68.889  1.00  0.00    -0.091 C  
HETATM    8  C   UNL     1     -10.326   8.770  69.057  1.00  0.00    -0.227 C  
ENDBRANCH   4   6
ENDBRANCH   3   4
BRANCH   3   9
HETATM    9  C   UNL     1     -10.743  11.991  67.160  1.00  0.00    -0.239 C  
HETATM   10  H   UNL     1     -12.121  11.102  66.064  1.00  0.00     0.000 HD 
HETATM   11  O   UNL     1     -11.948  11.235  66.989  1.00  0.00    -0.401 OA 
BRANCH   9  12
HETATM   12  C   UNL     1     -10.874  13.233  66.294  1.00  0.00    -0.293 A  
HETATM   13  C   UNL     1     -10.051  14.360  66.445  1.00  0.00    -0.294 A  
HETATM   14  C   UNL     1     -10.230  15.469  65.620  1.00  0.00    -0.376 A  
HETATM   15  O   UNL     1      -9.444  16.583  65.728  1.00  0.00    -0.484 OA 
HETATM   16  C   UNL     1     -11.217  15.471  64.641  1.00  0.00    -0.371 A  
HETATM   17  H   UNL     1      -9.565  17.339  65.165  1.00  0.00     0.000 HD 
HETATM   18  C   UNL     1     -12.052  14.379  64.485  1.00  0.00    -0.498 A  
HETATM   19  O   UNL     1     -11.370  16.557  63.828  1.00  0.00    -1.553 OA 
HETATM   20  H   UNL     1     -12.045  16.558  63.159  1.00  0.00     0.000 HD 
HETATM   21  C   UNL     1     -11.888  13.268  65.314  1.00  0.00    -0.386 A  
ENDBRANCH   9  12
ENDBRANCH   3   9
ENDBRANCH   2   3
TORSDOF 5
ENDMDL
MODEL       37
REMARK 921   NORMALIZED FREE ENERGY PREDICTED BY IDOCK:   -5.24 KCAL/MOL
REMARK 922        TOTAL FREE ENERGY PREDICTED BY IDOCK:   -7.45 KCAL/MOL
REMARK 923 INTER-LIGAND FREE ENERGY PREDICTED BY IDOCK:   -6.66 KCAL/MOL
REMARK 924 INTRA-LIGAND FREE ENERGY PREDICTED BY IDOCK:   -0.79 KCAL/MOL
REMARK 927      BINDING AFFINITY PREDICTED BY RF-SCORE:    0.00 PKD
ROOT
HETATM    1  C   UNL     1      -8.883  10.044  69.648  1.00  0.00    -0.217 C  
HETATM    2  C   UNL     1     -10.192  10.570  69.072  1.00  0.00    -0.233 C  
ENDROOT
BRANCH   2   3
HETATM    3  C   UNL     1     -10.036  11.566  67.895  1.00  0.00    -0.189 C  
BRANCH   3   4
HETATM    4  N   UNL     1      -9.324  11.037  66.714  1.00  0.00    -0.179 NA 
HETATM    5  H   UNL     1      -8.398  11.383  66.465  1.00  0.00     0.000 HD 
BRANCH   4   6
HETATM    6  C   UNL     1      -9.979  10.002  65.907  1.00  0.00    -0.269 C  
HETATM    7  C   UNL     1      -9.967  10.475  64.447  1.00  0.00    -0.410 C  
HETATM    8  C   UNL     1      -9.292   8.637  65.960  1.00  0.00    -0.284 C  
ENDBRANCH   4   6
ENDBRANCH   3   4
BRANCH   3   9
HETATM    9  C   UNL     1     -11.417  12.259  67.595  1.00  0.00    -0.336 C  
HETATM   10  H   UNL     1     -12.800  13.223  68.620  1.00  0.00     0.000 HD 
HETATM   11  O   UNL     1     -11.966  12.805  68.801  1.00  0.00    -0.305 OA 
BRANCH   9  12
HETATM   12  C   UNL     1     -11.425  13.374  66.562  1.00  0.00    -0.372 A  
HETATM   13  C   UNL     1     -10.517  14.444  66.586  1.00  0.00    -0.274 A  
HETATM   14  C   UNL     1     -10.585  15.437  65.610  1.00  0.00    -0.364 A  
HETATM   15  O   UNL     1      -9.713  16.490  65.591  1.00  0.00    -0.513 OA 
HETATM   16  C   UNL     1     -11.545  15.378  64.606  1.00  0.00    -0.311 A  
HETATM   17  H   UNL     1      -9.758  17.167  64.926  1.00  0.00     0.000 HD 
HETATM   18  C   UNL     1     -12.462  14.344  64.572  1.00  0.00    -0.362 A  
HETATM   19  O   UNL     1     -11.589  16.349  63.646  1.00  0.00    -1.514 OA 
HETATM   20  H   UNL     1     -12.245  16.309  62.960  1.00  0.00     0.000 HD 
HETATM   21  C   UNL     1     -12.409  13.350  65.552  1.00  0.00    -0.528 A  
ENDBRANCH   9  12
ENDBRANCH   3   9
ENDBRANCH   2   3
TORSDOF 5
ENDMDL
MODEL       38
REMARK 921   NORMALIZED FREE ENERGY PREDICTED BY IDOCK:   -5.24 KCAL/MOL
REMARK 922        TOTAL FREE ENERGY PREDICTED BY IDOCK:   -7.44 KCAL/MOL
REMARK 923 INTER-LIGAND FREE ENERGY PREDICTED BY IDOCK:   -6.62 KCAL/MOL
REMARK 924 INTRA-LIGAND FREE ENERGY PREDICTED BY IDOCK:   -0.83 KCAL/MOL
REMARK 927      BINDING AFFINITY PREDICTED BY RF-SCORE:    0.00 PKD
ROOT
HETATM    1  C   UNL     1     -10.855  19.339  67.409  1.00  0.00    -0.554 C  
HETATM    2  C   UNL     1     -10.128  18.544  68.486  1.00  0.00    -0.414 C  
ENDROOT
BRANCH   2   3
HETATM    3  C   UNL     1      -9.456  17.237  67.995  1.00  0.00    -0.271 C  
BRANCH   3   4
HETATM    4  N   UNL     1      -8.105  16.985  68.536  1.00  0.00    -0.241 NA 
HETATM    5  H   UNL     1      -7.981  16.489  69.418  1.00  0.00     0.000 HD 
BRANCH   4   6
HETATM    6  C   UNL     1      -6.945  17.462  67.775  1.00  0.00    -0.163 C  
HETATM    7  C   UNL     1      -7.296  17.363  66.284  1.00  0.00    -0.347 C  
HETATM    8  C   UNL     1      -6.559  18.913  68.068  1.00  0.00    -0.237 C  
ENDBRANCH   4   6
ENDBRANCH   3   4
BRANCH   3   9
HETATM    9  C   UNL     1     -10.466  16.037  68.117  1.00  0.00    -0.269 C  
HETATM   10  H   UNL     1     -12.204  15.697  68.987  1.00  0.00     0.000 HD 
HETATM   11  O   UNL     1     -11.594  16.422  68.913  1.00  0.00    -0.290 OA 
BRANCH   9  12
HETATM   12  C   UNL     1     -11.016  15.457  66.824  1.00  0.00    -0.282 A  
HETATM   13  C   UNL     1     -11.655  14.209  66.758  1.00  0.00    -0.409 A  
HETATM   14  C   UNL     1     -12.131  13.733  65.537  1.00  0.00    -0.410 A  
HETATM   15  O   UNL     1     -12.768  12.528  65.431  1.00  0.00    -0.624 OA 
HETATM   16  C   UNL     1     -11.979  14.486  64.378  1.00  0.00    -0.449 A  
HETATM   17  H   UNL     1     -13.092  12.204  64.599  1.00  0.00     0.000 HD 
HETATM   18  C   UNL     1     -11.336  15.710  64.415  1.00  0.00    -0.272 A  
HETATM   19  O   UNL     1     -12.464  14.015  63.191  1.00  0.00    -1.137 OA 
HETATM   20  H   UNL     1     -12.362  14.529  62.399  1.00  0.00     0.000 HD 
HETATM   21  C   UNL     1     -10.847  16.190  65.631  1.00  0.00    -0.246 A  
ENDBRANCH   9  12
ENDBRANCH   3   9
ENDBRANCH   2   3
TORSDOF 5
ENDMDL
MODEL       39
REMARK 921   NORMALIZED FREE ENERGY PREDICTED BY IDOCK:   -5.23 KCAL/MOL
REMARK 922        TOTAL FREE ENERGY PREDICTED BY IDOCK:   -7.43 KCAL/MOL
REMARK 923 INTER-LIGAND FREE ENERGY PREDICTED BY IDOCK:   -6.54 KCAL/MOL
REMARK 924 INTRA-LIGAND FREE ENERGY PREDICTED BY IDOCK:   -0.89 KCAL/MOL
REMARK 927      BINDING AFFINITY PREDICTED BY RF-SCORE:    0.00 PKD
ROOT
HETATM    1  C   UNL     1     -10.110   7.650  72.868  1.00  0.00    -0.343 C  
HETATM    2  C   UNL     1     -11.513   8.124  72.513  1.00  0.00    -0.470 C  
ENDROOT
BRANCH   2   3
HETATM    3  C   UNL     1     -11.610   8.983  71.227  1.00  0.00    -0.317 C  
BRANCH   3   4
HETATM    4  N   UNL     1     -11.295   8.271  69.971  1.00  0.00    -0.452 NA 
HETATM    5  H   UNL     1     -11.887   7.511  69.640  1.00  0.00     0.000 HD 
BRANCH   4   6
HETATM    6  C   UNL     1     -10.110   8.684  69.211  1.00  0.00    -0.202 C  
HETATM    7  C   UNL     1     -10.597   9.303  67.894  1.00  0.00    -0.288 C  
HETATM    8  C   UNL     1      -9.241   9.723  69.921  1.00  0.00    -0.263 C  
ENDBRANCH   4   6
ENDBRANCH   3   4
BRANCH   3   9
HETATM    9  C   UNL     1     -12.961   9.791  71.224  1.00  0.00    -0.380 C  
HETATM   10  H   UNL     1     -14.548   9.953  72.385  1.00  0.00     0.000 HD 
HETATM   11  O   UNL     1     -13.732   9.466  72.387  1.00  0.00    -0.454 OA 
BRANCH   9  12
HETATM   12  C   UNL     1     -12.864  11.306  71.168  1.00  0.00    -0.452 A  
HETATM   13  C   UNL     1     -13.506  12.147  72.090  1.00  0.00    -0.383 A  
HETATM   14  C   UNL     1     -13.380  13.531  71.977  1.00  0.00    -0.475 A  
HETATM   15  O   UNL     1     -13.981  14.385  72.860  1.00  0.00    -0.564 OA 
HETATM   16  C   UNL     1     -12.619  14.091  70.957  1.00  0.00    -0.366 A  
HETATM   17  H   UNL     1     -13.895  15.328  72.783  1.00  0.00     0.000 HD 
HETATM   18  C   UNL     1     -11.992  13.283  70.025  1.00  0.00    -0.399 A  
HETATM   19  O   UNL     1     -12.490  15.447  70.867  1.00  0.00    -0.352 OA 
HETATM   20  H   UNL     1     -11.971  15.830  70.170  1.00  0.00     0.000 HD 
HETATM   21  C   UNL     1     -12.121  11.896  70.124  1.00  0.00    -0.382 A  
ENDBRANCH   9  12
ENDBRANCH   3   9
ENDBRANCH   2   3
TORSDOF 5
ENDMDL
MODEL       40
REMARK 921   NORMALIZED FREE ENERGY PREDICTED BY IDOCK:   -5.23 KCAL/MOL
REMARK 922        TOTAL FREE ENERGY PREDICTED BY IDOCK:   -7.43 KCAL/MOL
REMARK 923 INTER-LIGAND FREE ENERGY PREDICTED BY IDOCK:   -6.52 KCAL/MOL
REMARK 924 INTRA-LIGAND FREE ENERGY PREDICTED BY IDOCK:   -0.91 KCAL/MOL
REMARK 927      BINDING AFFINITY PREDICTED BY RF-SCORE:    0.00 PKD
ROOT
HETATM    1  C   UNL     1      -9.990   7.984  72.814  1.00  0.00    -0.364 C  
HETATM    2  C   UNL     1     -11.485   7.737  72.656  1.00  0.00    -0.430 C  
ENDROOT
BRANCH   2   3
HETATM    3  C   UNL     1     -12.055   8.044  71.249  1.00  0.00    -0.291 C  
BRANCH   3   4
HETATM    4  N   UNL     1     -12.333   6.860  70.411  1.00  0.00    -0.604 NA 
HETATM    5  H   UNL     1     -13.224   6.369  70.481  1.00  0.00     0.000 HD 
BRANCH   4   6
HETATM    6  C   UNL     1     -11.299   6.405  69.476  1.00  0.00    -0.393 C  
HETATM    7  C   UNL     1     -10.437   7.622  69.110  1.00  0.00    -0.220 C  
HETATM    8  C   UNL     1     -10.370   5.330  70.043  1.00  0.00    -0.365 C  
ENDBRANCH   4   6
ENDBRANCH   3   4
BRANCH   3   9
HETATM    9  C   UNL     1     -13.234   9.081  71.364  1.00  0.00    -0.278 C  
HETATM   10  H   UNL     1     -14.544   9.629  72.734  1.00  0.00     0.000 HD 
HETATM   11  O   UNL     1     -13.832   9.003  72.664  1.00  0.00    -0.467 OA 
BRANCH   9  12
HETATM   12  C   UNL     1     -12.901  10.542  71.117  1.00  0.00    -0.513 A  
HETATM   13  C   UNL     1     -13.300  11.573  71.983  1.00  0.00    -0.397 A  
HETATM   14  C   UNL     1     -12.966  12.896  71.693  1.00  0.00    -0.313 A  
HETATM   15  O   UNL     1     -13.326  13.927  72.515  1.00  0.00    -0.484 OA 
HETATM   16  C   UNL     1     -12.236  13.206  70.551  1.00  0.00    -0.328 A  
HETATM   17  H   UNL     1     -13.098  14.828  72.317  1.00  0.00     0.000 HD 
HETATM   18  C   UNL     1     -11.848  12.210  69.673  1.00  0.00    -0.391 A  
HETATM   19  O   UNL     1     -11.901  14.503  70.287  1.00  0.00    -0.275 OA 
HETATM   20  H   UNL     1     -11.402  14.716  69.507  1.00  0.00     0.000 HD 
HETATM   21  C   UNL     1     -12.187  10.884  69.950  1.00  0.00    -0.408 A  
ENDBRANCH   9  12
ENDBRANCH   3   9
ENDBRANCH   2   3
TORSDOF 5
ENDMDL
MODEL       41
REMARK 921   NORMALIZED FREE ENERGY PREDICTED BY IDOCK:   -5.21 KCAL/MOL
REMARK 922        TOTAL FREE ENERGY PREDICTED BY IDOCK:   -7.40 KCAL/MOL
REMARK 923 INTER-LIGAND FREE ENERGY PREDICTED BY IDOCK:   -6.80 KCAL/MOL
REMARK 924 INTRA-LIGAND FREE ENERGY PREDICTED BY IDOCK:   -0.60 KCAL/MOL
REMARK 927      BINDING AFFINITY PREDICTED BY RF-SCORE:    0.00 PKD
ROOT
HETATM    1  C   UNL     1      -8.254  12.146  68.399  1.00  0.00    -0.145 C  
HETATM    2  C   UNL     1      -9.741  11.854  68.241  1.00  0.00    -0.200 C  
ENDROOT
BRANCH   2   3
HETATM    3  C   UNL     1     -10.681  13.043  68.562  1.00  0.00    -0.255 C  
BRANCH   3   4
HETATM    4  N   UNL     1     -11.126  13.826  67.391  1.00  0.00    -0.290 NA 
HETATM    5  H   UNL     1     -11.484  14.773  67.503  1.00  0.00     0.000 HD 
BRANCH   4   6
HETATM    6  C   UNL     1     -11.041  13.209  66.063  1.00  0.00    -0.280 C  
HETATM    7  C   UNL     1     -12.436  13.282  65.428  1.00  0.00    -0.543 C  
HETATM    8  C   UNL     1     -10.060  13.899  65.114  1.00  0.00    -0.330 C  
ENDBRANCH   4   6
ENDBRANCH   3   4
BRANCH   3   9
HETATM    9  C   UNL     1     -11.827  12.572  69.533  1.00  0.00    -0.310 C  
HETATM   10  H   UNL     1     -12.155  11.051  70.747  1.00  0.00     0.000 HD 
HETATM   11  O   UNL     1     -11.464  11.336  70.161  1.00  0.00    -0.297 OA 
BRANCH   9  12
HETATM   12  C   UNL     1     -12.234  13.527  70.642  1.00  0.00    -0.434 A  
HETATM   13  C   UNL     1     -11.745  14.840  70.737  1.00  0.00    -0.355 A  
HETATM   14  C   UNL     1     -12.156  15.662  71.786  1.00  0.00    -0.431 A  
HETATM   15  O   UNL     1     -11.711  16.950  71.909  1.00  0.00    -0.534 OA 
HETATM   16  C   UNL     1     -13.050  15.196  72.742  1.00  0.00    -0.448 A  
HETATM   17  H   UNL     1     -11.990  17.510  72.623  1.00  0.00     0.000 HD 
HETATM   18  C   UNL     1     -13.532  13.900  72.680  1.00  0.00    -0.652 A  
HETATM   19  O   UNL     1     -13.457  16.017  73.754  1.00  0.00    -0.860 OA 
HETATM   20  H   UNL     1     -14.069  15.699  74.407  1.00  0.00     0.000 HD 
HETATM   21  C   UNL     1     -13.118  13.066  71.640  1.00  0.00    -0.440 A  
ENDBRANCH   9  12
ENDBRANCH   3   9
ENDBRANCH   2   3
TORSDOF 5
ENDMDL
MODEL       42
REMARK 921   NORMALIZED FREE ENERGY PREDICTED BY IDOCK:   -5.19 KCAL/MOL
REMARK 922        TOTAL FREE ENERGY PREDICTED BY IDOCK:   -7.39 KCAL/MOL
REMARK 923 INTER-LIGAND FREE ENERGY PREDICTED BY IDOCK:   -6.46 KCAL/MOL
REMARK 924 INTRA-LIGAND FREE ENERGY PREDICTED BY IDOCK:   -0.92 KCAL/MOL
REMARK 927      BINDING AFFINITY PREDICTED BY RF-SCORE:    0.00 PKD
ROOT
HETATM    1  C   UNL     1      -9.491  16.456  68.423  1.00  0.00    -0.220 C  
HETATM    2  C   UNL     1     -10.714  16.512  67.516  1.00  0.00    -0.283 C  
ENDROOT
BRANCH   2   3
HETATM    3  C   UNL     1     -11.253  15.135  67.057  1.00  0.00    -0.308 C  
BRANCH   3   4
HETATM    4  N   UNL     1     -12.355  14.587  67.875  1.00  0.00    -0.599 NA 
HETATM    5  H   UNL     1     -13.304  14.947  67.780  1.00  0.00     0.000 HD 
BRANCH   4   6
HETATM    6  C   UNL     1     -12.053  13.513  68.827  1.00  0.00    -0.270 C  
HETATM    7  C   UNL     1     -10.715  12.887  68.410  1.00  0.00    -0.273 C  
HETATM    8  C   UNL     1     -11.916  13.982  70.277  1.00  0.00    -0.409 C  
ENDBRANCH   4   6
ENDBRANCH   3   4
BRANCH   3   9
HETATM    9  C   UNL     1     -11.510  15.151  65.504  1.00  0.00    -0.213 C  
HETATM   10  H   UNL     1     -10.887  16.194  63.949  1.00  0.00     0.000 HD 
HETATM   11  O   UNL     1     -10.732  16.184  64.887  1.00  0.00    -0.612 OA 
BRANCH   9  12
HETATM   12  C   UNL     1     -11.228  13.869  64.739  1.00  0.00    -0.369 A  
HETATM   13  C   UNL     1     -12.224  13.151  64.058  1.00  0.00    -0.482 A  
HETATM   14  C   UNL     1     -11.896  11.976  63.381  1.00  0.00    -0.447 A  
HETATM   15  O   UNL     1     -12.834  11.253  62.697  1.00  0.00    -0.742 OA 
HETATM   16  C   UNL     1     -10.588  11.507  63.371  1.00  0.00    -0.395 A  
HETATM   17  H   UNL     1     -12.611  10.453  62.235  1.00  0.00     0.000 HD 
HETATM   18  C   UNL     1      -9.593  12.187  64.051  1.00  0.00     0.005 A  
HETATM   19  O   UNL     1     -10.278  10.365  62.690  1.00  0.00    -0.687 OA 
HETATM   20  H   UNL     1      -9.384  10.044  62.683  1.00  0.00     0.000 HD 
HETATM   21  C   UNL     1      -9.913  13.358  64.740  1.00  0.00    -0.158 A  
ENDBRANCH   9  12
ENDBRANCH   3   9
ENDBRANCH   2   3
TORSDOF 5
ENDMDL
MODEL       43
REMARK 921   NORMALIZED FREE ENERGY PREDICTED BY IDOCK:   -5.18 KCAL/MOL
REMARK 922        TOTAL FREE ENERGY PREDICTED BY IDOCK:   -7.37 KCAL/MOL
REMARK 923 INTER-LIGAND FREE ENERGY PREDICTED BY IDOCK:   -6.56 KCAL/MOL
REMARK 924 INTRA-LIGAND FREE ENERGY PREDICTED BY IDOCK:   -0.81 KCAL/MOL
REMARK 927      BINDING AFFINITY PREDICTED BY RF-SCORE:    0.00 PKD
ROOT
HETATM    1  C   UNL     1     -12.396  12.451  64.604  1.00  0.00    -0.518 C  
HETATM    2  C   UNL     1     -12.338  13.970  64.501  1.00  0.00    -0.409 C  
ENDROOT
BRANCH   2   3
HETATM    3  C   UNL     1     -11.601  14.678  65.666  1.00  0.00    -0.328 C  
BRANCH   3   4
HETATM    4  N   UNL     1     -10.953  13.776  66.640  1.00  0.00    -0.294 NA 
HETATM    5  H   UNL     1     -10.138  13.224  66.377  1.00  0.00     0.000 HD 
BRANCH   4   6
HETATM    6  C   UNL     1     -11.509  13.693  67.995  1.00  0.00    -0.310 C  
HETATM    7  C   UNL     1     -11.434  12.225  68.437  1.00  0.00    -0.356 C  
HETATM    8  C   UNL     1     -10.761  14.532  69.032  1.00  0.00    -0.258 C  
ENDBRANCH   4   6
ENDBRANCH   3   4
BRANCH   3   9
HETATM    9  C   UNL     1     -10.688  15.828  65.100  1.00  0.00    -0.435 C  
HETATM   10  H   UNL     1     -10.917  17.429  63.969  1.00  0.00     0.000 HD 
HETATM   11  O   UNL     1     -11.469  16.734  64.311  1.00  0.00    -1.125 OA 
BRANCH   9  12
HETATM   12  C   UNL     1      -9.923  16.668  66.109  1.00  0.00    -0.356 A  
HETATM   13  C   UNL     1     -10.538  17.634  66.922  1.00  0.00    -0.235 A  
HETATM   14  C   UNL     1      -9.775  18.375  67.824  1.00  0.00    -0.301 A  
HETATM   15  O   UNL     1     -10.337  19.317  68.640  1.00  0.00    -0.475 OA 
HETATM   16  C   UNL     1      -8.405  18.165  67.930  1.00  0.00    -0.250 A  
HETATM   17  H   UNL     1      -9.818  19.822  69.254  1.00  0.00     0.000 HD 
HETATM   18  C   UNL     1      -7.773  17.233  67.126  1.00  0.00    -0.220 A  
HETATM   19  O   UNL     1      -7.672  18.886  68.829  1.00  0.00    -0.329 OA 
HETATM   20  H   UNL     1      -6.736  18.743  68.902  1.00  0.00     0.000 HD 
HETATM   21  C   UNL     1      -8.527  16.493  66.213  1.00  0.00    -0.363 A  
ENDBRANCH   9  12
ENDBRANCH   3   9
ENDBRANCH   2   3
TORSDOF 5
ENDMDL
MODEL       44
REMARK 921   NORMALIZED FREE ENERGY PREDICTED BY IDOCK:   -5.18 KCAL/MOL
REMARK 922        TOTAL FREE ENERGY PREDICTED BY IDOCK:   -7.36 KCAL/MOL
REMARK 923 INTER-LIGAND FREE ENERGY PREDICTED BY IDOCK:   -6.41 KCAL/MOL
REMARK 924 INTRA-LIGAND FREE ENERGY PREDICTED BY IDOCK:   -0.96 KCAL/MOL
REMARK 927      BINDING AFFINITY PREDICTED BY RF-SCORE:    0.00 PKD
ROOT
HETATM    1  C   UNL     1     -12.603  13.237  65.277  1.00  0.00    -0.528 C  
HETATM    2  C   UNL     1     -11.972  14.199  66.276  1.00  0.00    -0.448 C  
ENDROOT
BRANCH   2   3
HETATM    3  C   UNL     1     -10.954  13.557  67.251  1.00  0.00    -0.280 C  
BRANCH   3   4
HETATM    4  N   UNL     1      -9.553  13.551  66.783  1.00  0.00    -0.260 NA 
HETATM    5  H   UNL     1      -9.101  14.413  66.482  1.00  0.00     0.000 HD 
BRANCH   4   6
HETATM    6  C   UNL     1      -8.828  12.276  66.762  1.00  0.00    -0.195 C  
HETATM    7  C   UNL     1      -8.147  12.107  68.127  1.00  0.00    -0.161 C  
HETATM    8  C   UNL     1      -9.717  11.053  66.530  1.00  0.00    -0.230 C  
ENDBRANCH   4   6
ENDBRANCH   3   4
BRANCH   3   9
HETATM    9  C   UNL     1     -11.178  14.120  68.704  1.00  0.00    -0.266 C  
HETATM   10  H   UNL     1     -12.120  15.642  69.533  1.00  0.00     0.000 HD 
HETATM   11  O   UNL     1     -11.985  15.302  68.656  1.00  0.00    -0.320 OA 
BRANCH   9  12
HETATM   12  C   UNL     1     -11.819  13.188  69.719  1.00  0.00    -0.386 A  
HETATM   13  C   UNL     1     -12.573  13.650  70.810  1.00  0.00    -0.397 A  
HETATM   14  C   UNL     1     -13.129  12.739  71.708  1.00  0.00    -0.356 A  
HETATM   15  O   UNL     1     -13.878  13.147  72.777  1.00  0.00    -0.721 OA 
HETATM   16  C   UNL     1     -12.946  11.373  71.534  1.00  0.00    -0.399 A  
HETATM   17  H   UNL     1     -14.257  12.527  73.389  1.00  0.00     0.000 HD 
HETATM   18  C   UNL     1     -12.191  10.895  70.477  1.00  0.00    -0.459 A  
HETATM   19  O   UNL     1     -13.510  10.491  72.411  1.00  0.00    -0.606 OA 
HETATM   20  H   UNL     1     -13.385   9.557  72.292  1.00  0.00     0.000 HD 
HETATM   21  C   UNL     1     -11.622  11.799  69.578  1.00  0.00    -0.398 A  
ENDBRANCH   9  12
ENDBRANCH   3   9
ENDBRANCH   2   3
TORSDOF 5
ENDMDL
MODEL       45
REMARK 921   NORMALIZED FREE ENERGY PREDICTED BY IDOCK:   -5.17 KCAL/MOL
REMARK 922        TOTAL FREE ENERGY PREDICTED BY IDOCK:   -7.35 KCAL/MOL
REMARK 923 INTER-LIGAND FREE ENERGY PREDICTED BY IDOCK:   -6.71 KCAL/MOL
REMARK 924 INTRA-LIGAND FREE ENERGY PREDICTED BY IDOCK:   -0.64 KCAL/MOL
REMARK 927      BINDING AFFINITY PREDICTED BY RF-SCORE:    0.00 PKD
ROOT
HETATM    1  C   UNL     1      -8.947  14.875  66.631  1.00  0.00    -0.301 C  
HETATM    2  C   UNL     1      -9.482  13.464  66.425  1.00  0.00    -0.230 C  
ENDROOT
BRANCH   2   3
HETATM    3  C   UNL     1     -10.910  13.217  66.972  1.00  0.00    -0.269 C  
BRANCH   3   4
HETATM    4  N   UNL     1     -11.943  12.975  65.945  1.00  0.00    -0.414 NA 
HETATM    5  H   UNL     1     -12.818  12.511  66.185  1.00  0.00     0.000 HD 
BRANCH   4   6
HETATM    6  C   UNL     1     -11.682  13.418  64.571  1.00  0.00    -0.384 C  
HETATM    7  C   UNL     1     -12.335  12.401  63.624  1.00  0.00    -0.647 C  
HETATM    8  C   UNL     1     -12.251  14.798  64.238  1.00  0.00    -0.402 C  
ENDBRANCH   4   6
ENDBRANCH   3   4
BRANCH   3   9
HETATM    9  C   UNL     1     -10.861  12.164  68.141  1.00  0.00    -0.222 C  
HETATM   10  H   UNL     1      -9.477  11.316  69.262  1.00  0.00     0.000 HD 
HETATM   11  O   UNL     1      -9.507  11.953  68.557  1.00  0.00    -0.198 OA 
BRANCH   9  12
HETATM   12  C   UNL     1     -11.664  12.477  69.392  1.00  0.00    -0.383 A  
HETATM   13  C   UNL     1     -12.105  11.486  70.285  1.00  0.00    -0.444 A  
HETATM   14  C   UNL     1     -12.844  11.843  71.412  1.00  0.00    -0.307 A  
HETATM   15  O   UNL     1     -13.283  10.910  72.310  1.00  0.00    -0.613 OA 
HETATM   16  C   UNL     1     -13.150  13.175  71.665  1.00  0.00    -0.353 A  
HETATM   17  H   UNL     1     -13.787  11.153  73.079  1.00  0.00     0.000 HD 
HETATM   18  C   UNL     1     -12.742  14.167  70.791  1.00  0.00    -0.414 A  
HETATM   19  O   UNL     1     -13.860  13.512  72.782  1.00  0.00    -0.730 OA 
HETATM   20  H   UNL     1     -14.069  14.422  72.955  1.00  0.00     0.000 HD 
HETATM   21  C   UNL     1     -12.011  13.819  69.654  1.00  0.00    -0.399 A  
ENDBRANCH   9  12
ENDBRANCH   3   9
ENDBRANCH   2   3
TORSDOF 5
ENDMDL
MODEL       46
REMARK 921   NORMALIZED FREE ENERGY PREDICTED BY IDOCK:   -5.15 KCAL/MOL
REMARK 922        TOTAL FREE ENERGY PREDICTED BY IDOCK:   -7.33 KCAL/MOL
REMARK 923 INTER-LIGAND FREE ENERGY PREDICTED BY IDOCK:   -6.61 KCAL/MOL
REMARK 924 INTRA-LIGAND FREE ENERGY PREDICTED BY IDOCK:   -0.72 KCAL/MOL
REMARK 927      BINDING AFFINITY PREDICTED BY RF-SCORE:    0.00 PKD
ROOT
HETATM    1  C   UNL     1     -12.296  13.108  70.347  1.00  0.00    -0.351 C  
HETATM    2  C   UNL     1     -11.753  11.936  69.539  1.00  0.00    -0.410 C  
ENDROOT
BRANCH   2   3
HETATM    3  C   UNL     1     -10.457  12.232  68.744  1.00  0.00    -0.162 C  
BRANCH   3   4
HETATM    4  N   UNL     1      -9.226  11.643  69.308  1.00  0.00    -0.243 NA 
HETATM    5  H   UNL     1      -9.064  11.637  70.314  1.00  0.00     0.000 HD 
BRANCH   4   6
HETATM    6  C   UNL     1      -8.240  11.067  68.387  1.00  0.00    -0.137 C  
HETATM    7  C   UNL     1      -7.157  12.128  68.145  1.00  0.00    -0.088 C  
HETATM    8  C   UNL     1      -7.549   9.809  68.915  1.00  0.00    -0.081 C  
ENDBRANCH   4   6
ENDBRANCH   3   4
BRANCH   3   9
HETATM    9  C   UNL     1     -10.696  11.957  67.212  1.00  0.00    -0.236 C  
HETATM   10  H   UNL     1     -11.960  10.915  66.112  1.00  0.00     0.000 HD 
HETATM   11  O   UNL     1     -11.816  11.081  67.037  1.00  0.00    -0.322 OA 
BRANCH   9  12
HETATM   12  C   UNL     1     -10.935  13.164  66.319  1.00  0.00    -0.295 A  
HETATM   13  C   UNL     1     -11.774  13.127  65.194  1.00  0.00    -0.367 A  
HETATM   14  C   UNL     1     -11.944  14.270  64.414  1.00  0.00    -0.456 A  
HETATM   15  O   UNL     1     -12.761  14.279  63.317  1.00  0.00    -0.940 OA 
HETATM   16  C   UNL     1     -11.291  15.453  64.740  1.00  0.00    -0.376 A  
HETATM   17  H   UNL     1     -12.877  15.058  62.785  1.00  0.00     0.000 HD 
HETATM   18  C   UNL     1     -10.444  15.508  65.833  1.00  0.00    -0.356 A  
HETATM   19  O   UNL     1     -11.479  16.569  63.977  1.00  0.00    -1.513 OA 
HETATM   20  H   UNL     1     -11.033  17.378  64.200  1.00  0.00     0.000 HD 
HETATM   21  C   UNL     1     -10.259  14.366  66.614  1.00  0.00    -0.277 A  
ENDBRANCH   9  12
ENDBRANCH   3   9
ENDBRANCH   2   3
TORSDOF 5
ENDMDL
MODEL       47
REMARK 921   NORMALIZED FREE ENERGY PREDICTED BY IDOCK:   -5.15 KCAL/MOL
REMARK 922        TOTAL FREE ENERGY PREDICTED BY IDOCK:   -7.32 KCAL/MOL
REMARK 923 INTER-LIGAND FREE ENERGY PREDICTED BY IDOCK:   -6.41 KCAL/MOL
REMARK 924 INTRA-LIGAND FREE ENERGY PREDICTED BY IDOCK:   -0.91 KCAL/MOL
REMARK 927      BINDING AFFINITY PREDICTED BY RF-SCORE:    0.00 PKD
ROOT
HETATM    1  C   UNL     1      -8.692  13.138  67.640  1.00  0.00    -0.192 C  
HETATM    2  C   UNL     1      -9.749  12.074  67.906  1.00  0.00    -0.194 C  
ENDROOT
BRANCH   2   3
HETATM    3  C   UNL     1     -11.214  12.569  67.823  1.00  0.00    -0.269 C  
BRANCH   3   4
HETATM    4  N   UNL     1     -11.972  12.096  66.647  1.00  0.00    -0.629 NA 
HETATM    5  H   UNL     1     -12.352  11.150  66.617  1.00  0.00     0.000 HD 
BRANCH   4   6
HETATM    6  C   UNL     1     -12.166  13.017  65.522  1.00  0.00    -0.469 C  
HETATM    7  C   UNL     1     -11.911  14.440  66.039  1.00  0.00    -0.379 C  
HETATM    8  C   UNL     1     -11.222  12.774  64.343  1.00  0.00    -0.390 C  
ENDBRANCH   4   6
ENDBRANCH   3   4
BRANCH   3   9
HETATM    9  C   UNL     1     -11.928  12.365  69.211  1.00  0.00    -0.253 C  
HETATM   10  H   UNL     1     -11.737  11.169  70.769  1.00  0.00     0.000 HD 
HETATM   11  O   UNL     1     -11.307  11.293  69.931  1.00  0.00    -0.277 OA 
BRANCH   9  12
HETATM   12  C   UNL     1     -11.975  13.558  70.151  1.00  0.00    -0.399 A  
HETATM   13  C   UNL     1     -12.686  13.550  71.361  1.00  0.00    -0.423 A  
HETATM   14  C   UNL     1     -12.692  14.683  72.174  1.00  0.00    -0.334 A  
HETATM   15  O   UNL     1     -13.363  14.712  73.365  1.00  0.00    -0.563 OA 
HETATM   16  C   UNL     1     -11.996  15.827  71.798  1.00  0.00    -0.467 A  
HETATM   17  H   UNL     1     -13.367  15.484  73.919  1.00  0.00     0.000 HD 
HETATM   18  C   UNL     1     -11.304  15.865  70.601  1.00  0.00    -0.421 A  
HETATM   19  O   UNL     1     -11.997  16.924  72.611  1.00  0.00    -0.432 OA 
HETATM   20  H   UNL     1     -11.522  17.705  72.354  1.00  0.00     0.000 HD 
HETATM   21  C   UNL     1     -11.301  14.739  69.775  1.00  0.00    -0.319 A  
ENDBRANCH   9  12
ENDBRANCH   3   9
ENDBRANCH   2   3
TORSDOF 5
ENDMDL
MODEL       48
REMARK 921   NORMALIZED FREE ENERGY PREDICTED BY IDOCK:   -5.14 KCAL/MOL
REMARK 922        TOTAL FREE ENERGY PREDICTED BY IDOCK:   -7.32 KCAL/MOL
REMARK 923 INTER-LIGAND FREE ENERGY PREDICTED BY IDOCK:   -6.59 KCAL/MOL
REMARK 924 INTRA-LIGAND FREE ENERGY PREDICTED BY IDOCK:   -0.73 KCAL/MOL
REMARK 927      BINDING AFFINITY PREDICTED BY RF-SCORE:    0.00 PKD
ROOT
HETATM    1  C   UNL     1      -8.630  10.993  68.712  1.00  0.00    -0.144 C  
HETATM    2  C   UNL     1     -10.036  10.408  68.733  1.00  0.00    -0.198 C  
ENDROOT
BRANCH   2   3
HETATM    3  C   UNL     1     -11.180  11.453  68.729  1.00  0.00    -0.247 C  
BRANCH   3   4
HETATM    4  N   UNL     1     -11.908  11.583  67.450  1.00  0.00    -0.620 NA 
HETATM    5  H   UNL     1     -12.843  11.192  67.340  1.00  0.00     0.000 HD 
BRANCH   4   6
HETATM    6  C   UNL     1     -11.255  12.286  66.341  1.00  0.00    -0.324 C  
HETATM    7  C   UNL     1     -12.337  12.631  65.309  1.00  0.00    -0.528 C  
HETATM    8  C   UNL     1     -10.565  13.589  66.746  1.00  0.00    -0.272 C  
ENDBRANCH   4   6
ENDBRANCH   3   4
BRANCH   3   9
HETATM    9  C   UNL     1     -12.085  11.260  70.003  1.00  0.00    -0.348 C  
HETATM   10  H   UNL     1     -11.952  10.334  71.740  1.00  0.00     0.000 HD 
HETATM   11  O   UNL     1     -11.406  10.451  70.971  1.00  0.00    -0.306 OA 
BRANCH   9  12
HETATM   12  C   UNL     1     -12.548  12.515  70.723  1.00  0.00    -0.299 A  
HETATM   13  C   UNL     1     -12.130  13.804  70.355  1.00  0.00    -0.421 A  
HETATM   14  C   UNL     1     -12.589  14.914  71.063  1.00  0.00    -0.336 A  
HETATM   15  O   UNL     1     -12.214  16.187  70.731  1.00  0.00    -0.499 OA 
HETATM   16  C   UNL     1     -13.462  14.758  72.134  1.00  0.00    -0.391 A  
HETATM   17  H   UNL     1     -12.527  16.943  71.214  1.00  0.00     0.000 HD 
HETATM   18  C   UNL     1     -13.873  13.497  72.527  1.00  0.00    -0.624 A  
HETATM   19  O   UNL     1     -13.917  15.855  72.809  1.00  0.00    -0.581 OA 
HETATM   20  H   UNL     1     -14.513  15.749  73.540  1.00  0.00     0.000 HD 
HETATM   21  C   UNL     1     -13.411  12.379  71.830  1.00  0.00    -0.450 A  
ENDBRANCH   9  12
ENDBRANCH   3   9
ENDBRANCH   2   3
TORSDOF 5
ENDMDL
MODEL       49
REMARK 921   NORMALIZED FREE ENERGY PREDICTED BY IDOCK:   -5.13 KCAL/MOL
REMARK 922        TOTAL FREE ENERGY PREDICTED BY IDOCK:   -7.30 KCAL/MOL
REMARK 923 INTER-LIGAND FREE ENERGY PREDICTED BY IDOCK:   -6.69 KCAL/MOL
REMARK 924 INTRA-LIGAND FREE ENERGY PREDICTED BY IDOCK:   -0.61 KCAL/MOL
REMARK 927      BINDING AFFINITY PREDICTED BY RF-SCORE:    0.00 PKD
ROOT
HETATM    1  C   UNL     1      -8.245  11.549  67.658  1.00  0.00    -0.131 C  
HETATM    2  C   UNL     1      -9.754  11.750  67.714  1.00  0.00    -0.185 C  
ENDROOT
BRANCH   2   3
HETATM    3  C   UNL     1     -10.294  12.286  69.064  1.00  0.00     0.038 C  
BRANCH   3   4
HETATM    4  N   UNL     1     -10.260  13.755  69.215  1.00  0.00    -0.426 NA 
HETATM    5  H   UNL     1      -9.415  14.227  69.536  1.00  0.00     0.000 HD 
BRANCH   4   6
HETATM    6  C   UNL     1     -11.469  14.520  68.893  1.00  0.00    -0.300 C  
HETATM    7  C   UNL     1     -11.542  15.704  69.868  1.00  0.00    -0.354 C  
HETATM    8  C   UNL     1     -11.493  15.084  67.472  1.00  0.00    -0.339 C  
ENDBRANCH   4   6
ENDBRANCH   3   4
BRANCH   3   9
HETATM    9  C   UNL     1     -11.674  11.606  69.396  1.00  0.00    -0.340 C  
HETATM   10  H   UNL     1     -13.065  10.611  68.413  1.00  0.00     0.000 HD 
HETATM   11  O   UNL     1     -12.232  11.022  68.212  1.00  0.00    -0.582 OA 
BRANCH   9  12
HETATM   12  C   UNL     1     -11.677  10.526  70.465  1.00  0.00    -0.443 A  
HETATM   13  C   UNL     1     -12.773  10.290  71.309  1.00  0.00    -0.523 A  
HETATM   14  C   UNL     1     -12.706   9.286  72.275  1.00  0.00    -0.363 A  
HETATM   15  O   UNL     1     -13.755   9.018  73.109  1.00  0.00    -1.013 OA 
HETATM   16  C   UNL     1     -11.561   8.510  72.410  1.00  0.00    -0.354 A  
HETATM   17  H   UNL     1     -13.710   8.334  73.767  1.00  0.00     0.000 HD 
HETATM   18  C   UNL     1     -10.460   8.737  71.602  1.00  0.00    -0.387 A  
HETATM   19  O   UNL     1     -11.514   7.519  73.348  1.00  0.00    -0.629 OA 
HETATM   20  H   UNL     1     -10.732   6.989  73.441  1.00  0.00     0.000 HD 
HETATM   21  C   UNL     1     -10.514   9.747  70.639  1.00  0.00    -0.358 A  
ENDBRANCH   9  12
ENDBRANCH   3   9
ENDBRANCH   2   3
TORSDOF 5
ENDMDL
MODEL       50
REMARK 921   NORMALIZED FREE ENERGY PREDICTED BY IDOCK:   -5.12 KCAL/MOL
REMARK 922        TOTAL FREE ENERGY PREDICTED BY IDOCK:   -7.29 KCAL/MOL
REMARK 923 INTER-LIGAND FREE ENERGY PREDICTED BY IDOCK:   -6.48 KCAL/MOL
REMARK 924 INTRA-LIGAND FREE ENERGY PREDICTED BY IDOCK:   -0.82 KCAL/MOL
REMARK 927      BINDING AFFINITY PREDICTED BY RF-SCORE:    0.00 PKD
ROOT
HETATM    1  C   UNL     1      -8.876  13.497  67.897  1.00  0.00    -0.190 C  
HETATM    2  C   UNL     1     -10.288  13.810  68.374  1.00  0.00    -0.247 C  
ENDROOT
BRANCH   2   3
HETATM    3  C   UNL     1     -11.105  14.739  67.441  1.00  0.00    -0.324 C  
BRANCH   3   4
HETATM    4  N   UNL     1     -12.360  14.160  66.920  1.00  0.00    -0.565 NA 
HETATM    5  H   UNL     1     -13.095  13.851  67.555  1.00  0.00     0.000 HD 
BRANCH   4   6
HETATM    6  C   UNL     1     -12.525  14.039  65.468  1.00  0.00    -0.509 C  
HETATM    7  C   UNL     1     -11.348  14.770  64.805  1.00  0.00    -0.399 C  
HETATM    8  C   UNL     1     -12.527  12.598  64.955  1.00  0.00    -0.556 C  
ENDBRANCH   4   6
ENDBRANCH   3   4
BRANCH   3   9
HETATM    9  C   UNL     1     -11.239  16.166  68.092  1.00  0.00    -0.311 C  
HETATM   10  H   UNL     1     -10.984  16.967  69.877  1.00  0.00     0.000 HD 
HETATM   11  O   UNL     1     -10.902  16.106  69.484  1.00  0.00    -0.280 OA 
BRANCH   9  12
HETATM   12  C   UNL     1     -10.412  17.287  67.485  1.00  0.00    -0.356 A  
HETATM   13  C   UNL     1      -9.236  17.059  66.754  1.00  0.00    -0.270 A  
HETATM   14  C   UNL     1      -8.521  18.135  66.230  1.00  0.00    -0.185 A  
HETATM   15  O   UNL     1      -7.377  17.955  65.503  1.00  0.00    -0.522 OA 
HETATM   16  C   UNL     1      -8.964  19.439  66.422  1.00  0.00    -0.363 A  
HETATM   17  H   UNL     1      -6.890  18.688  65.146  1.00  0.00     0.000 HD 
HETATM   18  C   UNL     1     -10.110  19.690  67.154  1.00  0.00    -0.533 A  
HETATM   19  O   UNL     1      -8.264  20.483  65.888  1.00  0.00    -0.520 OA 
HETATM   20  H   UNL     1      -8.566  21.373  66.019  1.00  0.00     0.000 HD 
HETATM   21  C   UNL     1     -10.827  18.619  67.692  1.00  0.00    -0.347 A  
ENDBRANCH   9  12
ENDBRANCH   3   9
ENDBRANCH   2   3
TORSDOF 5
ENDMDL
MODEL       51
REMARK 921   NORMALIZED FREE ENERGY PREDICTED BY IDOCK:   -5.10 KCAL/MOL
REMARK 922        TOTAL FREE ENERGY PREDICTED BY IDOCK:   -7.27 KCAL/MOL
REMARK 923 INTER-LIGAND FREE ENERGY PREDICTED BY IDOCK:   -6.61 KCAL/MOL
REMARK 924 INTRA-LIGAND FREE ENERGY PREDICTED BY IDOCK:   -0.66 KCAL/MOL
REMARK 927      BINDING AFFINITY PREDICTED BY RF-SCORE:    0.00 PKD
ROOT
HETATM    1  C   UNL     1      -9.948  10.565  63.766  1.00  0.00    -0.324 C  
HETATM    2  C   UNL     1      -9.414  11.211  65.039  1.00  0.00    -0.259 C  
ENDROOT
BRANCH   2   3
HETATM    3  C   UNL     1     -10.286  10.992  66.300  1.00  0.00    -0.251 C  
BRANCH   3   4
HETATM    4  N   UNL     1      -9.537  10.856  67.566  1.00  0.00    -0.155 NA 
HETATM    5  H   UNL     1      -9.055  11.655  67.975  1.00  0.00     0.000 HD 
BRANCH   4   6
HETATM    6  C   UNL     1      -9.503   9.544  68.221  1.00  0.00    -0.133 C  
HETATM    7  C   UNL     1      -9.809   9.760  69.710  1.00  0.00    -0.262 C  
HETATM    8  C   UNL     1     -10.525   8.544  67.675  1.00  0.00    -0.308 C  
ENDBRANCH   4   6
ENDBRANCH   3   4
BRANCH   3   9
HETATM    9  C   UNL     1     -11.465  12.036  66.323  1.00  0.00    -0.345 C  
HETATM   10  H   UNL     1     -12.845  12.626  67.603  1.00  0.00     0.000 HD 
HETATM   11  O   UNL     1     -12.134  11.996  67.589  1.00  0.00    -0.547 OA 
BRANCH   9  12
HETATM   12  C   UNL     1     -11.110  13.490  66.058  1.00  0.00    -0.300 A  
HETATM   13  C   UNL     1     -11.631  14.218  64.976  1.00  0.00    -0.367 A  
HETATM   14  C   UNL     1     -11.258  15.548  64.787  1.00  0.00    -0.390 A  
HETATM   15  O   UNL     1     -11.751  16.295  63.753  1.00  0.00    -1.511 OA 
HETATM   16  C   UNL     1     -10.373  16.166  65.663  1.00  0.00    -0.382 A  
HETATM   17  H   UNL     1     -11.497  17.201  63.624  1.00  0.00     0.000 HD 
HETATM   18  C   UNL     1      -9.831  15.463  66.725  1.00  0.00    -0.255 A  
HETATM   19  O   UNL     1     -10.029  17.474  65.476  1.00  0.00    -0.552 OA 
HETATM   20  H   UNL     1      -9.424  17.896  66.074  1.00  0.00     0.000 HD 
HETATM   21  C   UNL     1     -10.191  14.128  66.916  1.00  0.00    -0.267 A  
ENDBRANCH   9  12
ENDBRANCH   3   9
ENDBRANCH   2   3
TORSDOF 5
ENDMDL
MODEL       52
REMARK 921   NORMALIZED FREE ENERGY PREDICTED BY IDOCK:   -5.09 KCAL/MOL
REMARK 922        TOTAL FREE ENERGY PREDICTED BY IDOCK:   -7.25 KCAL/MOL
REMARK 923 INTER-LIGAND FREE ENERGY PREDICTED BY IDOCK:   -6.55 KCAL/MOL
REMARK 924 INTRA-LIGAND FREE ENERGY PREDICTED BY IDOCK:   -0.70 KCAL/MOL
REMARK 927      BINDING AFFINITY PREDICTED BY RF-SCORE:    0.00 PKD
ROOT
HETATM    1  C   UNL     1      -8.594  14.821  67.442  1.00  0.00    -0.210 C  
HETATM    2  C   UNL     1      -9.020  13.369  67.617  1.00  0.00    -0.202 C  
ENDROOT
BRANCH   2   3
HETATM    3  C   UNL     1     -10.488  13.064  67.229  1.00  0.00    -0.238 C  
BRANCH   3   4
HETATM    4  N   UNL     1     -10.706  12.735  65.805  1.00  0.00    -0.268 NA 
HETATM    5  H   UNL     1      -9.917  12.571  65.181  1.00  0.00     0.000 HD 
BRANCH   4   6
HETATM    6  C   UNL     1     -12.084  12.650  65.309  1.00  0.00    -0.467 C  
HETATM    7  C   UNL     1     -12.732  14.028  65.503  1.00  0.00    -0.517 C  
HETATM    8  C   UNL     1     -12.195  12.286  63.828  1.00  0.00    -0.642 C  
ENDBRANCH   4   6
ENDBRANCH   3   4
BRANCH   3   9
HETATM    9  C   UNL     1     -11.114  12.051  68.258  1.00  0.00    -0.243 C  
HETATM   10  H   UNL     1     -10.473  10.584  69.412  1.00  0.00     0.000 HD 
HETATM   11  O   UNL     1     -10.095  11.196  68.790  1.00  0.00    -0.194 OA 
BRANCH   9  12
HETATM   12  C   UNL     1     -11.862  12.638  69.444  1.00  0.00    -0.356 A  
HETATM   13  C   UNL     1     -12.206  13.997  69.532  1.00  0.00    -0.355 A  
HETATM   14  C   UNL     1     -12.887  14.471  70.653  1.00  0.00    -0.340 A  
HETATM   15  O   UNL     1     -13.250  15.784  70.773  1.00  0.00    -0.663 OA 
HETATM   16  C   UNL     1     -13.232  13.610  71.688  1.00  0.00    -0.367 A  
HETATM   17  H   UNL     1     -13.714  16.108  71.536  1.00  0.00     0.000 HD 
HETATM   18  C   UNL     1     -12.887  12.271  71.632  1.00  0.00    -0.378 A  
HETATM   19  O   UNL     1     -13.914  14.084  72.772  1.00  0.00    -0.669 OA 
HETATM   20  H   UNL     1     -14.150  13.496  73.479  1.00  0.00     0.000 HD 
HETATM   21  C   UNL     1     -12.196  11.789  70.519  1.00  0.00    -0.438 A  
ENDBRANCH   9  12
ENDBRANCH   3   9
ENDBRANCH   2   3
TORSDOF 5
ENDMDL
MODEL       53
REMARK 921   NORMALIZED FREE ENERGY PREDICTED BY IDOCK:   -5.09 KCAL/MOL
REMARK 922        TOTAL FREE ENERGY PREDICTED BY IDOCK:   -7.25 KCAL/MOL
REMARK 923 INTER-LIGAND FREE ENERGY PREDICTED BY IDOCK:   -6.32 KCAL/MOL
REMARK 924 INTRA-LIGAND FREE ENERGY PREDICTED BY IDOCK:   -0.92 KCAL/MOL
REMARK 927      BINDING AFFINITY PREDICTED BY RF-SCORE:    0.00 PKD
ROOT
HETATM    1  C   UNL     1      -9.745   8.249  72.518  1.00  0.00    -0.368 C  
HETATM    2  C   UNL     1     -11.255   8.050  72.573  1.00  0.00    -0.452 C  
ENDROOT
BRANCH   2   3
HETATM    3  C   UNL     1     -11.988   8.213  71.219  1.00  0.00    -0.291 C  
BRANCH   3   4
HETATM    4  N   UNL     1     -12.384   6.950  70.562  1.00  0.00    -0.601 NA 
HETATM    5  H   UNL     1     -13.232   6.460  70.844  1.00  0.00     0.000 HD 
BRANCH   4   6
HETATM    6  C   UNL     1     -11.530   6.419  69.495  1.00  0.00    -0.343 C  
HETATM    7  C   UNL     1     -10.726   7.592  68.917  1.00  0.00    -0.135 C  
HETATM    8  C   UNL     1     -10.534   5.356  69.961  1.00  0.00    -0.373 C  
ENDBRANCH   4   6
ENDBRANCH   3   4
BRANCH   3   9
HETATM    9  C   UNL     1     -13.129   9.289  71.355  1.00  0.00    -0.322 C  
HETATM   10  H   UNL     1     -14.316   9.961  72.781  1.00  0.00     0.000 HD 
HETATM   11  O   UNL     1     -13.627   9.312  72.698  1.00  0.00    -0.455 OA 
BRANCH   9  12
HETATM   12  C   UNL     1     -12.780  10.722  70.988  1.00  0.00    -0.513 A  
HETATM   13  C   UNL     1     -12.016  11.057  69.860  1.00  0.00    -0.427 A  
HETATM   14  C   UNL     1     -11.727  12.393  69.585  1.00  0.00    -0.307 A  
HETATM   15  O   UNL     1     -10.994  12.762  68.491  1.00  0.00    -0.237 OA 
HETATM   16  C   UNL     1     -12.191  13.403  70.420  1.00  0.00    -0.345 A  
HETATM   17  H   UNL     1     -10.797  13.672  68.304  1.00  0.00     0.000 HD 
HETATM   18  C   UNL     1     -12.931  13.096  71.548  1.00  0.00    -0.412 A  
HETATM   19  O   UNL     1     -11.915  14.709  70.131  1.00  0.00    -0.275 OA 
HETATM   20  H   UNL     1     -12.232  15.399  70.700  1.00  0.00     0.000 HD 
HETATM   21  C   UNL     1     -13.217  11.760  71.837  1.00  0.00    -0.468 A  
ENDBRANCH   9  12
ENDBRANCH   3   9
ENDBRANCH   2   3
TORSDOF 5
ENDMDL
MODEL       54
REMARK 921   NORMALIZED FREE ENERGY PREDICTED BY IDOCK:   -5.07 KCAL/MOL
REMARK 922        TOTAL FREE ENERGY PREDICTED BY IDOCK:   -7.22 KCAL/MOL
REMARK 923 INTER-LIGAND FREE ENERGY PREDICTED BY IDOCK:   -6.68 KCAL/MOL
REMARK 924 INTRA-LIGAND FREE ENERGY PREDICTED BY IDOCK:   -0.55 KCAL/MOL
REMARK 927      BINDING AFFINITY PREDICTED BY RF-SCORE:    0.00 PKD
ROOT
HETATM    1  C   UNL     1     -10.239  16.414  66.126  1.00  0.00    -0.363 C  
HETATM    2  C   UNL     1     -11.056  16.091  67.370  1.00  0.00    -0.167 C  
ENDROOT
BRANCH   2   3
HETATM    3  C   UNL     1     -11.264  14.581  67.645  1.00  0.00    -0.322 C  
BRANCH   3   4
HETATM    4  N   UNL     1     -10.828  13.679  66.559  1.00  0.00    -0.282 NA 
HETATM    5  H   UNL     1      -9.859  13.675  66.242  1.00  0.00     0.000 HD 
BRANCH   4   6
HETATM    6  C   UNL     1     -11.821  12.790  65.947  1.00  0.00    -0.437 C  
HETATM    7  C   UNL     1     -12.901  13.673  65.305  1.00  0.00    -0.421 C  
HETATM    8  C   UNL     1     -11.257  11.877  64.857  1.00  0.00    -0.350 C  
ENDBRANCH   4   6
ENDBRANCH   3   4
BRANCH   3   9
HETATM    9  C   UNL     1     -10.724  14.219  69.079  1.00  0.00    -0.245 C  
HETATM   10  H   UNL     1      -9.092  14.558  70.134  1.00  0.00     0.000 HD 
HETATM   11  O   UNL     1      -9.418  14.776  69.269  1.00  0.00    -0.157 OA 
BRANCH   9  12
HETATM   12  C   UNL     1     -11.566  14.653  70.267  1.00  0.00    -0.335 A  
HETATM   13  C   UNL     1     -12.622  13.880  70.778  1.00  0.00    -0.424 A  
HETATM   14  C   UNL     1     -13.358  14.341  71.868  1.00  0.00    -0.388 A  
HETATM   15  O   UNL     1     -14.387  13.615  72.402  1.00  0.00    -0.661 OA 
HETATM   16  C   UNL     1     -13.058  15.563  72.460  1.00  0.00    -0.446 A  
HETATM   17  H   UNL     1     -14.889  13.928  73.145  1.00  0.00     0.000 HD 
HETATM   18  C   UNL     1     -12.035  16.350  71.962  1.00  0.00    -0.437 A  
HETATM   19  O   UNL     1     -13.777  15.995  73.537  1.00  0.00    -0.814 OA 
HETATM   20  H   UNL     1     -13.571  16.829  73.942  1.00  0.00     0.000 HD 
HETATM   21  C   UNL     1     -11.298  15.902  70.865  1.00  0.00    -0.428 A  
ENDBRANCH   9  12
ENDBRANCH   3   9
ENDBRANCH   2   3
TORSDOF 5
ENDMDL
MODEL       55
REMARK 921   NORMALIZED FREE ENERGY PREDICTED BY IDOCK:   -5.06 KCAL/MOL
REMARK 922        TOTAL FREE ENERGY PREDICTED BY IDOCK:   -7.22 KCAL/MOL
REMARK 923 INTER-LIGAND FREE ENERGY PREDICTED BY IDOCK:   -6.47 KCAL/MOL
REMARK 924 INTRA-LIGAND FREE ENERGY PREDICTED BY IDOCK:   -0.75 KCAL/MOL
REMARK 927      BINDING AFFINITY PREDICTED BY RF-SCORE:    0.00 PKD
ROOT
HETATM    1  C   UNL     1      -9.563  11.213  68.508  1.00  0.00    -0.193 C  
HETATM    2  C   UNL     1     -11.046  11.259  68.853  1.00  0.00    -0.295 C  
ENDROOT
BRANCH   2   3
HETATM    3  C   UNL     1     -11.884  12.255  68.013  1.00  0.00    -0.305 C  
BRANCH   3   4
HETATM    4  N   UNL     1     -12.324  13.468  68.732  1.00  0.00    -0.235 NA 
HETATM    5  H   UNL     1     -12.987  14.115  68.306  1.00  0.00     0.000 HD 
BRANCH   4   6
HETATM    6  C   UNL     1     -11.785  13.722  70.072  1.00  0.00    -0.257 C  
HETATM    7  C   UNL     1     -11.373  15.200  70.134  1.00  0.00    -0.300 C  
HETATM    8  C   UNL     1     -12.779  13.468  71.206  1.00  0.00    -0.432 C  
ENDBRANCH   4   6
ENDBRANCH   3   4
BRANCH   3   9
HETATM    9  C   UNL     1     -11.182  12.509  66.627  1.00  0.00    -0.307 C  
HETATM   10  H   UNL     1     -11.646  12.322  64.719  1.00  0.00     0.000 HD 
HETATM   11  O   UNL     1     -12.070  12.168  65.556  1.00  0.00    -0.517 OA 
BRANCH   9  12
HETATM   12  C   UNL     1     -10.677  13.916  66.352  1.00  0.00    -0.281 A  
HETATM   13  C   UNL     1     -11.240  14.752  65.375  1.00  0.00    -0.347 A  
HETATM   14  C   UNL     1     -10.723  16.031  65.170  1.00  0.00    -0.409 A  
HETATM   15  O   UNL     1     -11.249  16.880  64.236  1.00  0.00    -1.325 OA 
HETATM   16  C   UNL     1      -9.652  16.490  65.928  1.00  0.00    -0.248 A  
HETATM   17  H   UNL     1     -10.897  17.751  64.096  1.00  0.00     0.000 HD 
HETATM   18  C   UNL     1      -9.068  15.678  66.883  1.00  0.00    -0.260 A  
HETATM   19  O   UNL     1      -9.166  17.751  65.728  1.00  0.00    -0.505 OA 
HETATM   20  H   UNL     1      -8.434  18.065  66.246  1.00  0.00     0.000 HD 
HETATM   21  C   UNL     1      -9.572  14.392  67.089  1.00  0.00    -0.251 A  
ENDBRANCH   9  12
ENDBRANCH   3   9
ENDBRANCH   2   3
TORSDOF 5
ENDMDL
MODEL       56
REMARK 921   NORMALIZED FREE ENERGY PREDICTED BY IDOCK:   -5.05 KCAL/MOL
REMARK 922        TOTAL FREE ENERGY PREDICTED BY IDOCK:   -7.20 KCAL/MOL
REMARK 923 INTER-LIGAND FREE ENERGY PREDICTED BY IDOCK:   -6.32 KCAL/MOL
REMARK 924 INTRA-LIGAND FREE ENERGY PREDICTED BY IDOCK:   -0.88 KCAL/MOL
REMARK 927      BINDING AFFINITY PREDICTED BY RF-SCORE:    0.00 PKD
ROOT
HETATM    1  C   UNL     1     -10.756   7.311  71.653  1.00  0.00    -0.239 C  
HETATM    2  C   UNL     1     -11.170   8.745  71.958  1.00  0.00    -0.443 C  
ENDROOT
BRANCH   2   3
HETATM    3  C   UNL     1     -11.460   9.622  70.714  1.00  0.00    -0.328 C  
BRANCH   3   4
HETATM    4  N   UNL     1     -11.285   8.945  69.413  1.00  0.00    -0.432 NA 
HETATM    5  H   UNL     1     -11.832   8.117  69.178  1.00  0.00     0.000 HD 
BRANCH   4   6
HETATM    6  C   UNL     1     -10.305   9.489  68.467  1.00  0.00    -0.207 C  
HETATM    7  C   UNL     1     -11.061  10.404  67.492  1.00  0.00    -0.336 C  
HETATM    8  C   UNL     1      -9.197  10.317  69.120  1.00  0.00    -0.203 C  
ENDBRANCH   4   6
ENDBRANCH   3   4
BRANCH   3   9
HETATM    9  C   UNL     1     -12.828  10.379  70.901  1.00  0.00    -0.392 C  
HETATM   10  H   UNL     1     -14.340  10.334  72.167  1.00  0.00     0.000 HD 
HETATM   11  O   UNL     1     -13.515   9.878  72.054  1.00  0.00    -0.413 OA 
BRANCH   9  12
HETATM   12  C   UNL     1     -12.771  11.891  71.043  1.00  0.00    -0.354 A  
HETATM   13  C   UNL     1     -12.017  12.710  70.189  1.00  0.00    -0.375 A  
HETATM   14  C   UNL     1     -12.004  14.092  70.380  1.00  0.00    -0.328 A  
HETATM   15  O   UNL     1     -11.290  14.926  69.564  1.00  0.00    -0.252 OA 
HETATM   16  C   UNL     1     -12.735  14.670  71.411  1.00  0.00    -0.333 A  
HETATM   17  H   UNL     1     -11.281  15.867  69.694  1.00  0.00     0.000 HD 
HETATM   18  C   UNL     1     -13.471  13.881  72.277  1.00  0.00    -0.623 A  
HETATM   19  O   UNL     1     -12.727  16.025  71.577  1.00  0.00    -0.534 OA 
HETATM   20  H   UNL     1     -13.227  16.420  72.281  1.00  0.00     0.000 HD 
HETATM   21  C   UNL     1     -13.482  12.496  72.100  1.00  0.00    -0.523 A  
ENDBRANCH   9  12
ENDBRANCH   3   9
ENDBRANCH   2   3
TORSDOF 5
ENDMDL
MODEL       57
REMARK 921   NORMALIZED FREE ENERGY PREDICTED BY IDOCK:   -5.03 KCAL/MOL
REMARK 922        TOTAL FREE ENERGY PREDICTED BY IDOCK:   -7.17 KCAL/MOL
REMARK 923 INTER-LIGAND FREE ENERGY PREDICTED BY IDOCK:   -6.53 KCAL/MOL
REMARK 924 INTRA-LIGAND FREE ENERGY PREDICTED BY IDOCK:   -0.64 KCAL/MOL
REMARK 927      BINDING AFFINITY PREDICTED BY RF-SCORE:    0.00 PKD
ROOT
HETATM    1  C   UNL     1      -7.814  11.666  66.816  1.00  0.00    -0.130 C  
HETATM    2  C   UNL     1      -9.325  11.661  67.011  1.00  0.00    -0.186 C  
ENDROOT
BRANCH   2   3
HETATM    3  C   UNL     1     -10.059  12.917  66.478  1.00  0.00    -0.261 C  
BRANCH   3   4
HETATM    4  N   UNL     1     -10.056  13.071  65.009  1.00  0.00    -0.471 NA 
HETATM    5  H   UNL     1      -9.526  13.819  64.565  1.00  0.00     0.000 HD 
BRANCH   4   6
HETATM    6  C   UNL     1     -10.833  12.123  64.204  1.00  0.00    -0.360 C  
HETATM    7  C   UNL     1     -11.934  12.917  63.486  1.00  0.00    -0.629 C  
HETATM    8  C   UNL     1     -10.017  11.389  63.139  1.00  0.00    -0.402 C  
ENDBRANCH   4   6
ENDBRANCH   3   4
BRANCH   3   9
HETATM    9  C   UNL     1     -11.469  13.044  67.167  1.00  0.00    -0.331 C  
HETATM   10  H   UNL     1     -12.774  11.833  68.017  1.00  0.00     0.000 HD 
HETATM   11  O   UNL     1     -11.923  11.757  67.602  1.00  0.00    -0.599 OA 
BRANCH   9  12
HETATM   12  C   UNL     1     -11.578  13.977  68.361  1.00  0.00    -0.366 A  
HETATM   13  C   UNL     1     -11.095  15.296  68.346  1.00  0.00    -0.289 A  
HETATM   14  C   UNL     1     -11.221  16.097  69.481  1.00  0.00    -0.337 A  
HETATM   15  O   UNL     1     -10.773  17.389  69.504  1.00  0.00    -0.382 OA 
HETATM   16  C   UNL     1     -11.825  15.603  70.631  1.00  0.00    -0.376 A  
HETATM   17  H   UNL     1     -10.859  17.935  70.277  1.00  0.00     0.000 HD 
HETATM   18  C   UNL     1     -12.291  14.301  70.676  1.00  0.00    -0.431 A  
HETATM   19  O   UNL     1     -11.957  16.404  71.730  1.00  0.00    -0.633 OA 
HETATM   20  H   UNL     1     -12.369  16.067  72.516  1.00  0.00     0.000 HD 
HETATM   21  C   UNL     1     -12.160  13.488  69.549  1.00  0.00    -0.352 A  
ENDBRANCH   9  12
ENDBRANCH   3   9
ENDBRANCH   2   3
TORSDOF 5
ENDMDL
MODEL       58
REMARK 921   NORMALIZED FREE ENERGY PREDICTED BY IDOCK:   -5.02 KCAL/MOL
REMARK 922        TOTAL FREE ENERGY PREDICTED BY IDOCK:   -7.16 KCAL/MOL
REMARK 923 INTER-LIGAND FREE ENERGY PREDICTED BY IDOCK:   -6.14 KCAL/MOL
REMARK 924 INTRA-LIGAND FREE ENERGY PREDICTED BY IDOCK:   -1.02 KCAL/MOL
REMARK 927      BINDING AFFINITY PREDICTED BY RF-SCORE:    0.00 PKD
ROOT
HETATM    1  C   UNL     1     -12.366  12.540  64.435  1.00  0.00    -0.537 C  
HETATM    2  C   UNL     1     -12.331  14.054  64.600  1.00  0.00    -0.425 C  
ENDROOT
BRANCH   2   3
HETATM    3  C   UNL     1     -11.328  14.575  65.660  1.00  0.00    -0.336 C  
BRANCH   3   4
HETATM    4  N   UNL     1     -10.497  13.537  66.303  1.00  0.00    -0.285 NA 
HETATM    5  H   UNL     1      -9.885  12.941  65.747  1.00  0.00     0.000 HD 
BRANCH   4   6
HETATM    6  C   UNL     1     -10.573  13.382  67.759  1.00  0.00    -0.245 C  
HETATM    7  C   UNL     1      -9.323  14.039  68.361  1.00  0.00    -0.210 C  
HETATM    8  C   UNL     1     -11.798  14.040  68.397  1.00  0.00    -0.397 C  
ENDBRANCH   4   6
ENDBRANCH   3   4
BRANCH   3   9
HETATM    9  C   UNL     1     -10.540  15.812  65.088  1.00  0.00    -0.411 C  
HETATM   10  H   UNL     1     -10.930  17.364  63.935  1.00  0.00     0.000 HD 
HETATM   11  O   UNL     1     -11.406  16.618  64.281  1.00  0.00    -1.116 OA 
BRANCH   9  12
HETATM   12  C   UNL     1      -9.882  16.742  66.094  1.00  0.00    -0.330 A  
HETATM   13  C   UNL     1      -8.502  16.998  66.109  1.00  0.00    -0.262 A  
HETATM   14  C   UNL     1      -7.963  17.858  67.065  1.00  0.00    -0.216 A  
HETATM   15  O   UNL     1      -6.626  18.142  67.107  1.00  0.00    -0.177 OA 
HETATM   16  C   UNL     1      -8.781  18.470  68.008  1.00  0.00    -0.295 A  
HETATM   17  H   UNL     1      -6.258  18.728  67.758  1.00  0.00     0.000 HD 
HETATM   18  C   UNL     1     -10.141  18.218  68.025  1.00  0.00    -0.381 A  
HETATM   19  O   UNL     1      -8.243  19.323  68.928  1.00  0.00    -0.358 OA 
HETATM   20  H   UNL     1      -8.801  19.741  69.572  1.00  0.00     0.000 HD 
HETATM   21  C   UNL     1     -10.689  17.350  67.078  1.00  0.00    -0.162 A  
ENDBRANCH   9  12
ENDBRANCH   3   9
ENDBRANCH   2   3
TORSDOF 5
ENDMDL
MODEL       59
REMARK 921   NORMALIZED FREE ENERGY PREDICTED BY IDOCK:   -5.01 KCAL/MOL
REMARK 922        TOTAL FREE ENERGY PREDICTED BY IDOCK:   -7.15 KCAL/MOL
REMARK 923 INTER-LIGAND FREE ENERGY PREDICTED BY IDOCK:   -6.39 KCAL/MOL
REMARK 924 INTRA-LIGAND FREE ENERGY PREDICTED BY IDOCK:   -0.76 KCAL/MOL
REMARK 927      BINDING AFFINITY PREDICTED BY RF-SCORE:    0.00 PKD
ROOT
HETATM    1  C   UNL     1     -12.276  14.711  64.353  1.00  0.00    -0.473 C  
HETATM    2  C   UNL     1     -12.394  14.062  65.727  1.00  0.00    -0.506 C  
ENDROOT
BRANCH   2   3
HETATM    3  C   UNL     1     -11.091  13.417  66.261  1.00  0.00    -0.293 C  
BRANCH   3   4
HETATM    4  N   UNL     1     -10.076  13.105  65.233  1.00  0.00    -0.434 NA 
HETATM    5  H   UNL     1      -9.461  13.833  64.870  1.00  0.00     0.000 HD 
BRANCH   4   6
HETATM    6  C   UNL     1      -9.974  11.726  64.747  1.00  0.00    -0.243 C  
HETATM    7  C   UNL     1     -10.225  10.793  65.940  1.00  0.00    -0.319 C  
HETATM    8  C   UNL     1     -10.987  11.370  63.657  1.00  0.00    -0.443 C  
ENDBRANCH   4   6
ENDBRANCH   3   4
BRANCH   3   9
HETATM    9  C   UNL     1     -10.564  14.227  67.505  1.00  0.00    -0.261 C  
HETATM   10  H   UNL     1     -10.184  16.112  67.943  1.00  0.00     0.000 HD 
HETATM   11  O   UNL     1     -10.502  15.624  67.192  1.00  0.00    -0.290 OA 
BRANCH   9  12
HETATM   12  C   UNL     1     -11.348  14.098  68.800  1.00  0.00    -0.308 A  
HETATM   13  C   UNL     1     -11.815  15.207  69.523  1.00  0.00    -0.358 A  
HETATM   14  C   UNL     1     -12.523  15.017  70.709  1.00  0.00    -0.352 A  
HETATM   15  O   UNL     1     -13.005  16.069  71.438  1.00  0.00    -0.518 OA 
HETATM   16  C   UNL     1     -12.775  13.735  71.185  1.00  0.00    -0.362 A  
HETATM   17  H   UNL     1     -13.487  15.940  72.246  1.00  0.00     0.000 HD 
HETATM   18  C   UNL     1     -12.308  12.628  70.500  1.00  0.00    -0.350 A  
HETATM   19  O   UNL     1     -13.484  13.563  72.339  1.00  0.00    -0.511 OA 
HETATM   20  H   UNL     1     -13.657  12.688  72.665  1.00  0.00     0.000 HD 
HETATM   21  C   UNL     1     -11.589  12.808  69.317  1.00  0.00    -0.372 A  
ENDBRANCH   9  12
ENDBRANCH   3   9
ENDBRANCH   2   3
TORSDOF 5
ENDMDL
MODEL       60
REMARK 921   NORMALIZED FREE ENERGY PREDICTED BY IDOCK:   -5.01 KCAL/MOL
REMARK 922        TOTAL FREE ENERGY PREDICTED BY IDOCK:   -7.15 KCAL/MOL
REMARK 923 INTER-LIGAND FREE ENERGY PREDICTED BY IDOCK:   -6.43 KCAL/MOL
REMARK 924 INTRA-LIGAND FREE ENERGY PREDICTED BY IDOCK:   -0.72 KCAL/MOL
REMARK 927      BINDING AFFINITY PREDICTED BY RF-SCORE:    0.00 PKD
ROOT
HETATM    1  C   UNL     1     -12.443  12.355  63.496  1.00  0.00    -0.605 C  
HETATM    2  C   UNL     1     -12.291  13.582  64.385  1.00  0.00    -0.391 C  
ENDROOT
BRANCH   2   3
HETATM    3  C   UNL     1     -12.131  13.282  65.897  1.00  0.00    -0.441 C  
BRANCH   3   4
HETATM    4  N   UNL     1     -12.059  11.849  66.248  1.00  0.00    -0.438 NA 
HETATM    5  H   UNL     1     -12.888  11.258  66.200  1.00  0.00     0.000 HD 
BRANCH   4   6
HETATM    6  C   UNL     1     -10.768  11.296  66.670  1.00  0.00    -0.272 C  
HETATM    7  C   UNL     1     -11.011  10.465  67.937  1.00  0.00    -0.354 C  
HETATM    8  C   UNL     1     -10.109  10.384  65.633  1.00  0.00    -0.337 C  
ENDBRANCH   4   6
ENDBRANCH   3   4
BRANCH   3   9
HETATM    9  C   UNL     1     -10.993  14.184  66.504  1.00  0.00    -0.309 C  
HETATM   10  H   UNL     1     -10.027  15.827  65.993  1.00  0.00     0.000 HD 
HETATM   11  O   UNL     1     -10.715  15.283  65.627  1.00  0.00    -0.325 OA 
BRANCH   9  12
HETATM   12  C   UNL     1     -11.233  14.771  67.885  1.00  0.00    -0.318 A  
HETATM   13  C   UNL     1     -11.896  14.072  68.906  1.00  0.00    -0.390 A  
HETATM   14  C   UNL     1     -12.089  14.673  70.150  1.00  0.00    -0.327 A  
HETATM   15  O   UNL     1     -12.721  14.023  71.174  1.00  0.00    -0.326 OA 
HETATM   16  C   UNL     1     -11.628  15.962  70.391  1.00  0.00    -0.371 A  
HETATM   17  H   UNL     1     -12.853  14.432  72.021  1.00  0.00     0.000 HD 
HETATM   18  C   UNL     1     -10.988  16.677  69.395  1.00  0.00    -0.235 A  
HETATM   19  O   UNL     1     -11.809  16.532  71.619  1.00  0.00    -0.665 OA 
HETATM   20  H   UNL     1     -11.494  17.413  71.785  1.00  0.00     0.000 HD 
HETATM   21  C   UNL     1     -10.800  16.088  68.143  1.00  0.00    -0.322 A  
ENDBRANCH   9  12
ENDBRANCH   3   9
ENDBRANCH   2   3
TORSDOF 5
ENDMDL
MODEL       61
REMARK 921   NORMALIZED FREE ENERGY PREDICTED BY IDOCK:   -5.01 KCAL/MOL
REMARK 922        TOTAL FREE ENERGY PREDICTED BY IDOCK:   -7.14 KCAL/MOL
REMARK 923 INTER-LIGAND FREE ENERGY PREDICTED BY IDOCK:   -6.53 KCAL/MOL
REMARK 924 INTRA-LIGAND FREE ENERGY PREDICTED BY IDOCK:   -0.61 KCAL/MOL
REMARK 927      BINDING AFFINITY PREDICTED BY RF-SCORE:    0.00 PKD
ROOT
HETATM    1  C   UNL     1      -7.778  15.766  69.253  1.00  0.00    -0.224 C  
HETATM    2  C   UNL     1      -8.989  16.050  68.374  1.00  0.00    -0.188 C  
ENDROOT
BRANCH   2   3
HETATM    3  C   UNL     1     -10.214  16.640  69.116  1.00  0.00    -0.309 C  
BRANCH   3   4
HETATM    4  N   UNL     1     -10.342  18.110  69.048  1.00  0.00    -0.443 NA 
HETATM    5  H   UNL     1     -10.934  18.613  69.708  1.00  0.00     0.000 HD 
BRANCH   4   6
HETATM    6  C   UNL     1      -9.597  18.830  68.010  1.00  0.00    -0.321 C  
HETATM    7  C   UNL     1     -10.577  19.787  67.316  1.00  0.00    -0.565 C  
HETATM    8  C   UNL     1      -8.429  19.662  68.540  1.00  0.00    -0.334 C  
ENDBRANCH   4   6
ENDBRANCH   3   4
BRANCH   3   9
HETATM    9  C   UNL     1     -11.511  15.832  68.735  1.00  0.00    -0.388 C  
HETATM   10  H   UNL     1     -12.037  14.509  67.370  1.00  0.00     0.000 HD 
HETATM   11  O   UNL     1     -11.254  14.996  67.600  1.00  0.00    -0.306 OA 
BRANCH   9  12
HETATM   12  C   UNL     1     -12.116  14.944  69.809  1.00  0.00    -0.357 A  
HETATM   13  C   UNL     1     -11.876  13.563  69.884  1.00  0.00    -0.386 A  
HETATM   14  C   UNL     1     -12.470  12.805  70.893  1.00  0.00    -0.283 A  
HETATM   15  O   UNL     1     -12.254  11.460  71.006  1.00  0.00    -0.346 OA 
HETATM   16  C   UNL     1     -13.300  13.406  71.832  1.00  0.00    -0.451 A  
HETATM   17  H   UNL     1     -12.658  10.943  71.693  1.00  0.00     0.000 HD 
HETATM   18  C   UNL     1     -13.566  14.762  71.769  1.00  0.00    -0.485 A  
HETATM   19  O   UNL     1     -13.862  12.655  72.825  1.00  0.00    -0.653 OA 
HETATM   20  H   UNL     1     -14.428  13.065  73.468  1.00  0.00     0.000 HD 
HETATM   21  C   UNL     1     -12.985  15.527  70.756  1.00  0.00    -0.490 A  
ENDBRANCH   9  12
ENDBRANCH   3   9
ENDBRANCH   2   3
TORSDOF 5
ENDMDL
MODEL       62
REMARK 921   NORMALIZED FREE ENERGY PREDICTED BY IDOCK:   -5.00 KCAL/MOL
REMARK 922        TOTAL FREE ENERGY PREDICTED BY IDOCK:   -7.14 KCAL/MOL
REMARK 923 INTER-LIGAND FREE ENERGY PREDICTED BY IDOCK:   -6.76 KCAL/MOL
REMARK 924 INTRA-LIGAND FREE ENERGY PREDICTED BY IDOCK:   -0.38 KCAL/MOL
REMARK 927      BINDING AFFINITY PREDICTED BY RF-SCORE:    0.00 PKD
ROOT
HETATM    1  C   UNL     1      -7.714  11.364  66.880  1.00  0.00    -0.155 C  
HETATM    2  C   UNL     1      -8.331  11.627  68.248  1.00  0.00    -0.159 C  
ENDROOT
BRANCH   2   3
HETATM    3  C   UNL     1      -9.872  11.786  68.253  1.00  0.00    -0.198 C  
BRANCH   3   4
HETATM    4  N   UNL     1     -10.384  12.920  69.049  1.00  0.00    -0.436 NA 
HETATM    5  H   UNL     1      -9.774  13.696  69.302  1.00  0.00     0.000 HD 
BRANCH   4   6
HETATM    6  C   UNL     1     -11.790  12.904  69.466  1.00  0.00    -0.320 C  
HETATM    7  C   UNL     1     -12.025  11.607  70.253  1.00  0.00    -0.445 C  
HETATM    8  C   UNL     1     -12.190  14.075  70.365  1.00  0.00    -0.433 C  
ENDBRANCH   4   6
ENDBRANCH   3   4
BRANCH   3   9
HETATM    9  C   UNL     1     -10.424  11.690  66.782  1.00  0.00    -0.230 C  
HETATM   10  H   UNL     1     -11.957  10.849  65.868  1.00  0.00     0.000 HD 
HETATM   11  O   UNL     1     -11.623  10.907  66.756  1.00  0.00    -0.254 OA 
BRANCH   9  12
HETATM   12  C   UNL     1     -10.734  12.997  66.070  1.00  0.00    -0.290 A  
HETATM   13  C   UNL     1      -9.904  14.126  66.150  1.00  0.00    -0.326 A  
HETATM   14  C   UNL     1     -10.252  15.296  65.476  1.00  0.00    -0.388 A  
HETATM   15  O   UNL     1      -9.465  16.414  65.519  1.00  0.00    -0.467 OA 
HETATM   16  C   UNL     1     -11.417  15.357  64.721  1.00  0.00    -0.336 A  
HETATM   17  H   UNL     1      -9.702  17.211  65.060  1.00  0.00     0.000 HD 
HETATM   18  C   UNL     1     -12.261  14.264  64.642  1.00  0.00    -0.470 A  
HETATM   19  O   UNL     1     -11.738  16.504  64.052  1.00  0.00    -1.405 OA 
HETATM   20  H   UNL     1     -12.534  16.546  63.536  1.00  0.00     0.000 HD 
HETATM   21  C   UNL     1     -11.926  13.091  65.322  1.00  0.00    -0.446 A  
ENDBRANCH   9  12
ENDBRANCH   3   9
ENDBRANCH   2   3
TORSDOF 5
ENDMDL
MODEL       63
REMARK 921   NORMALIZED FREE ENERGY PREDICTED BY IDOCK:   -5.00 KCAL/MOL
REMARK 922        TOTAL FREE ENERGY PREDICTED BY IDOCK:   -7.14 KCAL/MOL
REMARK 923 INTER-LIGAND FREE ENERGY PREDICTED BY IDOCK:   -6.47 KCAL/MOL
REMARK 924 INTRA-LIGAND FREE ENERGY PREDICTED BY IDOCK:   -0.67 KCAL/MOL
REMARK 927      BINDING AFFINITY PREDICTED BY RF-SCORE:    0.00 PKD
ROOT
HETATM    1  C   UNL     1      -9.640  10.127  65.082  1.00  0.00    -0.354 C  
HETATM    2  C   UNL     1     -10.440  10.495  66.324  1.00  0.00    -0.250 C  
ENDROOT
BRANCH   2   3
HETATM    3  C   UNL     1     -10.803  11.996  66.450  1.00  0.00    -0.278 C  
BRANCH   3   4
HETATM    4  N   UNL     1     -12.212  12.329  66.155  1.00  0.00    -0.585 NA 
HETATM    5  H   UNL     1     -12.948  12.130  66.832  1.00  0.00     0.000 HD 
BRANCH   4   6
HETATM    6  C   UNL     1     -12.529  12.952  64.865  1.00  0.00    -0.478 C  
HETATM    7  C   UNL     1     -11.501  14.066  64.624  1.00  0.00    -0.389 C  
HETATM    8  C   UNL     1     -12.465  11.994  63.674  1.00  0.00    -0.637 C  
ENDBRANCH   4   6
ENDBRANCH   3   4
BRANCH   3   9
HETATM    9  C   UNL     1     -10.245  12.570  67.805  1.00  0.00    -0.217 C  
HETATM   10  H   UNL     1      -9.607  14.310  68.481  1.00  0.00     0.000 HD 
HETATM   11  O   UNL     1      -9.944  13.964  67.663  1.00  0.00    -0.230 OA 
BRANCH   9  12
HETATM   12  C   UNL     1     -11.127  12.431  69.035  1.00  0.00    -0.288 A  
HETATM   13  C   UNL     1     -11.418  11.194  69.630  1.00  0.00    -0.383 A  
HETATM   14  C   UNL     1     -12.241  11.138  70.754  1.00  0.00    -0.385 A  
HETATM   15  O   UNL     1     -12.541   9.954  71.370  1.00  0.00    -0.337 OA 
HETATM   16  C   UNL     1     -12.779  12.300  71.296  1.00  0.00    -0.251 A  
HETATM   17  H   UNL     1     -13.102   9.915  72.136  1.00  0.00     0.000 HD 
HETATM   18  C   UNL     1     -12.522  13.529  70.715  1.00  0.00    -0.428 A  
HETATM   19  O   UNL     1     -13.570  12.232  72.407  1.00  0.00    -0.602 OA 
HETATM   20  H   UNL     1     -13.937  13.026  72.777  1.00  0.00     0.000 HD 
HETATM   21  C   UNL     1     -11.707  13.594  69.583  1.00  0.00    -0.383 A  
ENDBRANCH   9  12
ENDBRANCH   3   9
ENDBRANCH   2   3
TORSDOF 5
ENDMDL
MODEL       64
REMARK 921   NORMALIZED FREE ENERGY PREDICTED BY IDOCK:   -4.99 KCAL/MOL
REMARK 922        TOTAL FREE ENERGY PREDICTED BY IDOCK:   -7.12 KCAL/MOL
REMARK 923 INTER-LIGAND FREE ENERGY PREDICTED BY IDOCK:   -6.54 KCAL/MOL
REMARK 924 INTRA-LIGAND FREE ENERGY PREDICTED BY IDOCK:   -0.58 KCAL/MOL
REMARK 927      BINDING AFFINITY PREDICTED BY RF-SCORE:    0.00 PKD
ROOT
HETATM    1  C   UNL     1     -10.267   9.600  70.561  1.00  0.00    -0.351 C  
HETATM    2  C   UNL     1      -9.564  10.316  69.416  1.00  0.00    -0.237 C  
ENDROOT
BRANCH   2   3
HETATM    3  C   UNL     1     -10.348  10.345  68.080  1.00  0.00    -0.172 C  
BRANCH   3   4
HETATM    4  N   UNL     1     -10.986   9.069  67.698  1.00  0.00    -0.479 NA 
HETATM    5  H   UNL     1     -11.991   8.936  67.805  1.00  0.00     0.000 HD 
BRANCH   4   6
HETATM    6  C   UNL     1     -10.140   7.998  67.160  1.00  0.00    -0.263 C  
HETATM    7  C   UNL     1     -10.975   6.709  67.151  1.00  0.00    -0.478 C  
HETATM    8  C   UNL     1      -9.648   8.244  65.733  1.00  0.00     0.049 C  
ENDBRANCH   4   6
ENDBRANCH   3   4
BRANCH   3   9
HETATM    9  C   UNL     1     -11.288  11.607  68.040  1.00  0.00    -0.296 C  
HETATM   10  H   UNL     1     -11.305  13.419  68.820  1.00  0.00     0.000 HD 
HETATM   11  O   UNL     1     -10.737  12.657  68.844  1.00  0.00    -0.230 OA 
BRANCH   9  12
HETATM   12  C   UNL     1     -11.588  12.207  66.676  1.00  0.00    -0.416 A  
HETATM   13  C   UNL     1     -11.122  11.646  65.476  1.00  0.00    -0.297 A  
HETATM   14  C   UNL     1     -11.430  12.252  64.258  1.00  0.00    -0.362 A  
HETATM   15  O   UNL     1     -11.004  11.732  63.067  1.00  0.00    -0.662 OA 
HETATM   16  C   UNL     1     -12.198  13.409  64.218  1.00  0.00    -0.392 A  
HETATM   17  H   UNL     1     -11.214  12.144  62.237  1.00  0.00     0.000 HD 
HETATM   18  C   UNL     1     -12.652  13.991  65.389  1.00  0.00    -0.529 A  
HETATM   19  O   UNL     1     -12.506  13.983  63.018  1.00  0.00    -1.101 OA 
HETATM   20  H   UNL     1     -13.030  14.774  62.990  1.00  0.00     0.000 HD 
HETATM   21  C   UNL     1     -12.341  13.398  66.614  1.00  0.00    -0.324 A  
ENDBRANCH   9  12
ENDBRANCH   3   9
ENDBRANCH   2   3
TORSDOF 5
ENDMDL
MODEL       65
REMARK 921   NORMALIZED FREE ENERGY PREDICTED BY IDOCK:   -4.99 KCAL/MOL
REMARK 922        TOTAL FREE ENERGY PREDICTED BY IDOCK:   -7.12 KCAL/MOL
REMARK 923 INTER-LIGAND FREE ENERGY PREDICTED BY IDOCK:   -6.35 KCAL/MOL
REMARK 924 INTRA-LIGAND FREE ENERGY PREDICTED BY IDOCK:   -0.77 KCAL/MOL
REMARK 927      BINDING AFFINITY PREDICTED BY RF-SCORE:    0.00 PKD
ROOT
HETATM    1  C   UNL     1     -12.250  13.148  70.552  1.00  0.00    -0.405 C  
HETATM    2  C   UNL     1     -11.916  14.447  69.830  1.00  0.00    -0.385 C  
ENDROOT
BRANCH   2   3
HETATM    3  C   UNL     1     -11.311  14.274  68.414  1.00  0.00    -0.283 C  
BRANCH   3   4
HETATM    4  N   UNL     1     -12.248  14.507  67.297  1.00  0.00    -0.581 NA 
HETATM    5  H   UNL     1     -12.830  15.344  67.271  1.00  0.00     0.000 HD 
BRANCH   4   6
HETATM    6  C   UNL     1     -12.324  13.507  66.227  1.00  0.00    -0.383 C  
HETATM    7  C   UNL     1     -11.735  14.141  64.958  1.00  0.00    -0.376 C  
HETATM    8  C   UNL     1     -11.543  12.223  66.512  1.00  0.00    -0.440 C  
ENDBRANCH   4   6
ENDBRANCH   3   4
BRANCH   3   9
HETATM    9  C   UNL     1      -9.943  15.047  68.319  1.00  0.00    -0.225 C  
HETATM   10  H   UNL     1      -8.250  14.867  67.322  1.00  0.00     0.000 HD 
HETATM   11  O   UNL     1      -9.076  14.401  67.379  1.00  0.00    -0.183 OA 
BRANCH   9  12
HETATM   12  C   UNL     1     -10.000  16.515  67.931  1.00  0.00    -0.245 A  
HETATM   13  C   UNL     1     -10.166  17.547  68.868  1.00  0.00    -0.353 A  
HETATM   14  C   UNL     1     -10.217  18.874  68.442  1.00  0.00    -0.373 A  
HETATM   15  O   UNL     1     -10.367  19.909  69.323  1.00  0.00    -0.635 OA 
HETATM   16  C   UNL     1     -10.102  19.188  67.092  1.00  0.00    -0.373 A  
HETATM   17  H   UNL     1     -10.402  20.813  69.033  1.00  0.00     0.000 HD 
HETATM   18  C   UNL     1      -9.957  18.187  66.148  1.00  0.00    -0.301 A  
HETATM   19  O   UNL     1     -10.137  20.492  66.690  1.00  0.00    -0.502 OA 
HETATM   20  H   UNL     1     -10.059  20.708  65.768  1.00  0.00     0.000 HD 
HETATM   21  C   UNL     1      -9.916  16.855  66.565  1.00  0.00    -0.309 A  
ENDBRANCH   9  12
ENDBRANCH   3   9
ENDBRANCH   2   3
TORSDOF 5
ENDMDL
MODEL       66
REMARK 921   NORMALIZED FREE ENERGY PREDICTED BY IDOCK:   -4.98 KCAL/MOL
REMARK 922        TOTAL FREE ENERGY PREDICTED BY IDOCK:   -7.12 KCAL/MOL
REMARK 923 INTER-LIGAND FREE ENERGY PREDICTED BY IDOCK:   -6.30 KCAL/MOL
REMARK 924 INTRA-LIGAND FREE ENERGY PREDICTED BY IDOCK:   -0.82 KCAL/MOL
REMARK 927      BINDING AFFINITY PREDICTED BY RF-SCORE:    0.00 PKD
ROOT
HETATM    1  C   UNL     1      -9.434  15.486  69.771  1.00  0.00    -0.178 C  
HETATM    2  C   UNL     1     -10.822  15.945  69.343  1.00  0.00    -0.288 C  
ENDROOT
BRANCH   2   3
HETATM    3  C   UNL     1     -11.977  14.985  69.723  1.00  0.00    -0.328 C  
BRANCH   3   4
HETATM    4  N   UNL     1     -13.164  15.634  70.316  1.00  0.00    -0.713 NA 
HETATM    5  H   UNL     1     -13.822  16.151  69.732  1.00  0.00     0.000 HD 
BRANCH   4   6
HETATM    6  C   UNL     1     -13.377  15.518  71.762  1.00  0.00    -0.486 C  
HETATM    7  C   UNL     1     -14.344  14.349  71.997  1.00  0.00    -0.636 C  
HETATM    8  C   UNL     1     -12.104  15.237  72.562  1.00  0.00    -0.505 C  
ENDBRANCH   4   6
ENDBRANCH   3   4
BRANCH   3   9
HETATM    9  C   UNL     1     -12.271  14.002  68.529  1.00  0.00    -0.174 C  
HETATM   10  H   UNL     1     -11.815  13.883  66.613  1.00  0.00     0.000 HD 
HETATM   11  O   UNL     1     -11.638  14.476  67.334  1.00  0.00    -0.353 OA 
BRANCH   9  12
HETATM   12  C   UNL     1     -11.853  12.552  68.705  1.00  0.00    -0.340 A  
HETATM   13  C   UNL     1     -11.938  11.876  69.932  1.00  0.00    -0.398 A  
HETATM   14  C   UNL     1     -11.532  10.545  70.024  1.00  0.00    -0.316 A  
HETATM   15  O   UNL     1     -11.608   9.848  71.198  1.00  0.00    -0.341 OA 
HETATM   16  C   UNL     1     -11.042   9.876  68.909  1.00  0.00    -0.140 A  
HETATM   17  H   UNL     1     -11.331   8.941  71.262  1.00  0.00     0.000 HD 
HETATM   18  C   UNL     1     -10.931  10.527  67.693  1.00  0.00    -0.375 A  
HETATM   19  O   UNL     1     -10.663   8.568  69.009  1.00  0.00    -0.354 OA 
HETATM   20  H   UNL     1     -10.329   8.111  68.247  1.00  0.00     0.000 HD 
HETATM   21  C   UNL     1     -11.326  11.862  67.593  1.00  0.00    -0.372 A  
ENDBRANCH   9  12
ENDBRANCH   3   9
ENDBRANCH   2   3
TORSDOF 5
ENDMDL
MODEL       67
REMARK 921   NORMALIZED FREE ENERGY PREDICTED BY IDOCK:   -4.98 KCAL/MOL
REMARK 922        TOTAL FREE ENERGY PREDICTED BY IDOCK:   -7.11 KCAL/MOL
REMARK 923 INTER-LIGAND FREE ENERGY PREDICTED BY IDOCK:   -6.29 KCAL/MOL
REMARK 924 INTRA-LIGAND FREE ENERGY PREDICTED BY IDOCK:   -0.82 KCAL/MOL
REMARK 927      BINDING AFFINITY PREDICTED BY RF-SCORE:    0.00 PKD
ROOT
HETATM    1  C   UNL     1     -11.268  16.109  69.339  1.00  0.00    -0.335 C  
HETATM    2  C   UNL     1     -10.647  14.764  68.984  1.00  0.00    -0.248 C  
ENDROOT
BRANCH   2   3
HETATM    3  C   UNL     1      -9.990  14.694  67.583  1.00  0.00    -0.227 C  
BRANCH   3   4
HETATM    4  N   UNL     1      -8.810  15.563  67.398  1.00  0.00    -0.184 NA 
HETATM    5  H   UNL     1      -8.032  15.533  68.056  1.00  0.00     0.000 HD 
BRANCH   4   6
HETATM    6  C   UNL     1      -8.783  16.471  66.247  1.00  0.00    -0.333 C  
HETATM    7  C   UNL     1     -10.223  16.608  65.731  1.00  0.00    -0.328 C  
HETATM    8  C   UNL     1      -8.268  17.875  66.569  1.00  0.00    -0.298 C  
ENDBRANCH   4   6
ENDBRANCH   3   4
BRANCH   3   9
HETATM    9  C   UNL     1      -9.793  13.191  67.159  1.00  0.00    -0.235 C  
HETATM   10  H   UNL     1     -10.037  11.415  67.984  1.00  0.00     0.000 HD 
HETATM   11  O   UNL     1     -10.156  12.323  68.240  1.00  0.00    -0.209 OA 
BRANCH   9  12
HETATM   12  C   UNL     1     -10.551  12.710  65.933  1.00  0.00    -0.297 A  
HETATM   13  C   UNL     1      -9.952  11.953  64.913  1.00  0.00    -0.269 A  
HETATM   14  C   UNL     1     -10.705  11.549  63.811  1.00  0.00    -0.408 A  
HETATM   15  O   UNL     1     -10.162  10.803  62.802  1.00  0.00    -0.727 OA 
HETATM   16  C   UNL     1     -12.049  11.888  63.710  1.00  0.00    -0.443 A  
HETATM   17  H   UNL     1     -10.674  10.528  62.051  1.00  0.00     0.000 HD 
HETATM   18  C   UNL     1     -12.656  12.649  64.693  1.00  0.00    -0.517 A  
HETATM   19  O   UNL     1     -12.779  11.473  62.634  1.00  0.00    -0.779 OA 
HETATM   20  H   UNL     1     -13.697  11.704  62.565  1.00  0.00     0.000 HD 
HETATM   21  C   UNL     1     -11.908  13.067  65.796  1.00  0.00    -0.453 A  
ENDBRANCH   9  12
ENDBRANCH   3   9
ENDBRANCH   2   3
TORSDOF 5
ENDMDL
MODEL       68
REMARK 921   NORMALIZED FREE ENERGY PREDICTED BY IDOCK:   -4.98 KCAL/MOL
REMARK 922        TOTAL FREE ENERGY PREDICTED BY IDOCK:   -7.11 KCAL/MOL
REMARK 923 INTER-LIGAND FREE ENERGY PREDICTED BY IDOCK:   -6.14 KCAL/MOL
REMARK 924 INTRA-LIGAND FREE ENERGY PREDICTED BY IDOCK:   -0.97 KCAL/MOL
REMARK 927      BINDING AFFINITY PREDICTED BY RF-SCORE:    0.00 PKD
ROOT
HETATM    1  C   UNL     1      -9.331  11.244  62.771  1.00  0.00    -0.362 C  
HETATM    2  C   UNL     1     -10.664  11.409  63.490  1.00  0.00    -0.453 C  
ENDROOT
BRANCH   2   3
HETATM    3  C   UNL     1     -10.595  12.184  64.830  1.00  0.00    -0.296 C  
BRANCH   3   4
HETATM    4  N   UNL     1      -9.314  12.071  65.556  1.00  0.00    -0.424 NA 
HETATM    5  H   UNL     1      -8.447  12.411  65.140  1.00  0.00     0.000 HD 
BRANCH   4   6
HETATM    6  C   UNL     1      -9.316  11.459  66.889  1.00  0.00    -0.181 C  
HETATM    7  C   UNL     1      -8.803  12.511  67.882  1.00  0.00    -0.185 C  
HETATM    8  C   UNL     1     -10.695  11.001  67.365  1.00  0.00    -0.303 C  
ENDBRANCH   4   6
ENDBRANCH   3   4
BRANCH   3   9
HETATM    9  C   UNL     1     -11.129  13.651  64.627  1.00  0.00    -0.381 C  
HETATM   10  H   UNL     1     -12.834  14.510  64.132  1.00  0.00     0.000 HD 
HETATM   11  O   UNL     1     -12.512  13.625  64.255  1.00  0.00    -0.613 OA 
BRANCH   9  12
HETATM   12  C   UNL     1     -11.006  14.604  65.804  1.00  0.00    -0.330 A  
HETATM   13  C   UNL     1     -11.808  14.507  66.952  1.00  0.00    -0.399 A  
HETATM   14  C   UNL     1     -11.647  15.420  67.994  1.00  0.00    -0.292 A  
HETATM   15  O   UNL     1     -12.401  15.354  69.132  1.00  0.00    -0.588 OA 
HETATM   16  C   UNL     1     -10.694  16.428  67.909  1.00  0.00    -0.332 A  
HETATM   17  H   UNL     1     -12.291  15.976  69.843  1.00  0.00     0.000 HD 
HETATM   18  C   UNL     1      -9.904  16.555  66.780  1.00  0.00    -0.274 A  
HETATM   19  O   UNL     1     -10.535  17.305  68.944  1.00  0.00    -0.336 OA 
HETATM   20  H   UNL     1      -9.884  17.994  68.887  1.00  0.00     0.000 HD 
HETATM   21  C   UNL     1     -10.066  15.652  65.727  1.00  0.00    -0.394 A  
ENDBRANCH   9  12
ENDBRANCH   3   9
ENDBRANCH   2   3
TORSDOF 5
ENDMDL
MODEL       69
REMARK 921   NORMALIZED FREE ENERGY PREDICTED BY IDOCK:   -4.97 KCAL/MOL
REMARK 922        TOTAL FREE ENERGY PREDICTED BY IDOCK:   -7.10 KCAL/MOL
REMARK 923 INTER-LIGAND FREE ENERGY PREDICTED BY IDOCK:   -6.61 KCAL/MOL
REMARK 924 INTRA-LIGAND FREE ENERGY PREDICTED BY IDOCK:   -0.49 KCAL/MOL
REMARK 927      BINDING AFFINITY PREDICTED BY RF-SCORE:    0.00 PKD
ROOT
HETATM    1  C   UNL     1     -12.082  15.135  69.714  1.00  0.00    -0.354 C  
HETATM    2  C   UNL     1     -11.396  14.175  68.751  1.00  0.00    -0.308 C  
ENDROOT
BRANCH   2   3
HETATM    3  C   UNL     1     -11.463  14.584  67.258  1.00  0.00    -0.365 C  
BRANCH   3   4
HETATM    4  N   UNL     1     -10.182  15.028  66.671  1.00  0.00    -0.262 NA 
HETATM    5  H   UNL     1      -9.769  14.529  65.883  1.00  0.00     0.000 HD 
BRANCH   4   6
HETATM    6  C   UNL     1      -9.518  16.202  67.246  1.00  0.00    -0.226 C  
HETATM    7  C   UNL     1      -8.348  16.572  66.323  1.00  0.00    -0.364 C  
HETATM    8  C   UNL     1     -10.419  17.432  67.372  1.00  0.00    -0.336 C  
ENDBRANCH   4   6
ENDBRANCH   3   4
BRANCH   3   9
HETATM    9  C   UNL     1     -12.237  13.487  66.437  1.00  0.00    -0.400 C  
HETATM   10  H   UNL     1     -13.434  13.435  64.869  1.00  0.00     0.000 HD 
HETATM   11  O   UNL     1     -12.966  14.097  65.365  1.00  0.00    -0.706 OA 
BRANCH   9  12
HETATM   12  C   UNL     1     -11.413  12.364  65.828  1.00  0.00    -0.416 A  
HETATM   13  C   UNL     1     -11.325  12.146  64.444  1.00  0.00    -0.407 A  
HETATM   14  C   UNL     1     -10.556  11.092  63.952  1.00  0.00    -0.364 A  
HETATM   15  O   UNL     1     -10.436  10.851  62.612  1.00  0.00    -0.760 OA 
HETATM   16  C   UNL     1      -9.869  10.252  64.822  1.00  0.00    -0.334 A  
HETATM   17  H   UNL     1      -9.911  10.133  62.276  1.00  0.00     0.000 HD 
HETATM   18  C   UNL     1      -9.955  10.437  66.190  1.00  0.00    -0.290 A  
HETATM   19  O   UNL     1      -9.105   9.235  64.326  1.00  0.00    -0.405 OA 
HETATM   20  H   UNL     1      -8.635   8.661  64.920  1.00  0.00     0.000 HD 
HETATM   21  C   UNL     1     -10.732  11.483  66.692  1.00  0.00    -0.311 A  
ENDBRANCH   9  12
ENDBRANCH   3   9
ENDBRANCH   2   3
TORSDOF 5
ENDMDL
MODEL       70
REMARK 921   NORMALIZED FREE ENERGY PREDICTED BY IDOCK:   -4.96 KCAL/MOL
REMARK 922        TOTAL FREE ENERGY PREDICTED BY IDOCK:   -7.09 KCAL/MOL
REMARK 923 INTER-LIGAND FREE ENERGY PREDICTED BY IDOCK:   -6.29 KCAL/MOL
REMARK 924 INTRA-LIGAND FREE ENERGY PREDICTED BY IDOCK:   -0.80 KCAL/MOL
REMARK 927      BINDING AFFINITY PREDICTED BY RF-SCORE:    0.00 PKD
ROOT
HETATM    1  C   UNL     1     -11.832  15.875  71.665  1.00  0.00    -0.565 C  
HETATM    2  C   UNL     1     -12.431  15.574  70.297  1.00  0.00    -0.403 C  
ENDROOT
BRANCH   2   3
HETATM    3  C   UNL     1     -11.413  15.120  69.221  1.00  0.00    -0.311 C  
BRANCH   3   4
HETATM    4  N   UNL     1     -11.935  15.081  67.840  1.00  0.00    -0.499 NA 
HETATM    5  H   UNL     1     -12.247  15.934  67.376  1.00  0.00     0.000 HD 
BRANCH   4   6
HETATM    6  C   UNL     1     -11.995  13.788  67.151  1.00  0.00    -0.405 C  
HETATM    7  C   UNL     1     -12.640  14.024  65.778  1.00  0.00    -0.512 C  
HETATM    8  C   UNL     1     -10.630  13.137  66.919  1.00  0.00    -0.265 C  
ENDBRANCH   4   6
ENDBRANCH   3   4
BRANCH   3   9
HETATM    9  C   UNL     1     -10.056  15.895  69.407  1.00  0.00    -0.267 C  
HETATM   10  H   UNL     1      -8.133  15.452  69.439  1.00  0.00     0.000 HD 
HETATM   11  O   UNL     1      -8.953  14.984  69.327  1.00  0.00    -0.206 OA 
BRANCH   9  12
HETATM   12  C   UNL     1      -9.764  17.028  68.438  1.00  0.00    -0.279 A  
HETATM   13  C   UNL     1      -8.825  16.923  67.400  1.00  0.00    -0.212 A  
HETATM   14  C   UNL     1      -8.602  18.005  66.549  1.00  0.00    -0.258 A  
HETATM   15  O   UNL     1      -7.703  17.939  65.520  1.00  0.00    -0.505 OA 
HETATM   16  C   UNL     1      -9.304  19.193  66.717  1.00  0.00    -0.323 A  
HETATM   17  H   UNL     1      -7.551  18.676  64.940  1.00  0.00     0.000 HD 
HETATM   18  C   UNL     1     -10.221  19.327  67.744  1.00  0.00    -0.507 A  
HETATM   19  O   UNL     1      -9.087  20.239  65.866  1.00  0.00    -0.584 OA 
HETATM   20  H   UNL     1      -9.567  21.051  65.980  1.00  0.00     0.000 HD 
HETATM   21  C   UNL     1     -10.443  18.253  68.607  1.00  0.00    -0.185 A  
ENDBRANCH   9  12
ENDBRANCH   3   9
ENDBRANCH   2   3
TORSDOF 5
ENDMDL
MODEL       71
REMARK 921   NORMALIZED FREE ENERGY PREDICTED BY IDOCK:   -4.96 KCAL/MOL
REMARK 922        TOTAL FREE ENERGY PREDICTED BY IDOCK:   -7.08 KCAL/MOL
REMARK 923 INTER-LIGAND FREE ENERGY PREDICTED BY IDOCK:   -6.52 KCAL/MOL
REMARK 924 INTRA-LIGAND FREE ENERGY PREDICTED BY IDOCK:   -0.56 KCAL/MOL
REMARK 927      BINDING AFFINITY PREDICTED BY RF-SCORE:    0.00 PKD
ROOT
HETATM    1  C   UNL     1      -6.615  14.689  69.828  1.00  0.00    -0.164 C  
HETATM    2  C   UNL     1      -7.531  13.870  68.928  1.00  0.00    -0.080 C  
ENDROOT
BRANCH   2   3
HETATM    3  C   UNL     1      -8.964  14.436  68.761  1.00  0.00    -0.131 C  
BRANCH   3   4
HETATM    4  N   UNL     1      -9.575  14.972  69.995  1.00  0.00    -0.453 NA 
HETATM    5  H   UNL     1      -8.995  15.355  70.740  1.00  0.00     0.000 HD 
BRANCH   4   6
HETATM    6  C   UNL     1     -11.035  14.939  70.124  1.00  0.00    -0.180 C  
HETATM    7  C   UNL     1     -11.515  13.571  69.619  1.00  0.00    -0.283 C  
HETATM    8  C   UNL     1     -11.542  15.111  71.557  1.00  0.00    -0.443 C  
ENDBRANCH   4   6
ENDBRANCH   3   4
BRANCH   3   9
HETATM    9  C   UNL     1      -9.020  15.391  67.511  1.00  0.00    -0.183 C  
HETATM   10  H   UNL     1      -7.746  16.112  66.188  1.00  0.00     0.000 HD 
HETATM   11  O   UNL     1      -7.713  15.535  66.942  1.00  0.00    -0.218 OA 
BRANCH   9  12
HETATM   12  C   UNL     1      -9.954  14.998  66.378  1.00  0.00    -0.295 A  
HETATM   13  C   UNL     1     -10.514  15.932  65.493  1.00  0.00    -0.425 A  
HETATM   14  C   UNL     1     -11.369  15.504  64.478  1.00  0.00    -0.314 A  
HETATM   15  O   UNL     1     -11.928  16.379  63.588  1.00  0.00    -1.290 OA 
HETATM   16  C   UNL     1     -11.673  14.155  64.331  1.00  0.00    -0.392 A  
HETATM   17  H   UNL     1     -12.511  16.088  62.897  1.00  0.00     0.000 HD 
HETATM   18  C   UNL     1     -11.148  13.219  65.204  1.00  0.00    -0.315 A  
HETATM   19  O   UNL     1     -12.499  13.747  63.323  1.00  0.00    -1.065 OA 
HETATM   20  H   UNL     1     -12.707  12.826  63.223  1.00  0.00     0.000 HD 
HETATM   21  C   UNL     1     -10.299  13.639  66.229  1.00  0.00    -0.293 A  
ENDBRANCH   9  12
ENDBRANCH   3   9
ENDBRANCH   2   3
TORSDOF 5
ENDMDL
MODEL       72
REMARK 921   NORMALIZED FREE ENERGY PREDICTED BY IDOCK:   -4.96 KCAL/MOL
REMARK 922        TOTAL FREE ENERGY PREDICTED BY IDOCK:   -7.08 KCAL/MOL
REMARK 923 INTER-LIGAND FREE ENERGY PREDICTED BY IDOCK:   -6.80 KCAL/MOL
REMARK 924 INTRA-LIGAND FREE ENERGY PREDICTED BY IDOCK:   -0.28 KCAL/MOL
REMARK 927      BINDING AFFINITY PREDICTED BY RF-SCORE:    0.00 PKD
ROOT
HETATM    1  C   UNL     1     -10.306  13.493  67.818  1.00  0.00    -0.241 C  
HETATM    2  C   UNL     1     -11.591  12.759  67.455  1.00  0.00    -0.412 C  
ENDROOT
BRANCH   2   3
HETATM    3  C   UNL     1     -11.866  11.474  68.275  1.00  0.00    -0.256 C  
BRANCH   3   4
HETATM    4  N   UNL     1     -11.388  10.220  67.657  1.00  0.00    -0.546 NA 
HETATM    5  H   UNL     1     -11.974   9.386  67.649  1.00  0.00     0.000 HD 
BRANCH   4   6
HETATM    6  C   UNL     1     -10.050  10.203  67.056  1.00  0.00    -0.223 C  
HETATM    7  C   UNL     1      -9.187   9.232  67.874  1.00  0.00    -0.140 C  
HETATM    8  C   UNL     1     -10.024   9.736  65.600  1.00  0.00    -0.352 C  
ENDBRANCH   4   6
ENDBRANCH   3   4
BRANCH   3   9
HETATM    9  C   UNL     1     -11.439  11.693  69.774  1.00  0.00    -0.264 C  
HETATM   10  H   UNL     1     -11.937  12.898  71.255  1.00  0.00     0.000 HD 
HETATM   11  O   UNL     1     -12.195  12.765  70.350  1.00  0.00    -0.350 OA 
BRANCH   9  12
HETATM   12  C   UNL     1     -11.568  10.507  70.714  1.00  0.00    -0.432 A  
HETATM   13  C   UNL     1     -12.719  10.260  71.479  1.00  0.00    -0.557 A  
HETATM   14  C   UNL     1     -12.768   9.154  72.327  1.00  0.00    -0.377 A  
HETATM   15  O   UNL     1     -13.874   8.873  73.081  1.00  0.00    -1.084 OA 
HETATM   16  C   UNL     1     -11.685   8.288  72.424  1.00  0.00    -0.397 A  
HETATM   17  H   UNL     1     -13.908   8.120  73.659  1.00  0.00     0.000 HD 
HETATM   18  C   UNL     1     -10.533   8.521  71.694  1.00  0.00    -0.345 A  
HETATM   19  O   UNL     1     -11.753   7.200  73.246  1.00  0.00    -0.463 OA 
HETATM   20  H   UNL     1     -11.013   6.608  73.312  1.00  0.00     0.000 HD 
HETATM   21  C   UNL     1     -10.470   9.631  70.850  1.00  0.00    -0.359 A  
ENDBRANCH   9  12
ENDBRANCH   3   9
ENDBRANCH   2   3
TORSDOF 5
ENDMDL
MODEL       73
REMARK 921   NORMALIZED FREE ENERGY PREDICTED BY IDOCK:   -4.96 KCAL/MOL
REMARK 922        TOTAL FREE ENERGY PREDICTED BY IDOCK:   -7.08 KCAL/MOL
REMARK 923 INTER-LIGAND FREE ENERGY PREDICTED BY IDOCK:   -6.29 KCAL/MOL
REMARK 924 INTRA-LIGAND FREE ENERGY PREDICTED BY IDOCK:   -0.79 KCAL/MOL
REMARK 927      BINDING AFFINITY PREDICTED BY RF-SCORE:    0.00 PKD
ROOT
HETATM    1  C   UNL     1     -10.353  19.910  66.446  1.00  0.00    -0.611 C  
HETATM    2  C   UNL     1     -10.124  19.435  67.875  1.00  0.00    -0.503 C  
ENDROOT
BRANCH   2   3
HETATM    3  C   UNL     1      -9.870  17.914  68.028  1.00  0.00    -0.320 C  
BRANCH   3   4
HETATM    4  N   UNL     1     -11.017  17.134  68.535  1.00  0.00    -0.273 NA 
HETATM    5  H   UNL     1     -11.905  17.129  68.035  1.00  0.00     0.000 HD 
BRANCH   4   6
HETATM    6  C   UNL     1     -10.849  16.365  69.772  1.00  0.00    -0.343 C  
HETATM    7  C   UNL     1     -12.151  15.589  70.017  1.00  0.00    -0.391 C  
HETATM    8  C   UNL     1      -9.703  15.352  69.730  1.00  0.00    -0.219 C  
ENDBRANCH   4   6
ENDBRANCH   3   4
BRANCH   3   9
HETATM    9  C   UNL     1      -9.193  17.351  66.723  1.00  0.00    -0.260 C  
HETATM   10  H   UNL     1      -7.445  16.591  66.217  1.00  0.00     0.000 HD 
HETATM   11  O   UNL     1      -7.853  16.931  67.005  1.00  0.00    -0.170 OA 
BRANCH   9  12
HETATM   12  C   UNL     1      -9.884  16.188  66.030  1.00  0.00    -0.375 A  
HETATM   13  C   UNL     1     -10.991  16.353  65.183  1.00  0.00    -0.242 A  
HETATM   14  C   UNL     1     -11.581  15.241  64.583  1.00  0.00    -0.333 A  
HETATM   15  O   UNL     1     -12.654  15.359  63.743  1.00  0.00    -0.911 OA 
HETATM   16  C   UNL     1     -11.082  13.964  64.814  1.00  0.00    -0.383 A  
HETATM   17  H   UNL     1     -13.057  14.602  63.335  1.00  0.00     0.000 HD 
HETATM   18  C   UNL     1     -10.004  13.775  65.660  1.00  0.00    -0.275 A  
HETATM   19  O   UNL     1     -11.659  12.886  64.207  1.00  0.00    -0.336 OA 
HETATM   20  H   UNL     1     -11.318  12.013  64.365  1.00  0.00     0.000 HD 
HETATM   21  C   UNL     1      -9.412  14.881  66.273  1.00  0.00    -0.339 A  
ENDBRANCH   9  12
ENDBRANCH   3   9
ENDBRANCH   2   3
TORSDOF 5
ENDMDL
MODEL       74
REMARK 921   NORMALIZED FREE ENERGY PREDICTED BY IDOCK:   -4.95 KCAL/MOL
REMARK 922        TOTAL FREE ENERGY PREDICTED BY IDOCK:   -7.07 KCAL/MOL
REMARK 923 INTER-LIGAND FREE ENERGY PREDICTED BY IDOCK:   -6.49 KCAL/MOL
REMARK 924 INTRA-LIGAND FREE ENERGY PREDICTED BY IDOCK:   -0.58 KCAL/MOL
REMARK 927      BINDING AFFINITY PREDICTED BY RF-SCORE:    0.00 PKD
ROOT
HETATM    1  C   UNL     1      -8.763  13.431  68.181  1.00  0.00    -0.179 C  
HETATM    2  C   UNL     1      -9.290  12.136  67.576  1.00  0.00    -0.181 C  
ENDROOT
BRANCH   2   3
HETATM    3  C   UNL     1     -10.697  11.708  68.066  1.00  0.00    -0.208 C  
BRANCH   3   4
HETATM    4  N   UNL     1     -11.794  11.939  67.104  1.00  0.00    -0.620 NA 
HETATM    5  H   UNL     1     -12.687  11.459  67.207  1.00  0.00     0.000 HD 
BRANCH   4   6
HETATM    6  C   UNL     1     -11.570  12.876  65.999  1.00  0.00    -0.375 C  
HETATM    7  C   UNL     1     -12.339  12.347  64.780  1.00  0.00    -0.497 C  
HETATM    8  C   UNL     1     -12.057  14.300  66.275  1.00  0.00    -0.433 C  
ENDBRANCH   4   6
ENDBRANCH   3   4
BRANCH   3   9
HETATM    9  C   UNL     1     -10.631  10.260  68.679  1.00  0.00    -0.208 C  
HETATM   10  H   UNL     1      -9.239   9.052  69.381  1.00  0.00     0.000 HD 
HETATM   11  O   UNL     1      -9.278   9.926  69.011  1.00  0.00    -0.150 OA 
BRANCH   9  12
HETATM   12  C   UNL     1     -11.469   9.992  69.919  1.00  0.00    -0.274 A  
HETATM   13  C   UNL     1     -12.293  10.964  70.508  1.00  0.00    -0.463 A  
HETATM   14  C   UNL     1     -13.031  10.653  71.649  1.00  0.00    -0.477 A  
HETATM   15  O   UNL     1     -13.853  11.568  72.248  1.00  0.00    -0.338 OA 
HETATM   16  C   UNL     1     -12.961   9.384  72.213  1.00  0.00    -0.400 A  
HETATM   17  H   UNL     1     -14.356  11.356  73.026  1.00  0.00     0.000 HD 
HETATM   18  C   UNL     1     -12.142   8.416  71.661  1.00  0.00    -0.359 A  
HETATM   19  O   UNL     1     -13.702   9.088  73.321  1.00  0.00    -1.072 OA 
HETATM   20  H   UNL     1     -13.655   8.221  73.706  1.00  0.00     0.000 HD 
HETATM   21  C   UNL     1     -11.391   8.721  70.524  1.00  0.00    -0.255 A  
ENDBRANCH   9  12
ENDBRANCH   3   9
ENDBRANCH   2   3
TORSDOF 5
ENDMDL
MODEL       75
REMARK 921   NORMALIZED FREE ENERGY PREDICTED BY IDOCK:   -4.93 KCAL/MOL
REMARK 922        TOTAL FREE ENERGY PREDICTED BY IDOCK:   -7.05 KCAL/MOL
REMARK 923 INTER-LIGAND FREE ENERGY PREDICTED BY IDOCK:   -6.58 KCAL/MOL
REMARK 924 INTRA-LIGAND FREE ENERGY PREDICTED BY IDOCK:   -0.47 KCAL/MOL
REMARK 927      BINDING AFFINITY PREDICTED BY RF-SCORE:    0.00 PKD
ROOT
HETATM    1  C   UNL     1     -14.217   8.644  72.152  1.00  0.00    -0.520 C  
HETATM    2  C   UNL     1     -13.498   9.191  70.925  1.00  0.00     0.051 C  
ENDROOT
BRANCH   2   3
HETATM    3  C   UNL     1     -12.099   9.795  71.200  1.00  0.00    -0.370 C  
BRANCH   3   4
HETATM    4  N   UNL     1     -10.982   8.828  71.183  1.00  0.00    -0.249 NA 
HETATM    5  H   UNL     1     -10.777   8.284  70.346  1.00  0.00     0.000 HD 
BRANCH   4   6
HETATM    6  C   UNL     1     -10.176   8.669  72.398  1.00  0.00    -0.249 C  
HETATM    7  C   UNL     1     -10.764   7.496  73.195  1.00  0.00    -0.452 C  
HETATM    8  C   UNL     1      -8.701   8.359  72.134  1.00  0.00    -0.272 C  
ENDBRANCH   4   6
ENDBRANCH   3   4
BRANCH   3   9
HETATM    9  C   UNL     1     -11.889  11.083  70.319  1.00  0.00    -0.367 C  
HETATM   10  H   UNL     1     -12.254  11.634  68.460  1.00  0.00     0.000 HD 
HETATM   11  O   UNL     1     -12.381  10.857  68.992  1.00  0.00    -0.464 OA 
BRANCH   9  12
HETATM   12  C   UNL     1     -12.524  12.373  70.811  1.00  0.00    -0.356 A  
HETATM   13  C   UNL     1     -12.360  13.603  70.155  1.00  0.00    -0.372 A  
HETATM   14  C   UNL     1     -12.966  14.751  70.665  1.00  0.00    -0.324 A  
HETATM   15  O   UNL     1     -12.840  15.966  70.051  1.00  0.00    -0.598 OA 
HETATM   16  C   UNL     1     -13.736  14.690  71.821  1.00  0.00    -0.415 A  
HETATM   17  H   UNL     1     -13.253  16.748  70.399  1.00  0.00     0.000 HD 
HETATM   18  C   UNL     1     -13.896  13.492  72.495  1.00  0.00    -0.624 A  
HETATM   19  O   UNL     1     -14.337  15.818  72.301  1.00  0.00    -0.494 OA 
HETATM   20  H   UNL     1     -14.864  15.777  73.090  1.00  0.00     0.000 HD 
HETATM   21  C   UNL     1     -13.285  12.340  71.998  1.00  0.00    -0.508 A  
ENDBRANCH   9  12
ENDBRANCH   3   9
ENDBRANCH   2   3
TORSDOF 5
ENDMDL
MODEL       76
REMARK 921   NORMALIZED FREE ENERGY PREDICTED BY IDOCK:   -4.93 KCAL/MOL
REMARK 922        TOTAL FREE ENERGY PREDICTED BY IDOCK:   -7.04 KCAL/MOL
REMARK 923 INTER-LIGAND FREE ENERGY PREDICTED BY IDOCK:   -6.36 KCAL/MOL
REMARK 924 INTRA-LIGAND FREE ENERGY PREDICTED BY IDOCK:   -0.68 KCAL/MOL
REMARK 927      BINDING AFFINITY PREDICTED BY RF-SCORE:    0.00 PKD
ROOT
HETATM    1  C   UNL     1     -12.336  11.951  69.670  1.00  0.00    -0.109 C  
HETATM    2  C   UNL     1     -11.465  12.486  68.541  1.00  0.00    -0.346 C  
ENDROOT
BRANCH   2   3
HETATM    3  C   UNL     1     -10.523  11.444  67.889  1.00  0.00    -0.184 C  
BRANCH   3   4
HETATM    4  N   UNL     1     -11.188  10.229  67.376  1.00  0.00    -0.390 NA 
HETATM    5  H   UNL     1     -11.844  10.283  66.598  1.00  0.00     0.000 HD 
BRANCH   4   6
HETATM    6  C   UNL     1     -10.884   8.943  68.013  1.00  0.00    -0.016 C  
HETATM    7  C   UNL     1     -10.179   8.065  66.970  1.00  0.00    -0.374 C  
HETATM    8  C   UNL     1      -9.965   9.049  69.231  1.00  0.00    -0.188 C  
ENDBRANCH   4   6
ENDBRANCH   3   4
BRANCH   3   9
HETATM    9  C   UNL     1      -9.553  12.160  66.876  1.00  0.00    -0.206 C  
HETATM   10  H   UNL     1      -8.398  11.632  65.366  1.00  0.00     0.000 HD 
HETATM   11  O   UNL     1      -8.983  11.200  65.978  1.00  0.00    -0.191 OA 
BRANCH   9  12
HETATM   12  C   UNL     1     -10.138  13.272  66.022  1.00  0.00    -0.301 A  
HETATM   13  C   UNL     1     -10.947  13.029  64.901  1.00  0.00    -0.329 A  
HETATM   14  C   UNL     1     -11.447  14.097  64.157  1.00  0.00    -0.173 A  
HETATM   15  O   UNL     1     -12.247  13.904  63.065  1.00  0.00    -1.039 OA 
HETATM   16  C   UNL     1     -11.152  15.408  64.516  1.00  0.00    -0.256 A  
HETATM   17  H   UNL     1     -12.587  14.631  62.558  1.00  0.00     0.000 HD 
HETATM   18  C   UNL     1     -10.342  15.672  65.605  1.00  0.00    -0.408 A  
HETATM   19  O   UNL     1     -11.662  16.445  63.788  1.00  0.00    -1.553 OA 
HETATM   20  H   UNL     1     -11.461  17.341  64.033  1.00  0.00     0.000 HD 
HETATM   21  C   UNL     1      -9.828  14.609  66.350  1.00  0.00    -0.302 A  
ENDBRANCH   9  12
ENDBRANCH   3   9
ENDBRANCH   2   3
TORSDOF 5
ENDMDL
MODEL       77
REMARK 921   NORMALIZED FREE ENERGY PREDICTED BY IDOCK:   -4.92 KCAL/MOL
REMARK 922        TOTAL FREE ENERGY PREDICTED BY IDOCK:   -7.03 KCAL/MOL
REMARK 923 INTER-LIGAND FREE ENERGY PREDICTED BY IDOCK:   -6.44 KCAL/MOL
REMARK 924 INTRA-LIGAND FREE ENERGY PREDICTED BY IDOCK:   -0.60 KCAL/MOL
REMARK 927      BINDING AFFINITY PREDICTED BY RF-SCORE:    0.00 PKD
ROOT
HETATM    1  C   UNL     1      -8.465  13.287  67.713  1.00  0.00    -0.181 C  
HETATM    2  C   UNL     1      -9.374  14.461  67.375  1.00  0.00    -0.199 C  
ENDROOT
BRANCH   2   3
HETATM    3  C   UNL     1      -9.995  15.183  68.598  1.00  0.00    -0.220 C  
BRANCH   3   4
HETATM    4  N   UNL     1      -9.582  16.590  68.774  1.00  0.00    -0.240 NA 
HETATM    5  H   UNL     1      -8.739  16.824  69.297  1.00  0.00     0.000 HD 
BRANCH   4   6
HETATM    6  C   UNL     1     -10.411  17.643  68.180  1.00  0.00    -0.385 C  
HETATM    7  C   UNL     1      -9.989  18.977  68.811  1.00  0.00    -0.475 C  
HETATM    8  C   UNL     1     -10.262  17.777  66.663  1.00  0.00    -0.361 C  
ENDBRANCH   4   6
ENDBRANCH   3   4
BRANCH   3   9
HETATM    9  C   UNL     1     -11.548  14.926  68.638  1.00  0.00    -0.318 C  
HETATM   10  H   UNL     1     -12.952  14.371  67.368  1.00  0.00     0.000 HD 
HETATM   11  O   UNL     1     -12.015  14.526  67.344  1.00  0.00    -0.394 OA 
BRANCH   9  12
HETATM   12  C   UNL     1     -12.056  13.893  69.630  1.00  0.00    -0.404 A  
HETATM   13  C   UNL     1     -12.853  14.225  70.737  1.00  0.00    -0.404 A  
HETATM   14  C   UNL     1     -13.280  13.227  71.612  1.00  0.00    -0.359 A  
HETATM   15  O   UNL     1     -14.066  13.506  72.696  1.00  0.00    -0.762 OA 
HETATM   16  C   UNL     1     -12.925  11.900  71.399  1.00  0.00    -0.284 A  
HETATM   17  H   UNL     1     -14.357  12.826  73.293  1.00  0.00     0.000 HD 
HETATM   18  C   UNL     1     -12.124  11.551  70.326  1.00  0.00    -0.444 A  
HETATM   19  O   UNL     1     -13.363  10.930  72.255  1.00  0.00    -0.623 OA 
HETATM   20  H   UNL     1     -13.121  10.023  72.109  1.00  0.00     0.000 HD 
HETATM   21  C   UNL     1     -11.684  12.545  69.450  1.00  0.00    -0.383 A  
ENDBRANCH   9  12
ENDBRANCH   3   9
ENDBRANCH   2   3
TORSDOF 5
ENDMDL
MODEL       78
REMARK 921   NORMALIZED FREE ENERGY PREDICTED BY IDOCK:   -4.91 KCAL/MOL
REMARK 922        TOTAL FREE ENERGY PREDICTED BY IDOCK:   -7.02 KCAL/MOL
REMARK 923 INTER-LIGAND FREE ENERGY PREDICTED BY IDOCK:   -6.41 KCAL/MOL
REMARK 924 INTRA-LIGAND FREE ENERGY PREDICTED BY IDOCK:   -0.61 KCAL/MOL
REMARK 927      BINDING AFFINITY PREDICTED BY RF-SCORE:    0.00 PKD
ROOT
HETATM    1  C   UNL     1      -8.848   9.592  70.010  1.00  0.00    -0.259 C  
HETATM    2  C   UNL     1     -10.141  10.255  69.554  1.00  0.00    -0.260 C  
ENDROOT
BRANCH   2   3
HETATM    3  C   UNL     1      -9.969  11.365  68.487  1.00  0.00    -0.201 C  
BRANCH   3   4
HETATM    4  N   UNL     1      -8.842  12.291  68.721  1.00  0.00    -0.380 NA 
HETATM    5  H   UNL     1      -8.663  12.670  69.650  1.00  0.00     0.000 HD 
BRANCH   4   6
HETATM    6  C   UNL     1      -7.987  12.653  67.585  1.00  0.00    -0.169 C  
HETATM    7  C   UNL     1      -7.862  14.183  67.568  1.00  0.00    -0.207 C  
HETATM    8  C   UNL     1      -6.574  12.070  67.655  1.00  0.00    -0.107 C  
ENDBRANCH   4   6
ENDBRANCH   3   4
BRANCH   3   9
HETATM    9  C   UNL     1     -10.038  10.737  67.045  1.00  0.00    -0.208 C  
HETATM   10  H   UNL     1     -10.744   9.089  66.222  1.00  0.00     0.000 HD 
HETATM   11  O   UNL     1     -10.702   9.468  67.092  1.00  0.00    -0.255 OA 
BRANCH   9  12
HETATM   12  C   UNL     1     -10.725  11.555  65.964  1.00  0.00    -0.332 A  
HETATM   13  C   UNL     1     -11.786  12.435  66.230  1.00  0.00    -0.457 A  
HETATM   14  C   UNL     1     -12.375  13.151  65.188  1.00  0.00    -0.473 A  
HETATM   15  O   UNL     1     -13.403  14.026  65.406  1.00  0.00    -0.721 OA 
HETATM   16  C   UNL     1     -11.920  13.003  63.883  1.00  0.00    -0.485 A  
HETATM   17  H   UNL     1     -13.805  14.513  64.697  1.00  0.00     0.000 HD 
HETATM   18  C   UNL     1     -10.889  12.128  63.594  1.00  0.00    -0.523 A  
HETATM   19  O   UNL     1     -12.495  13.723  62.875  1.00  0.00    -1.009 OA 
HETATM   20  H   UNL     1     -12.185  13.622  61.983  1.00  0.00     0.000 HD 
HETATM   21  C   UNL     1     -10.299  11.399  64.628  1.00  0.00    -0.362 A  
ENDBRANCH   9  12
ENDBRANCH   3   9
ENDBRANCH   2   3
TORSDOF 5
ENDMDL
MODEL       79
REMARK 921   NORMALIZED FREE ENERGY PREDICTED BY IDOCK:   -4.90 KCAL/MOL
REMARK 922        TOTAL FREE ENERGY PREDICTED BY IDOCK:   -7.01 KCAL/MOL
REMARK 923 INTER-LIGAND FREE ENERGY PREDICTED BY IDOCK:   -6.31 KCAL/MOL
REMARK 924 INTRA-LIGAND FREE ENERGY PREDICTED BY IDOCK:   -0.69 KCAL/MOL
REMARK 927      BINDING AFFINITY PREDICTED BY RF-SCORE:    0.00 PKD
ROOT
HETATM    1  C   UNL     1      -9.794   9.078  66.256  1.00  0.00    -0.361 C  
HETATM    2  C   UNL     1     -10.902   9.627  67.145  1.00  0.00    -0.184 C  
ENDROOT
BRANCH   2   3
HETATM    3  C   UNL     1     -10.914  11.169  67.302  1.00  0.00    -0.296 C  
BRANCH   3   4
HETATM    4  N   UNL     1     -12.119  11.844  66.780  1.00  0.00    -0.493 NA 
HETATM    5  H   UNL     1     -13.021  11.733  67.242  1.00  0.00     0.000 HD 
BRANCH   4   6
HETATM    6  C   UNL     1     -11.990  12.678  65.580  1.00  0.00    -0.452 C  
HETATM    7  C   UNL     1     -12.464  14.092  65.945  1.00  0.00    -0.513 C  
HETATM    8  C   UNL     1     -10.561  12.789  65.045  1.00  0.00    -0.330 C  
ENDBRANCH   4   6
ENDBRANCH   3   4
BRANCH   3   9
HETATM    9  C   UNL     1     -10.504  11.560  68.771  1.00  0.00    -0.204 C  
HETATM   10  H   UNL     1     -10.634  13.152  69.929  1.00  0.00     0.000 HD 
HETATM   11  O   UNL     1     -10.882  12.915  69.042  1.00  0.00    -0.223 OA 
BRANCH   9  12
HETATM   12  C   UNL     1     -11.067  10.710  69.898  1.00  0.00    -0.364 A  
HETATM   13  C   UNL     1     -10.311   9.737  70.571  1.00  0.00    -0.348 A  
HETATM   14  C   UNL     1     -10.891   8.988  71.593  1.00  0.00    -0.366 A  
HETATM   15  O   UNL     1     -10.187   8.038  72.280  1.00  0.00    -0.217 OA 
HETATM   16  C   UNL     1     -12.217   9.195  71.957  1.00  0.00    -0.373 A  
HETATM   17  H   UNL     1     -10.582   7.527  72.977  1.00  0.00     0.000 HD 
HETATM   18  C   UNL     1     -12.987  10.135  71.296  1.00  0.00    -0.510 A  
HETATM   19  O   UNL     1     -12.768   8.466  72.971  1.00  0.00    -0.697 OA 
HETATM   20  H   UNL     1     -13.674   8.607  73.221  1.00  0.00     0.000 HD 
HETATM   21  C   UNL     1     -12.417  10.883  70.264  1.00  0.00    -0.383 A  
ENDBRANCH   9  12
ENDBRANCH   3   9
ENDBRANCH   2   3
TORSDOF 5
ENDMDL
MODEL       80
REMARK 921   NORMALIZED FREE ENERGY PREDICTED BY IDOCK:   -4.90 KCAL/MOL
REMARK 922        TOTAL FREE ENERGY PREDICTED BY IDOCK:   -7.01 KCAL/MOL
REMARK 923 INTER-LIGAND FREE ENERGY PREDICTED BY IDOCK:   -6.10 KCAL/MOL
REMARK 924 INTRA-LIGAND FREE ENERGY PREDICTED BY IDOCK:   -0.91 KCAL/MOL
REMARK 927      BINDING AFFINITY PREDICTED BY RF-SCORE:    0.00 PKD
ROOT
HETATM    1  C   UNL     1     -12.759  12.022  63.304  1.00  0.00    -0.437 C  
HETATM    2  C   UNL     1     -11.262  12.076  63.585  1.00  0.00    -0.528 C  
ENDROOT
BRANCH   2   3
HETATM    3  C   UNL     1     -10.860  11.801  65.055  1.00  0.00    -0.295 C  
BRANCH   3   4
HETATM    4  N   UNL     1      -9.426  11.980  65.359  1.00  0.00    -0.419 NA 
HETATM    5  H   UNL     1      -8.931  12.820  65.061  1.00  0.00     0.000 HD 
BRANCH   4   6
HETATM    6  C   UNL     1      -8.729  10.922  66.097  1.00  0.00    -0.184 C  
HETATM    7  C   UNL     1      -8.552  11.405  67.543  1.00  0.00    -0.137 C  
HETATM    8  C   UNL     1      -9.480   9.589  66.140  1.00  0.00    -0.281 C  
ENDBRANCH   4   6
ENDBRANCH   3   4
BRANCH   3   9
HETATM    9  C   UNL     1     -11.853  12.540  66.029  1.00  0.00    -0.418 C  
HETATM   10  H   UNL     1     -12.712  12.172  67.766  1.00  0.00     0.000 HD 
HETATM   11  O   UNL     1     -12.113  11.726  67.178  1.00  0.00    -0.592 OA 
BRANCH   9  12
HETATM   12  C   UNL     1     -11.433  13.908  66.541  1.00  0.00    -0.361 A  
HETATM   13  C   UNL     1     -11.097  14.972  65.690  1.00  0.00    -0.349 A  
HETATM   14  C   UNL     1     -10.714  16.200  66.228  1.00  0.00    -0.213 A  
HETATM   15  O   UNL     1     -10.389  17.265  65.433  1.00  0.00    -0.626 OA 
HETATM   16  C   UNL     1     -10.663  16.385  67.604  1.00  0.00    -0.312 A  
HETATM   17  H   UNL     1     -10.128  18.102  65.799  1.00  0.00     0.000 HD 
HETATM   18  C   UNL     1     -10.972  15.345  68.463  1.00  0.00    -0.278 A  
HETATM   19  O   UNL     1     -10.303  17.597  68.118  1.00  0.00    -0.347 OA 
HETATM   20  H   UNL     1     -10.268  17.724  69.058  1.00  0.00     0.000 HD 
HETATM   21  C   UNL     1     -11.346  14.108  67.934  1.00  0.00    -0.318 A  
ENDBRANCH   9  12
ENDBRANCH   3   9
ENDBRANCH   2   3
TORSDOF 5
ENDMDL
MODEL       81
REMARK 921   NORMALIZED FREE ENERGY PREDICTED BY IDOCK:   -4.89 KCAL/MOL
REMARK 922        TOTAL FREE ENERGY PREDICTED BY IDOCK:   -7.00 KCAL/MOL
REMARK 923 INTER-LIGAND FREE ENERGY PREDICTED BY IDOCK:   -6.26 KCAL/MOL
REMARK 924 INTRA-LIGAND FREE ENERGY PREDICTED BY IDOCK:   -0.74 KCAL/MOL
REMARK 927      BINDING AFFINITY PREDICTED BY RF-SCORE:    0.00 PKD
ROOT
HETATM    1  C   UNL     1      -7.982  15.226  69.447  1.00  0.00    -0.223 C  
HETATM    2  C   UNL     1      -9.094  15.611  68.480  1.00  0.00    -0.196 C  
ENDROOT
BRANCH   2   3
HETATM    3  C   UNL     1     -10.391  16.134  69.147  1.00  0.00    -0.259 C  
BRANCH   3   4
HETATM    4  N   UNL     1     -10.536  17.603  69.173  1.00  0.00    -0.405 NA 
HETATM    5  H   UNL     1     -11.138  18.056  69.861  1.00  0.00     0.000 HD 
BRANCH   4   6
HETATM    6  C   UNL     1      -9.794  18.397  68.189  1.00  0.00    -0.342 C  
HETATM    7  C   UNL     1     -10.820  19.176  67.353  1.00  0.00    -0.533 C  
HETATM    8  C   UNL     1      -8.826  19.411  68.802  1.00  0.00    -0.385 C  
ENDBRANCH   4   6
ENDBRANCH   3   4
BRANCH   3   9
HETATM    9  C   UNL     1     -11.635  15.344  68.591  1.00  0.00    -0.359 C  
HETATM   10  H   UNL     1     -12.337  14.817  66.825  1.00  0.00     0.000 HD 
HETATM   11  O   UNL     1     -11.587  15.294  67.160  1.00  0.00    -0.265 OA 
BRANCH   9  12
HETATM   12  C   UNL     1     -11.824  13.916  69.077  1.00  0.00    -0.397 A  
HETATM   13  C   UNL     1     -11.621  12.797  68.255  1.00  0.00    -0.375 A  
HETATM   14  C   UNL     1     -11.819  11.513  68.763  1.00  0.00    -0.330 A  
HETATM   15  O   UNL     1     -11.622  10.397  67.999  1.00  0.00    -0.663 OA 
HETATM   16  C   UNL     1     -12.216  11.329  70.082  1.00  0.00    -0.330 A  
HETATM   17  H   UNL     1     -11.757   9.522  68.345  1.00  0.00     0.000 HD 
HETATM   18  C   UNL     1     -12.441  12.417  70.907  1.00  0.00    -0.367 A  
HETATM   19  O   UNL     1     -12.391  10.066  70.572  1.00  0.00    -0.392 OA 
HETATM   20  H   UNL     1     -12.661   9.940  71.474  1.00  0.00     0.000 HD 
HETATM   21  C   UNL     1     -12.255  13.706  70.403  1.00  0.00    -0.434 A  
ENDBRANCH   9  12
ENDBRANCH   3   9
ENDBRANCH   2   3
TORSDOF 5
ENDMDL
MODEL       82
REMARK 921   NORMALIZED FREE ENERGY PREDICTED BY IDOCK:   -4.88 KCAL/MOL
REMARK 922        TOTAL FREE ENERGY PREDICTED BY IDOCK:   -6.97 KCAL/MOL
REMARK 923 INTER-LIGAND FREE ENERGY PREDICTED BY IDOCK:   -6.09 KCAL/MOL
REMARK 924 INTRA-LIGAND FREE ENERGY PREDICTED BY IDOCK:   -0.88 KCAL/MOL
REMARK 927      BINDING AFFINITY PREDICTED BY RF-SCORE:    0.00 PKD
ROOT
HETATM    1  C   UNL     1     -12.877  13.981  71.302  1.00  0.00    -0.430 C  
HETATM    2  C   UNL     1     -12.562  13.164  70.055  1.00  0.00    -0.014 C  
ENDROOT
BRANCH   2   3
HETATM    3  C   UNL     1     -11.209  13.497  69.377  1.00  0.00    -0.187 C  
BRANCH   3   4
HETATM    4  N   UNL     1     -10.379  12.328  69.022  1.00  0.00    -0.423 NA 
HETATM    5  H   UNL     1      -9.402  12.443  68.757  1.00  0.00     0.000 HD 
BRANCH   4   6
HETATM    6  C   UNL     1     -10.993  10.996  69.059  1.00  0.00    -0.233 C  
HETATM    7  C   UNL     1     -10.857  10.384  67.658  1.00  0.00    -0.361 C  
HETATM    8  C   UNL     1     -10.342  10.034  70.053  1.00  0.00    -0.323 C  
ENDBRANCH   4   6
ENDBRANCH   3   4
BRANCH   3   9
HETATM    9  C   UNL     1     -11.433  14.541  68.221  1.00  0.00    -0.311 C  
HETATM   10  H   UNL     1     -10.579  16.205  67.594  1.00  0.00     0.000 HD 
HETATM   11  O   UNL     1     -10.443  15.575  68.292  1.00  0.00    -0.234 OA 
BRANCH   9  12
HETATM   12  C   UNL     1     -11.420  14.014  66.796  1.00  0.00    -0.379 A  
HETATM   13  C   UNL     1     -12.505  13.331  66.224  1.00  0.00    -0.283 A  
HETATM   14  C   UNL     1     -12.423  12.868  64.912  1.00  0.00    -0.478 A  
HETATM   15  O   UNL     1     -13.461  12.208  64.314  1.00  0.00    -0.708 OA 
HETATM   16  C   UNL     1     -11.274  13.076  64.158  1.00  0.00    -0.399 A  
HETATM   17  H   UNL     1     -13.406  11.891  63.420  1.00  0.00     0.000 HD 
HETATM   18  C   UNL     1     -10.184  13.729  64.706  1.00  0.00    -0.362 A  
HETATM   19  O   UNL     1     -11.213  12.631  62.869  1.00  0.00    -0.647 OA 
HETATM   20  H   UNL     1     -10.428  12.774  62.353  1.00  0.00     0.000 HD 
HETATM   21  C   UNL     1     -10.253  14.188  66.023  1.00  0.00    -0.318 A  
ENDBRANCH   9  12
ENDBRANCH   3   9
ENDBRANCH   2   3
TORSDOF 5
ENDMDL
MODEL       83
REMARK 921   NORMALIZED FREE ENERGY PREDICTED BY IDOCK:   -4.87 KCAL/MOL
REMARK 922        TOTAL FREE ENERGY PREDICTED BY IDOCK:   -6.97 KCAL/MOL
REMARK 923 INTER-LIGAND FREE ENERGY PREDICTED BY IDOCK:   -6.28 KCAL/MOL
REMARK 924 INTRA-LIGAND FREE ENERGY PREDICTED BY IDOCK:   -0.70 KCAL/MOL
REMARK 927      BINDING AFFINITY PREDICTED BY RF-SCORE:    0.00 PKD
ROOT
HETATM    1  C   UNL     1     -10.260   9.973  67.125  1.00  0.00    -0.284 C  
HETATM    2  C   UNL     1     -11.344  10.934  67.594  1.00  0.00    -0.345 C  
ENDROOT
BRANCH   2   3
HETATM    3  C   UNL     1     -11.054  12.432  67.324  1.00  0.00    -0.281 C  
BRANCH   3   4
HETATM    4  N   UNL     1     -12.144  13.172  66.656  1.00  0.00    -0.378 NA 
HETATM    5  H   UNL     1     -12.957  13.491  67.182  1.00  0.00     0.000 HD 
BRANCH   4   6
HETATM    6  C   UNL     1     -12.031  13.438  65.218  1.00  0.00    -0.380 C  
HETATM    7  C   UNL     1     -10.567  13.799  64.928  1.00  0.00    -0.427 C  
HETATM    8  C   UNL     1     -12.403  12.250  64.330  1.00  0.00    -0.519 C  
ENDBRANCH   4   6
ENDBRANCH   3   4
BRANCH   3   9
HETATM    9  C   UNL     1     -10.478  13.108  68.624  1.00  0.00    -0.227 C  
HETATM   10  H   UNL     1      -9.224  14.569  69.055  1.00  0.00     0.000 HD 
HETATM   11  O   UNL     1      -9.573  14.161  68.271  1.00  0.00    -0.214 OA 
BRANCH   9  12
HETATM   12  C   UNL     1     -11.479  13.696  69.604  1.00  0.00    -0.286 A  
HETATM   13  C   UNL     1     -12.168  12.921  70.549  1.00  0.00    -0.395 A  
HETATM   14  C   UNL     1     -13.079  13.525  71.415  1.00  0.00    -0.305 A  
HETATM   15  O   UNL     1     -13.763  12.807  72.357  1.00  0.00    -0.546 OA 
HETATM   16  C   UNL     1     -13.313  14.893  71.353  1.00  0.00    -0.413 A  
HETATM   17  H   UNL     1     -14.384  13.218  72.947  1.00  0.00     0.000 HD 
HETATM   18  C   UNL     1     -12.660  15.675  70.417  1.00  0.00    -0.376 A  
HETATM   19  O   UNL     1     -14.196  15.475  72.218  1.00  0.00    -0.549 OA 
HETATM   20  H   UNL     1     -14.356  16.410  72.177  1.00  0.00     0.000 HD 
HETATM   21  C   UNL     1     -11.754  15.078  69.539  1.00  0.00    -0.350 A  
ENDBRANCH   9  12
ENDBRANCH   3   9
ENDBRANCH   2   3
TORSDOF 5
ENDMDL
MODEL       84
REMARK 921   NORMALIZED FREE ENERGY PREDICTED BY IDOCK:   -4.86 KCAL/MOL
REMARK 922        TOTAL FREE ENERGY PREDICTED BY IDOCK:   -6.96 KCAL/MOL
REMARK 923 INTER-LIGAND FREE ENERGY PREDICTED BY IDOCK:   -6.19 KCAL/MOL
REMARK 924 INTRA-LIGAND FREE ENERGY PREDICTED BY IDOCK:   -0.77 KCAL/MOL
REMARK 927      BINDING AFFINITY PREDICTED BY RF-SCORE:    0.00 PKD
ROOT
HETATM    1  C   UNL     1      -6.719  10.701  67.514  1.00  0.00    -0.070 C  
HETATM    2  C   UNL     1      -7.166  12.128  67.803  1.00  0.00    -0.113 C  
ENDROOT
BRANCH   2   3
HETATM    3  C   UNL     1      -8.690  12.307  68.020  1.00  0.00    -0.181 C  
BRANCH   3   4
HETATM    4  N   UNL     1      -9.279  11.452  69.071  1.00  0.00    -0.400 NA 
HETATM    5  H   UNL     1      -8.787  11.290  69.948  1.00  0.00     0.000 HD 
BRANCH   4   6
HETATM    6  C   UNL     1     -10.590  10.842  68.823  1.00  0.00    -0.200 C  
HETATM    7  C   UNL     1     -11.661  11.848  69.267  1.00  0.00    -0.389 C  
HETATM    8  C   UNL     1     -10.853  10.497  67.356  1.00  0.00    -0.349 C  
ENDBRANCH   4   6
ENDBRANCH   3   4
BRANCH   3   9
HETATM    9  C   UNL     1      -9.040  13.838  68.122  1.00  0.00    -0.194 C  
HETATM   10  H   UNL     1      -8.063  15.523  68.436  1.00  0.00     0.000 HD 
HETATM   11  O   UNL     1      -7.852  14.599  68.375  1.00  0.00    -0.118 OA 
BRANCH   9  12
HETATM   12  C   UNL     1      -9.725  14.475  66.924  1.00  0.00    -0.257 A  
HETATM   13  C   UNL     1     -10.300  13.725  65.886  1.00  0.00    -0.315 A  
HETATM   14  C   UNL     1     -10.909  14.374  64.812  1.00  0.00    -0.399 A  
HETATM   15  O   UNL     1     -11.489  13.681  63.786  1.00  0.00    -0.603 OA 
HETATM   16  C   UNL     1     -10.955  15.763  64.759  1.00  0.00    -0.393 A  
HETATM   17  H   UNL     1     -11.904  14.123  63.054  1.00  0.00     0.000 HD 
HETATM   18  C   UNL     1     -10.379  16.523  65.761  1.00  0.00    -0.359 A  
HETATM   19  O   UNL     1     -11.569  16.385  63.710  1.00  0.00    -1.605 OA 
HETATM   20  H   UNL     1     -11.600  17.334  63.673  1.00  0.00     0.000 HD 
HETATM   21  C   UNL     1      -9.758  15.882  66.835  1.00  0.00    -0.241 A  
ENDBRANCH   9  12
ENDBRANCH   3   9
ENDBRANCH   2   3
TORSDOF 5
ENDMDL
MODEL       85
REMARK 921   NORMALIZED FREE ENERGY PREDICTED BY IDOCK:   -4.86 KCAL/MOL
REMARK 922        TOTAL FREE ENERGY PREDICTED BY IDOCK:   -6.96 KCAL/MOL
REMARK 923 INTER-LIGAND FREE ENERGY PREDICTED BY IDOCK:   -6.49 KCAL/MOL
REMARK 924 INTRA-LIGAND FREE ENERGY PREDICTED BY IDOCK:   -0.46 KCAL/MOL
REMARK 927      BINDING AFFINITY PREDICTED BY RF-SCORE:    0.00 PKD
ROOT
HETATM    1  C   UNL     1     -12.536  11.944  63.462  1.00  0.00    -0.609 C  
HETATM    2  C   UNL     1     -11.053  11.596  63.425  1.00  0.00    -0.422 C  
ENDROOT
BRANCH   2   3
HETATM    3  C   UNL     1     -10.394  11.381  64.810  1.00  0.00    -0.294 C  
BRANCH   3   4
HETATM    4  N   UNL     1      -8.917  11.391  64.812  1.00  0.00    -0.397 NA 
HETATM    5  H   UNL     1      -8.401  12.179  64.424  1.00  0.00     0.000 HD 
BRANCH   4   6
HETATM    6  C   UNL     1      -8.210  10.241  65.385  1.00  0.00    -0.156 C  
HETATM    7  C   UNL     1      -9.095   9.003  65.179  1.00  0.00    -0.203 C  
HETATM    8  C   UNL     1      -6.853   9.955  64.740  1.00  0.00    -0.129 C  
ENDBRANCH   4   6
ENDBRANCH   3   4
BRANCH   3   9
HETATM    9  C   UNL     1     -11.076  12.317  65.878  1.00  0.00    -0.322 C  
HETATM   10  H   UNL     1     -11.246  12.380  67.842  1.00  0.00     0.000 HD 
HETATM   11  O   UNL     1     -10.834  11.815  67.198  1.00  0.00    -0.232 OA 
BRANCH   9  12
HETATM   12  C   UNL     1     -10.669  13.781  65.880  1.00  0.00    -0.285 A  
HETATM   13  C   UNL     1     -11.207  14.724  64.991  1.00  0.00    -0.399 A  
HETATM   14  C   UNL     1     -10.784  16.052  65.043  1.00  0.00    -0.378 A  
HETATM   15  O   UNL     1     -11.290  17.004  64.202  1.00  0.00    -1.292 OA 
HETATM   16  C   UNL     1      -9.830  16.454  65.971  1.00  0.00    -0.335 A  
HETATM   17  H   UNL     1     -11.002  17.908  64.237  1.00  0.00     0.000 HD 
HETATM   18  C   UNL     1      -9.271  15.538  66.845  1.00  0.00    -0.257 A  
HETATM   19  O   UNL     1      -9.436  17.761  66.022  1.00  0.00    -0.502 OA 
HETATM   20  H   UNL     1      -8.785  18.036  66.657  1.00  0.00     0.000 HD 
HETATM   21  C   UNL     1      -9.682  14.205  66.793  1.00  0.00    -0.283 A  
ENDBRANCH   9  12
ENDBRANCH   3   9
ENDBRANCH   2   3
TORSDOF 5
ENDMDL
MODEL       86
REMARK 921   NORMALIZED FREE ENERGY PREDICTED BY IDOCK:   -4.85 KCAL/MOL
REMARK 922        TOTAL FREE ENERGY PREDICTED BY IDOCK:   -6.94 KCAL/MOL
REMARK 923 INTER-LIGAND FREE ENERGY PREDICTED BY IDOCK:   -6.22 KCAL/MOL
REMARK 924 INTRA-LIGAND FREE ENERGY PREDICTED BY IDOCK:   -0.72 KCAL/MOL
REMARK 927      BINDING AFFINITY PREDICTED BY RF-SCORE:    0.00 PKD
ROOT
HETATM    1  C   UNL     1     -11.956  14.287  69.445  1.00  0.00    -0.381 C  
HETATM    2  C   UNL     1     -11.144  13.586  68.364  1.00  0.00    -0.298 C  
ENDROOT
BRANCH   2   3
HETATM    3  C   UNL     1     -11.736  12.245  67.863  1.00  0.00    -0.347 C  
BRANCH   3   4
HETATM    4  N   UNL     1     -11.932  12.151  66.402  1.00  0.00    -0.621 NA 
HETATM    5  H   UNL     1     -12.835  11.881  66.013  1.00  0.00     0.000 HD 
BRANCH   4   6
HETATM    6  C   UNL     1     -10.798  12.455  65.523  1.00  0.00    -0.281 C  
HETATM    7  C   UNL     1     -10.564  11.229  64.628  1.00  0.00    -0.392 C  
HETATM    8  C   UNL     1     -11.018  13.663  64.611  1.00  0.00    -0.403 C  
ENDBRANCH   4   6
ENDBRANCH   3   4
BRANCH   3   9
HETATM    9  C   UNL     1     -10.963  11.041  68.519  1.00  0.00    -0.228 C  
HETATM   10  H   UNL     1      -9.159  10.709  69.245  1.00  0.00     0.000 HD 
HETATM   11  O   UNL     1      -9.626  11.436  68.849  1.00  0.00    -0.170 OA 
BRANCH   9  12
HETATM   12  C   UNL     1     -11.566  10.429  69.773  1.00  0.00    -0.339 A  
HETATM   13  C   UNL     1     -10.882   9.501  70.574  1.00  0.00    -0.352 A  
HETATM   14  C   UNL     1     -11.497   8.973  71.709  1.00  0.00    -0.372 A  
HETATM   15  O   UNL     1     -10.862   8.075  72.521  1.00  0.00    -0.295 OA 
HETATM   16  C   UNL     1     -12.785   9.360  72.059  1.00  0.00    -0.403 A  
HETATM   17  H   UNL     1     -11.281   7.715  73.294  1.00  0.00     0.000 HD 
HETATM   18  C   UNL     1     -13.486  10.259  71.275  1.00  0.00    -0.267 A  
HETATM   19  O   UNL     1     -13.370   8.848  73.182  1.00  0.00    -0.926 OA 
HETATM   20  H   UNL     1     -14.250   9.112  73.422  1.00  0.00     0.000 HD 
HETATM   21  C   UNL     1     -12.883  10.785  70.131  1.00  0.00    -0.148 A  
ENDBRANCH   9  12
ENDBRANCH   3   9
ENDBRANCH   2   3
TORSDOF 5
ENDMDL
MODEL       87
REMARK 921   NORMALIZED FREE ENERGY PREDICTED BY IDOCK:   -4.83 KCAL/MOL
REMARK 922        TOTAL FREE ENERGY PREDICTED BY IDOCK:   -6.92 KCAL/MOL
REMARK 923 INTER-LIGAND FREE ENERGY PREDICTED BY IDOCK:   -5.98 KCAL/MOL
REMARK 924 INTRA-LIGAND FREE ENERGY PREDICTED BY IDOCK:   -0.94 KCAL/MOL
REMARK 927      BINDING AFFINITY PREDICTED BY RF-SCORE:    0.00 PKD
ROOT
HETATM    1  C   UNL     1     -10.180  17.084  66.280  1.00  0.00    -0.336 C  
HETATM    2  C   UNL     1      -9.356  15.871  65.869  1.00  0.00    -0.353 C  
ENDROOT
BRANCH   2   3
HETATM    3  C   UNL     1     -10.171  14.576  65.625  1.00  0.00    -0.357 C  
BRANCH   3   4
HETATM    4  N   UNL     1     -10.590  14.352  64.226  1.00  0.00    -0.483 NA 
HETATM    5  H   UNL     1      -9.960  14.562  63.453  1.00  0.00     0.000 HD 
BRANCH   4   6
HETATM    6  C   UNL     1     -11.933  13.820  63.975  1.00  0.00    -0.408 C  
HETATM    7  C   UNL     1     -11.786  12.331  63.631  1.00  0.00    -0.591 C  
HETATM    8  C   UNL     1     -12.884  13.931  65.168  1.00  0.00    -0.383 C  
ENDBRANCH   4   6
ENDBRANCH   3   4
BRANCH   3   9
HETATM    9  C   UNL     1      -9.458  13.356  66.319  1.00  0.00    -0.183 C  
HETATM   10  H   UNL     1      -7.870  13.068  67.454  1.00  0.00     0.000 HD 
HETATM   11  O   UNL     1      -8.301  13.805  67.035  1.00  0.00    -0.176 OA 
BRANCH   9  12
HETATM   12  C   UNL     1     -10.285  12.529  67.290  1.00  0.00    -0.222 A  
HETATM   13  C   UNL     1     -10.362  11.129  67.226  1.00  0.00    -0.243 A  
HETATM   14  C   UNL     1     -11.146  10.432  68.146  1.00  0.00    -0.285 A  
HETATM   15  O   UNL     1     -11.240   9.068  68.124  1.00  0.00    -0.469 OA 
HETATM   16  C   UNL     1     -11.853  11.111  69.131  1.00  0.00    -0.350 A  
HETATM   17  H   UNL     1     -11.774   8.593  68.750  1.00  0.00     0.000 HD 
HETATM   18  C   UNL     1     -11.807  12.492  69.202  1.00  0.00    -0.348 A  
HETATM   19  O   UNL     1     -12.603  10.415  70.035  1.00  0.00    -0.518 OA 
HETATM   20  H   UNL     1     -13.086  10.879  70.709  1.00  0.00     0.000 HD 
HETATM   21  C   UNL     1     -11.034  13.200  68.279  1.00  0.00    -0.278 A  
ENDBRANCH   9  12
ENDBRANCH   3   9
ENDBRANCH   2   3
TORSDOF 5
ENDMDL
MODEL       88
REMARK 921   NORMALIZED FREE ENERGY PREDICTED BY IDOCK:   -4.83 KCAL/MOL
REMARK 922        TOTAL FREE ENERGY PREDICTED BY IDOCK:   -6.92 KCAL/MOL
REMARK 923 INTER-LIGAND FREE ENERGY PREDICTED BY IDOCK:   -6.54 KCAL/MOL
REMARK 924 INTRA-LIGAND FREE ENERGY PREDICTED BY IDOCK:   -0.38 KCAL/MOL
REMARK 927      BINDING AFFINITY PREDICTED BY RF-SCORE:    0.00 PKD
ROOT
HETATM    1  C   UNL     1     -11.381  10.379  70.578  1.00  0.00    -0.424 C  
HETATM    2  C   UNL     1     -11.864  11.500  69.667  1.00  0.00    -0.421 C  
ENDROOT
BRANCH   2   3
HETATM    3  C   UNL     1     -10.743  12.276  68.931  1.00  0.00    -0.172 C  
BRANCH   3   4
HETATM    4  N   UNL     1     -10.020  11.507  67.898  1.00  0.00    -0.179 NA 
HETATM    5  H   UNL     1     -10.503  11.170  67.066  1.00  0.00     0.000 HD 
BRANCH   4   6
HETATM    6  C   UNL     1      -8.592  11.239  68.096  1.00  0.00    -0.150 C  
HETATM    7  C   UNL     1      -8.213  10.054  67.196  1.00  0.00    -0.117 C  
HETATM    8  C   UNL     1      -7.678  12.410  67.732  1.00  0.00    -0.139 C  
ENDBRANCH   4   6
ENDBRANCH   3   4
BRANCH   3   9
HETATM    9  C   UNL     1     -11.279  13.683  68.473  1.00  0.00    -0.280 C  
HETATM   10  H   UNL     1     -10.676  15.559  68.573  1.00  0.00     0.000 HD 
HETATM   11  O   UNL     1     -10.353  14.709  68.850  1.00  0.00    -0.235 OA 
BRANCH   9  12
HETATM   12  C   UNL     1     -11.565  13.869  66.992  1.00  0.00    -0.394 A  
HETATM   13  C   UNL     1     -11.176  15.012  66.276  1.00  0.00    -0.309 A  
HETATM   14  C   UNL     1     -11.477  15.121  64.919  1.00  0.00    -0.374 A  
HETATM   15  O   UNL     1     -11.107  16.213  64.184  1.00  0.00    -1.113 OA 
HETATM   16  C   UNL     1     -12.159  14.104  64.263  1.00  0.00    -0.444 A  
HETATM   17  H   UNL     1     -11.311  16.288  63.259  1.00  0.00     0.000 HD 
HETATM   18  C   UNL     1     -12.570  12.976  64.951  1.00  0.00    -0.490 A  
HETATM   19  O   UNL     1     -12.433  14.215  62.929  1.00  0.00    -0.955 OA 
HETATM   20  H   UNL     1     -12.899  13.521  62.480  1.00  0.00     0.000 HD 
HETATM   21  C   UNL     1     -12.282  12.863  66.312  1.00  0.00    -0.340 A  
ENDBRANCH   9  12
ENDBRANCH   3   9
ENDBRANCH   2   3
TORSDOF 5
ENDMDL
MODEL       89
REMARK 921   NORMALIZED FREE ENERGY PREDICTED BY IDOCK:   -4.83 KCAL/MOL
REMARK 922        TOTAL FREE ENERGY PREDICTED BY IDOCK:   -6.91 KCAL/MOL
REMARK 923 INTER-LIGAND FREE ENERGY PREDICTED BY IDOCK:   -6.13 KCAL/MOL
REMARK 924 INTRA-LIGAND FREE ENERGY PREDICTED BY IDOCK:   -0.79 KCAL/MOL
REMARK 927      BINDING AFFINITY PREDICTED BY RF-SCORE:    0.00 PKD
ROOT
HETATM    1  C   UNL     1      -7.668  15.828  69.336  1.00  0.00    -0.213 C  
HETATM    2  C   UNL     1      -7.720  16.898  68.253  1.00  0.00    -0.205 C  
ENDROOT
BRANCH   2   3
HETATM    3  C   UNL     1      -8.882  17.914  68.391  1.00  0.00    -0.289 C  
BRANCH   3   4
HETATM    4  N   UNL     1      -8.471  19.306  68.662  1.00  0.00    -0.365 NA 
HETATM    5  H   UNL     1      -9.111  19.961  69.109  1.00  0.00     0.000 HD 
BRANCH   4   6
HETATM    6  C   UNL     1      -7.120  19.726  68.273  1.00  0.00    -0.300 C  
HETATM    7  C   UNL     1      -7.263  20.886  67.278  1.00  0.00    -0.408 C  
HETATM    8  C   UNL     1      -6.256  20.214  69.437  1.00  0.00    -0.369 C  
ENDBRANCH   4   6
ENDBRANCH   3   4
BRANCH   3   9
HETATM    9  C   UNL     1      -9.896  17.730  67.201  1.00  0.00    -0.311 C  
HETATM   10  H   UNL     1      -9.939  18.122  65.268  1.00  0.00     0.000 HD 
HETATM   11  O   UNL     1      -9.327  18.233  65.986  1.00  0.00    -0.505 OA 
BRANCH   9  12
HETATM   12  C   UNL     1     -10.379  16.318  66.912  1.00  0.00    -0.299 A  
HETATM   13  C   UNL     1     -10.000  15.602  65.765  1.00  0.00    -0.390 A  
HETATM   14  C   UNL     1     -10.486  14.311  65.558  1.00  0.00    -0.346 A  
HETATM   15  O   UNL     1     -10.133  13.576  64.461  1.00  0.00    -0.610 OA 
HETATM   16  C   UNL     1     -11.344  13.722  66.480  1.00  0.00    -0.325 A  
HETATM   17  H   UNL     1     -10.464  12.696  64.319  1.00  0.00     0.000 HD 
HETATM   18  C   UNL     1     -11.746  14.416  67.607  1.00  0.00    -0.421 A  
HETATM   19  O   UNL     1     -11.799  12.451  66.273  1.00  0.00    -0.473 OA 
HETATM   20  H   UNL     1     -12.385  12.048  66.903  1.00  0.00     0.000 HD 
HETATM   21  C   UNL     1     -11.273  15.712  67.818  1.00  0.00    -0.297 A  
ENDBRANCH   9  12
ENDBRANCH   3   9
ENDBRANCH   2   3
TORSDOF 5
ENDMDL
MODEL       90
REMARK 921   NORMALIZED FREE ENERGY PREDICTED BY IDOCK:   -4.82 KCAL/MOL
REMARK 922        TOTAL FREE ENERGY PREDICTED BY IDOCK:   -6.91 KCAL/MOL
REMARK 923 INTER-LIGAND FREE ENERGY PREDICTED BY IDOCK:   -6.09 KCAL/MOL
REMARK 924 INTRA-LIGAND FREE ENERGY PREDICTED BY IDOCK:   -0.82 KCAL/MOL
REMARK 927      BINDING AFFINITY PREDICTED BY RF-SCORE:    0.00 PKD
ROOT
HETATM    1  C   UNL     1     -10.467  19.394  67.925  1.00  0.00    -0.536 C  
HETATM    2  C   UNL     1     -10.363  18.964  66.467  1.00  0.00    -0.493 C  
ENDROOT
BRANCH   2   3
HETATM    3  C   UNL     1      -9.937  17.491  66.247  1.00  0.00    -0.308 C  
BRANCH   3   4
HETATM    4  N   UNL     1      -9.230  16.865  67.382  1.00  0.00    -0.221 NA 
HETATM    5  H   UNL     1      -9.740  16.561  68.211  1.00  0.00     0.000 HD 
BRANCH   4   6
HETATM    6  C   UNL     1      -7.776  16.690  67.291  1.00  0.00    -0.169 C  
HETATM    7  C   UNL     1      -7.491  15.182  67.274  1.00  0.00    -0.228 C  
HETATM    8  C   UNL     1      -7.150  17.298  66.035  1.00  0.00    -0.200 C  
ENDBRANCH   4   6
ENDBRANCH   3   4
BRANCH   3   9
HETATM    9  C   UNL     1     -11.147  16.666  65.668  1.00  0.00     0.117 C  
HETATM   10  H   UNL     1     -12.018  16.420  63.915  1.00  0.00     0.000 HD 
HETATM   11  O   UNL     1     -11.288  16.918  64.264  1.00  0.00    -1.202 OA 
BRANCH   9  12
HETATM   12  C   UNL     1     -11.106  15.157  65.844  1.00  0.00    -0.319 A  
HETATM   13  C   UNL     1     -10.383  14.308  64.990  1.00  0.00    -0.448 A  
HETATM   14  C   UNL     1     -10.394  12.931  65.206  1.00  0.00    -0.300 A  
HETATM   15  O   UNL     1      -9.696  12.070  64.404  1.00  0.00    -0.430 OA 
HETATM   16  C   UNL     1     -11.114  12.385  66.262  1.00  0.00    -0.303 A  
HETATM   17  H   UNL     1      -9.703  11.132  64.550  1.00  0.00     0.000 HD 
HETATM   18  C   UNL     1     -11.849  13.200  67.105  1.00  0.00    -0.424 A  
HETATM   19  O   UNL     1     -11.103  11.036  66.471  1.00  0.00    -0.226 OA 
HETATM   20  H   UNL     1     -11.594  10.663  67.193  1.00  0.00     0.000 HD 
HETATM   21  C   UNL     1     -11.853  14.580  66.891  1.00  0.00    -0.399 A  
ENDBRANCH   9  12
ENDBRANCH   3   9
ENDBRANCH   2   3
TORSDOF 5
ENDMDL
MODEL       91
REMARK 921   NORMALIZED FREE ENERGY PREDICTED BY IDOCK:   -4.82 KCAL/MOL
REMARK 922        TOTAL FREE ENERGY PREDICTED BY IDOCK:   -6.90 KCAL/MOL
REMARK 923 INTER-LIGAND FREE ENERGY PREDICTED BY IDOCK:   -6.06 KCAL/MOL
REMARK 924 INTRA-LIGAND FREE ENERGY PREDICTED BY IDOCK:   -0.84 KCAL/MOL
REMARK 927      BINDING AFFINITY PREDICTED BY RF-SCORE:    0.00 PKD
ROOT
HETATM    1  C   UNL     1      -7.451  10.963  69.348  1.00  0.00    -0.105 C  
HETATM    2  C   UNL     1      -8.432  11.246  68.218  1.00  0.00    -0.152 C  
ENDROOT
BRANCH   2   3
HETATM    3  C   UNL     1      -9.767  11.899  68.657  1.00  0.00    -0.108 C  
BRANCH   3   4
HETATM    4  N   UNL     1      -9.730  13.369  68.795  1.00  0.00    -0.418 NA 
HETATM    5  H   UNL     1     -10.491  13.869  69.256  1.00  0.00     0.000 HD 
BRANCH   4   6
HETATM    6  C   UNL     1      -8.576  14.095  68.255  1.00  0.00    -0.175 C  
HETATM    7  C   UNL     1      -9.059  14.890  67.033  1.00  0.00    -0.255 C  
HETATM    8  C   UNL     1      -7.943  15.084  69.235  1.00  0.00    -0.190 C  
ENDBRANCH   4   6
ENDBRANCH   3   4
BRANCH   3   9
HETATM    9  C   UNL     1     -10.951  11.333  67.787  1.00  0.00    -0.252 C  
HETATM   10  H   UNL     1     -12.863  10.924  68.046  1.00  0.00     0.000 HD 
HETATM   11  O   UNL     1     -12.149  11.267  68.571  1.00  0.00    -0.573 OA 
BRANCH   9  12
HETATM   12  C   UNL     1     -11.297  12.083  66.512  1.00  0.00    -0.413 A  
HETATM   13  C   UNL     1     -10.622  11.879  65.299  1.00  0.00    -0.320 A  
HETATM   14  C   UNL     1     -10.987  12.607  64.167  1.00  0.00    -0.387 A  
HETATM   15  O   UNL     1     -10.362  12.431  62.964  1.00  0.00    -0.497 OA 
HETATM   16  C   UNL     1     -12.020  13.536  64.226  1.00  0.00    -0.432 A  
HETATM   17  H   UNL     1     -10.610  12.927  62.192  1.00  0.00     0.000 HD 
HETATM   18  C   UNL     1     -12.688  13.768  65.416  1.00  0.00    -0.513 A  
HETATM   19  O   UNL     1     -12.379  14.230  63.107  1.00  0.00    -1.096 OA 
HETATM   20  H   UNL     1     -13.084  14.864  63.147  1.00  0.00     0.000 HD 
HETATM   21  C   UNL     1     -12.322  13.051  66.557  1.00  0.00    -0.175 A  
ENDBRANCH   9  12
ENDBRANCH   3   9
ENDBRANCH   2   3
TORSDOF 5
ENDMDL
MODEL       92
REMARK 921   NORMALIZED FREE ENERGY PREDICTED BY IDOCK:   -4.81 KCAL/MOL
REMARK 922        TOTAL FREE ENERGY PREDICTED BY IDOCK:   -6.89 KCAL/MOL
REMARK 923 INTER-LIGAND FREE ENERGY PREDICTED BY IDOCK:   -6.76 KCAL/MOL
REMARK 924 INTRA-LIGAND FREE ENERGY PREDICTED BY IDOCK:   -0.12 KCAL/MOL
REMARK 927      BINDING AFFINITY PREDICTED BY RF-SCORE:    0.00 PKD
ROOT
HETATM    1  C   UNL     1     -11.290   8.873  70.260  1.00  0.00    -0.179 C  
HETATM    2  C   UNL     1     -10.219   9.742  69.615  1.00  0.00    -0.254 C  
ENDROOT
BRANCH   2   3
HETATM    3  C   UNL     1     -10.752  10.853  68.676  1.00  0.00    -0.203 C  
BRANCH   3   4
HETATM    4  N   UNL     1     -10.693  12.223  69.226  1.00  0.00    -0.442 NA 
HETATM    5  H   UNL     1      -9.798  12.686  69.377  1.00  0.00     0.000 HD 
BRANCH   4   6
HETATM    6  C   UNL     1     -11.952  12.901  69.551  1.00  0.00    -0.285 C  
HETATM    7  C   UNL     1     -12.462  12.323  70.878  1.00  0.00    -0.371 C  
HETATM    8  C   UNL     1     -11.821  14.416  69.721  1.00  0.00    -0.375 C  
ENDBRANCH   4   6
ENDBRANCH   3   4
BRANCH   3   9
HETATM    9  C   UNL     1     -10.139  10.677  67.237  1.00  0.00    -0.199 C  
HETATM   10  H   UNL     1      -9.786   9.188  65.991  1.00  0.00     0.000 HD 
HETATM   11  O   UNL     1     -10.156   9.295  66.860  1.00  0.00    -0.216 OA 
BRANCH   9  12
HETATM   12  C   UNL     1     -10.792  11.452  66.104  1.00  0.00    -0.310 A  
HETATM   13  C   UNL     1     -11.782  12.425  66.316  1.00  0.00    -0.457 A  
HETATM   14  C   UNL     1     -12.344  13.094  65.229  1.00  0.00    -0.481 A  
HETATM   15  O   UNL     1     -13.303  14.055  65.393  1.00  0.00    -0.721 OA 
HETATM   16  C   UNL     1     -11.932  12.809  63.933  1.00  0.00    -0.480 A  
HETATM   17  H   UNL     1     -13.687  14.512  64.653  1.00  0.00     0.000 HD 
HETATM   18  C   UNL     1     -10.972  11.842  63.698  1.00  0.00    -0.513 A  
HETATM   19  O   UNL     1     -12.479  13.484  62.879  1.00  0.00    -0.891 OA 
HETATM   20  H   UNL     1     -12.198  13.290  61.993  1.00  0.00     0.000 HD 
HETATM   21  C   UNL     1     -10.410  11.158  64.779  1.00  0.00    -0.387 A  
ENDBRANCH   9  12
ENDBRANCH   3   9
ENDBRANCH   2   3
TORSDOF 5
ENDMDL
MODEL       93
REMARK 921   NORMALIZED FREE ENERGY PREDICTED BY IDOCK:   -4.79 KCAL/MOL
REMARK 922        TOTAL FREE ENERGY PREDICTED BY IDOCK:   -6.87 KCAL/MOL
REMARK 923 INTER-LIGAND FREE ENERGY PREDICTED BY IDOCK:   -6.20 KCAL/MOL
REMARK 924 INTRA-LIGAND FREE ENERGY PREDICTED BY IDOCK:   -0.67 KCAL/MOL
REMARK 927      BINDING AFFINITY PREDICTED BY RF-SCORE:    0.00 PKD
ROOT
HETATM    1  C   UNL     1      -7.573   9.133  67.913  1.00  0.00    -0.085 C  
HETATM    2  C   UNL     1      -8.687   9.604  68.840  1.00  0.00    -0.132 C  
ENDROOT
BRANCH   2   3
HETATM    3  C   UNL     1     -10.116   9.512  68.248  1.00  0.00    -0.183 C  
BRANCH   3   4
HETATM    4  N   UNL     1     -10.968   8.453  68.827  1.00  0.00    -0.428 NA 
HETATM    5  H   UNL     1     -11.816   8.690  69.342  1.00  0.00     0.000 HD 
BRANCH   4   6
HETATM    6  C   UNL     1     -10.567   7.054  68.644  1.00  0.00    -0.210 C  
HETATM    7  C   UNL     1     -11.263   6.227  69.734  1.00  0.00    -0.499 C  
HETATM    8  C   UNL     1     -10.959   6.463  67.289  1.00  0.00    -0.474 C  
ENDBRANCH   4   6
ENDBRANCH   3   4
BRANCH   3   9
HETATM    9  C   UNL     1     -10.765  10.945  68.192  1.00  0.00    -0.214 C  
HETATM   10  H   UNL     1     -10.295  12.766  68.788  1.00  0.00     0.000 HD 
HETATM   11  O   UNL     1      -9.903  11.901  68.822  1.00  0.00    -0.169 OA 
BRANCH   9  12
HETATM   12  C   UNL     1     -11.110  11.498  66.820  1.00  0.00    -0.361 A  
HETATM   13  C   UNL     1     -12.020  12.550  66.627  1.00  0.00    -0.351 A  
HETATM   14  C   UNL     1     -12.296  13.005  65.338  1.00  0.00    -0.486 A  
HETATM   15  O   UNL     1     -13.168  14.033  65.108  1.00  0.00    -0.768 OA 
HETATM   16  C   UNL     1     -11.676  12.427  64.236  1.00  0.00    -0.380 A  
HETATM   17  H   UNL     1     -13.356  14.343  64.230  1.00  0.00     0.000 HD 
HETATM   18  C   UNL     1     -10.790  11.377  64.400  1.00  0.00    -0.397 A  
HETATM   19  O   UNL     1     -11.943  12.893  62.981  1.00  0.00    -0.790 OA 
HETATM   20  H   UNL     1     -11.519  12.499  62.228  1.00  0.00     0.000 HD 
HETATM   21  C   UNL     1     -10.515  10.908  65.686  1.00  0.00    -0.274 A  
ENDBRANCH   9  12
ENDBRANCH   3   9
ENDBRANCH   2   3
TORSDOF 5
ENDMDL
MODEL       94
REMARK 921   NORMALIZED FREE ENERGY PREDICTED BY IDOCK:   -4.78 KCAL/MOL
REMARK 922        TOTAL FREE ENERGY PREDICTED BY IDOCK:   -6.85 KCAL/MOL
REMARK 923 INTER-LIGAND FREE ENERGY PREDICTED BY IDOCK:   -6.20 KCAL/MOL
REMARK 924 INTRA-LIGAND FREE ENERGY PREDICTED BY IDOCK:   -0.65 KCAL/MOL
REMARK 927      BINDING AFFINITY PREDICTED BY RF-SCORE:    0.00 PKD
ROOT
HETATM    1  C   UNL     1     -10.067  17.180  66.444  1.00  0.00    -0.326 C  
HETATM    2  C   UNL     1      -9.328  15.850  66.365  1.00  0.00    -0.329 C  
ENDROOT
BRANCH   2   3
HETATM    3  C   UNL     1     -10.237  14.597  66.300  1.00  0.00    -0.292 C  
BRANCH   3   4
HETATM    4  N   UNL     1     -10.278  13.918  64.989  1.00  0.00    -0.518 NA 
HETATM    5  H   UNL     1      -9.418  13.617  64.531  1.00  0.00     0.000 HD 
BRANCH   4   6
HETATM    6  C   UNL     1     -11.582  13.686  64.362  1.00  0.00    -0.393 C  
HETATM    7  C   UNL     1     -11.551  12.287  63.731  1.00  0.00    -0.555 C  
HETATM    8  C   UNL     1     -12.762  13.733  65.334  1.00  0.00    -0.513 C  
ENDBRANCH   4   6
ENDBRANCH   3   4
BRANCH   3   9
HETATM    9  C   UNL     1      -9.950  13.664  67.535  1.00  0.00    -0.230 C  
HETATM   10  H   UNL     1      -8.420  13.261  68.715  1.00  0.00     0.000 HD 
HETATM   11  O   UNL     1      -8.594  13.825  67.969  1.00  0.00    -0.157 OA 
BRANCH   9  12
HETATM   12  C   UNL     1     -10.830  13.842  68.761  1.00  0.00    -0.282 A  
HETATM   13  C   UNL     1     -10.993  15.076  69.411  1.00  0.00    -0.275 A  
HETATM   14  C   UNL     1     -11.813  15.168  70.535  1.00  0.00    -0.318 A  
HETATM   15  O   UNL     1     -12.006  16.353  71.191  1.00  0.00    -0.602 OA 
HETATM   16  C   UNL     1     -12.475  14.047  71.022  1.00  0.00    -0.371 A  
HETATM   17  H   UNL     1     -12.564  16.416  71.957  1.00  0.00     0.000 HD 
HETATM   18  C   UNL     1     -12.315  12.817  70.409  1.00  0.00    -0.324 A  
HETATM   19  O   UNL     1     -13.287  14.155  72.114  1.00  0.00    -0.363 OA 
HETATM   20  H   UNL     1     -13.740  13.389  72.447  1.00  0.00     0.000 HD 
HETATM   21  C   UNL     1     -11.489  12.712  69.289  1.00  0.00    -0.354 A  
ENDBRANCH   9  12
ENDBRANCH   3   9
ENDBRANCH   2   3
TORSDOF 5
ENDMDL
MODEL       95
REMARK 921   NORMALIZED FREE ENERGY PREDICTED BY IDOCK:   -4.78 KCAL/MOL
REMARK 922        TOTAL FREE ENERGY PREDICTED BY IDOCK:   -6.85 KCAL/MOL
REMARK 923 INTER-LIGAND FREE ENERGY PREDICTED BY IDOCK:   -6.20 KCAL/MOL
REMARK 924 INTRA-LIGAND FREE ENERGY PREDICTED BY IDOCK:   -0.65 KCAL/MOL
REMARK 927      BINDING AFFINITY PREDICTED BY RF-SCORE:    0.00 PKD
ROOT
HETATM    1  C   UNL     1      -7.493  14.630  67.502  1.00  0.00    -0.217 C  
HETATM    2  C   UNL     1      -8.945  14.922  67.147  1.00  0.00    -0.230 C  
ENDROOT
BRANCH   2   3
HETATM    3  C   UNL     1      -9.611  16.043  67.984  1.00  0.00    -0.215 C  
BRANCH   3   4
HETATM    4  N   UNL     1      -9.246  17.420  67.593  1.00  0.00    -0.232 NA 
HETATM    5  H   UNL     1      -8.417  17.599  67.028  1.00  0.00     0.000 HD 
BRANCH   4   6
HETATM    6  C   UNL     1     -10.102  18.525  68.038  1.00  0.00    -0.371 C  
HETATM    7  C   UNL     1      -9.283  19.384  69.012  1.00  0.00    -0.323 C  
HETATM    8  C   UNL     1     -10.587  19.435  66.908  1.00  0.00    -0.581 C  
ENDBRANCH   4   6
ENDBRANCH   3   4
BRANCH   3   9
HETATM    9  C   UNL     1     -11.156  15.767  68.114  1.00  0.00    -0.341 C  
HETATM   10  H   UNL     1     -12.480  14.560  67.288  1.00  0.00     0.000 HD 
HETATM   11  O   UNL     1     -11.548  14.727  67.210  1.00  0.00    -0.370 OA 
BRANCH   9  12
HETATM   12  C   UNL     1     -11.678  15.379  69.487  1.00  0.00    -0.364 A  
HETATM   13  C   UNL     1     -11.484  16.171  70.630  1.00  0.00    -0.386 A  
HETATM   14  C   UNL     1     -11.986  15.751  71.862  1.00  0.00    -0.466 A  
HETATM   15  O   UNL     1     -11.827  16.498  72.997  1.00  0.00    -0.507 OA 
HETATM   16  C   UNL     1     -12.681  14.553  71.971  1.00  0.00    -0.338 A  
HETATM   17  H   UNL     1     -12.169  16.213  73.836  1.00  0.00     0.000 HD 
HETATM   18  C   UNL     1     -12.868  13.746  70.863  1.00  0.00    -0.341 A  
HETATM   19  O   UNL     1     -13.181  14.162  73.180  1.00  0.00    -0.613 OA 
HETATM   20  H   UNL     1     -13.656  13.343  73.256  1.00  0.00     0.000 HD 
HETATM   21  C   UNL     1     -12.361  14.153  69.627  1.00  0.00    -0.304 A  
ENDBRANCH   9  12
ENDBRANCH   3   9
ENDBRANCH   2   3
TORSDOF 5
ENDMDL
MODEL       96
REMARK 921   NORMALIZED FREE ENERGY PREDICTED BY IDOCK:   -4.74 KCAL/MOL
REMARK 922        TOTAL FREE ENERGY PREDICTED BY IDOCK:   -6.80 KCAL/MOL
REMARK 923 INTER-LIGAND FREE ENERGY PREDICTED BY IDOCK:   -6.03 KCAL/MOL
REMARK 924 INTRA-LIGAND FREE ENERGY PREDICTED BY IDOCK:   -0.77 KCAL/MOL
REMARK 927      BINDING AFFINITY PREDICTED BY RF-SCORE:    0.00 PKD
ROOT
HETATM    1  C   UNL     1      -9.916  19.606  68.965  1.00  0.00    -0.482 C  
HETATM    2  C   UNL     1     -10.522  18.977  67.717  1.00  0.00    -0.499 C  
ENDROOT
BRANCH   2   3
HETATM    3  C   UNL     1     -10.343  17.442  67.603  1.00  0.00    -0.355 C  
BRANCH   3   4
HETATM    4  N   UNL     1     -11.353  16.637  68.320  1.00  0.00    -0.231 NA 
HETATM    5  H   UNL     1     -12.288  16.509  67.933  1.00  0.00     0.000 HD 
BRANCH   4   6
HETATM    6  C   UNL     1     -10.981  16.025  69.600  1.00  0.00    -0.326 C  
HETATM    7  C   UNL     1     -11.815  14.746  69.762  1.00  0.00    -0.362 C  
HETATM    8  C   UNL     1      -9.506  15.636  69.703  1.00  0.00    -0.243 C  
ENDBRANCH   4   6
ENDBRANCH   3   4
BRANCH   3   9
HETATM    9  C   UNL     1     -10.104  17.041  66.100  1.00  0.00    -0.319 C  
HETATM   10  H   UNL     1      -8.582  16.993  64.844  1.00  0.00     0.000 HD 
HETATM   11  O   UNL     1      -8.727  17.234  65.752  1.00  0.00    -0.531 OA 
BRANCH   9  12
HETATM   12  C   UNL     1     -10.467  15.623  65.693  1.00  0.00    -0.402 A  
HETATM   13  C   UNL     1      -9.768  14.494  66.150  1.00  0.00    -0.340 A  
HETATM   14  C   UNL     1     -10.152  13.221  65.731  1.00  0.00    -0.286 A  
HETATM   15  O   UNL     1      -9.504  12.096  66.160  1.00  0.00    -0.234 OA 
HETATM   16  C   UNL     1     -11.225  13.055  64.863  1.00  0.00    -0.302 A  
HETATM   17  H   UNL     1      -9.765  11.227  65.875  1.00  0.00     0.000 HD 
HETATM   18  C   UNL     1     -11.917  14.153  64.385  1.00  0.00    -0.478 A  
HETATM   19  O   UNL     1     -11.600  11.801  64.474  1.00  0.00    -0.301 OA 
HETATM   20  H   UNL     1     -12.333  11.687  63.882  1.00  0.00     0.000 HD 
HETATM   21  C   UNL     1     -11.534  15.433  64.790  1.00  0.00    -0.337 A  
ENDBRANCH   9  12
ENDBRANCH   3   9
ENDBRANCH   2   3
TORSDOF 5
ENDMDL
MODEL       97
REMARK 921   NORMALIZED FREE ENERGY PREDICTED BY IDOCK:   -4.73 KCAL/MOL
REMARK 922        TOTAL FREE ENERGY PREDICTED BY IDOCK:   -6.79 KCAL/MOL
REMARK 923 INTER-LIGAND FREE ENERGY PREDICTED BY IDOCK:   -6.28 KCAL/MOL
REMARK 924 INTRA-LIGAND FREE ENERGY PREDICTED BY IDOCK:   -0.51 KCAL/MOL
REMARK 927      BINDING AFFINITY PREDICTED BY RF-SCORE:    0.00 PKD
ROOT
HETATM    1  C   UNL     1      -8.614  14.879  69.357  1.00  0.00    -0.054 C  
HETATM    2  C   UNL     1      -8.369  16.242  68.721  1.00  0.00    -0.235 C  
ENDROOT
BRANCH   2   3
HETATM    3  C   UNL     1      -9.592  16.859  67.999  1.00  0.00    -0.247 C  
BRANCH   3   4
HETATM    4  N   UNL     1      -9.811  18.298  68.253  1.00  0.00    -0.330 NA 
HETATM    5  H   UNL     1     -10.489  18.608  68.948  1.00  0.00     0.000 HD 
BRANCH   4   6
HETATM    6  C   UNL     1      -9.031  19.271  67.481  1.00  0.00    -0.298 C  
HETATM    7  C   UNL     1      -9.982  20.403  67.066  1.00  0.00    -0.568 C  
HETATM    8  C   UNL     1      -7.870  19.898  68.254  1.00  0.00    -0.299 C  
ENDBRANCH   4   6
ENDBRANCH   3   4
BRANCH   3   9
HETATM    9  C   UNL     1      -9.590  16.434  66.484  1.00  0.00    -0.270 C  
HETATM   10  H   UNL     1      -8.292  15.695  65.195  1.00  0.00     0.000 HD 
HETATM   11  O   UNL     1      -8.294  15.952  66.110  1.00  0.00    -0.282 OA 
BRANCH   9  12
HETATM   12  C   UNL     1     -10.595  15.377  66.057  1.00  0.00    -0.330 A  
HETATM   13  C   UNL     1     -10.884  14.242  66.832  1.00  0.00    -0.298 A  
HETATM   14  C   UNL     1     -11.813  13.307  66.377  1.00  0.00    -0.396 A  
HETATM   15  O   UNL     1     -12.131  12.194  67.105  1.00  0.00    -0.575 OA 
HETATM   16  C   UNL     1     -12.462  13.488  65.161  1.00  0.00    -0.451 A  
HETATM   17  H   UNL     1     -12.764  11.556  66.796  1.00  0.00     0.000 HD 
HETATM   18  C   UNL     1     -12.180  14.589  64.372  1.00  0.00    -0.480 A  
HETATM   19  O   UNL     1     -13.382  12.573  64.736  1.00  0.00    -0.773 OA 
HETATM   20  H   UNL     1     -13.826  12.696  63.905  1.00  0.00     0.000 HD 
HETATM   21  C   UNL     1     -11.243  15.525  64.814  1.00  0.00    -0.399 A  
ENDBRANCH   9  12
ENDBRANCH   3   9
ENDBRANCH   2   3
TORSDOF 5
ENDMDL
MODEL       98
REMARK 921   NORMALIZED FREE ENERGY PREDICTED BY IDOCK:   -4.73 KCAL/MOL
REMARK 922        TOTAL FREE ENERGY PREDICTED BY IDOCK:   -6.78 KCAL/MOL
REMARK 923 INTER-LIGAND FREE ENERGY PREDICTED BY IDOCK:   -6.33 KCAL/MOL
REMARK 924 INTRA-LIGAND FREE ENERGY PREDICTED BY IDOCK:   -0.45 KCAL/MOL
REMARK 927      BINDING AFFINITY PREDICTED BY RF-SCORE:    0.00 PKD
ROOT
HETATM    1  C   UNL     1      -8.829   8.803  65.649  1.00  0.00    -0.239 C  
HETATM    2  C   UNL     1      -9.988   9.619  66.207  1.00  0.00    -0.335 C  
ENDROOT
BRANCH   2   3
HETATM    3  C   UNL     1      -9.647  11.090  66.554  1.00  0.00    -0.195 C  
BRANCH   3   4
HETATM    4  N   UNL     1      -8.394  11.601  65.961  1.00  0.00    -0.384 NA 
HETATM    5  H   UNL     1      -8.277  11.647  64.950  1.00  0.00     0.000 HD 
BRANCH   4   6
HETATM    6  C   UNL     1      -7.323  12.041  66.861  1.00  0.00    -0.042 C  
HETATM    7  C   UNL     1      -7.754  11.704  68.295  1.00  0.00    -0.128 C  
HETATM    8  C   UNL     1      -5.975  11.364  66.608  1.00  0.00    -0.147 C  
ENDBRANCH   4   6
ENDBRANCH   3   4
BRANCH   3   9
HETATM    9  C   UNL     1     -10.915  11.998  66.339  1.00  0.00    -0.296 C  
HETATM   10  H   UNL     1     -12.597  12.377  67.296  1.00  0.00     0.000 HD 
HETATM   11  O   UNL     1     -11.832  11.829  67.426  1.00  0.00    -0.590 OA 
BRANCH   9  12
HETATM   12  C   UNL     1     -10.681  13.492  66.186  1.00  0.00    -0.289 A  
HETATM   13  C   UNL     1     -11.134  14.226  65.078  1.00  0.00    -0.377 A  
HETATM   14  C   UNL     1     -10.879  15.594  64.998  1.00  0.00    -0.450 A  
HETATM   15  O   UNL     1     -11.311  16.347  63.941  1.00  0.00    -1.510 OA 
HETATM   16  C   UNL     1     -10.181  16.244  66.009  1.00  0.00    -0.358 A  
HETATM   17  H   UNL     1     -11.138  17.280  63.886  1.00  0.00     0.000 HD 
HETATM   18  C   UNL     1      -9.709  15.539  67.101  1.00  0.00    -0.226 A  
HETATM   19  O   UNL     1      -9.953  17.588  65.926  1.00  0.00    -0.511 OA 
HETATM   20  H   UNL     1      -9.476  18.033  66.616  1.00  0.00     0.000 HD 
HETATM   21  C   UNL     1      -9.949  14.166  67.185  1.00  0.00    -0.255 A  
ENDBRANCH   9  12
ENDBRANCH   3   9
ENDBRANCH   2   3
TORSDOF 5
ENDMDL
MODEL       99
REMARK 921   NORMALIZED FREE ENERGY PREDICTED BY IDOCK:   -4.72 KCAL/MOL
REMARK 922        TOTAL FREE ENERGY PREDICTED BY IDOCK:   -6.77 KCAL/MOL
REMARK 923 INTER-LIGAND FREE ENERGY PREDICTED BY IDOCK:   -6.03 KCAL/MOL
REMARK 924 INTRA-LIGAND FREE ENERGY PREDICTED BY IDOCK:   -0.74 KCAL/MOL
REMARK 927      BINDING AFFINITY PREDICTED BY RF-SCORE:    0.00 PKD
ROOT
HETATM    1  C   UNL     1      -7.554  14.447  68.387  1.00  0.00    -0.122 C  
HETATM    2  C   UNL     1      -8.972  13.905  68.266  1.00  0.00    -0.187 C  
ENDROOT
BRANCH   2   3
HETATM    3  C   UNL     1     -10.078  14.983  68.143  1.00  0.00    -0.220 C  
BRANCH   3   4
HETATM    4  N   UNL     1     -10.096  15.721  66.864  1.00  0.00    -0.259 NA 
HETATM    5  H   UNL     1     -10.406  15.268  66.005  1.00  0.00     0.000 HD 
BRANCH   4   6
HETATM    6  C   UNL     1      -9.659  17.121  66.858  1.00  0.00    -0.262 C  
HETATM    7  C   UNL     1      -9.424  17.540  68.316  1.00  0.00    -0.296 C  
HETATM    8  C   UNL     1      -8.360  17.368  66.088  1.00  0.00    -0.217 C  
ENDBRANCH   4   6
ENDBRANCH   3   4
BRANCH   3   9
HETATM    9  C   UNL     1     -11.462  14.384  68.596  1.00  0.00    -0.287 C  
HETATM   10  H   UNL     1     -12.263  12.592  68.794  1.00  0.00     0.000 HD 
HETATM   11  O   UNL     1     -11.427  12.953  68.521  1.00  0.00    -0.265 OA 
BRANCH   9  12
HETATM   12  C   UNL     1     -11.951  14.741  69.990  1.00  0.00    -0.369 A  
HETATM   13  C   UNL     1     -12.896  13.973  70.688  1.00  0.00    -0.320 A  
HETATM   14  C   UNL     1     -13.306  14.362  71.962  1.00  0.00    -0.384 A  
HETATM   15  O   UNL     1     -14.216  13.636  72.680  1.00  0.00    -0.735 OA 
HETATM   16  C   UNL     1     -12.786  15.507  72.554  1.00  0.00    -0.420 A  
HETATM   17  H   UNL     1     -14.496  13.901  73.548  1.00  0.00     0.000 HD 
HETATM   18  C   UNL     1     -11.868  16.291  71.878  1.00  0.00    -0.538 A  
HETATM   19  O   UNL     1     -13.184  15.868  73.809  1.00  0.00    -0.725 OA 
HETATM   20  H   UNL     1     -12.829  16.650  74.214  1.00  0.00     0.000 HD 
HETATM   21  C   UNL     1     -11.459  15.915  70.597  1.00  0.00    -0.426 A  
ENDBRANCH   9  12
ENDBRANCH   3   9
ENDBRANCH   2   3
TORSDOF 5
ENDMDL
MODEL      100
REMARK 921   NORMALIZED FREE ENERGY PREDICTED BY IDOCK:   -4.71 KCAL/MOL
REMARK 922        TOTAL FREE ENERGY PREDICTED BY IDOCK:   -6.76 KCAL/MOL
REMARK 923 INTER-LIGAND FREE ENERGY PREDICTED BY IDOCK:   -6.00 KCAL/MOL
REMARK 924 INTRA-LIGAND FREE ENERGY PREDICTED BY IDOCK:   -0.76 KCAL/MOL
REMARK 927      BINDING AFFINITY PREDICTED BY RF-SCORE:    0.00 PKD
ROOT
HETATM    1  C   UNL     1      -7.428  14.364  67.584  1.00  0.00    -0.191 C  
HETATM    2  C   UNL     1      -8.698  14.826  66.882  1.00  0.00    -0.264 C  
ENDROOT
BRANCH   2   3
HETATM    3  C   UNL     1      -9.979  14.789  67.752  1.00  0.00    -0.223 C  
BRANCH   3   4
HETATM    4  N   UNL     1     -10.899  15.929  67.565  1.00  0.00    -0.318 NA 
HETATM    5  H   UNL     1     -11.529  15.965  66.764  1.00  0.00     0.000 HD 
BRANCH   4   6
HETATM    6  C   UNL     1     -10.886  17.009  68.557  1.00  0.00    -0.310 C  
HETATM    7  C   UNL     1     -10.855  16.360  69.948  1.00  0.00    -0.333 C  
HETATM    8  C   UNL     1      -9.678  17.942  68.451  1.00  0.00    -0.340 C  
ENDBRANCH   4   6
ENDBRANCH   3   4
BRANCH   3   9
HETATM    9  C   UNL     1     -10.644  13.364  67.664  1.00  0.00    -0.243 C  
HETATM   10  H   UNL     1     -12.383  12.553  68.124  1.00  0.00     0.000 HD 
HETATM   11  O   UNL     1     -11.981  13.413  68.177  1.00  0.00    -0.349 OA 
BRANCH   9  12
HETATM   12  C   UNL     1     -10.721  12.717  66.291  1.00  0.00    -0.280 A  
HETATM   13  C   UNL     1     -11.450  13.269  65.226  1.00  0.00    -0.319 A  
HETATM   14  C   UNL     1     -11.483  12.619  63.993  1.00  0.00    -0.411 A  
HETATM   15  O   UNL     1     -12.173  13.128  62.928  1.00  0.00    -0.752 OA 
HETATM   16  C   UNL     1     -10.797  11.424  63.805  1.00  0.00    -0.395 A  
HETATM   17  H   UNL     1     -12.195  12.685  62.088  1.00  0.00     0.000 HD 
HETATM   18  C   UNL     1     -10.087  10.851  64.845  1.00  0.00    -0.374 A  
HETATM   19  O   UNL     1     -10.824  10.806  62.588  1.00  0.00    -0.629 OA 
HETATM   20  H   UNL     1     -10.355   9.991  62.459  1.00  0.00     0.000 HD 
HETATM   21  C   UNL     1     -10.056  11.490  66.086  1.00  0.00    -0.266 A  
ENDBRANCH   9  12
ENDBRANCH   3   9
ENDBRANCH   2   3
TORSDOF 5
ENDMDL
MODEL      101
REMARK 921   NORMALIZED FREE ENERGY PREDICTED BY IDOCK:   -4.69 KCAL/MOL
REMARK 922        TOTAL FREE ENERGY PREDICTED BY IDOCK:   -6.74 KCAL/MOL
REMARK 923 INTER-LIGAND FREE ENERGY PREDICTED BY IDOCK:   -5.99 KCAL/MOL
REMARK 924 INTRA-LIGAND FREE ENERGY PREDICTED BY IDOCK:   -0.75 KCAL/MOL
REMARK 927      BINDING AFFINITY PREDICTED BY RF-SCORE:    0.00 PKD
ROOT
HETATM    1  C   UNL     1     -10.269  18.283  66.117  1.00  0.00    -0.393 C  
HETATM    2  C   UNL     1     -10.495  16.953  66.823  1.00  0.00    -0.260 C  
ENDROOT
BRANCH   2   3
HETATM    3  C   UNL     1     -10.336  15.699  65.927  1.00  0.00    -0.350 C  
BRANCH   3   4
HETATM    4  N   UNL     1      -9.039  15.001  66.048  1.00  0.00    -0.486 NA 
HETATM    5  H   UNL     1      -8.713  14.376  65.311  1.00  0.00     0.000 HD 
BRANCH   4   6
HETATM    6  C   UNL     1      -8.232  15.227  67.251  1.00  0.00    -0.204 C  
HETATM    7  C   UNL     1      -7.789  13.854  67.776  1.00  0.00    -0.172 C  
HETATM    8  C   UNL     1      -6.974  16.063  67.013  1.00  0.00    -0.209 C  
ENDBRANCH   4   6
ENDBRANCH   3   4
BRANCH   3   9
HETATM    9  C   UNL     1     -11.609  14.783  66.058  1.00  0.00    -0.286 C  
HETATM   10  H   UNL     1     -12.549  13.451  64.947  1.00  0.00     0.000 HD 
HETATM   11  O   UNL     1     -11.780  14.004  64.868  1.00  0.00    -0.346 OA 
BRANCH   9  12
HETATM   12  C   UNL     1     -11.652  13.815  67.229  1.00  0.00    -0.391 A  
HETATM   13  C   UNL     1     -11.679  12.421  67.067  1.00  0.00    -0.423 A  
HETATM   14  C   UNL     1     -11.724  11.590  68.186  1.00  0.00    -0.287 A  
HETATM   15  O   UNL     1     -11.741  10.227  68.072  1.00  0.00    -0.712 OA 
HETATM   16  C   UNL     1     -11.740  12.129  69.467  1.00  0.00    -0.336 A  
HETATM   17  H   UNL     1     -11.772   9.661  68.834  1.00  0.00     0.000 HD 
HETATM   18  C   UNL     1     -11.733  13.500  69.652  1.00  0.00    -0.378 A  
HETATM   19  O   UNL     1     -11.767  11.304  70.555  1.00  0.00    -0.385 OA 
HETATM   20  H   UNL     1     -11.778  11.672  71.430  1.00  0.00     0.000 HD 
HETATM   21  C   UNL     1     -11.698  14.341  68.537  1.00  0.00    -0.376 A  
ENDBRANCH   9  12
ENDBRANCH   3   9
ENDBRANCH   2   3
TORSDOF 5
ENDMDL
MODEL      102
REMARK 921   NORMALIZED FREE ENERGY PREDICTED BY IDOCK:   -4.69 KCAL/MOL
REMARK 922        TOTAL FREE ENERGY PREDICTED BY IDOCK:   -6.74 KCAL/MOL
REMARK 923 INTER-LIGAND FREE ENERGY PREDICTED BY IDOCK:   -6.20 KCAL/MOL
REMARK 924 INTRA-LIGAND FREE ENERGY PREDICTED BY IDOCK:   -0.54 KCAL/MOL
REMARK 927      BINDING AFFINITY PREDICTED BY RF-SCORE:    0.00 PKD
ROOT
HETATM    1  C   UNL     1     -10.019  10.256  65.367  1.00  0.00    -0.371 C  
HETATM    2  C   UNL     1     -10.107   9.908  66.848  1.00  0.00    -0.285 C  
ENDROOT
BRANCH   2   3
HETATM    3  C   UNL     1      -9.687  11.043  67.814  1.00  0.00    -0.170 C  
BRANCH   3   4
HETATM    4  N   UNL     1      -8.966  12.169  67.186  1.00  0.00    -0.182 NA 
HETATM    5  H   UNL     1      -8.068  12.022  66.727  1.00  0.00     0.000 HD 
BRANCH   4   6
HETATM    6  C   UNL     1      -9.571  13.504  67.237  1.00  0.00    -0.235 C  
HETATM    7  C   UNL     1      -8.472  14.497  67.640  1.00  0.00    -0.189 C  
HETATM    8  C   UNL     1     -10.161  13.976  65.907  1.00  0.00    -0.336 C  
ENDBRANCH   4   6
ENDBRANCH   3   4
BRANCH   3   9
HETATM    9  C   UNL     1     -10.904  11.448  68.727  1.00  0.00    -0.208 C  
HETATM   10  H   UNL     1     -12.836  11.774  68.493  1.00  0.00     0.000 HD 
HETATM   11  O   UNL     1     -12.101  11.530  67.943  1.00  0.00    -0.630 OA 
BRANCH   9  12
HETATM   12  C   UNL     1     -11.214  10.548  69.911  1.00  0.00    -0.374 A  
HETATM   13  C   UNL     1     -12.408  10.634  70.645  1.00  0.00    -0.462 A  
HETATM   14  C   UNL     1     -12.624   9.781  71.726  1.00  0.00    -0.416 A  
HETATM   15  O   UNL     1     -13.778   9.825  72.460  1.00  0.00    -0.665 OA 
HETATM   16  C   UNL     1     -11.668   8.839  72.087  1.00  0.00    -0.363 A  
HETATM   17  H   UNL     1     -13.926   9.244  73.197  1.00  0.00     0.000 HD 
HETATM   18  C   UNL     1     -10.475   8.748  71.391  1.00  0.00    -0.354 A  
HETATM   19  O   UNL     1     -11.900   7.998  73.138  1.00  0.00    -0.625 OA 
HETATM   20  H   UNL     1     -11.247   7.354  73.384  1.00  0.00     0.000 HD 
HETATM   21  C   UNL     1     -10.245   9.605  70.313  1.00  0.00    -0.333 A  
ENDBRANCH   9  12
ENDBRANCH   3   9
ENDBRANCH   2   3
TORSDOF 5
ENDMDL
MODEL      103
REMARK 921   NORMALIZED FREE ENERGY PREDICTED BY IDOCK:   -4.68 KCAL/MOL
REMARK 922        TOTAL FREE ENERGY PREDICTED BY IDOCK:   -6.72 KCAL/MOL
REMARK 923 INTER-LIGAND FREE ENERGY PREDICTED BY IDOCK:   -5.86 KCAL/MOL
REMARK 924 INTRA-LIGAND FREE ENERGY PREDICTED BY IDOCK:   -0.86 KCAL/MOL
REMARK 927      BINDING AFFINITY PREDICTED BY RF-SCORE:    0.00 PKD
ROOT
HETATM    1  C   UNL     1     -12.065  13.543  69.947  1.00  0.00    -0.408 C  
HETATM    2  C   UNL     1     -11.857  12.730  68.676  1.00  0.00    -0.341 C  
ENDROOT
BRANCH   2   3
HETATM    3  C   UNL     1     -11.589  13.566  67.399  1.00  0.00    -0.356 C  
BRANCH   3   4
HETATM    4  N   UNL     1     -10.190  14.007  67.219  1.00  0.00    -0.258 NA 
HETATM    5  H   UNL     1      -9.434  13.327  67.148  1.00  0.00     0.000 HD 
BRANCH   4   6
HETATM    6  C   UNL     1      -9.914  15.446  67.146  1.00  0.00    -0.234 C  
HETATM    7  C   UNL     1      -9.927  15.845  65.663  1.00  0.00    -0.368 C  
HETATM    8  C   UNL     1     -10.939  16.318  67.872  1.00  0.00    -0.310 C  
ENDBRANCH   4   6
ENDBRANCH   3   4
BRANCH   3   9
HETATM    9  C   UNL     1     -12.239  12.861  66.151  1.00  0.00    -0.317 C  
HETATM   10  H   UNL     1     -13.263  13.407  64.556  1.00  0.00     0.000 HD 
HETATM   11  O   UNL     1     -12.870  13.833  65.309  1.00  0.00    -0.681 OA 
BRANCH   9  12
HETATM   12  C   UNL     1     -11.322  12.036  65.263  1.00  0.00    -0.366 A  
HETATM   13  C   UNL     1     -10.726  10.837  65.685  1.00  0.00    -0.142 A  
HETATM   14  C   UNL     1      -9.889  10.133  64.820  1.00  0.00    -0.312 A  
HETATM   15  O   UNL     1      -9.298   8.956  65.188  1.00  0.00    -0.435 OA 
HETATM   16  C   UNL     1      -9.638  10.607  63.537  1.00  0.00    -0.323 A  
HETATM   17  H   UNL     1      -8.727   8.476  64.599  1.00  0.00     0.000 HD 
HETATM   18  C   UNL     1     -10.198  11.796  63.106  1.00  0.00    -0.376 A  
HETATM   19  O   UNL     1      -8.829   9.899  62.695  1.00  0.00    -0.193 OA 
HETATM   20  H   UNL     1      -8.657  10.222  61.818  1.00  0.00     0.000 HD 
HETATM   21  C   UNL     1     -11.030  12.513  63.968  1.00  0.00    -0.443 A  
ENDBRANCH   9  12
ENDBRANCH   3   9
ENDBRANCH   2   3
TORSDOF 5
ENDMDL
MODEL      104
REMARK 921   NORMALIZED FREE ENERGY PREDICTED BY IDOCK:   -4.67 KCAL/MOL
REMARK 922        TOTAL FREE ENERGY PREDICTED BY IDOCK:   -6.71 KCAL/MOL
REMARK 923 INTER-LIGAND FREE ENERGY PREDICTED BY IDOCK:   -5.86 KCAL/MOL
REMARK 924 INTRA-LIGAND FREE ENERGY PREDICTED BY IDOCK:   -0.85 KCAL/MOL
REMARK 927      BINDING AFFINITY PREDICTED BY RF-SCORE:    0.00 PKD
ROOT
HETATM    1  C   UNL     1     -11.213  10.809  69.682  1.00  0.00    -0.355 C  
HETATM    2  C   UNL     1     -11.803  12.162  70.059  1.00  0.00    -0.383 C  
ENDROOT
BRANCH   2   3
HETATM    3  C   UNL     1     -12.221  13.052  68.862  1.00  0.00    -0.035 C  
BRANCH   3   4
HETATM    4  N   UNL     1     -12.466  14.471  69.190  1.00  0.00    -0.575 NA 
HETATM    5  H   UNL     1     -12.925  15.089  68.521  1.00  0.00     0.000 HD 
BRANCH   4   6
HETATM    6  C   UNL     1     -12.035  14.972  70.499  1.00  0.00    -0.308 C  
HETATM    7  C   UNL     1     -11.181  16.225  70.258  1.00  0.00    -0.343 C  
HETATM    8  C   UNL     1     -13.184  15.363  71.430  1.00  0.00    -0.578 C  
ENDBRANCH   4   6
ENDBRANCH   3   4
BRANCH   3   9
HETATM    9  C   UNL     1     -11.257  12.798  67.644  1.00  0.00    -0.280 C  
HETATM   10  H   UNL     1     -11.422  12.173  65.780  1.00  0.00     0.000 HD 
HETATM   11  O   UNL     1     -12.004  12.326  66.516  1.00  0.00    -0.596 OA 
BRANCH   9  12
HETATM   12  C   UNL     1     -10.423  13.973  67.162  1.00  0.00    -0.270 A  
HETATM   13  C   UNL     1      -9.163  14.286  67.697  1.00  0.00    -0.194 A  
HETATM   14  C   UNL     1      -8.453  15.384  67.212  1.00  0.00    -0.192 A  
HETATM   15  O   UNL     1      -7.219  15.716  67.699  1.00  0.00    -0.140 OA 
HETATM   16  C   UNL     1      -8.980  16.174  66.198  1.00  0.00    -0.337 A  
HETATM   17  H   UNL     1      -6.735  16.464  67.369  1.00  0.00     0.000 HD 
HETATM   18  C   UNL     1     -10.227  15.897  65.667  1.00  0.00    -0.406 A  
HETATM   19  O   UNL     1      -8.266  17.236  65.720  1.00  0.00    -0.533 OA 
HETATM   20  H   UNL     1      -8.625  17.777  65.027  1.00  0.00     0.000 HD 
HETATM   21  C   UNL     1     -10.950  14.806  66.153  1.00  0.00    -0.332 A  
ENDBRANCH   9  12
ENDBRANCH   3   9
ENDBRANCH   2   3
TORSDOF 5
ENDMDL
MODEL      105
REMARK 921   NORMALIZED FREE ENERGY PREDICTED BY IDOCK:   -4.66 KCAL/MOL
REMARK 922        TOTAL FREE ENERGY PREDICTED BY IDOCK:   -6.69 KCAL/MOL
REMARK 923 INTER-LIGAND FREE ENERGY PREDICTED BY IDOCK:   -5.74 KCAL/MOL
REMARK 924 INTRA-LIGAND FREE ENERGY PREDICTED BY IDOCK:   -0.96 KCAL/MOL
REMARK 927      BINDING AFFINITY PREDICTED BY RF-SCORE:    0.00 PKD
ROOT
HETATM    1  C   UNL     1     -10.186  18.508  66.793  1.00  0.00    -0.423 C  
HETATM    2  C   UNL     1     -10.534  17.077  67.183  1.00  0.00    -0.291 C  
ENDROOT
BRANCH   2   3
HETATM    3  C   UNL     1     -10.361  16.029  66.056  1.00  0.00    -0.351 C  
BRANCH   3   4
HETATM    4  N   UNL     1      -9.057  15.336  66.037  1.00  0.00    -0.453 NA 
HETATM    5  H   UNL     1      -8.730  14.863  65.195  1.00  0.00     0.000 HD 
BRANCH   4   6
HETATM    6  C   UNL     1      -8.243  15.342  67.257  1.00  0.00    -0.204 C  
HETATM    7  C   UNL     1      -7.944  13.881  67.622  1.00  0.00    -0.181 C  
HETATM    8  C   UNL     1      -6.906  16.070  67.114  1.00  0.00    -0.223 C  
ENDBRANCH   4   6
ENDBRANCH   3   4
BRANCH   3   9
HETATM    9  C   UNL     1     -11.624  15.092  65.998  1.00  0.00    -0.158 C  
HETATM   10  H   UNL     1     -12.700  14.204  64.603  1.00  0.00     0.000 HD 
HETATM   11  O   UNL     1     -11.937  14.770  64.638  1.00  0.00    -0.434 OA 
BRANCH   9  12
HETATM   12  C   UNL     1     -11.549  13.777  66.757  1.00  0.00    -0.394 A  
HETATM   13  C   UNL     1     -11.646  13.696  68.156  1.00  0.00    -0.367 A  
HETATM   14  C   UNL     1     -11.563  12.457  68.789  1.00  0.00    -0.326 A  
HETATM   15  O   UNL     1     -11.663  12.334  70.147  1.00  0.00    -0.481 OA 
HETATM   16  C   UNL     1     -11.385  11.294  68.048  1.00  0.00    -0.304 A  
HETATM   17  H   UNL     1     -11.606  11.489  70.579  1.00  0.00     0.000 HD 
HETATM   18  C   UNL     1     -11.267  11.351  66.671  1.00  0.00    -0.298 A  
HETATM   19  O   UNL     1     -11.321  10.085  68.680  1.00  0.00    -0.460 OA 
HETATM   20  H   UNL     1     -11.200   9.291  68.174  1.00  0.00     0.000 HD 
HETATM   21  C   UNL     1     -11.340  12.589  66.028  1.00  0.00    -0.386 A  
ENDBRANCH   9  12
ENDBRANCH   3   9
ENDBRANCH   2   3
TORSDOF 5
ENDMDL
MODEL      106
REMARK 921   NORMALIZED FREE ENERGY PREDICTED BY IDOCK:   -4.66 KCAL/MOL
REMARK 922        TOTAL FREE ENERGY PREDICTED BY IDOCK:   -6.69 KCAL/MOL
REMARK 923 INTER-LIGAND FREE ENERGY PREDICTED BY IDOCK:   -6.06 KCAL/MOL
REMARK 924 INTRA-LIGAND FREE ENERGY PREDICTED BY IDOCK:   -0.63 KCAL/MOL
REMARK 927      BINDING AFFINITY PREDICTED BY RF-SCORE:    0.00 PKD
ROOT
HETATM    1  C   UNL     1     -10.315   8.814  67.198  1.00  0.00    -0.364 C  
HETATM    2  C   UNL     1     -10.257  10.234  66.649  1.00  0.00    -0.294 C  
ENDROOT
BRANCH   2   3
HETATM    3  C   UNL     1     -11.066  11.282  67.455  1.00  0.00    -0.297 C  
BRANCH   3   4
HETATM    4  N   UNL     1     -11.912  10.729  68.532  1.00  0.00    -0.793 NA 
HETATM    5  H   UNL     1     -12.785  10.249  68.315  1.00  0.00     0.000 HD 
BRANCH   4   6
HETATM    6  C   UNL     1     -11.468  10.887  69.921  1.00  0.00    -0.323 C  
HETATM    7  C   UNL     1     -12.535  11.710  70.658  1.00  0.00    -0.386 C  
HETATM    8  C   UNL     1     -11.293   9.569  70.676  1.00  0.00    -0.364 C  
ENDBRANCH   4   6
ENDBRANCH   3   4
BRANCH   3   9
HETATM    9  C   UNL     1     -10.127  12.473  67.878  1.00  0.00    -0.214 C  
HETATM   10  H   UNL     1      -8.187  12.825  67.951  1.00  0.00     0.000 HD 
HETATM   11  O   UNL     1      -8.754  12.106  67.695  1.00  0.00    -0.157 OA 
BRANCH   9  12
HETATM   12  C   UNL     1     -10.328  13.801  67.168  1.00  0.00    -0.261 A  
HETATM   13  C   UNL     1     -10.454  15.021  67.852  1.00  0.00    -0.247 A  
HETATM   14  C   UNL     1     -10.643  16.204  67.138  1.00  0.00    -0.294 A  
HETATM   15  O   UNL     1     -10.759  17.413  67.765  1.00  0.00    -0.373 OA 
HETATM   16  C   UNL     1     -10.706  16.189  65.749  1.00  0.00    -0.280 A  
HETATM   17  H   UNL     1     -10.888  18.220  67.279  1.00  0.00     0.000 HD 
HETATM   18  C   UNL     1     -10.604  14.998  65.054  1.00  0.00    -0.437 A  
HETATM   19  O   UNL     1     -10.875  17.357  65.062  1.00  0.00    -0.676 OA 
HETATM   20  H   UNL     1     -10.918  17.348  64.113  1.00  0.00     0.000 HD 
HETATM   21  C   UNL     1     -10.425  13.807  65.761  1.00  0.00    -0.303 A  
ENDBRANCH   9  12
ENDBRANCH   3   9
ENDBRANCH   2   3
TORSDOF 5
ENDMDL
MODEL      107
REMARK 921   NORMALIZED FREE ENERGY PREDICTED BY IDOCK:   -4.65 KCAL/MOL
REMARK 922        TOTAL FREE ENERGY PREDICTED BY IDOCK:   -6.68 KCAL/MOL
REMARK 923 INTER-LIGAND FREE ENERGY PREDICTED BY IDOCK:   -6.13 KCAL/MOL
REMARK 924 INTRA-LIGAND FREE ENERGY PREDICTED BY IDOCK:   -0.54 KCAL/MOL
REMARK 927      BINDING AFFINITY PREDICTED BY RF-SCORE:    0.00 PKD
ROOT
HETATM    1  C   UNL     1      -8.748   9.506  68.339  1.00  0.00    -0.124 C  
HETATM    2  C   UNL     1      -9.397  10.812  68.783  1.00  0.00    -0.186 C  
ENDROOT
BRANCH   2   3
HETATM    3  C   UNL     1     -10.838  11.038  68.261  1.00  0.00    -0.215 C  
BRANCH   3   4
HETATM    4  N   UNL     1     -11.913  10.625  69.186  1.00  0.00    -0.572 NA 
HETATM    5  H   UNL     1     -12.857  10.450  68.843  1.00  0.00     0.000 HD 
BRANCH   4   6
HETATM    6  C   UNL     1     -11.592  10.472  70.609  1.00  0.00    -0.352 C  
HETATM    7  C   UNL     1     -12.764  11.051  71.414  1.00  0.00    -0.534 C  
HETATM    8  C   UNL     1     -11.391   9.023  71.054  1.00  0.00    -0.362 C  
ENDBRANCH   4   6
ENDBRANCH   3   4
BRANCH   3   9
HETATM    9  C   UNL     1     -10.972  12.494  67.678  1.00  0.00    -0.242 C  
HETATM   10  H   UNL     1     -12.147  13.434  66.402  1.00  0.00     0.000 HD 
HETATM   11  O   UNL     1     -12.066  12.555  66.754  1.00  0.00    -0.546 OA 
BRANCH   9  12
HETATM   12  C   UNL     1     -11.171  13.626  68.673  1.00  0.00    -0.308 A  
HETATM   13  C   UNL     1     -12.389  13.859  69.330  1.00  0.00    -0.240 A  
HETATM   14  C   UNL     1     -12.505  14.920  70.228  1.00  0.00    -0.336 A  
HETATM   15  O   UNL     1     -13.670  15.176  70.896  1.00  0.00    -0.652 OA 
HETATM   16  C   UNL     1     -11.421  15.753  70.481  1.00  0.00    -0.381 A  
HETATM   17  H   UNL     1     -13.749  15.899  71.508  1.00  0.00     0.000 HD 
HETATM   18  C   UNL     1     -10.216  15.554  69.831  1.00  0.00    -0.305 A  
HETATM   19  O   UNL     1     -11.542  16.779  71.375  1.00  0.00    -0.557 OA 
HETATM   20  H   UNL     1     -10.802  17.347  71.548  1.00  0.00     0.000 HD 
HETATM   21  C   UNL     1     -10.094  14.501  68.923  1.00  0.00    -0.224 A  
ENDBRANCH   9  12
ENDBRANCH   3   9
ENDBRANCH   2   3
TORSDOF 5
ENDMDL
MODEL      108
REMARK 921   NORMALIZED FREE ENERGY PREDICTED BY IDOCK:   -4.65 KCAL/MOL
REMARK 922        TOTAL FREE ENERGY PREDICTED BY IDOCK:   -6.68 KCAL/MOL
REMARK 923 INTER-LIGAND FREE ENERGY PREDICTED BY IDOCK:   -6.10 KCAL/MOL
REMARK 924 INTRA-LIGAND FREE ENERGY PREDICTED BY IDOCK:   -0.58 KCAL/MOL
REMARK 927      BINDING AFFINITY PREDICTED BY RF-SCORE:    0.00 PKD
ROOT
HETATM    1  C   UNL     1     -10.350  17.037  66.305  1.00  0.00    -0.309 C  
HETATM    2  C   UNL     1      -9.345  15.980  65.867  1.00  0.00    -0.335 C  
ENDROOT
BRANCH   2   3
HETATM    3  C   UNL     1      -9.908  14.540  65.768  1.00  0.00    -0.314 C  
BRANCH   3   4
HETATM    4  N   UNL     1      -9.921  13.962  64.409  1.00  0.00    -0.701 NA 
HETATM    5  H   UNL     1      -9.364  14.375  63.661  1.00  0.00     0.000 HD 
BRANCH   4   6
HETATM    6  C   UNL     1     -10.753  12.781  64.158  1.00  0.00    -0.412 C  
HETATM    7  C   UNL     1     -12.043  13.259  63.476  1.00  0.00    -0.550 C  
HETATM    8  C   UNL     1     -10.103  11.738  63.248  1.00  0.00    -0.448 C  
ENDBRANCH   4   6
ENDBRANCH   3   4
BRANCH   3   9
HETATM    9  C   UNL     1      -9.258  13.634  66.880  1.00  0.00    -0.250 C  
HETATM   10  H   UNL     1      -8.076  13.888  68.438  1.00  0.00     0.000 HD 
HETATM   11  O   UNL     1      -8.468  14.434  67.768  1.00  0.00    -0.153 OA 
BRANCH   9  12
HETATM   12  C   UNL     1     -10.199  12.813  67.745  1.00  0.00    -0.223 A  
HETATM   13  C   UNL     1     -10.789  13.311  68.917  1.00  0.00    -0.245 A  
HETATM   14  C   UNL     1     -11.639  12.500  69.668  1.00  0.00    -0.253 A  
HETATM   15  O   UNL     1     -12.242  12.950  70.811  1.00  0.00    -0.408 OA 
HETATM   16  C   UNL     1     -11.914  11.198  69.265  1.00  0.00    -0.351 A  
HETATM   17  H   UNL     1     -12.821  12.398  71.323  1.00  0.00     0.000 HD 
HETATM   18  C   UNL     1     -11.330  10.679  68.124  1.00  0.00    -0.354 A  
HETATM   19  O   UNL     1     -12.762  10.421  70.001  1.00  0.00    -0.551 OA 
HETATM   20  H   UNL     1     -12.949   9.531  69.726  1.00  0.00     0.000 HD 
HETATM   21  C   UNL     1     -10.469  11.480  67.371  1.00  0.00    -0.240 A  
ENDBRANCH   9  12
ENDBRANCH   3   9
ENDBRANCH   2   3
TORSDOF 5
ENDMDL
MODEL      109
REMARK 921   NORMALIZED FREE ENERGY PREDICTED BY IDOCK:   -4.64 KCAL/MOL
REMARK 922        TOTAL FREE ENERGY PREDICTED BY IDOCK:   -6.67 KCAL/MOL
REMARK 923 INTER-LIGAND FREE ENERGY PREDICTED BY IDOCK:   -6.02 KCAL/MOL
REMARK 924 INTRA-LIGAND FREE ENERGY PREDICTED BY IDOCK:   -0.65 KCAL/MOL
REMARK 927      BINDING AFFINITY PREDICTED BY RF-SCORE:    0.00 PKD
ROOT
HETATM    1  C   UNL     1      -6.798  14.298  68.062  1.00  0.00    -0.150 C  
HETATM    2  C   UNL     1      -7.735  14.988  69.044  1.00  0.00    -0.170 C  
ENDROOT
BRANCH   2   3
HETATM    3  C   UNL     1      -9.097  15.430  68.452  1.00  0.00    -0.191 C  
BRANCH   3   4
HETATM    4  N   UNL     1      -9.012  16.366  67.312  1.00  0.00    -0.193 NA 
HETATM    5  H   UNL     1      -9.015  16.020  66.353  1.00  0.00     0.000 HD 
BRANCH   4   6
HETATM    6  C   UNL     1      -8.924  17.803  67.591  1.00  0.00    -0.249 C  
HETATM    7  C   UNL     1      -9.294  18.549  66.302  1.00  0.00    -0.243 C  
HETATM    8  C   UNL     1      -9.866  18.285  68.695  1.00  0.00    -0.400 C  
ENDBRANCH   4   6
ENDBRANCH   3   4
BRANCH   3   9
HETATM    9  C   UNL     1     -10.015  14.171  68.225  1.00  0.00    -0.241 C  
HETATM   10  H   UNL     1     -11.638  13.404  69.042  1.00  0.00     0.000 HD 
HETATM   11  O   UNL     1     -11.084  14.163  69.179  1.00  0.00    -0.251 OA 
BRANCH   9  12
HETATM   12  C   UNL     1     -10.647  14.011  66.852  1.00  0.00    -0.280 A  
HETATM   13  C   UNL     1      -9.959  13.472  65.753  1.00  0.00    -0.266 A  
HETATM   14  C   UNL     1     -10.598  13.359  64.519  1.00  0.00    -0.425 A  
HETATM   15  O   UNL     1      -9.967  12.830  63.427  1.00  0.00    -0.642 OA 
HETATM   16  C   UNL     1     -11.915  13.775  64.363  1.00  0.00    -0.445 A  
HETATM   17  H   UNL     1     -10.402  12.753  62.585  1.00  0.00     0.000 HD 
HETATM   18  C   UNL     1     -12.607  14.327  65.426  1.00  0.00    -0.422 A  
HETATM   19  O   UNL     1     -12.534  13.644  63.153  1.00  0.00    -1.033 OA 
HETATM   20  H   UNL     1     -13.434  13.928  63.046  1.00  0.00     0.000 HD 
HETATM   21  C   UNL     1     -11.973  14.454  66.664  1.00  0.00    -0.414 A  
ENDBRANCH   9  12
ENDBRANCH   3   9
ENDBRANCH   2   3
TORSDOF 5
ENDMDL
MODEL      110
REMARK 921   NORMALIZED FREE ENERGY PREDICTED BY IDOCK:   -4.63 KCAL/MOL
REMARK 922        TOTAL FREE ENERGY PREDICTED BY IDOCK:   -6.66 KCAL/MOL
REMARK 923 INTER-LIGAND FREE ENERGY PREDICTED BY IDOCK:   -5.91 KCAL/MOL
REMARK 924 INTRA-LIGAND FREE ENERGY PREDICTED BY IDOCK:   -0.75 KCAL/MOL
REMARK 927      BINDING AFFINITY PREDICTED BY RF-SCORE:    0.00 PKD
ROOT
HETATM    1  C   UNL     1     -11.204   5.010  72.874  1.00  0.00    -0.344 C  
HETATM    2  C   UNL     1     -11.238   6.099  71.809  1.00  0.00    -0.338 C  
ENDROOT
BRANCH   2   3
HETATM    3  C   UNL     1     -11.657   7.501  72.319  1.00  0.00    -0.310 C  
BRANCH   3   4
HETATM    4  N   UNL     1     -10.546   8.365  72.767  1.00  0.00    -0.247 NA 
HETATM    5  H   UNL     1     -10.727   9.205  73.314  1.00  0.00     0.000 HD 
BRANCH   4   6
HETATM    6  C   UNL     1      -9.176   7.985  72.408  1.00  0.00    -0.202 C  
HETATM    7  C   UNL     1      -8.704   8.941  71.303  1.00  0.00    -0.279 C  
HETATM    8  C   UNL     1      -8.176   8.078  73.562  1.00  0.00    -0.271 C  
ENDBRANCH   4   6
ENDBRANCH   3   4
BRANCH   3   9
HETATM    9  C   UNL     1     -12.657   8.164  71.299  1.00  0.00    -0.229 C  
HETATM   10  H   UNL     1     -14.608   8.206  71.012  1.00  0.00     0.000 HD 
HETATM   11  O   UNL     1     -14.005   7.806  71.627  1.00  0.00    -0.378 OA 
BRANCH   9  12
HETATM   12  C   UNL     1     -12.620   9.678  71.175  1.00  0.00    -0.411 A  
HETATM   13  C   UNL     1     -13.275  10.534  72.074  1.00  0.00    -0.483 A  
HETATM   14  C   UNL     1     -13.206  11.916  71.898  1.00  0.00    -0.362 A  
HETATM   15  O   UNL     1     -13.821  12.784  72.757  1.00  0.00    -0.696 OA 
HETATM   16  C   UNL     1     -12.489  12.458  70.837  1.00  0.00    -0.274 A  
HETATM   17  H   UNL     1     -13.773  13.725  72.637  1.00  0.00     0.000 HD 
HETATM   18  C   UNL     1     -11.851  11.634  69.927  1.00  0.00    -0.434 A  
HETATM   19  O   UNL     1     -12.415  13.813  70.685  1.00  0.00    -0.340 OA 
HETATM   20  H   UNL     1     -11.926  14.184  69.961  1.00  0.00     0.000 HD 
HETATM   21  C   UNL     1     -11.924  10.249  70.089  1.00  0.00    -0.313 A  
ENDBRANCH   9  12
ENDBRANCH   3   9
ENDBRANCH   2   3
TORSDOF 5
ENDMDL
MODEL      111
REMARK 921   NORMALIZED FREE ENERGY PREDICTED BY IDOCK:   -4.61 KCAL/MOL
REMARK 922        TOTAL FREE ENERGY PREDICTED BY IDOCK:   -6.63 KCAL/MOL
REMARK 923 INTER-LIGAND FREE ENERGY PREDICTED BY IDOCK:   -5.94 KCAL/MOL
REMARK 924 INTRA-LIGAND FREE ENERGY PREDICTED BY IDOCK:   -0.70 KCAL/MOL
REMARK 927      BINDING AFFINITY PREDICTED BY RF-SCORE:    0.00 PKD
ROOT
HETATM    1  C   UNL     1     -11.551  14.892  64.722  1.00  0.00    -0.410 C  
HETATM    2  C   UNL     1     -11.928  14.040  65.927  1.00  0.00    -0.424 C  
ENDROOT
BRANCH   2   3
HETATM    3  C   UNL     1     -10.760  13.716  66.892  1.00  0.00    -0.275 C  
BRANCH   3   4
HETATM    4  N   UNL     1      -9.412  14.029  66.375  1.00  0.00    -0.378 NA 
HETATM    5  H   UNL     1      -9.085  13.628  65.497  1.00  0.00     0.000 HD 
BRANCH   4   6
HETATM    6  C   UNL     1      -8.556  14.930  67.154  1.00  0.00    -0.225 C  
HETATM    7  C   UNL     1      -7.194  14.244  67.323  1.00  0.00    -0.006 C  
HETATM    8  C   UNL     1      -8.315  16.289  66.495  1.00  0.00    -0.343 C  
ENDBRANCH   4   6
ENDBRANCH   3   4
BRANCH   3   9
HETATM    9  C   UNL     1     -11.080  14.278  68.327  1.00  0.00    -0.258 C  
HETATM   10  H   UNL     1     -12.175  15.726  69.098  1.00  0.00     0.000 HD 
HETATM   11  O   UNL     1     -11.982  15.387  68.232  1.00  0.00    -0.283 OA 
BRANCH   9  12
HETATM   12  C   UNL     1     -11.674  13.310  69.336  1.00  0.00    -0.383 A  
HETATM   13  C   UNL     1     -11.656  11.917  69.161  1.00  0.00    -0.373 A  
HETATM   14  C   UNL     1     -12.226  11.086  70.124  1.00  0.00    -0.344 A  
HETATM   15  O   UNL     1     -12.219   9.724  69.996  1.00  0.00    -0.472 OA 
HETATM   16  C   UNL     1     -12.814  11.623  71.263  1.00  0.00    -0.328 A  
HETATM   17  H   UNL     1     -12.608   9.157  70.652  1.00  0.00     0.000 HD 
HETATM   18  C   UNL     1     -12.861  12.993  71.450  1.00  0.00    -0.385 A  
HETATM   19  O   UNL     1     -13.354  10.796  72.207  1.00  0.00    -0.623 OA 
HETATM   20  H   UNL     1     -13.755  11.163  72.986  1.00  0.00     0.000 HD 
HETATM   21  C   UNL     1     -12.302  13.834  70.485  1.00  0.00    -0.429 A  
ENDBRANCH   9  12
ENDBRANCH   3   9
ENDBRANCH   2   3
TORSDOF 5
ENDMDL
MODEL      112
REMARK 921   NORMALIZED FREE ENERGY PREDICTED BY IDOCK:   -4.61 KCAL/MOL
REMARK 922        TOTAL FREE ENERGY PREDICTED BY IDOCK:   -6.63 KCAL/MOL
REMARK 923 INTER-LIGAND FREE ENERGY PREDICTED BY IDOCK:   -6.23 KCAL/MOL
REMARK 924 INTRA-LIGAND FREE ENERGY PREDICTED BY IDOCK:   -0.39 KCAL/MOL
REMARK 927      BINDING AFFINITY PREDICTED BY RF-SCORE:    0.00 PKD
ROOT
HETATM    1  C   UNL     1      -9.839   9.798  69.674  1.00  0.00    -0.241 C  
HETATM    2  C   UNL     1      -9.887   9.728  68.153  1.00  0.00    -0.170 C  
ENDROOT
BRANCH   2   3
HETATM    3  C   UNL     1      -9.757  11.092  67.430  1.00  0.00    -0.173 C  
BRANCH   3   4
HETATM    4  N   UNL     1      -8.632  11.194  66.478  1.00  0.00    -0.165 NA 
HETATM    5  H   UNL     1      -8.749  10.923  65.502  1.00  0.00     0.000 HD 
BRANCH   4   6
HETATM    6  C   UNL     1      -7.343  11.693  66.968  1.00  0.00    -0.143 C  
HETATM    7  C   UNL     1      -7.630  12.673  68.114  1.00  0.00    -0.132 C  
HETATM    8  C   UNL     1      -6.414  10.604  67.508  1.00  0.00    -0.058 C  
ENDBRANCH   4   6
ENDBRANCH   3   4
BRANCH   3   9
HETATM    9  C   UNL     1     -11.159  11.535  66.868  1.00  0.00    -0.307 C  
HETATM   10  H   UNL     1     -12.953  11.911  67.597  1.00  0.00     0.000 HD 
HETATM   11  O   UNL     1     -12.107  11.643  67.937  1.00  0.00    -0.613 OA 
BRANCH   9  12
HETATM   12  C   UNL     1     -11.215  12.842  66.094  1.00  0.00    -0.326 A  
HETATM   13  C   UNL     1     -10.283  13.876  66.272  1.00  0.00    -0.299 A  
HETATM   14  C   UNL     1     -10.397  15.053  65.533  1.00  0.00    -0.373 A  
HETATM   15  O   UNL     1      -9.504  16.080  65.670  1.00  0.00    -0.387 OA 
HETATM   16  C   UNL     1     -11.428  15.214  64.615  1.00  0.00    -0.362 A  
HETATM   17  H   UNL     1      -9.582  16.882  65.166  1.00  0.00     0.000 HD 
HETATM   18  C   UNL     1     -12.370  14.216  64.435  1.00  0.00    -0.410 A  
HETATM   19  O   UNL     1     -11.519  16.365  63.885  1.00  0.00    -1.569 OA 
HETATM   20  H   UNL     1     -12.223  16.475  63.258  1.00  0.00     0.000 HD 
HETATM   21  C   UNL     1     -12.270  13.039  65.178  1.00  0.00    -0.507 A  
ENDBRANCH   9  12
ENDBRANCH   3   9
ENDBRANCH   2   3
TORSDOF 5
ENDMDL
MODEL      113
REMARK 921   NORMALIZED FREE ENERGY PREDICTED BY IDOCK:   -4.60 KCAL/MOL
REMARK 922        TOTAL FREE ENERGY PREDICTED BY IDOCK:   -6.62 KCAL/MOL
REMARK 923 INTER-LIGAND FREE ENERGY PREDICTED BY IDOCK:   -6.12 KCAL/MOL
REMARK 924 INTRA-LIGAND FREE ENERGY PREDICTED BY IDOCK:   -0.51 KCAL/MOL
REMARK 927      BINDING AFFINITY PREDICTED BY RF-SCORE:    0.00 PKD
ROOT
HETATM    1  C   UNL     1     -10.571  19.690  66.389  1.00  0.00    -0.592 C  
HETATM    2  C   UNL     1     -10.204  18.269  66.797  1.00  0.00    -0.393 C  
ENDROOT
BRANCH   2   3
HETATM    3  C   UNL     1      -9.944  17.296  65.621  1.00  0.00     0.026 C  
BRANCH   3   4
HETATM    4  N   UNL     1      -8.700  16.505  65.723  1.00  0.00    -0.420 NA 
HETATM    5  H   UNL     1      -8.542  15.701  65.116  1.00  0.00     0.000 HD 
BRANCH   4   6
HETATM    6  C   UNL     1      -7.698  16.901  66.718  1.00  0.00    -0.248 C  
HETATM    7  C   UNL     1      -7.109  15.618  67.320  1.00  0.00    -0.242 C  
HETATM    8  C   UNL     1      -6.541  17.723  66.148  1.00  0.00    -0.309 C  
ENDBRANCH   4   6
ENDBRANCH   3   4
BRANCH   3   9
HETATM    9  C   UNL     1     -11.247  16.467  65.314  1.00  0.00     0.049 C  
HETATM   10  H   UNL     1     -12.236  15.874  63.714  1.00  0.00     0.000 HD 
HETATM   11  O   UNL     1     -11.449  16.374  63.899  1.00  0.00    -1.063 OA 
BRANCH   9  12
HETATM   12  C   UNL     1     -11.316  15.052  65.865  1.00  0.00    -0.273 A  
HETATM   13  C   UNL     1     -10.921  14.721  67.171  1.00  0.00    -0.320 A  
HETATM   14  C   UNL     1     -11.005  13.400  67.610  1.00  0.00    -0.259 A  
HETATM   15  O   UNL     1     -10.640  13.037  68.877  1.00  0.00    -0.350 OA 
HETATM   16  C   UNL     1     -11.479  12.403  66.765  1.00  0.00    -0.362 A  
HETATM   17  H   UNL     1     -10.697  12.137  69.176  1.00  0.00     0.000 HD 
HETATM   18  C   UNL     1     -11.856  12.702  65.468  1.00  0.00    -0.479 A  
HETATM   19  O   UNL     1     -11.571  11.116  67.213  1.00  0.00    -0.514 OA 
HETATM   20  H   UNL     1     -11.895  10.434  66.637  1.00  0.00     0.000 HD 
HETATM   21  C   UNL     1     -11.766  14.020  65.016  1.00  0.00    -0.366 A  
ENDBRANCH   9  12
ENDBRANCH   3   9
ENDBRANCH   2   3
TORSDOF 5
ENDMDL
MODEL      114
REMARK 921   NORMALIZED FREE ENERGY PREDICTED BY IDOCK:   -4.60 KCAL/MOL
REMARK 922        TOTAL FREE ENERGY PREDICTED BY IDOCK:   -6.62 KCAL/MOL
REMARK 923 INTER-LIGAND FREE ENERGY PREDICTED BY IDOCK:   -5.70 KCAL/MOL
REMARK 924 INTRA-LIGAND FREE ENERGY PREDICTED BY IDOCK:   -0.92 KCAL/MOL
REMARK 927      BINDING AFFINITY PREDICTED BY RF-SCORE:    0.00 PKD
ROOT
HETATM    1  C   UNL     1     -10.978  10.874  69.310  1.00  0.00    -0.295 C  
HETATM    2  C   UNL     1     -11.681  11.020  67.966  1.00  0.00    -0.257 C  
ENDROOT
BRANCH   2   3
HETATM    3  C   UNL     1     -11.099  12.115  67.038  1.00  0.00    -0.294 C  
BRANCH   3   4
HETATM    4  N   UNL     1     -12.097  13.025  66.439  1.00  0.00    -0.403 NA 
HETATM    5  H   UNL     1     -12.630  13.670  67.021  1.00  0.00     0.000 HD 
BRANCH   4   6
HETATM    6  C   UNL     1     -12.302  12.980  64.987  1.00  0.00    -0.473 C  
HETATM    7  C   UNL     1     -12.079  14.398  64.443  1.00  0.00    -0.491 C  
HETATM    8  C   UNL     1     -11.347  12.042  64.248  1.00  0.00    -0.433 C  
ENDBRANCH   4   6
ENDBRANCH   3   4
BRANCH   3   9
HETATM    9  C   UNL     1      -9.880  12.820  67.741  1.00  0.00    -0.220 C  
HETATM   10  H   UNL     1      -7.978  13.157  67.335  1.00  0.00     0.000 HD 
HETATM   11  O   UNL     1      -8.715  12.731  66.911  1.00  0.00    -0.207 OA 
BRANCH   9  12
HETATM   12  C   UNL     1     -10.045  14.283  68.115  1.00  0.00    -0.232 A  
HETATM   13  C   UNL     1     -10.738  14.705  69.262  1.00  0.00    -0.254 A  
HETATM   14  C   UNL     1     -10.857  16.065  69.543  1.00  0.00    -0.317 A  
HETATM   15  O   UNL     1     -11.515  16.516  70.654  1.00  0.00    -0.541 OA 
HETATM   16  C   UNL     1     -10.293  17.014  68.698  1.00  0.00    -0.351 A  
HETATM   17  H   UNL     1     -11.596  17.443  70.846  1.00  0.00     0.000 HD 
HETATM   18  C   UNL     1      -9.622  16.624  67.553  1.00  0.00    -0.242 A  
HETATM   19  O   UNL     1     -10.404  18.343  68.994  1.00  0.00    -0.471 OA 
HETATM   20  H   UNL     1     -10.018  18.991  68.418  1.00  0.00     0.000 HD 
HETATM   21  C   UNL     1      -9.506  15.264  67.257  1.00  0.00    -0.212 A  
ENDBRANCH   9  12
ENDBRANCH   3   9
ENDBRANCH   2   3
TORSDOF 5
ENDMDL
MODEL      115
REMARK 921   NORMALIZED FREE ENERGY PREDICTED BY IDOCK:   -4.60 KCAL/MOL
REMARK 922        TOTAL FREE ENERGY PREDICTED BY IDOCK:   -6.62 KCAL/MOL
REMARK 923 INTER-LIGAND FREE ENERGY PREDICTED BY IDOCK:   -6.60 KCAL/MOL
REMARK 924 INTRA-LIGAND FREE ENERGY PREDICTED BY IDOCK:   -0.01 KCAL/MOL
REMARK 927      BINDING AFFINITY PREDICTED BY RF-SCORE:    0.00 PKD
ROOT
HETATM    1  C   UNL     1      -7.338  13.097  67.774  1.00  0.00    -0.143 C  
HETATM    2  C   UNL     1      -8.821  12.836  67.547  1.00  0.00    -0.187 C  
ENDROOT
BRANCH   2   3
HETATM    3  C   UNL     1      -9.339  11.481  68.090  1.00  0.00    -0.185 C  
BRANCH   3   4
HETATM    4  N   UNL     1     -10.112  11.562  69.346  1.00  0.00    -0.408 NA 
HETATM    5  H   UNL     1      -9.733  11.189  70.216  1.00  0.00     0.000 HD 
BRANCH   4   6
HETATM    6  C   UNL     1     -11.436  12.191  69.314  1.00  0.00    -0.302 C  
HETATM    7  C   UNL     1     -12.274  11.566  70.438  1.00  0.00    -0.442 C  
HETATM    8  C   UNL     1     -11.416  13.705  69.535  1.00  0.00    -0.324 C  
ENDBRANCH   4   6
ENDBRANCH   3   4
BRANCH   3   9
HETATM    9  C   UNL     1     -10.022  10.665  66.930  1.00  0.00    -0.202 C  
HETATM   10  H   UNL     1     -11.434   9.298  66.765  1.00  0.00     0.000 HD 
HETATM   11  O   UNL     1     -11.022   9.790  67.466  1.00  0.00    -0.275 OA 
BRANCH   9  12
HETATM   12  C   UNL     1     -10.682  11.461  65.816  1.00  0.00    -0.309 A  
HETATM   13  C   UNL     1     -11.711  12.388  66.047  1.00  0.00    -0.469 A  
HETATM   14  C   UNL     1     -12.278  13.080  64.977  1.00  0.00    -0.453 A  
HETATM   15  O   UNL     1     -13.275  13.999  65.160  1.00  0.00    -0.768 OA 
HETATM   16  C   UNL     1     -11.832  12.864  63.679  1.00  0.00    -0.532 A  
HETATM   17  H   UNL     1     -13.661  14.471  64.431  1.00  0.00     0.000 HD 
HETATM   18  C   UNL     1     -10.832  11.942  63.425  1.00  0.00    -0.469 A  
HETATM   19  O   UNL     1     -12.384  13.561  62.642  1.00  0.00    -0.763 OA 
HETATM   20  H   UNL     1     -12.079  13.414  61.755  1.00  0.00     0.000 HD 
HETATM   21  C   UNL     1     -10.265  11.236  64.488  1.00  0.00    -0.370 A  
ENDBRANCH   9  12
ENDBRANCH   3   9
ENDBRANCH   2   3
TORSDOF 5
ENDMDL
MODEL      116
REMARK 921   NORMALIZED FREE ENERGY PREDICTED BY IDOCK:   -4.59 KCAL/MOL
REMARK 922        TOTAL FREE ENERGY PREDICTED BY IDOCK:   -6.61 KCAL/MOL
REMARK 923 INTER-LIGAND FREE ENERGY PREDICTED BY IDOCK:   -5.96 KCAL/MOL
REMARK 924 INTRA-LIGAND FREE ENERGY PREDICTED BY IDOCK:   -0.65 KCAL/MOL
REMARK 927      BINDING AFFINITY PREDICTED BY RF-SCORE:    0.00 PKD
ROOT
HETATM    1  C   UNL     1      -6.817  10.567  70.028  1.00  0.00    -0.154 C  
HETATM    2  C   UNL     1      -7.857  10.480  68.918  1.00  0.00    -0.124 C  
ENDROOT
BRANCH   2   3
HETATM    3  C   UNL     1      -9.266  11.000  69.298  1.00  0.00     0.085 C  
BRANCH   3   4
HETATM    4  N   UNL     1      -9.627  12.312  68.723  1.00  0.00    -0.406 NA 
HETATM    5  H   UNL     1      -9.035  13.128  68.873  1.00  0.00     0.000 HD 
BRANCH   4   6
HETATM    6  C   UNL     1     -10.858  12.415  67.931  1.00  0.00    -0.222 C  
HETATM    7  C   UNL     1     -11.647  13.623  68.456  1.00  0.00    -0.371 C  
HETATM    8  C   UNL     1     -10.624  12.626  66.435  1.00  0.00    -0.272 C  
ENDBRANCH   4   6
ENDBRANCH   3   4
BRANCH   3   9
HETATM    9  C   UNL     1     -10.331   9.859  69.093  1.00  0.00    -0.209 C  
HETATM   10  H   UNL     1     -10.317   7.934  68.658  1.00  0.00     0.000 HD 
HETATM   11  O   UNL     1      -9.675   8.624  68.782  1.00  0.00    -0.160 OA 
BRANCH   9  12
HETATM   12  C   UNL     1     -11.278   9.577  70.248  1.00  0.00    -0.307 A  
HETATM   13  C   UNL     1     -11.387   8.316  70.856  1.00  0.00    -0.292 A  
HETATM   14  C   UNL     1     -12.281   8.125  71.908  1.00  0.00    -0.331 A  
HETATM   15  O   UNL     1     -12.410   6.916  72.534  1.00  0.00    -0.499 OA 
HETATM   16  C   UNL     1     -13.069   9.174  72.366  1.00  0.00    -0.423 A  
HETATM   17  H   UNL     1     -13.020   6.785  73.251  1.00  0.00     0.000 HD 
HETATM   18  C   UNL     1     -12.993  10.421  71.771  1.00  0.00    -0.580 A  
HETATM   19  O   UNL     1     -13.929   8.978  73.409  1.00  0.00    -1.220 OA 
HETATM   20  H   UNL     1     -14.467   9.695  73.722  1.00  0.00     0.000 HD 
HETATM   21  C   UNL     1     -12.108  10.619  70.710  1.00  0.00    -0.474 A  
ENDBRANCH   9  12
ENDBRANCH   3   9
ENDBRANCH   2   3
TORSDOF 5
ENDMDL
MODEL      117
REMARK 921   NORMALIZED FREE ENERGY PREDICTED BY IDOCK:   -4.59 KCAL/MOL
REMARK 922        TOTAL FREE ENERGY PREDICTED BY IDOCK:   -6.61 KCAL/MOL
REMARK 923 INTER-LIGAND FREE ENERGY PREDICTED BY IDOCK:   -6.28 KCAL/MOL
REMARK 924 INTRA-LIGAND FREE ENERGY PREDICTED BY IDOCK:   -0.33 KCAL/MOL
REMARK 927      BINDING AFFINITY PREDICTED BY RF-SCORE:    0.00 PKD
ROOT
HETATM    1  C   UNL     1     -10.452  12.358  68.408  1.00  0.00    -0.245 C  
HETATM    2  C   UNL     1     -11.794  12.980  68.044  1.00  0.00    -0.391 C  
ENDROOT
BRANCH   2   3
HETATM    3  C   UNL     1     -11.836  14.528  68.099  1.00  0.00    -0.313 C  
BRANCH   3   4
HETATM    4  N   UNL     1     -12.457  15.097  69.312  1.00  0.00    -0.588 NA 
HETATM    5  H   UNL     1     -13.194  15.797  69.241  1.00  0.00     0.000 HD 
BRANCH   4   6
HETATM    6  C   UNL     1     -11.988  14.632  70.622  1.00  0.00    -0.315 C  
HETATM    7  C   UNL     1     -11.645  15.872  71.459  1.00  0.00    -0.537 C  
HETATM    8  C   UNL     1     -13.019  13.814  71.402  1.00  0.00    -0.433 C  
ENDBRANCH   4   6
ENDBRANCH   3   4
BRANCH   3   9
HETATM    9  C   UNL     1     -10.423  15.115  67.725  1.00  0.00    -0.247 C  
HETATM   10  H   UNL     1      -9.110  14.897  66.269  1.00  0.00     0.000 HD 
HETATM   11  O   UNL     1      -9.962  14.543  66.495  1.00  0.00    -0.262 OA 
BRANCH   9  12
HETATM   12  C   UNL     1     -10.315  16.624  67.579  1.00  0.00    -0.294 A  
HETATM   13  C   UNL     1     -10.658  17.303  66.400  1.00  0.00    -0.179 A  
HETATM   14  C   UNL     1     -10.528  18.690  66.332  1.00  0.00    -0.418 A  
HETATM   15  O   UNL     1     -10.862  19.391  65.206  1.00  0.00    -0.477 OA 
HETATM   16  C   UNL     1     -10.062  19.411  67.425  1.00  0.00    -0.398 A  
HETATM   17  H   UNL     1     -10.773  20.336  65.159  1.00  0.00     0.000 HD 
HETATM   18  C   UNL     1      -9.700  18.761  68.592  1.00  0.00    -0.437 A  
HETATM   19  O   UNL     1      -9.955  20.770  67.351  1.00  0.00    -0.426 OA 
HETATM   20  H   UNL     1      -9.637  21.263  68.098  1.00  0.00     0.000 HD 
HETATM   21  C   UNL     1      -9.817  17.372  68.666  1.00  0.00    -0.322 A  
ENDBRANCH   9  12
ENDBRANCH   3   9
ENDBRANCH   2   3
TORSDOF 5
ENDMDL
MODEL      118
REMARK 921   NORMALIZED FREE ENERGY PREDICTED BY IDOCK:   -4.59 KCAL/MOL
REMARK 922        TOTAL FREE ENERGY PREDICTED BY IDOCK:   -6.61 KCAL/MOL
REMARK 923 INTER-LIGAND FREE ENERGY PREDICTED BY IDOCK:   -6.09 KCAL/MOL
REMARK 924 INTRA-LIGAND FREE ENERGY PREDICTED BY IDOCK:   -0.51 KCAL/MOL
REMARK 927      BINDING AFFINITY PREDICTED BY RF-SCORE:    0.00 PKD
ROOT
HETATM    1  C   UNL     1      -9.910   7.153  66.674  1.00  0.00    -0.237 C  
HETATM    2  C   UNL     1     -10.849   8.108  67.400  1.00  0.00    -0.125 C  
ENDROOT
BRANCH   2   3
HETATM    3  C   UNL     1     -10.166   9.348  68.028  1.00  0.00    -0.204 C  
BRANCH   3   4
HETATM    4  N   UNL     1     -10.795  10.645  67.703  1.00  0.00    -0.270 NA 
HETATM    5  H   UNL     1     -11.701  10.898  68.096  1.00  0.00     0.000 HD 
BRANCH   4   6
HETATM    6  C   UNL     1     -10.088  11.559  66.801  1.00  0.00    -0.215 C  
HETATM    7  C   UNL     1     -10.653  11.348  65.389  1.00  0.00    -0.333 C  
HETATM    8  C   UNL     1     -10.254  13.039  67.152  1.00  0.00    -0.243 C  
ENDBRANCH   4   6
ENDBRANCH   3   4
BRANCH   3   9
HETATM    9  C   UNL     1      -9.899   9.094  69.558  1.00  0.00    -0.178 C  
HETATM   10  H   UNL     1      -8.789   9.892  70.982  1.00  0.00     0.000 HD 
HETATM   11  O   UNL     1      -8.951  10.045  70.058  1.00  0.00    -0.195 OA 
BRANCH   9  12
HETATM   12  C   UNL     1     -11.099   9.136  70.490  1.00  0.00    -0.308 A  
HETATM   13  C   UNL     1     -11.689  10.334  70.921  1.00  0.00    -0.472 A  
HETATM   14  C   UNL     1     -12.786  10.300  71.782  1.00  0.00    -0.460 A  
HETATM   15  O   UNL     1     -13.396  11.444  72.217  1.00  0.00    -0.629 OA 
HETATM   16  C   UNL     1     -13.305   9.087  72.218  1.00  0.00    -0.467 A  
HETATM   17  H   UNL     1     -14.144  11.421  72.803  1.00  0.00     0.000 HD 
HETATM   18  C   UNL     1     -12.729   7.893  71.821  1.00  0.00    -0.353 A  
HETATM   19  O   UNL     1     -14.390   9.067  73.048  1.00  0.00    -1.108 OA 
HETATM   20  H   UNL     1     -14.745   8.239  73.346  1.00  0.00     0.000 HD 
HETATM   21  C   UNL     1     -11.624   7.917  70.968  1.00  0.00    -0.299 A  
ENDBRANCH   9  12
ENDBRANCH   3   9
ENDBRANCH   2   3
TORSDOF 5
ENDMDL
MODEL      119
REMARK 921   NORMALIZED FREE ENERGY PREDICTED BY IDOCK:   -4.57 KCAL/MOL
REMARK 922        TOTAL FREE ENERGY PREDICTED BY IDOCK:   -6.57 KCAL/MOL
REMARK 923 INTER-LIGAND FREE ENERGY PREDICTED BY IDOCK:   -5.88 KCAL/MOL
REMARK 924 INTRA-LIGAND FREE ENERGY PREDICTED BY IDOCK:   -0.69 KCAL/MOL
REMARK 927      BINDING AFFINITY PREDICTED BY RF-SCORE:    0.00 PKD
ROOT
HETATM    1  C   UNL     1      -8.361  10.870  68.211  1.00  0.00    -0.129 C  
HETATM    2  C   UNL     1      -9.246  11.347  67.067  1.00  0.00    -0.174 C  
ENDROOT
BRANCH   2   3
HETATM    3  C   UNL     1      -9.727  12.816  67.179  1.00  0.00    -0.216 C  
BRANCH   3   4
HETATM    4  N   UNL     1      -9.208  13.728  66.140  1.00  0.00    -0.494 NA 
HETATM    5  H   UNL     1      -9.093  13.411  65.178  1.00  0.00     0.000 HD 
BRANCH   4   6
HETATM    6  C   UNL     1      -8.861  15.101  66.523  1.00  0.00    -0.277 C  
HETATM    7  C   UNL     1      -9.949  16.027  65.962  1.00  0.00    -0.365 C  
HETATM    8  C   UNL     1      -8.787  15.330  68.034  1.00  0.00    -0.169 C  
ENDBRANCH   4   6
ENDBRANCH   3   4
BRANCH   3   9
HETATM    9  C   UNL     1     -11.287  12.853  67.391  1.00  0.00    -0.309 C  
HETATM   10  H   UNL     1     -12.876  12.026  66.563  1.00  0.00     0.000 HD 
HETATM   11  O   UNL     1     -11.934  12.004  66.436  1.00  0.00    -0.611 OA 
BRANCH   9  12
HETATM   12  C   UNL     1     -11.811  12.457  68.761  1.00  0.00    -0.358 A  
HETATM   13  C   UNL     1     -12.124  11.133  69.106  1.00  0.00    -0.352 A  
HETATM   14  C   UNL     1     -12.608  10.840  70.380  1.00  0.00    -0.314 A  
HETATM   15  O   UNL     1     -12.914   9.562  70.759  1.00  0.00    -0.535 OA 
HETATM   16  C   UNL     1     -12.783  11.849  71.319  1.00  0.00    -0.298 A  
HETATM   17  H   UNL     1     -13.244   9.362  71.627  1.00  0.00     0.000 HD 
HETATM   18  C   UNL     1     -12.500  13.165  70.997  1.00  0.00    -0.406 A  
HETATM   19  O   UNL     1     -13.242  11.546  72.569  1.00  0.00    -0.469 OA 
HETATM   20  H   UNL     1     -13.362  12.236  73.211  1.00  0.00     0.000 HD 
HETATM   21  C   UNL     1     -12.025  13.469  69.720  1.00  0.00    -0.405 A  
ENDBRANCH   9  12
ENDBRANCH   3   9
ENDBRANCH   2   3
TORSDOF 5
ENDMDL
MODEL      120
REMARK 921   NORMALIZED FREE ENERGY PREDICTED BY IDOCK:   -4.56 KCAL/MOL
REMARK 922        TOTAL FREE ENERGY PREDICTED BY IDOCK:   -6.57 KCAL/MOL
REMARK 923 INTER-LIGAND FREE ENERGY PREDICTED BY IDOCK:   -6.63 KCAL/MOL
REMARK 924 INTRA-LIGAND FREE ENERGY PREDICTED BY IDOCK:    0.06 KCAL/MOL
REMARK 927      BINDING AFFINITY PREDICTED BY RF-SCORE:    0.00 PKD
ROOT
HETATM    1  C   UNL     1     -10.464  15.258  65.243  1.00  0.00    -0.436 C  
HETATM    2  C   UNL     1     -11.858  14.645  65.210  1.00  0.00    -0.324 C  
ENDROOT
BRANCH   2   3
HETATM    3  C   UNL     1     -12.096  13.501  66.226  1.00  0.00    -0.428 C  
BRANCH   3   4
HETATM    4  N   UNL     1     -11.847  12.139  65.709  1.00  0.00    -0.513 NA 
HETATM    5  H   UNL     1     -12.579  11.431  65.733  1.00  0.00     0.000 HD 
BRANCH   4   6
HETATM    6  C   UNL     1     -10.523  11.830  65.160  1.00  0.00    -0.283 C  
HETATM    7  C   UNL     1     -10.016  10.560  65.858  1.00  0.00    -0.313 C  
HETATM    8  C   UNL     1     -10.515  11.569  63.653  1.00  0.00    -0.483 C  
ENDBRANCH   4   6
ENDBRANCH   3   4
BRANCH   3   9
HETATM    9  C   UNL     1     -11.392  13.843  67.592  1.00  0.00    -0.309 C  
HETATM   10  H   UNL     1     -11.144  15.436  68.728  1.00  0.00     0.000 HD 
HETATM   11  O   UNL     1     -11.570  15.230  67.904  1.00  0.00    -0.339 OA 
BRANCH   9  12
HETATM   12  C   UNL     1     -11.829  13.055  68.815  1.00  0.00    -0.355 A  
HETATM   13  C   UNL     1     -11.838  11.651  68.857  1.00  0.00    -0.392 A  
HETATM   14  C   UNL     1     -12.258  10.991  70.011  1.00  0.00    -0.343 A  
HETATM   15  O   UNL     1     -12.272   9.626  70.096  1.00  0.00    -0.469 OA 
HETATM   16  C   UNL     1     -12.667  11.710  71.128  1.00  0.00    -0.325 A  
HETATM   17  H   UNL     1     -12.558   9.176  70.882  1.00  0.00     0.000 HD 
HETATM   18  C   UNL     1     -12.684  13.093  71.104  1.00  0.00    -0.386 A  
HETATM   19  O   UNL     1     -13.060  11.051  72.257  1.00  0.00    -0.546 OA 
HETATM   20  H   UNL     1     -13.339  11.542  73.021  1.00  0.00     0.000 HD 
HETATM   21  C   UNL     1     -12.276  13.764  69.950  1.00  0.00    -0.383 A  
ENDBRANCH   9  12
ENDBRANCH   3   9
ENDBRANCH   2   3
TORSDOF 5
ENDMDL
MODEL      121
REMARK 921   NORMALIZED FREE ENERGY PREDICTED BY IDOCK:   -4.56 KCAL/MOL
REMARK 922        TOTAL FREE ENERGY PREDICTED BY IDOCK:   -6.57 KCAL/MOL
REMARK 923 INTER-LIGAND FREE ENERGY PREDICTED BY IDOCK:   -5.77 KCAL/MOL
REMARK 924 INTRA-LIGAND FREE ENERGY PREDICTED BY IDOCK:   -0.80 KCAL/MOL
REMARK 927      BINDING AFFINITY PREDICTED BY RF-SCORE:    0.00 PKD
ROOT
HETATM    1  C   UNL     1      -8.186  10.419  66.907  1.00  0.00    -0.124 C  
HETATM    2  C   UNL     1      -9.186  11.526  67.214  1.00  0.00    -0.168 C  
ENDROOT
BRANCH   2   3
HETATM    3  C   UNL     1     -10.635  11.252  66.739  1.00  0.00    -0.260 C  
BRANCH   3   4
HETATM    4  N   UNL     1     -11.572  10.819  67.796  1.00  0.00    -0.637 NA 
HETATM    5  H   UNL     1     -12.506  10.486  67.560  1.00  0.00     0.000 HD 
BRANCH   4   6
HETATM    6  C   UNL     1     -11.127  10.877  69.192  1.00  0.00    -0.245 C  
HETATM    7  C   UNL     1     -12.151  11.715  69.970  1.00  0.00    -0.395 C  
HETATM    8  C   UNL     1     -11.026   9.512  69.875  1.00  0.00    -0.263 C  
ENDBRANCH   4   6
ENDBRANCH   3   4
BRANCH   3   9
HETATM    9  C   UNL     1     -11.138  12.442  65.839  1.00  0.00    -0.313 C  
HETATM   10  H   UNL     1     -12.851  13.046  65.070  1.00  0.00     0.000 HD 
HETATM   11  O   UNL     1     -12.548  12.327  65.613  1.00  0.00    -0.504 OA 
BRANCH   9  12
HETATM   12  C   UNL     1     -10.885  13.852  66.348  1.00  0.00    -0.291 A  
HETATM   13  C   UNL     1      -9.965  14.726  65.748  1.00  0.00    -0.375 A  
HETATM   14  C   UNL     1      -9.777  16.005  66.270  1.00  0.00    -0.306 A  
HETATM   15  O   UNL     1      -8.899  16.891  65.710  1.00  0.00    -0.522 OA 
HETATM   16  C   UNL     1     -10.496  16.428  67.382  1.00  0.00    -0.309 A  
HETATM   17  H   UNL     1      -8.771  17.763  66.066  1.00  0.00     0.000 HD 
HETATM   18  C   UNL     1     -11.395  15.577  68.002  1.00  0.00    -0.332 A  
HETATM   19  O   UNL     1     -10.315  17.689  67.874  1.00  0.00    -0.337 OA 
HETATM   20  H   UNL     1     -10.807  17.978  68.633  1.00  0.00     0.000 HD 
HETATM   21  C   UNL     1     -11.582  14.291  67.492  1.00  0.00    -0.390 A  
ENDBRANCH   9  12
ENDBRANCH   3   9
ENDBRANCH   2   3
TORSDOF 5
ENDMDL
MODEL      122
REMARK 921   NORMALIZED FREE ENERGY PREDICTED BY IDOCK:   -4.56 KCAL/MOL
REMARK 922        TOTAL FREE ENERGY PREDICTED BY IDOCK:   -6.57 KCAL/MOL
REMARK 923 INTER-LIGAND FREE ENERGY PREDICTED BY IDOCK:   -5.85 KCAL/MOL
REMARK 924 INTRA-LIGAND FREE ENERGY PREDICTED BY IDOCK:   -0.71 KCAL/MOL
REMARK 927      BINDING AFFINITY PREDICTED BY RF-SCORE:    0.00 PKD
ROOT
HETATM    1  C   UNL     1     -10.140  10.121  67.590  1.00  0.00    -0.231 C  
HETATM    2  C   UNL     1     -11.365  10.957  67.942  1.00  0.00    -0.380 C  
ENDROOT
BRANCH   2   3
HETATM    3  C   UNL     1     -11.421  12.353  67.273  1.00  0.00    -0.354 C  
BRANCH   3   4
HETATM    4  N   UNL     1     -12.184  12.414  66.010  1.00  0.00    -0.624 NA 
HETATM    5  H   UNL     1     -13.192  12.261  66.002  1.00  0.00     0.000 HD 
BRANCH   4   6
HETATM    6  C   UNL     1     -11.459  12.700  64.767  1.00  0.00    -0.321 C  
HETATM    7  C   UNL     1     -12.399  12.377  63.597  1.00  0.00    -0.647 C  
HETATM    8  C   UNL     1     -11.017  14.157  64.621  1.00  0.00    -0.393 C  
ENDBRANCH   4   6
ENDBRANCH   3   4
BRANCH   3   9
HETATM    9  C   UNL     1     -11.799  13.444  68.343  1.00  0.00    -0.366 C  
HETATM   10  H   UNL     1     -12.064  13.517  70.297  1.00  0.00     0.000 HD 
HETATM   11  O   UNL     1     -11.835  12.859  69.651  1.00  0.00    -0.311 OA 
BRANCH   9  12
HETATM   12  C   UNL     1     -10.905  14.669  68.432  1.00  0.00    -0.250 A  
HETATM   13  C   UNL     1     -11.339  15.958  68.084  1.00  0.00    -0.311 A  
HETATM   14  C   UNL     1     -10.464  17.039  68.184  1.00  0.00    -0.357 A  
HETATM   15  O   UNL     1     -10.850  18.311  67.864  1.00  0.00    -0.363 OA 
HETATM   16  C   UNL     1      -9.159  16.854  68.627  1.00  0.00    -0.265 A  
HETATM   17  H   UNL     1     -10.254  19.048  67.932  1.00  0.00     0.000 HD 
HETATM   18  C   UNL     1      -8.703  15.590  68.958  1.00  0.00    -0.235 A  
HETATM   19  O   UNL     1      -8.317  17.924  68.736  1.00  0.00    -0.288 OA 
HETATM   20  H   UNL     1      -7.426  17.798  69.039  1.00  0.00     0.000 HD 
HETATM   21  C   UNL     1      -9.569  14.500  68.852  1.00  0.00    -0.158 A  
ENDBRANCH   9  12
ENDBRANCH   3   9
ENDBRANCH   2   3
TORSDOF 5
ENDMDL
MODEL      123
REMARK 921   NORMALIZED FREE ENERGY PREDICTED BY IDOCK:   -4.55 KCAL/MOL
REMARK 922        TOTAL FREE ENERGY PREDICTED BY IDOCK:   -6.55 KCAL/MOL
REMARK 923 INTER-LIGAND FREE ENERGY PREDICTED BY IDOCK:   -5.71 KCAL/MOL
REMARK 924 INTRA-LIGAND FREE ENERGY PREDICTED BY IDOCK:   -0.84 KCAL/MOL
REMARK 927      BINDING AFFINITY PREDICTED BY RF-SCORE:    0.00 PKD
ROOT
HETATM    1  C   UNL     1     -14.407   8.286  71.847  1.00  0.00    -0.564 C  
HETATM    2  C   UNL     1     -13.116   8.756  72.503  1.00  0.00    -0.392 C  
ENDROOT
BRANCH   2   3
HETATM    3  C   UNL     1     -11.815   8.238  71.839  1.00  0.00    -0.324 C  
BRANCH   3   4
HETATM    4  N   UNL     1     -12.013   7.256  70.753  1.00  0.00    -0.460 NA 
HETATM    5  H   UNL     1     -12.624   7.466  69.965  1.00  0.00     0.000 HD 
BRANCH   4   6
HETATM    6  C   UNL     1     -11.310   5.971  70.835  1.00  0.00    -0.229 C  
HETATM    7  C   UNL     1     -10.170   6.000  69.807  1.00  0.00    -0.265 C  
HETATM    8  C   UNL     1     -10.695   5.680  72.205  1.00  0.00    -0.287 C  
ENDBRANCH   4   6
ENDBRANCH   3   4
BRANCH   3   9
HETATM    9  C   UNL     1     -10.874   9.450  71.489  1.00  0.00    -0.328 C  
HETATM   10  H   UNL     1      -8.937   9.755  71.267  1.00  0.00     0.000 HD 
HETATM   11  O   UNL     1      -9.506   9.023  71.478  1.00  0.00    -0.272 OA 
BRANCH   9  12
HETATM   12  C   UNL     1     -11.124  10.167  70.173  1.00  0.00    -0.378 A  
HETATM   13  C   UNL     1     -10.642   9.693  68.942  1.00  0.00    -0.239 A  
HETATM   14  C   UNL     1     -10.903  10.405  67.772  1.00  0.00    -0.297 A  
HETATM   15  O   UNL     1     -10.462   9.973  66.552  1.00  0.00    -0.215 OA 
HETATM   16  C   UNL     1     -11.640  11.583  67.810  1.00  0.00    -0.267 A  
HETATM   17  H   UNL     1     -10.639  10.457  65.754  1.00  0.00     0.000 HD 
HETATM   18  C   UNL     1     -12.109  12.079  69.013  1.00  0.00    -0.223 A  
HETATM   19  O   UNL     1     -11.903  12.261  66.654  1.00  0.00    -0.536 OA 
HETATM   20  H   UNL     1     -12.407  13.066  66.679  1.00  0.00     0.000 HD 
HETATM   21  C   UNL     1     -11.844  11.379  70.192  1.00  0.00    -0.440 A  
ENDBRANCH   9  12
ENDBRANCH   3   9
ENDBRANCH   2   3
TORSDOF 5
ENDMDL
MODEL      124
REMARK 921   NORMALIZED FREE ENERGY PREDICTED BY IDOCK:   -4.51 KCAL/MOL
REMARK 922        TOTAL FREE ENERGY PREDICTED BY IDOCK:   -6.50 KCAL/MOL
REMARK 923 INTER-LIGAND FREE ENERGY PREDICTED BY IDOCK:   -5.78 KCAL/MOL
REMARK 924 INTRA-LIGAND FREE ENERGY PREDICTED BY IDOCK:   -0.72 KCAL/MOL
REMARK 927      BINDING AFFINITY PREDICTED BY RF-SCORE:    0.00 PKD
ROOT
HETATM    1  C   UNL     1     -10.678  16.805  67.901  1.00  0.00    -0.347 C  
HETATM    2  C   UNL     1     -10.789  15.555  68.764  1.00  0.00    -0.256 C  
ENDROOT
BRANCH   2   3
HETATM    3  C   UNL     1      -9.996  14.328  68.246  1.00  0.00    -0.239 C  
BRANCH   3   4
HETATM    4  N   UNL     1      -8.797  13.977  69.033  1.00  0.00    -0.374 NA 
HETATM    5  H   UNL     1      -8.832  13.240  69.737  1.00  0.00     0.000 HD 
BRANCH   4   6
HETATM    6  C   UNL     1      -7.553  14.713  68.780  1.00  0.00    -0.138 C  
HETATM    7  C   UNL     1      -6.385  13.801  69.179  1.00  0.00    -0.105 C  
HETATM    8  C   UNL     1      -7.351  15.118  67.319  1.00  0.00    -0.216 C  
ENDBRANCH   4   6
ENDBRANCH   3   4
BRANCH   3   9
HETATM    9  C   UNL     1     -10.984  13.138  67.954  1.00  0.00    -0.249 C  
HETATM   10  H   UNL     1     -12.929  12.822  68.041  1.00  0.00     0.000 HD 
HETATM   11  O   UNL     1     -12.333  13.541  68.217  1.00  0.00    -0.215 OA 
BRANCH   9  12
HETATM   12  C   UNL     1     -10.964  12.546  66.554  1.00  0.00    -0.303 A  
HETATM   13  C   UNL     1     -12.001  12.742  65.628  1.00  0.00    -0.503 A  
HETATM   14  C   UNL     1     -11.922  12.165  64.362  1.00  0.00    -0.361 A  
HETATM   15  O   UNL     1     -12.906  12.339  63.427  1.00  0.00    -0.754 OA 
HETATM   16  C   UNL     1     -10.822  11.395  64.002  1.00  0.00    -0.383 A  
HETATM   17  H   UNL     1     -12.852  11.946  62.564  1.00  0.00     0.000 HD 
HETATM   18  C   UNL     1      -9.797  11.172  64.904  1.00  0.00    -0.316 A  
HETATM   19  O   UNL     1     -10.750  10.849  62.753  1.00  0.00    -0.772 OA 
HETATM   20  H   UNL     1      -9.998  10.323  62.507  1.00  0.00     0.000 HD 
HETATM   21  C   UNL     1      -9.872  11.738  66.179  1.00  0.00    -0.254 A  
ENDBRANCH   9  12
ENDBRANCH   3   9
ENDBRANCH   2   3
TORSDOF 5
ENDMDL
MODEL      125
REMARK 921   NORMALIZED FREE ENERGY PREDICTED BY IDOCK:   -4.50 KCAL/MOL
REMARK 922        TOTAL FREE ENERGY PREDICTED BY IDOCK:   -6.49 KCAL/MOL
REMARK 923 INTER-LIGAND FREE ENERGY PREDICTED BY IDOCK:   -5.59 KCAL/MOL
REMARK 924 INTRA-LIGAND FREE ENERGY PREDICTED BY IDOCK:   -0.91 KCAL/MOL
REMARK 927      BINDING AFFINITY PREDICTED BY RF-SCORE:    0.00 PKD
ROOT
HETATM    1  C   UNL     1      -8.086  11.419  68.650  1.00  0.00    -0.141 C  
HETATM    2  C   UNL     1      -8.664  11.736  67.276  1.00  0.00    -0.163 C  
ENDROOT
BRANCH   2   3
HETATM    3  C   UNL     1      -9.621  12.954  67.232  1.00  0.00    -0.220 C  
BRANCH   3   4
HETATM    4  N   UNL     1      -9.382  13.900  66.124  1.00  0.00    -0.493 NA 
HETATM    5  H   UNL     1      -9.298  13.569  65.163  1.00  0.00     0.000 HD 
BRANCH   4   6
HETATM    6  C   UNL     1      -9.268  15.329  66.435  1.00  0.00    -0.307 C  
HETATM    7  C   UNL     1     -10.441  16.047  65.753  1.00  0.00    -0.391 C  
HETATM    8  C   UNL     1      -9.331  15.651  67.929  1.00  0.00    -0.195 C  
ENDBRANCH   4   6
ENDBRANCH   3   4
BRANCH   3   9
HETATM    9  C   UNL     1     -11.110  12.470  67.397  1.00  0.00    -0.272 C  
HETATM   10  H   UNL     1     -12.140  10.825  67.044  1.00  0.00     0.000 HD 
HETATM   11  O   UNL     1     -11.241  11.117  66.944  1.00  0.00    -0.295 OA 
BRANCH   9  12
HETATM   12  C   UNL     1     -11.708  12.529  68.793  1.00  0.00    -0.371 A  
HETATM   13  C   UNL     1     -12.124  13.727  69.395  1.00  0.00    -0.377 A  
HETATM   14  C   UNL     1     -12.660  13.710  70.683  1.00  0.00    -0.296 A  
HETATM   15  O   UNL     1     -13.086  14.852  71.301  1.00  0.00    -0.332 OA 
HETATM   16  C   UNL     1     -12.789  12.514  71.379  1.00  0.00    -0.260 A  
HETATM   17  H   UNL     1     -13.451  14.841  72.178  1.00  0.00     0.000 HD 
HETATM   18  C   UNL     1     -12.370  11.323  70.813  1.00  0.00    -0.495 A  
HETATM   19  O   UNL     1     -13.331  12.509  72.632  1.00  0.00    -0.551 OA 
HETATM   20  H   UNL     1     -13.420  11.692  73.108  1.00  0.00     0.000 HD 
HETATM   21  C   UNL     1     -11.822  11.331  69.529  1.00  0.00    -0.427 A  
ENDBRANCH   9  12
ENDBRANCH   3   9
ENDBRANCH   2   3
TORSDOF 5
ENDMDL
MODEL      126
REMARK 921   NORMALIZED FREE ENERGY PREDICTED BY IDOCK:   -4.50 KCAL/MOL
REMARK 922        TOTAL FREE ENERGY PREDICTED BY IDOCK:   -6.49 KCAL/MOL
REMARK 923 INTER-LIGAND FREE ENERGY PREDICTED BY IDOCK:   -5.84 KCAL/MOL
REMARK 924 INTRA-LIGAND FREE ENERGY PREDICTED BY IDOCK:   -0.65 KCAL/MOL
REMARK 927      BINDING AFFINITY PREDICTED BY RF-SCORE:    0.00 PKD
ROOT
HETATM    1  C   UNL     1      -8.213   7.019  66.682  1.00  0.00    -0.112 C  
HETATM    2  C   UNL     1      -9.524   6.828  67.435  1.00  0.00    -0.150 C  
ENDROOT
BRANCH   2   3
HETATM    3  C   UNL     1      -9.879   7.960  68.431  1.00  0.00    -0.173 C  
BRANCH   3   4
HETATM    4  N   UNL     1     -11.011   8.819  68.028  1.00  0.00    -0.480 NA 
HETATM    5  H   UNL     1     -11.966   8.461  68.037  1.00  0.00     0.000 HD 
BRANCH   4   6
HETATM    6  C   UNL     1     -10.731  10.198  67.615  1.00  0.00    -0.285 C  
HETATM    7  C   UNL     1     -11.651  11.121  68.427  1.00  0.00    -0.376 C  
HETATM    8  C   UNL     1      -9.289  10.645  67.859  1.00  0.00    -0.154 C  
ENDBRANCH   4   6
ENDBRANCH   3   4
BRANCH   3   9
HETATM    9  C   UNL     1      -9.958   7.381  69.892  1.00  0.00    -0.188 C  
HETATM   10  H   UNL     1      -8.820   7.370  71.504  1.00  0.00     0.000 HD 
HETATM   11  O   UNL     1      -8.772   7.720  70.621  1.00  0.00    -0.136 OA 
BRANCH   9  12
HETATM   12  C   UNL     1     -11.140   7.810  70.747  1.00  0.00    -0.265 A  
HETATM   13  C   UNL     1     -12.213   6.957  71.050  1.00  0.00    -0.427 A  
HETATM   14  C   UNL     1     -13.269   7.418  71.835  1.00  0.00    -0.240 A  
HETATM   15  O   UNL     1     -14.327   6.617  72.161  1.00  0.00    -0.565 OA 
HETATM   16  C   UNL     1     -13.271   8.719  72.325  1.00  0.00    -0.412 A  
HETATM   17  H   UNL     1     -15.047   6.930  72.696  1.00  0.00     0.000 HD 
HETATM   18  C   UNL     1     -12.233   9.584  72.024  1.00  0.00    -0.370 A  
HETATM   19  O   UNL     1     -14.303   9.153  73.106  1.00  0.00    -1.102 OA 
HETATM   20  H   UNL     1     -14.305  10.041  73.442  1.00  0.00     0.000 HD 
HETATM   21  C   UNL     1     -11.176   9.135  71.230  1.00  0.00    -0.407 A  
ENDBRANCH   9  12
ENDBRANCH   3   9
ENDBRANCH   2   3
TORSDOF 5
ENDMDL
MODEL      127
REMARK 921   NORMALIZED FREE ENERGY PREDICTED BY IDOCK:   -4.48 KCAL/MOL
REMARK 922        TOTAL FREE ENERGY PREDICTED BY IDOCK:   -6.46 KCAL/MOL
REMARK 923 INTER-LIGAND FREE ENERGY PREDICTED BY IDOCK:   -5.75 KCAL/MOL
REMARK 924 INTRA-LIGAND FREE ENERGY PREDICTED BY IDOCK:   -0.71 KCAL/MOL
REMARK 927      BINDING AFFINITY PREDICTED BY RF-SCORE:    0.00 PKD
ROOT
HETATM    1  C   UNL     1      -9.942  18.344  66.939  1.00  0.00    -0.367 C  
HETATM    2  C   UNL     1     -10.604  17.522  68.037  1.00  0.00    -0.384 C  
ENDROOT
BRANCH   2   3
HETATM    3  C   UNL     1     -10.160  16.039  68.104  1.00  0.00    -0.234 C  
BRANCH   3   4
HETATM    4  N   UNL     1      -9.240  15.708  69.211  1.00  0.00    -0.255 NA 
HETATM    5  H   UNL     1      -9.443  16.004  70.165  1.00  0.00     0.000 HD 
BRANCH   4   6
HETATM    6  C   UNL     1      -8.025  14.944  68.906  1.00  0.00    -0.163 C  
HETATM    7  C   UNL     1      -7.807  15.006  67.388  1.00  0.00    -0.226 C  
HETATM    8  C   UNL     1      -6.762  15.481  69.581  1.00  0.00    -0.180 C  
ENDBRANCH   4   6
ENDBRANCH   3   4
BRANCH   3   9
HETATM    9  C   UNL     1     -11.415  15.099  67.967  1.00  0.00    -0.342 C  
HETATM   10  H   UNL     1     -11.852  13.397  67.070  1.00  0.00     0.000 HD 
HETATM   11  O   UNL     1     -11.094  13.964  67.153  1.00  0.00    -0.290 OA 
BRANCH   9  12
HETATM   12  C   UNL     1     -12.025  14.563  69.251  1.00  0.00    -0.355 A  
HETATM   13  C   UNL     1     -12.719  15.373  70.164  1.00  0.00    -0.263 A  
HETATM   14  C   UNL     1     -13.249  14.817  71.328  1.00  0.00    -0.382 A  
HETATM   15  O   UNL     1     -13.939  15.569  72.237  1.00  0.00    -0.507 OA 
HETATM   16  C   UNL     1     -13.098  13.461  71.595  1.00  0.00    -0.375 A  
HETATM   17  H   UNL     1     -14.300  15.191  73.030  1.00  0.00     0.000 HD 
HETATM   18  C   UNL     1     -12.403  12.646  70.720  1.00  0.00    -0.372 A  
HETATM   19  O   UNL     1     -13.636  12.926  72.730  1.00  0.00    -0.672 OA 
HETATM   20  H   UNL     1     -13.534  12.000  72.913  1.00  0.00     0.000 HD 
HETATM   21  C   UNL     1     -11.860  13.196  69.557  1.00  0.00    -0.383 A  
ENDBRANCH   9  12
ENDBRANCH   3   9
ENDBRANCH   2   3
TORSDOF 5
ENDMDL
MODEL      128
REMARK 921   NORMALIZED FREE ENERGY PREDICTED BY IDOCK:   -4.47 KCAL/MOL
REMARK 922        TOTAL FREE ENERGY PREDICTED BY IDOCK:   -6.45 KCAL/MOL
REMARK 923 INTER-LIGAND FREE ENERGY PREDICTED BY IDOCK:   -5.82 KCAL/MOL
REMARK 924 INTRA-LIGAND FREE ENERGY PREDICTED BY IDOCK:   -0.63 KCAL/MOL
REMARK 927      BINDING AFFINITY PREDICTED BY RF-SCORE:    0.00 PKD
ROOT
HETATM    1  C   UNL     1     -10.496  11.780  63.601  1.00  0.00    -0.490 C  
HETATM    2  C   UNL     1     -10.465  11.353  65.063  1.00  0.00    -0.361 C  
ENDROOT
BRANCH   2   3
HETATM    3  C   UNL     1     -10.006  12.449  66.057  1.00  0.00    -0.255 C  
BRANCH   3   4
HETATM    4  N   UNL     1      -9.570  13.717  65.437  1.00  0.00    -0.521 NA 
HETATM    5  H   UNL     1      -8.802  13.732  64.767  1.00  0.00     0.000 HD 
BRANCH   4   6
HETATM    6  C   UNL     1     -10.267  14.953  65.808  1.00  0.00    -0.336 C  
HETATM    7  C   UNL     1      -9.201  16.030  66.054  1.00  0.00    -0.375 C  
HETATM    8  C   UNL     1     -11.221  15.479  64.735  1.00  0.00    -0.399 C  
ENDBRANCH   4   6
ENDBRANCH   3   4
BRANCH   3   9
HETATM    9  C   UNL     1     -11.060  12.593  67.218  1.00  0.00    -0.278 C  
HETATM   10  H   UNL     1     -13.022  12.513  67.403  1.00  0.00     0.000 HD 
HETATM   11  O   UNL     1     -12.386  12.426  66.703  1.00  0.00    -0.477 OA 
BRANCH   9  12
HETATM   12  C   UNL     1     -10.923  11.649  68.401  1.00  0.00    -0.265 A  
HETATM   13  C   UNL     1      -9.844  10.764  68.551  1.00  0.00    -0.182 A  
HETATM   14  C   UNL     1      -9.785   9.919  69.659  1.00  0.00    -0.229 A  
HETATM   15  O   UNL     1      -8.746   9.050  69.848  1.00  0.00    -0.137 OA 
HETATM   16  C   UNL     1     -10.786   9.945  70.623  1.00  0.00    -0.330 A  
HETATM   17  H   UNL     1      -8.705   8.474  70.603  1.00  0.00     0.000 HD 
HETATM   18  C   UNL     1     -11.869  10.795  70.487  1.00  0.00    -0.453 A  
HETATM   19  O   UNL     1     -10.707   9.124  71.711  1.00  0.00    -0.355 OA 
HETATM   20  H   UNL     1     -11.391   9.142  72.370  1.00  0.00     0.000 HD 
HETATM   21  C   UNL     1     -11.943  11.637  69.376  1.00  0.00    -0.381 A  
ENDBRANCH   9  12
ENDBRANCH   3   9
ENDBRANCH   2   3
TORSDOF 5
ENDMDL
MODEL      129
REMARK 921   NORMALIZED FREE ENERGY PREDICTED BY IDOCK:   -4.46 KCAL/MOL
REMARK 922        TOTAL FREE ENERGY PREDICTED BY IDOCK:   -6.43 KCAL/MOL
REMARK 923 INTER-LIGAND FREE ENERGY PREDICTED BY IDOCK:   -5.67 KCAL/MOL
REMARK 924 INTRA-LIGAND FREE ENERGY PREDICTED BY IDOCK:   -0.76 KCAL/MOL
REMARK 927      BINDING AFFINITY PREDICTED BY RF-SCORE:    0.00 PKD
ROOT
HETATM    1  C   UNL     1     -10.526   8.287  67.080  1.00  0.00    -0.384 C  
HETATM    2  C   UNL     1     -10.875   9.768  67.023  1.00  0.00    -0.165 C  
ENDROOT
BRANCH   2   3
HETATM    3  C   UNL     1     -10.326  10.617  68.197  1.00  0.00    -0.176 C  
BRANCH   3   4
HETATM    4  N   UNL     1      -8.861  10.566  68.379  1.00  0.00    -0.134 NA 
HETATM    5  H   UNL     1      -8.233  10.691  67.586  1.00  0.00     0.000 HD 
BRANCH   4   6
HETATM    6  C   UNL     1      -8.331  10.331  69.726  1.00  0.00    -0.080 C  
HETATM    7  C   UNL     1      -9.278   9.350  70.432  1.00  0.00    -0.305 C  
HETATM    8  C   UNL     1      -6.928   9.722  69.749  1.00  0.00    -0.087 C  
ENDBRANCH   4   6
ENDBRANCH   3   4
BRANCH   3   9
HETATM    9  C   UNL     1     -10.950  12.062  68.150  1.00  0.00    -0.230 C  
HETATM   10  H   UNL     1     -12.169  13.069  66.970  1.00  0.00     0.000 HD 
HETATM   11  O   UNL     1     -11.792  12.197  66.998  1.00  0.00    -0.547 OA 
BRANCH   9  12
HETATM   12  C   UNL     1     -11.768  12.505  69.351  1.00  0.00    -0.383 A  
HETATM   13  C   UNL     1     -12.226  13.822  69.520  1.00  0.00    -0.344 A  
HETATM   14  C   UNL     1     -12.968  14.162  70.650  1.00  0.00    -0.228 A  
HETATM   15  O   UNL     1     -13.440  15.430  70.847  1.00  0.00    -0.632 OA 
HETATM   16  C   UNL     1     -13.263  13.207  71.616  1.00  0.00    -0.346 A  
HETATM   17  H   UNL     1     -13.946  15.663  71.617  1.00  0.00     0.000 HD 
HETATM   18  C   UNL     1     -12.807  11.908  71.481  1.00  0.00    -0.421 A  
HETATM   19  O   UNL     1     -14.004  13.550  72.710  1.00  0.00    -0.733 OA 
HETATM   20  H   UNL     1     -14.207  12.898  73.370  1.00  0.00     0.000 HD 
HETATM   21  C   UNL     1     -12.055  11.560  70.357  1.00  0.00    -0.471 A  
ENDBRANCH   9  12
ENDBRANCH   3   9
ENDBRANCH   2   3
TORSDOF 5
ENDMDL
MODEL      130
REMARK 921   NORMALIZED FREE ENERGY PREDICTED BY IDOCK:   -4.44 KCAL/MOL
REMARK 922        TOTAL FREE ENERGY PREDICTED BY IDOCK:   -6.41 KCAL/MOL
REMARK 923 INTER-LIGAND FREE ENERGY PREDICTED BY IDOCK:   -5.59 KCAL/MOL
REMARK 924 INTRA-LIGAND FREE ENERGY PREDICTED BY IDOCK:   -0.82 KCAL/MOL
REMARK 927      BINDING AFFINITY PREDICTED BY RF-SCORE:    0.00 PKD
ROOT
HETATM    1  C   UNL     1     -12.033  14.145  64.601  1.00  0.00    -0.459 C  
HETATM    2  C   UNL     1     -12.071  14.162  66.124  1.00  0.00    -0.454 C  
ENDROOT
BRANCH   2   3
HETATM    3  C   UNL     1     -10.860  13.491  66.818  1.00  0.00    -0.282 C  
BRANCH   3   4
HETATM    4  N   UNL     1      -9.887  12.855  65.907  1.00  0.00    -0.343 NA 
HETATM    5  H   UNL     1      -9.298  13.420  65.296  1.00  0.00     0.000 HD 
BRANCH   4   6
HETATM    6  C   UNL     1      -9.786  11.391  65.902  1.00  0.00    -0.226 C  
HETATM    7  C   UNL     1     -10.751  10.856  66.970  1.00  0.00    -0.323 C  
HETATM    8  C   UNL     1     -10.161  10.743  64.569  1.00  0.00    -0.415 C  
ENDBRANCH   4   6
ENDBRANCH   3   4
BRANCH   3   9
HETATM    9  C   UNL     1     -10.244  14.471  67.885  1.00  0.00    -0.231 C  
HETATM   10  H   UNL     1      -8.646  14.527  69.040  1.00  0.00     0.000 HD 
HETATM   11  O   UNL     1      -9.018  13.935  68.396  1.00  0.00    -0.186 OA 
BRANCH   9  12
HETATM   12  C   UNL     1      -9.951  15.893  67.434  1.00  0.00    -0.239 A  
HETATM   13  C   UNL     1      -8.838  16.230  66.648  1.00  0.00    -0.289 A  
HETATM   14  C   UNL     1      -8.625  17.557  66.275  1.00  0.00    -0.199 A  
HETATM   15  O   UNL     1      -7.559  17.926  65.502  1.00  0.00    -0.518 OA 
HETATM   16  C   UNL     1      -9.508  18.554  66.673  1.00  0.00    -0.311 A  
HETATM   17  H   UNL     1      -7.413  18.830  65.247  1.00  0.00     0.000 HD 
HETATM   18  C   UNL     1     -10.601  18.249  67.463  1.00  0.00    -0.432 A  
HETATM   19  O   UNL     1      -9.297  19.847  66.286  1.00  0.00    -0.374 OA 
HETATM   20  H   UNL     1      -9.900  20.528  66.558  1.00  0.00     0.000 HD 
HETATM   21  C   UNL     1     -10.817  16.925  67.851  1.00  0.00    -0.310 A  
ENDBRANCH   9  12
ENDBRANCH   3   9
ENDBRANCH   2   3
TORSDOF 5
ENDMDL
MODEL      131
REMARK 921   NORMALIZED FREE ENERGY PREDICTED BY IDOCK:   -4.44 KCAL/MOL
REMARK 922        TOTAL FREE ENERGY PREDICTED BY IDOCK:   -6.41 KCAL/MOL
REMARK 923 INTER-LIGAND FREE ENERGY PREDICTED BY IDOCK:   -5.57 KCAL/MOL
REMARK 924 INTRA-LIGAND FREE ENERGY PREDICTED BY IDOCK:   -0.83 KCAL/MOL
REMARK 927      BINDING AFFINITY PREDICTED BY RF-SCORE:    0.00 PKD
ROOT
HETATM    1  C   UNL     1     -10.162  19.965  68.648  1.00  0.00    -0.494 C  
HETATM    2  C   UNL     1     -10.038  19.472  67.212  1.00  0.00    -0.523 C  
ENDROOT
BRANCH   2   3
HETATM    3  C   UNL     1      -9.423  18.059  67.055  1.00  0.00    -0.273 C  
BRANCH   3   4
HETATM    4  N   UNL     1      -8.597  17.603  68.192  1.00  0.00    -0.253 NA 
HETATM    5  H   UNL     1      -9.022  17.403  69.097  1.00  0.00     0.000 HD 
BRANCH   4   6
HETATM    6  C   UNL     1      -7.153  17.444  67.989  1.00  0.00    -0.184 C  
HETATM    7  C   UNL     1      -6.940  16.185  67.137  1.00  0.00    -0.244 C  
HETATM    8  C   UNL     1      -6.490  18.616  67.264  1.00  0.00    -0.200 C  
ENDBRANCH   4   6
ENDBRANCH   3   4
BRANCH   3   9
HETATM    9  C   UNL     1     -10.527  17.045  66.574  1.00  0.00    -0.250 C  
HETATM   10  H   UNL     1     -10.881  15.950  64.972  1.00  0.00     0.000 HD 
HETATM   11  O   UNL     1     -10.214  16.561  65.262  1.00  0.00    -0.588 OA 
BRANCH   9  12
HETATM   12  C   UNL     1     -10.778  15.826  67.446  1.00  0.00    -0.317 A  
HETATM   13  C   UNL     1     -11.498  15.883  68.650  1.00  0.00    -0.391 A  
HETATM   14  C   UNL     1     -11.686  14.726  69.405  1.00  0.00    -0.323 A  
HETATM   15  O   UNL     1     -12.390  14.738  70.578  1.00  0.00    -0.297 OA 
HETATM   16  C   UNL     1     -11.168  13.510  68.977  1.00  0.00    -0.269 A  
HETATM   17  H   UNL     1     -12.519  13.950  71.093  1.00  0.00     0.000 HD 
HETATM   18  C   UNL     1     -10.439  13.432  67.804  1.00  0.00    -0.246 A  
HETATM   19  O   UNL     1     -11.373  12.382  69.718  1.00  0.00    -0.460 OA 
HETATM   20  H   UNL     1     -11.019  11.550  69.425  1.00  0.00     0.000 HD 
HETATM   21  C   UNL     1     -10.236  14.587  67.046  1.00  0.00    -0.262 A  
ENDBRANCH   9  12
ENDBRANCH   3   9
ENDBRANCH   2   3
TORSDOF 5
ENDMDL
MODEL      132
REMARK 921   NORMALIZED FREE ENERGY PREDICTED BY IDOCK:   -4.43 KCAL/MOL
REMARK 922        TOTAL FREE ENERGY PREDICTED BY IDOCK:   -6.40 KCAL/MOL
REMARK 923 INTER-LIGAND FREE ENERGY PREDICTED BY IDOCK:   -5.59 KCAL/MOL
REMARK 924 INTRA-LIGAND FREE ENERGY PREDICTED BY IDOCK:   -0.81 KCAL/MOL
REMARK 927      BINDING AFFINITY PREDICTED BY RF-SCORE:    0.00 PKD
ROOT
HETATM    1  C   UNL     1      -9.891   9.192  66.005  1.00  0.00    -0.342 C  
HETATM    2  C   UNL     1     -10.251  10.542  65.399  1.00  0.00    -0.340 C  
ENDROOT
BRANCH   2   3
HETATM    3  C   UNL     1      -9.963  11.765  66.305  1.00  0.00    -0.218 C  
BRANCH   3   4
HETATM    4  N   UNL     1      -8.575  12.268  66.259  1.00  0.00    -0.405 NA 
HETATM    5  H   UNL     1      -8.140  12.517  65.371  1.00  0.00     0.000 HD 
BRANCH   4   6
HETATM    6  C   UNL     1      -7.836  12.401  67.519  1.00  0.00    -0.169 C  
HETATM    7  C   UNL     1      -8.445  11.409  68.520  1.00  0.00    -0.152 C  
HETATM    8  C   UNL     1      -6.342  12.090  67.405  1.00  0.00    -0.138 C  
ENDBRANCH   4   6
ENDBRANCH   3   4
BRANCH   3   9
HETATM    9  C   UNL     1     -11.082  12.854  66.105  1.00  0.00    -0.286 C  
HETATM   10  H   UNL     1     -13.013  12.882  65.705  1.00  0.00     0.000 HD 
HETATM   11  O   UNL     1     -12.338  12.224  65.826  1.00  0.00    -0.622 OA 
BRANCH   9  12
HETATM   12  C   UNL     1     -11.319  13.824  67.251  1.00  0.00    -0.343 A  
HETATM   13  C   UNL     1     -11.043  15.198  67.158  1.00  0.00    -0.335 A  
HETATM   14  C   UNL     1     -11.279  16.031  68.250  1.00  0.00    -0.350 A  
HETATM   15  O   UNL     1     -11.033  17.376  68.198  1.00  0.00    -0.334 OA 
HETATM   16  C   UNL     1     -11.788  15.516  69.436  1.00  0.00    -0.374 A  
HETATM   17  H   UNL     1     -11.194  17.944  68.942  1.00  0.00     0.000 HD 
HETATM   18  C   UNL     1     -12.051  14.163  69.558  1.00  0.00    -0.388 A  
HETATM   19  O   UNL     1     -12.030  16.346  70.493  1.00  0.00    -0.410 OA 
HETATM   20  H   UNL     1     -12.379  15.994  71.304  1.00  0.00     0.000 HD 
HETATM   21  C   UNL     1     -11.808  13.318  68.473  1.00  0.00    -0.384 A  
ENDBRANCH   9  12
ENDBRANCH   3   9
ENDBRANCH   2   3
TORSDOF 5
ENDMDL
MODEL      133
REMARK 921   NORMALIZED FREE ENERGY PREDICTED BY IDOCK:   -4.43 KCAL/MOL
REMARK 922        TOTAL FREE ENERGY PREDICTED BY IDOCK:   -6.40 KCAL/MOL
REMARK 923 INTER-LIGAND FREE ENERGY PREDICTED BY IDOCK:   -5.62 KCAL/MOL
REMARK 924 INTRA-LIGAND FREE ENERGY PREDICTED BY IDOCK:   -0.78 KCAL/MOL
REMARK 927      BINDING AFFINITY PREDICTED BY RF-SCORE:    0.00 PKD
ROOT
HETATM    1  C   UNL     1     -10.587  10.524  69.033  1.00  0.00    -0.250 C  
HETATM    2  C   UNL     1     -11.452  10.958  67.857  1.00  0.00    -0.344 C  
ENDROOT
BRANCH   2   3
HETATM    3  C   UNL     1     -10.713  11.771  66.764  1.00  0.00    -0.253 C  
BRANCH   3   4
HETATM    4  N   UNL     1     -11.586  12.421  65.767  1.00  0.00    -0.380 NA 
HETATM    5  H   UNL     1     -12.522  12.738  66.020  1.00  0.00     0.000 HD 
BRANCH   4   6
HETATM    6  C   UNL     1     -11.078  12.601  64.403  1.00  0.00    -0.345 C  
HETATM    7  C   UNL     1     -10.672  11.218  63.873  1.00  0.00    -0.451 C  
HETATM    8  C   UNL     1     -12.097  13.193  63.427  1.00  0.00    -0.558 C  
ENDBRANCH   4   6
ENDBRANCH   3   4
BRANCH   3   9
HETATM    9  C   UNL     1      -9.636  12.706  67.430  1.00  0.00    -0.194 C  
HETATM   10  H   UNL     1      -7.711  13.076  67.207  1.00  0.00     0.000 HD 
HETATM   11  O   UNL     1      -8.361  12.511  66.806  1.00  0.00    -0.139 OA 
BRANCH   9  12
HETATM   12  C   UNL     1      -9.910  14.201  67.416  1.00  0.00    -0.239 A  
HETATM   13  C   UNL     1      -9.283  15.084  66.524  1.00  0.00    -0.320 A  
HETATM   14  C   UNL     1      -9.576  16.447  66.570  1.00  0.00    -0.270 A  
HETATM   15  O   UNL     1      -8.995  17.339  65.712  1.00  0.00    -0.521 OA 
HETATM   16  C   UNL     1     -10.490  16.942  67.493  1.00  0.00    -0.328 A  
HETATM   17  H   UNL     1      -9.195  18.267  65.743  1.00  0.00     0.000 HD 
HETATM   18  C   UNL     1     -11.107  16.094  68.395  1.00  0.00    -0.359 A  
HETATM   19  O   UNL     1     -10.781  18.276  67.516  1.00  0.00    -0.419 OA 
HETATM   20  H   UNL     1     -11.405  18.615  68.147  1.00  0.00     0.000 HD 
HETATM   21  C   UNL     1     -10.812  14.730  68.363  1.00  0.00    -0.248 A  
ENDBRANCH   9  12
ENDBRANCH   3   9
ENDBRANCH   2   3
TORSDOF 5
ENDMDL
MODEL      134
REMARK 921   NORMALIZED FREE ENERGY PREDICTED BY IDOCK:   -4.41 KCAL/MOL
REMARK 922        TOTAL FREE ENERGY PREDICTED BY IDOCK:   -6.38 KCAL/MOL
REMARK 923 INTER-LIGAND FREE ENERGY PREDICTED BY IDOCK:   -5.72 KCAL/MOL
REMARK 924 INTRA-LIGAND FREE ENERGY PREDICTED BY IDOCK:   -0.66 KCAL/MOL
REMARK 927      BINDING AFFINITY PREDICTED BY RF-SCORE:    0.00 PKD
ROOT
HETATM    1  C   UNL     1      -9.849   5.601  69.745  1.00  0.00    -0.245 C  
HETATM    2  C   UNL     1     -10.999   6.577  69.526  1.00  0.00    -0.398 C  
ENDROOT
BRANCH   2   3
HETATM    3  C   UNL     1     -10.720   8.031  69.980  1.00  0.00    -0.244 C  
BRANCH   3   4
HETATM    4  N   UNL     1      -9.854   8.163  71.169  1.00  0.00    -0.166 NA 
HETATM    5  H   UNL     1      -8.839   8.154  71.078  1.00  0.00     0.000 HD 
BRANCH   4   6
HETATM    6  C   UNL     1     -10.487   8.307  72.484  1.00  0.00    -0.336 C  
HETATM    7  C   UNL     1     -11.964   8.655  72.251  1.00  0.00    -0.438 C  
HETATM    8  C   UNL     1     -10.437   7.043  73.345  1.00  0.00    -0.383 C  
ENDBRANCH   4   6
ENDBRANCH   3   4
BRANCH   3   9
HETATM    9  C   UNL     1     -10.302   8.908  68.741  1.00  0.00    -0.211 C  
HETATM   10  H   UNL     1     -10.422   8.779  66.776  1.00  0.00     0.000 HD 
HETATM   11  O   UNL     1     -10.675   8.250  67.524  1.00  0.00    -0.242 OA 
BRANCH   9  12
HETATM   12  C   UNL     1     -10.861  10.319  68.668  1.00  0.00    -0.272 A  
HETATM   13  C   UNL     1     -11.204  11.064  69.808  1.00  0.00    -0.339 A  
HETATM   14  C   UNL     1     -11.718  12.353  69.669  1.00  0.00    -0.307 A  
HETATM   15  O   UNL     1     -12.056  13.114  70.754  1.00  0.00    -0.466 OA 
HETATM   16  C   UNL     1     -11.893  12.913  68.409  1.00  0.00    -0.318 A  
HETATM   17  H   UNL     1     -12.406  13.993  70.660  1.00  0.00     0.000 HD 
HETATM   18  C   UNL     1     -11.579  12.191  67.271  1.00  0.00    -0.404 A  
HETATM   19  O   UNL     1     -12.381  14.182  68.288  1.00  0.00    -0.574 OA 
HETATM   20  H   UNL     1     -12.501  14.565  67.427  1.00  0.00     0.000 HD 
HETATM   21  C   UNL     1     -11.073  10.896  67.399  1.00  0.00    -0.373 A  
ENDBRANCH   9  12
ENDBRANCH   3   9
ENDBRANCH   2   3
TORSDOF 5
ENDMDL
MODEL      135
REMARK 921   NORMALIZED FREE ENERGY PREDICTED BY IDOCK:   -4.40 KCAL/MOL
REMARK 922        TOTAL FREE ENERGY PREDICTED BY IDOCK:   -6.37 KCAL/MOL
REMARK 923 INTER-LIGAND FREE ENERGY PREDICTED BY IDOCK:   -5.51 KCAL/MOL
REMARK 924 INTRA-LIGAND FREE ENERGY PREDICTED BY IDOCK:   -0.86 KCAL/MOL
REMARK 927      BINDING AFFINITY PREDICTED BY RF-SCORE:    0.00 PKD
ROOT
HETATM    1  C   UNL     1      -9.523  20.058  67.694  1.00  0.00    -0.498 C  
HETATM    2  C   UNL     1      -9.804  18.603  68.048  1.00  0.00    -0.378 C  
ENDROOT
BRANCH   2   3
HETATM    3  C   UNL     1      -9.358  17.571  66.982  1.00  0.00    -0.259 C  
BRANCH   3   4
HETATM    4  N   UNL     1      -8.276  16.659  67.405  1.00  0.00    -0.166 NA 
HETATM    5  H   UNL     1      -7.744  16.127  66.717  1.00  0.00     0.000 HD 
BRANCH   4   6
HETATM    6  C   UNL     1      -7.983  16.536  68.837  1.00  0.00    -0.239 C  
HETATM    7  C   UNL     1      -7.958  15.039  69.178  1.00  0.00    -0.195 C  
HETATM    8  C   UNL     1      -6.639  17.133  69.255  1.00  0.00    -0.234 C  
ENDBRANCH   4   6
ENDBRANCH   3   4
BRANCH   3   9
HETATM    9  C   UNL     1     -10.621  16.873  66.352  1.00  0.00    -0.183 C  
HETATM   10  H   UNL     1     -11.222  16.329  64.553  1.00  0.00     0.000 HD 
HETATM   11  O   UNL     1     -10.459  16.750  64.934  1.00  0.00    -0.652 OA 
BRANCH   9  12
HETATM   12  C   UNL     1     -10.985  15.493  66.876  1.00  0.00    -0.268 A  
HETATM   13  C   UNL     1     -10.892  14.331  66.095  1.00  0.00    -0.310 A  
HETATM   14  C   UNL     1     -11.249  13.096  66.636  1.00  0.00    -0.304 A  
HETATM   15  O   UNL     1     -11.162  11.939  65.913  1.00  0.00    -0.323 OA 
HETATM   16  C   UNL     1     -11.697  13.003  67.949  1.00  0.00    -0.357 A  
HETATM   17  H   UNL     1     -11.406  11.098  66.282  1.00  0.00     0.000 HD 
HETATM   18  C   UNL     1     -11.816  14.138  68.732  1.00  0.00    -0.384 A  
HETATM   19  O   UNL     1     -12.028  11.786  68.473  1.00  0.00    -0.406 OA 
HETATM   20  H   UNL     1     -12.334  11.722  69.369  1.00  0.00     0.000 HD 
HETATM   21  C   UNL     1     -11.470  15.379  68.195  1.00  0.00    -0.352 A  
ENDBRANCH   9  12
ENDBRANCH   3   9
ENDBRANCH   2   3
TORSDOF 5
ENDMDL
MODEL      136
REMARK 921   NORMALIZED FREE ENERGY PREDICTED BY IDOCK:   -4.40 KCAL/MOL
REMARK 922        TOTAL FREE ENERGY PREDICTED BY IDOCK:   -6.36 KCAL/MOL
REMARK 923 INTER-LIGAND FREE ENERGY PREDICTED BY IDOCK:   -5.40 KCAL/MOL
REMARK 924 INTRA-LIGAND FREE ENERGY PREDICTED BY IDOCK:   -0.96 KCAL/MOL
REMARK 927      BINDING AFFINITY PREDICTED BY RF-SCORE:    0.00 PKD
ROOT
HETATM    1  C   UNL     1      -8.599   9.240  70.419  1.00  0.00    -0.250 C  
HETATM    2  C   UNL     1      -9.816   9.207  71.335  1.00  0.00    -0.354 C  
ENDROOT
BRANCH   2   3
HETATM    3  C   UNL     1     -11.135   8.755  70.658  1.00  0.00    -0.246 C  
BRANCH   3   4
HETATM    4  N   UNL     1     -11.717   7.506  71.189  1.00  0.00    -0.285 NA 
HETATM    5  H   UNL     1     -12.316   7.519  72.014  1.00  0.00     0.000 HD 
BRANCH   4   6
HETATM    6  C   UNL     1     -11.414   6.246  70.502  1.00  0.00    -0.338 C  
HETATM    7  C   UNL     1     -11.110   6.579  69.035  1.00  0.00    -0.375 C  
HETATM    8  C   UNL     1     -10.207   5.497  71.070  1.00  0.00    -0.287 C  
ENDBRANCH   4   6
ENDBRANCH   3   4
BRANCH   3   9
HETATM    9  C   UNL     1     -12.128   9.972  70.556  1.00  0.00    -0.251 C  
HETATM   10  H   UNL     1     -12.746  11.433  71.730  1.00  0.00     0.000 HD 
HETATM   11  O   UNL     1     -12.146  10.698  71.792  1.00  0.00    -0.177 OA 
BRANCH   9  12
HETATM   12  C   UNL     1     -11.874  10.985  69.452  1.00  0.00    -0.407 A  
HETATM   13  C   UNL     1     -12.148  12.355  69.595  1.00  0.00    -0.271 A  
HETATM   14  C   UNL     1     -11.897  13.230  68.539  1.00  0.00    -0.349 A  
HETATM   15  O   UNL     1     -12.140  14.571  68.640  1.00  0.00    -0.498 OA 
HETATM   16  C   UNL     1     -11.374  12.759  67.340  1.00  0.00    -0.313 A  
HETATM   17  H   UNL     1     -11.969  15.168  67.921  1.00  0.00     0.000 HD 
HETATM   18  C   UNL     1     -11.113  11.411  67.169  1.00  0.00    -0.366 A  
HETATM   19  O   UNL     1     -11.117  13.629  66.319  1.00  0.00    -0.298 OA 
HETATM   20  H   UNL     1     -10.759  13.307  65.500  1.00  0.00     0.000 HD 
HETATM   21  C   UNL     1     -11.371  10.526  68.218  1.00  0.00    -0.332 A  
ENDBRANCH   9  12
ENDBRANCH   3   9
ENDBRANCH   2   3
TORSDOF 5
ENDMDL
MODEL      137
REMARK 921   NORMALIZED FREE ENERGY PREDICTED BY IDOCK:   -4.39 KCAL/MOL
REMARK 922        TOTAL FREE ENERGY PREDICTED BY IDOCK:   -6.34 KCAL/MOL
REMARK 923 INTER-LIGAND FREE ENERGY PREDICTED BY IDOCK:   -5.61 KCAL/MOL
REMARK 924 INTRA-LIGAND FREE ENERGY PREDICTED BY IDOCK:   -0.74 KCAL/MOL
REMARK 927      BINDING AFFINITY PREDICTED BY RF-SCORE:    0.00 PKD
ROOT
HETATM    1  C   UNL     1      -9.620  18.710  67.084  1.00  0.00    -0.315 C  
HETATM    2  C   UNL     1     -10.408  17.893  68.100  1.00  0.00    -0.395 C  
ENDROOT
BRANCH   2   3
HETATM    3  C   UNL     1     -10.056  16.385  68.145  1.00  0.00    -0.251 C  
BRANCH   3   4
HETATM    4  N   UNL     1      -9.151  15.984  69.241  1.00  0.00    -0.251 NA 
HETATM    5  H   UNL     1      -9.460  16.021  70.212  1.00  0.00     0.000 HD 
BRANCH   4   6
HETATM    6  C   UNL     1      -7.798  15.530  68.902  1.00  0.00    -0.182 C  
HETATM    7  C   UNL     1      -7.700  15.468  67.372  1.00  0.00    -0.222 C  
HETATM    8  C   UNL     1      -6.684  16.450  69.404  1.00  0.00    -0.215 C  
ENDBRANCH   4   6
ENDBRANCH   3   4
BRANCH   3   9
HETATM    9  C   UNL     1     -11.366  15.525  68.002  1.00  0.00    -0.330 C  
HETATM   10  H   UNL     1     -11.956  13.956  66.962  1.00  0.00     0.000 HD 
HETATM   11  O   UNL     1     -11.165  14.475  67.048  1.00  0.00    -0.315 OA 
BRANCH   9  12
HETATM   12  C   UNL     1     -11.912  14.876  69.264  1.00  0.00    -0.326 A  
HETATM   13  C   UNL     1     -11.905  13.488  69.473  1.00  0.00    -0.392 A  
HETATM   14  C   UNL     1     -12.428  12.959  70.653  1.00  0.00    -0.252 A  
HETATM   15  O   UNL     1     -12.430  11.614  70.900  1.00  0.00    -0.376 OA 
HETATM   16  C   UNL     1     -12.958  13.794  71.629  1.00  0.00    -0.364 A  
HETATM   17  H   UNL     1     -12.787  11.253  71.703  1.00  0.00     0.000 HD 
HETATM   18  C   UNL     1     -12.993  15.164  71.437  1.00  0.00    -0.476 A  
HETATM   19  O   UNL     1     -13.452  13.264  72.786  1.00  0.00    -0.575 OA 
HETATM   20  H   UNL     1     -13.814  13.834  73.454  1.00  0.00     0.000 HD 
HETATM   21  C   UNL     1     -12.481  15.703  70.255  1.00  0.00    -0.369 A  
ENDBRANCH   9  12
ENDBRANCH   3   9
ENDBRANCH   2   3
TORSDOF 5
ENDMDL
MODEL      138
REMARK 921   NORMALIZED FREE ENERGY PREDICTED BY IDOCK:   -4.39 KCAL/MOL
REMARK 922        TOTAL FREE ENERGY PREDICTED BY IDOCK:   -6.34 KCAL/MOL
REMARK 923 INTER-LIGAND FREE ENERGY PREDICTED BY IDOCK:   -5.82 KCAL/MOL
REMARK 924 INTRA-LIGAND FREE ENERGY PREDICTED BY IDOCK:   -0.52 KCAL/MOL
REMARK 927      BINDING AFFINITY PREDICTED BY RF-SCORE:    0.00 PKD
ROOT
HETATM    1  C   UNL     1     -10.256  16.736  65.709  1.00  0.00    -0.311 C  
HETATM    2  C   UNL     1      -9.637  15.347  65.791  1.00  0.00    -0.368 C  
ENDROOT
BRANCH   2   3
HETATM    3  C   UNL     1     -10.545  14.259  66.417  1.00  0.00    -0.286 C  
BRANCH   3   4
HETATM    4  N   UNL     1     -10.791  13.079  65.564  1.00  0.00    -0.275 NA 
HETATM    5  H   UNL     1     -10.025  12.467  65.287  1.00  0.00     0.000 HD 
BRANCH   4   6
HETATM    6  C   UNL     1     -12.164  12.807  65.124  1.00  0.00    -0.477 C  
HETATM    7  C   UNL     1     -13.028  14.008  65.533  1.00  0.00    -0.353 C  
HETATM    8  C   UNL     1     -12.312  12.618  63.614  1.00  0.00    -0.584 C  
ENDBRANCH   4   6
ENDBRANCH   3   4
BRANCH   3   9
HETATM    9  C   UNL     1     -10.069  13.944  67.884  1.00  0.00    -0.242 C  
HETATM   10  H   UNL     1      -9.896  14.924  69.587  1.00  0.00     0.000 HD 
HETATM   11  O   UNL     1     -10.184  15.114  68.702  1.00  0.00    -0.215 OA 
BRANCH   9  12
HETATM   12  C   UNL     1     -10.780  12.820  68.619  1.00  0.00    -0.273 A  
HETATM   13  C   UNL     1     -10.579  11.463  68.318  1.00  0.00    -0.224 A  
HETATM   14  C   UNL     1     -11.270  10.482  69.028  1.00  0.00    -0.259 A  
HETATM   15  O   UNL     1     -11.095   9.150  68.773  1.00  0.00    -0.444 OA 
HETATM   16  C   UNL     1     -12.159  10.833  70.037  1.00  0.00    -0.345 A  
HETATM   17  H   UNL     1     -11.565   8.481  69.257  1.00  0.00     0.000 HD 
HETATM   18  C   UNL     1     -12.388  12.164  70.339  1.00  0.00    -0.315 A  
HETATM   19  O   UNL     1     -12.817   9.862  70.736  1.00  0.00    -0.479 OA 
HETATM   20  H   UNL     1     -13.424  10.102  71.425  1.00  0.00     0.000 HD 
HETATM   21  C   UNL     1     -11.709  13.154  69.626  1.00  0.00    -0.370 A  
ENDBRANCH   9  12
ENDBRANCH   3   9
ENDBRANCH   2   3
TORSDOF 5
ENDMDL
MODEL      139
REMARK 921   NORMALIZED FREE ENERGY PREDICTED BY IDOCK:   -4.38 KCAL/MOL
REMARK 922        TOTAL FREE ENERGY PREDICTED BY IDOCK:   -6.34 KCAL/MOL
REMARK 923 INTER-LIGAND FREE ENERGY PREDICTED BY IDOCK:   -5.72 KCAL/MOL
REMARK 924 INTRA-LIGAND FREE ENERGY PREDICTED BY IDOCK:   -0.62 KCAL/MOL
REMARK 927      BINDING AFFINITY PREDICTED BY RF-SCORE:    0.00 PKD
ROOT
HETATM    1  C   UNL     1     -10.010  10.887  68.925  1.00  0.00    -0.208 C  
HETATM    2  C   UNL     1     -10.708  12.094  68.310  1.00  0.00    -0.248 C  
ENDROOT
BRANCH   2   3
HETATM    3  C   UNL     1     -10.138  13.469  68.737  1.00  0.00    -0.103 C  
BRANCH   3   4
HETATM    4  N   UNL     1      -8.937  13.909  67.998  1.00  0.00    -0.177 NA 
HETATM    5  H   UNL     1      -8.976  14.079  66.994  1.00  0.00     0.000 HD 
BRANCH   4   6
HETATM    6  C   UNL     1      -7.687  14.097  68.742  1.00  0.00    -0.121 C  
HETATM    7  C   UNL     1      -6.527  13.830  67.773  1.00  0.00    -0.178 C  
HETATM    8  C   UNL     1      -7.503  15.504  69.313  1.00  0.00    -0.212 C  
ENDBRANCH   4   6
ENDBRANCH   3   4
BRANCH   3   9
HETATM    9  C   UNL     1     -11.301  14.527  68.824  1.00  0.00    -0.274 C  
HETATM   10  H   UNL     1     -13.101  14.758  68.050  1.00  0.00     0.000 HD 
HETATM   11  O   UNL     1     -12.399  14.120  67.998  1.00  0.00    -0.233 OA 
BRANCH   9  12
HETATM   12  C   UNL     1     -11.871  14.821  70.202  1.00  0.00    -0.360 A  
HETATM   13  C   UNL     1     -12.909  14.069  70.775  1.00  0.00    -0.355 A  
HETATM   14  C   UNL     1     -13.390  14.398  72.042  1.00  0.00    -0.384 A  
HETATM   15  O   UNL     1     -14.392  13.685  72.640  1.00  0.00    -0.703 OA 
HETATM   16  C   UNL     1     -12.848  15.465  72.749  1.00  0.00    -0.427 A  
HETATM   17  H   UNL     1     -14.720  13.909  73.504  1.00  0.00     0.000 HD 
HETATM   18  C   UNL     1     -11.838  16.232  72.197  1.00  0.00    -0.585 A  
HETATM   19  O   UNL     1     -13.317  15.766  73.996  1.00  0.00    -0.726 OA 
HETATM   20  H   UNL     1     -12.947  16.495  74.480  1.00  0.00     0.000 HD 
HETATM   21  C   UNL     1     -11.357  15.917  70.925  1.00  0.00    -0.428 A  
ENDBRANCH   9  12
ENDBRANCH   3   9
ENDBRANCH   2   3
TORSDOF 5
ENDMDL
MODEL      140
REMARK 921   NORMALIZED FREE ENERGY PREDICTED BY IDOCK:   -4.38 KCAL/MOL
REMARK 922        TOTAL FREE ENERGY PREDICTED BY IDOCK:   -6.33 KCAL/MOL
REMARK 923 INTER-LIGAND FREE ENERGY PREDICTED BY IDOCK:   -5.69 KCAL/MOL
REMARK 924 INTRA-LIGAND FREE ENERGY PREDICTED BY IDOCK:   -0.64 KCAL/MOL
REMARK 927      BINDING AFFINITY PREDICTED BY RF-SCORE:    0.00 PKD
ROOT
HETATM    1  C   UNL     1     -10.148   9.749  67.771  1.00  0.00    -0.223 C  
HETATM    2  C   UNL     1     -10.872  10.630  66.760  1.00  0.00    -0.233 C  
ENDROOT
BRANCH   2   3
HETATM    3  C   UNL     1     -10.022  11.779  66.164  1.00  0.00    -0.226 C  
BRANCH   3   4
HETATM    4  N   UNL     1      -9.082  11.378  65.098  1.00  0.00    -0.393 NA 
HETATM    5  H   UNL     1      -8.138  11.761  65.064  1.00  0.00     0.000 HD 
BRANCH   4   6
HETATM    6  C   UNL     1      -9.537  10.416  64.089  1.00  0.00    -0.322 C  
HETATM    7  C   UNL     1      -9.668  11.168  62.757  1.00  0.00    -0.298 C  
HETATM    8  C   UNL     1      -8.584   9.240  63.869  1.00  0.00    -0.208 C  
ENDBRANCH   4   6
ENDBRANCH   3   4
BRANCH   3   9
HETATM    9  C   UNL     1     -10.947  13.006  65.821  1.00  0.00    -0.277 C  
HETATM   10  H   UNL     1     -12.869  13.320  65.505  1.00  0.00     0.000 HD 
HETATM   11  O   UNL     1     -12.311  12.579  65.712  1.00  0.00    -0.627 OA 
BRANCH   9  12
HETATM   12  C   UNL     1     -10.927  14.182  66.783  1.00  0.00    -0.300 A  
HETATM   13  C   UNL     1     -11.825  14.306  67.855  1.00  0.00    -0.393 A  
HETATM   14  C   UNL     1     -11.755  15.416  68.697  1.00  0.00    -0.354 A  
HETATM   15  O   UNL     1     -12.604  15.570  69.758  1.00  0.00    -0.592 OA 
HETATM   16  C   UNL     1     -10.801  16.404  68.487  1.00  0.00    -0.339 A  
HETATM   17  H   UNL     1     -12.557  16.325  70.332  1.00  0.00     0.000 HD 
HETATM   18  C   UNL     1      -9.918  16.313  67.426  1.00  0.00    -0.249 A  
HETATM   19  O   UNL     1     -10.733  17.477  69.329  1.00  0.00    -0.379 OA 
HETATM   20  H   UNL     1     -10.080  18.152  69.186  1.00  0.00     0.000 HD 
HETATM   21  C   UNL     1      -9.986  15.211  66.571  1.00  0.00    -0.279 A  
ENDBRANCH   9  12
ENDBRANCH   3   9
ENDBRANCH   2   3
TORSDOF 5
ENDMDL
MODEL      141
REMARK 921   NORMALIZED FREE ENERGY PREDICTED BY IDOCK:   -4.36 KCAL/MOL
REMARK 922        TOTAL FREE ENERGY PREDICTED BY IDOCK:   -6.30 KCAL/MOL
REMARK 923 INTER-LIGAND FREE ENERGY PREDICTED BY IDOCK:   -6.12 KCAL/MOL
REMARK 924 INTRA-LIGAND FREE ENERGY PREDICTED BY IDOCK:   -0.19 KCAL/MOL
REMARK 927      BINDING AFFINITY PREDICTED BY RF-SCORE:    0.00 PKD
ROOT
HETATM    1  C   UNL     1      -8.001  13.971  67.358  1.00  0.00    -0.191 C  
HETATM    2  C   UNL     1      -9.175  13.660  68.277  1.00  0.00    -0.198 C  
ENDROOT
BRANCH   2   3
HETATM    3  C   UNL     1     -10.443  14.516  68.035  1.00  0.00    -0.236 C  
BRANCH   3   4
HETATM    4  N   UNL     1     -11.327  14.038  66.953  1.00  0.00    -0.316 NA 
HETATM    5  H   UNL     1     -11.983  13.274  67.114  1.00  0.00     0.000 HD 
BRANCH   4   6
HETATM    6  C   UNL     1     -11.241  14.686  65.640  1.00  0.00    -0.342 C  
HETATM    7  C   UNL     1     -10.495  16.015  65.827  1.00  0.00    -0.391 C  
HETATM    8  C   UNL     1     -10.487  13.872  64.587  1.00  0.00    -0.419 C  
ENDBRANCH   4   6
ENDBRANCH   3   4
BRANCH   3   9
HETATM    9  C   UNL     1     -11.156  14.816  69.406  1.00  0.00    -0.281 C  
HETATM   10  H   UNL     1     -12.614  15.979  70.050  1.00  0.00     0.000 HD 
HETATM   11  O   UNL     1     -12.184  15.798  69.222  1.00  0.00    -0.298 OA 
BRANCH   9  12
HETATM   12  C   UNL     1     -11.792  13.641  70.129  1.00  0.00    -0.351 A  
HETATM   13  C   UNL     1     -11.646  12.311  69.702  1.00  0.00    -0.348 A  
HETATM   14  C   UNL     1     -12.263  11.280  70.410  1.00  0.00    -0.365 A  
HETATM   15  O   UNL     1     -12.137   9.972  70.034  1.00  0.00    -0.448 OA 
HETATM   16  C   UNL     1     -13.024  11.555  71.541  1.00  0.00    -0.380 A  
HETATM   17  H   UNL     1     -12.557   9.269  70.515  1.00  0.00     0.000 HD 
HETATM   18  C   UNL     1     -13.198  12.859  71.970  1.00  0.00    -0.549 A  
HETATM   19  O   UNL     1     -13.608  10.534  72.234  1.00  0.00    -0.554 OA 
HETATM   20  H   UNL     1     -14.128  10.722  73.007  1.00  0.00     0.000 HD 
HETATM   21  C   UNL     1     -12.592  13.899  71.262  1.00  0.00    -0.450 A  
ENDBRANCH   9  12
ENDBRANCH   3   9
ENDBRANCH   2   3
TORSDOF 5
ENDMDL
MODEL      142
REMARK 921   NORMALIZED FREE ENERGY PREDICTED BY IDOCK:   -4.35 KCAL/MOL
REMARK 922        TOTAL FREE ENERGY PREDICTED BY IDOCK:   -6.30 KCAL/MOL
REMARK 923 INTER-LIGAND FREE ENERGY PREDICTED BY IDOCK:   -5.55 KCAL/MOL
REMARK 924 INTRA-LIGAND FREE ENERGY PREDICTED BY IDOCK:   -0.76 KCAL/MOL
REMARK 927      BINDING AFFINITY PREDICTED BY RF-SCORE:    0.00 PKD
ROOT
HETATM    1  C   UNL     1     -12.158  12.103  63.658  1.00  0.00    -0.648 C  
HETATM    2  C   UNL     1     -11.285  12.534  64.830  1.00  0.00    -0.344 C  
ENDROOT
BRANCH   2   3
HETATM    3  C   UNL     1     -11.927  12.350  66.228  1.00  0.00    -0.298 C  
BRANCH   3   4
HETATM    4  N   UNL     1     -11.439  11.185  66.994  1.00  0.00    -0.439 NA 
HETATM    5  H   UNL     1     -12.026  10.744  67.702  1.00  0.00     0.000 HD 
BRANCH   4   6
HETATM    6  C   UNL     1     -10.093  10.676  66.714  1.00  0.00    -0.224 C  
HETATM    7  C   UNL     1      -9.260  10.840  67.993  1.00  0.00    -0.150 C  
HETATM    8  C   UNL     1     -10.050   9.200  66.316  1.00  0.00    -0.319 C  
ENDBRANCH   4   6
ENDBRANCH   3   4
BRANCH   3   9
HETATM    9  C   UNL     1     -11.918  13.719  67.004  1.00  0.00    -0.413 C  
HETATM   10  H   UNL     1     -11.944  14.310  68.886  1.00  0.00     0.000 HD 
HETATM   11  O   UNL     1     -11.948  13.484  68.417  1.00  0.00    -0.354 OA 
BRANCH   9  12
HETATM   12  C   UNL     1     -10.757  14.662  66.738  1.00  0.00    -0.301 A  
HETATM   13  C   UNL     1      -9.421  14.322  67.005  1.00  0.00    -0.259 A  
HETATM   14  C   UNL     1      -8.403  15.238  66.742  1.00  0.00    -0.223 A  
HETATM   15  O   UNL     1      -7.089  14.942  66.978  1.00  0.00    -0.316 OA 
HETATM   16  C   UNL     1      -8.697  16.490  66.214  1.00  0.00    -0.333 A  
HETATM   17  H   UNL     1      -6.395  15.566  66.799  1.00  0.00     0.000 HD 
HETATM   18  C   UNL     1     -10.007  16.854  65.961  1.00  0.00    -0.313 A  
HETATM   19  O   UNL     1      -7.689  17.371  65.946  1.00  0.00    -0.496 OA 
HETATM   20  H   UNL     1      -7.890  18.227  65.586  1.00  0.00     0.000 HD 
HETATM   21  C   UNL     1     -11.034  15.948  66.230  1.00  0.00    -0.112 A  
ENDBRANCH   9  12
ENDBRANCH   3   9
ENDBRANCH   2   3
TORSDOF 5
ENDMDL
MODEL      143
REMARK 921   NORMALIZED FREE ENERGY PREDICTED BY IDOCK:   -4.35 KCAL/MOL
REMARK 922        TOTAL FREE ENERGY PREDICTED BY IDOCK:   -6.29 KCAL/MOL
REMARK 923 INTER-LIGAND FREE ENERGY PREDICTED BY IDOCK:   -5.49 KCAL/MOL
REMARK 924 INTRA-LIGAND FREE ENERGY PREDICTED BY IDOCK:   -0.80 KCAL/MOL
REMARK 927      BINDING AFFINITY PREDICTED BY RF-SCORE:    0.00 PKD
ROOT
HETATM    1  C   UNL     1      -9.343  11.047  62.814  1.00  0.00    -0.372 C  
HETATM    2  C   UNL     1     -10.628  11.788  63.163  1.00  0.00    -0.341 C  
ENDROOT
BRANCH   2   3
HETATM    3  C   UNL     1     -10.666  12.400  64.586  1.00  0.00    -0.305 C  
BRANCH   3   4
HETATM    4  N   UNL     1     -12.005  12.469  65.204  1.00  0.00    -0.417 NA 
HETATM    5  H   UNL     1     -12.531  11.619  65.405  1.00  0.00     0.000 HD 
BRANCH   4   6
HETATM    6  C   UNL     1     -12.562  13.788  65.523  1.00  0.00    -0.512 C  
HETATM    7  C   UNL     1     -12.007  14.208  66.891  1.00  0.00    -0.479 C  
HETATM    8  C   UNL     1     -12.198  14.881  64.517  1.00  0.00    -0.396 C  
ENDBRANCH   4   6
ENDBRANCH   3   4
BRANCH   3   9
HETATM    9  C   UNL     1      -9.544  11.749  65.478  1.00  0.00    -0.201 C  
HETATM   10  H   UNL     1      -8.244  12.357  66.833  1.00  0.00     0.000 HD 
HETATM   11  O   UNL     1      -8.922  12.750  66.294  1.00  0.00    -0.103 OA 
BRANCH   9  12
HETATM   12  C   UNL     1      -9.961  10.620  66.406  1.00  0.00    -0.273 A  
HETATM   13  C   UNL     1     -10.001   9.276  66.002  1.00  0.00    -0.325 A  
HETATM   14  C   UNL     1     -10.400   8.289  66.903  1.00  0.00    -0.320 A  
HETATM   15  O   UNL     1     -10.443   6.968  66.553  1.00  0.00    -0.482 OA 
HETATM   16  C   UNL     1     -10.760   8.623  68.204  1.00  0.00    -0.058 A  
HETATM   17  H   UNL     1     -10.715   6.296  67.167  1.00  0.00     0.000 HD 
HETATM   18  C   UNL     1     -10.746   9.943  68.619  1.00  0.00    -0.256 A  
HETATM   19  O   UNL     1     -11.133   7.646  69.081  1.00  0.00    -0.430 OA 
HETATM   20  H   UNL     1     -11.378   7.873  69.970  1.00  0.00     0.000 HD 
HETATM   21  C   UNL     1     -10.358  10.939  67.721  1.00  0.00    -0.218 A  
ENDBRANCH   9  12
ENDBRANCH   3   9
ENDBRANCH   2   3
TORSDOF 5
ENDMDL
MODEL      144
REMARK 921   NORMALIZED FREE ENERGY PREDICTED BY IDOCK:   -4.34 KCAL/MOL
REMARK 922        TOTAL FREE ENERGY PREDICTED BY IDOCK:   -6.29 KCAL/MOL
REMARK 923 INTER-LIGAND FREE ENERGY PREDICTED BY IDOCK:   -5.58 KCAL/MOL
REMARK 924 INTRA-LIGAND FREE ENERGY PREDICTED BY IDOCK:   -0.70 KCAL/MOL
REMARK 927      BINDING AFFINITY PREDICTED BY RF-SCORE:    0.00 PKD
ROOT
HETATM    1  C   UNL     1     -10.505  15.338  65.244  1.00  0.00    -0.436 C  
HETATM    2  C   UNL     1     -10.909  15.946  66.581  1.00  0.00    -0.213 C  
ENDROOT
BRANCH   2   3
HETATM    3  C   UNL     1      -9.845  15.833  67.701  1.00  0.00    -0.232 C  
BRANCH   3   4
HETATM    4  N   UNL     1      -9.218  17.109  68.103  1.00  0.00    -0.253 NA 
HETATM    5  H   UNL     1      -8.579  17.149  68.896  1.00  0.00     0.000 HD 
BRANCH   4   6
HETATM    6  C   UNL     1      -9.536  18.317  67.335  1.00  0.00    -0.266 C  
HETATM    7  C   UNL     1      -9.893  19.424  68.337  1.00  0.00    -0.513 C  
HETATM    8  C   UNL     1      -8.385  18.829  66.467  1.00  0.00    -0.307 C  
ENDBRANCH   4   6
ENDBRANCH   3   4
BRANCH   3   9
HETATM    9  C   UNL     1     -10.403  14.955  68.882  1.00  0.00    -0.244 C  
HETATM   10  H   UNL     1     -11.982  14.963  70.065  1.00  0.00     0.000 HD 
HETATM   11  O   UNL     1     -11.645  15.493  69.352  1.00  0.00    -0.308 OA 
BRANCH   9  12
HETATM   12  C   UNL     1     -10.639  13.480  68.600  1.00  0.00    -0.259 A  
HETATM   13  C   UNL     1     -11.692  12.751  69.176  1.00  0.00    -0.375 A  
HETATM   14  C   UNL     1     -11.847  11.398  68.878  1.00  0.00    -0.347 A  
HETATM   15  O   UNL     1     -12.864  10.655  69.410  1.00  0.00    -0.629 OA 
HETATM   16  C   UNL     1     -10.968  10.759  68.012  1.00  0.00    -0.283 A  
HETATM   17  H   UNL     1     -12.970   9.733  69.208  1.00  0.00     0.000 HD 
HETATM   18  C   UNL     1      -9.912  11.452  67.446  1.00  0.00    -0.207 A  
HETATM   19  O   UNL     1     -11.141   9.438  67.716  1.00  0.00    -0.504 OA 
HETATM   20  H   UNL     1     -10.541   9.001  67.123  1.00  0.00     0.000 HD 
HETATM   21  C   UNL     1      -9.742  12.805  67.746  1.00  0.00    -0.207 A  
ENDBRANCH   9  12
ENDBRANCH   3   9
ENDBRANCH   2   3
TORSDOF 5
ENDMDL
MODEL      145
REMARK 921   NORMALIZED FREE ENERGY PREDICTED BY IDOCK:   -4.31 KCAL/MOL
REMARK 922        TOTAL FREE ENERGY PREDICTED BY IDOCK:   -6.25 KCAL/MOL
REMARK 923 INTER-LIGAND FREE ENERGY PREDICTED BY IDOCK:   -5.39 KCAL/MOL
REMARK 924 INTRA-LIGAND FREE ENERGY PREDICTED BY IDOCK:   -0.86 KCAL/MOL
REMARK 927      BINDING AFFINITY PREDICTED BY RF-SCORE:    0.00 PKD
ROOT
HETATM    1  C   UNL     1     -12.309  10.267  71.360  1.00  0.00    -0.502 C  
HETATM    2  C   UNL     1     -12.455   8.951  72.114  1.00  0.00    -0.459 C  
ENDROOT
BRANCH   2   3
HETATM    3  C   UNL     1     -11.198   8.046  72.102  1.00  0.00    -0.319 C  
BRANCH   3   4
HETATM    4  N   UNL     1     -10.705   7.638  73.434  1.00  0.00    -0.351 NA 
HETATM    5  H   UNL     1     -11.353   7.333  74.159  1.00  0.00     0.000 HD 
BRANCH   4   6
HETATM    6  C   UNL     1      -9.261   7.682  73.689  1.00  0.00    -0.283 C  
HETATM    7  C   UNL     1      -8.748   6.235  73.698  1.00  0.00    -0.127 C  
HETATM    8  C   UNL     1      -8.462   8.454  72.638  1.00  0.00    -0.223 C  
ENDBRANCH   4   6
ENDBRANCH   3   4
BRANCH   3   9
HETATM    9  C   UNL     1     -11.390   6.876  71.067  1.00  0.00    -0.299 C  
HETATM   10  H   UNL     1     -12.890   5.802  70.365  1.00  0.00     0.000 HD 
HETATM   11  O   UNL     1     -12.773   6.509  70.990  1.00  0.00    -0.145 OA 
BRANCH   9  12
HETATM   12  C   UNL     1     -10.919   7.123  69.644  1.00  0.00    -0.236 A  
HETATM   13  C   UNL     1     -11.259   6.284  68.570  1.00  0.00    -0.305 A  
HETATM   14  C   UNL     1     -10.786   6.566  67.289  1.00  0.00    -0.390 A  
HETATM   15  O   UNL     1     -11.102   5.781  66.215  1.00  0.00    -0.733 OA 
HETATM   16  C   UNL     1      -9.980   7.675  67.061  1.00  0.00    -0.240 A  
HETATM   17  H   UNL     1     -10.780   5.972  65.342  1.00  0.00     0.000 HD 
HETATM   18  C   UNL     1      -9.617   8.506  68.106  1.00  0.00    -0.158 A  
HETATM   19  O   UNL     1      -9.538   7.949  65.798  1.00  0.00    -0.418 OA 
HETATM   20  H   UNL     1      -8.987   8.707  65.642  1.00  0.00     0.000 HD 
HETATM   21  C   UNL     1     -10.076   8.226  69.394  1.00  0.00    -0.198 A  
ENDBRANCH   9  12
ENDBRANCH   3   9
ENDBRANCH   2   3
TORSDOF 5
ENDMDL
MODEL      146
REMARK 921   NORMALIZED FREE ENERGY PREDICTED BY IDOCK:   -4.31 KCAL/MOL
REMARK 922        TOTAL FREE ENERGY PREDICTED BY IDOCK:   -6.25 KCAL/MOL
REMARK 923 INTER-LIGAND FREE ENERGY PREDICTED BY IDOCK:   -5.55 KCAL/MOL
REMARK 924 INTRA-LIGAND FREE ENERGY PREDICTED BY IDOCK:   -0.70 KCAL/MOL
REMARK 927      BINDING AFFINITY PREDICTED BY RF-SCORE:    0.00 PKD
ROOT
HETATM    1  C   UNL     1     -10.392  10.935  67.818  1.00  0.00    -0.218 C  
HETATM    2  C   UNL     1     -11.510  11.920  68.134  1.00  0.00    -0.384 C  
ENDROOT
BRANCH   2   3
HETATM    3  C   UNL     1     -11.543  13.184  67.240  1.00  0.00    -0.355 C  
BRANCH   3   4
HETATM    4  N   UNL     1     -12.398  13.083  66.040  1.00  0.00    -0.490 NA 
HETATM    5  H   UNL     1     -13.341  12.699  66.102  1.00  0.00     0.000 HD 
BRANCH   4   6
HETATM    6  C   UNL     1     -11.861  13.546  64.756  1.00  0.00    -0.381 C  
HETATM    7  C   UNL     1     -10.404  13.971  64.989  1.00  0.00    -0.432 C  
HETATM    8  C   UNL     1     -11.866  12.484  63.655  1.00  0.00    -0.610 C  
ENDBRANCH   4   6
ENDBRANCH   3   4
BRANCH   3   9
HETATM    9  C   UNL     1     -11.778  14.463  68.128  1.00  0.00    -0.342 C  
HETATM   10  H   UNL     1     -12.322  14.849  69.985  1.00  0.00     0.000 HD 
HETATM   11  O   UNL     1     -12.181  14.078  69.448  1.00  0.00    -0.336 OA 
BRANCH   9  12
HETATM   12  C   UNL     1     -10.610  15.423  68.285  1.00  0.00    -0.253 A  
HETATM   13  C   UNL     1      -9.284  14.992  68.447  1.00  0.00    -0.193 A  
HETATM   14  C   UNL     1      -8.260  15.928  68.592  1.00  0.00    -0.182 A  
HETATM   15  O   UNL     1      -6.954  15.551  68.742  1.00  0.00    -0.110 OA 
HETATM   16  C   UNL     1      -8.539  17.290  68.577  1.00  0.00    -0.270 A  
HETATM   17  H   UNL     1      -6.257  16.188  68.841  1.00  0.00     0.000 HD 
HETATM   18  C   UNL     1      -9.841  17.738  68.438  1.00  0.00    -0.347 A  
HETATM   19  O   UNL     1      -7.526  18.196  68.704  1.00  0.00    -0.277 OA 
HETATM   20  H   UNL     1      -7.716  19.126  68.693  1.00  0.00     0.000 HD 
HETATM   21  C   UNL     1     -10.874  16.808  68.302  1.00  0.00    -0.366 A  
ENDBRANCH   9  12
ENDBRANCH   3   9
ENDBRANCH   2   3
TORSDOF 5
ENDMDL
MODEL      147
REMARK 921   NORMALIZED FREE ENERGY PREDICTED BY IDOCK:   -4.27 KCAL/MOL
REMARK 922        TOTAL FREE ENERGY PREDICTED BY IDOCK:   -6.20 KCAL/MOL
REMARK 923 INTER-LIGAND FREE ENERGY PREDICTED BY IDOCK:   -5.52 KCAL/MOL
REMARK 924 INTRA-LIGAND FREE ENERGY PREDICTED BY IDOCK:   -0.68 KCAL/MOL
REMARK 927      BINDING AFFINITY PREDICTED BY RF-SCORE:    0.00 PKD
ROOT
HETATM    1  C   UNL     1      -9.805  15.639  65.501  1.00  0.00    -0.326 C  
HETATM    2  C   UNL     1     -10.890  14.579  65.647  1.00  0.00    -0.329 C  
ENDROOT
BRANCH   2   3
HETATM    3  C   UNL     1     -11.183  14.135  67.102  1.00  0.00    -0.317 C  
BRANCH   3   4
HETATM    4  N   UNL     1     -11.614  15.215  68.013  1.00  0.00    -0.341 NA 
HETATM    5  H   UNL     1     -12.428  15.787  67.795  1.00  0.00     0.000 HD 
BRANCH   4   6
HETATM    6  C   UNL     1     -10.844  15.444  69.241  1.00  0.00    -0.253 C  
HETATM    7  C   UNL     1     -10.386  16.909  69.233  1.00  0.00    -0.298 C  
HETATM    8  C   UNL     1     -11.635  15.209  70.529  1.00  0.00    -0.340 C  
ENDBRANCH   4   6
ENDBRANCH   3   4
BRANCH   3   9
HETATM    9  C   UNL     1     -12.095  12.852  67.096  1.00  0.00    -0.219 C  
HETATM   10  H   UNL     1     -12.881  11.646  65.747  1.00  0.00     0.000 HD 
HETATM   11  O   UNL     1     -12.330  12.421  65.750  1.00  0.00    -0.644 OA 
BRANCH   9  12
HETATM   12  C   UNL     1     -11.596  11.642  67.867  1.00  0.00    -0.369 A  
HETATM   13  C   UNL     1     -11.835  11.457  69.238  1.00  0.00    -0.417 A  
HETATM   14  C   UNL     1     -11.342  10.325  69.886  1.00  0.00    -0.290 A  
HETATM   15  O   UNL     1     -11.562  10.103  71.217  1.00  0.00    -0.364 OA 
HETATM   16  C   UNL     1     -10.614   9.371  69.186  1.00  0.00    -0.218 A  
HETATM   17  H   UNL     1     -11.226   9.332  71.659  1.00  0.00     0.000 HD 
HETATM   18  C   UNL     1     -10.349   9.540  67.838  1.00  0.00    -0.276 A  
HETATM   19  O   UNL     1     -10.151   8.259  69.829  1.00  0.00    -0.189 OA 
HETATM   20  H   UNL     1      -9.653   7.606  69.350  1.00  0.00     0.000 HD 
HETATM   21  C   UNL     1     -10.829  10.675  67.183  1.00  0.00    -0.328 A  
ENDBRANCH   9  12
ENDBRANCH   3   9
ENDBRANCH   2   3
TORSDOF 5
ENDMDL
MODEL      148
REMARK 921   NORMALIZED FREE ENERGY PREDICTED BY IDOCK:   -4.27 KCAL/MOL
REMARK 922        TOTAL FREE ENERGY PREDICTED BY IDOCK:   -6.19 KCAL/MOL
REMARK 923 INTER-LIGAND FREE ENERGY PREDICTED BY IDOCK:   -5.35 KCAL/MOL
REMARK 924 INTRA-LIGAND FREE ENERGY PREDICTED BY IDOCK:   -0.84 KCAL/MOL
REMARK 927      BINDING AFFINITY PREDICTED BY RF-SCORE:    0.00 PKD
ROOT
HETATM    1  C   UNL     1      -9.949   8.332  72.163  1.00  0.00    -0.343 C  
HETATM    2  C   UNL     1     -11.125   9.214  71.766  1.00  0.00    -0.437 C  
ENDROOT
BRANCH   2   3
HETATM    3  C   UNL     1     -11.035   9.828  70.346  1.00  0.00    -0.312 C  
BRANCH   3   4
HETATM    4  N   UNL     1     -10.771   8.863  69.260  1.00  0.00    -0.345 NA 
HETATM    5  H   UNL     1     -11.407   8.084  69.088  1.00  0.00     0.000 HD 
BRANCH   4   6
HETATM    6  C   UNL     1      -9.573   9.049  68.434  1.00  0.00    -0.152 C  
HETATM    7  C   UNL     1      -8.774  10.215  69.032  1.00  0.00    -0.161 C  
HETATM    8  C   UNL     1      -8.651   7.829  68.383  1.00  0.00    -0.128 C  
ENDBRANCH   4   6
ENDBRANCH   3   4
BRANCH   3   9
HETATM    9  C   UNL     1     -12.251  10.798  70.105  1.00  0.00    -0.346 C  
HETATM   10  H   UNL     1     -13.558  11.777  71.213  1.00  0.00     0.000 HD 
HETATM   11  O   UNL     1     -12.824  11.191  71.358  1.00  0.00    -0.413 OA 
BRANCH   9  12
HETATM   12  C   UNL     1     -11.978  12.073  69.325  1.00  0.00    -0.329 A  
HETATM   13  C   UNL     1     -11.925  13.340  69.927  1.00  0.00    -0.400 A  
HETATM   14  C   UNL     1     -11.676  14.471  69.151  1.00  0.00    -0.314 A  
HETATM   15  O   UNL     1     -11.605  15.722  69.700  1.00  0.00    -0.318 OA 
HETATM   16  C   UNL     1     -11.476  14.358  67.780  1.00  0.00    -0.336 A  
HETATM   17  H   UNL     1     -11.436  16.493  69.171  1.00  0.00     0.000 HD 
HETATM   18  C   UNL     1     -11.543  13.122  67.161  1.00  0.00    -0.410 A  
HETATM   19  O   UNL     1     -11.217  15.471  67.033  1.00  0.00    -0.285 OA 
HETATM   20  H   UNL     1     -11.080  15.394  66.097  1.00  0.00     0.000 HD 
HETATM   21  C   UNL     1     -11.802  11.985  67.928  1.00  0.00    -0.320 A  
ENDBRANCH   9  12
ENDBRANCH   3   9
ENDBRANCH   2   3
TORSDOF 5
ENDMDL
MODEL      149
REMARK 921   NORMALIZED FREE ENERGY PREDICTED BY IDOCK:   -4.26 KCAL/MOL
REMARK 922        TOTAL FREE ENERGY PREDICTED BY IDOCK:   -6.18 KCAL/MOL
REMARK 923 INTER-LIGAND FREE ENERGY PREDICTED BY IDOCK:   -5.53 KCAL/MOL
REMARK 924 INTRA-LIGAND FREE ENERGY PREDICTED BY IDOCK:   -0.65 KCAL/MOL
REMARK 927      BINDING AFFINITY PREDICTED BY RF-SCORE:    0.00 PKD
ROOT
HETATM    1  C   UNL     1     -11.250  15.964  64.610  1.00  0.00    -0.361 C  
HETATM    2  C   UNL     1     -10.944  14.492  64.855  1.00  0.00    -0.421 C  
ENDROOT
BRANCH   2   3
HETATM    3  C   UNL     1     -11.165  14.010  66.311  1.00  0.00    -0.320 C  
BRANCH   3   4
HETATM    4  N   UNL     1     -11.644  15.045  67.250  1.00  0.00    -0.318 NA 
HETATM    5  H   UNL     1     -12.401  15.676  66.988  1.00  0.00     0.000 HD 
BRANCH   4   6
HETATM    6  C   UNL     1     -11.008  15.144  68.567  1.00  0.00    -0.262 C  
HETATM    7  C   UNL     1     -10.872  16.635  68.906  1.00  0.00    -0.321 C  
HETATM    8  C   UNL     1     -11.797  14.479  69.696  1.00  0.00    -0.367 C  
ENDBRANCH   4   6
ENDBRANCH   3   4
BRANCH   3   9
HETATM    9  C   UNL     1     -11.986  12.667  66.311  1.00  0.00    -0.374 C  
HETATM   10  H   UNL     1     -13.110  11.663  65.037  1.00  0.00     0.000 HD 
HETATM   11  O   UNL     1     -12.614  12.474  65.038  1.00  0.00    -0.592 OA 
BRANCH   9  12
HETATM   12  C   UNL     1     -11.227  11.389  66.627  1.00  0.00    -0.298 A  
HETATM   13  C   UNL     1     -10.510  10.667  65.659  1.00  0.00    -0.235 A  
HETATM   14  C   UNL     1      -9.840   9.497  66.016  1.00  0.00    -0.283 A  
HETATM   15  O   UNL     1      -9.123   8.771  65.107  1.00  0.00    -0.383 OA 
HETATM   16  C   UNL     1      -9.873   9.036  67.327  1.00  0.00    -0.196 A  
HETATM   17  H   UNL     1      -8.666   7.974  65.350  1.00  0.00     0.000 HD 
HETATM   18  C   UNL     1     -10.588   9.720  68.294  1.00  0.00    -0.271 A  
HETATM   19  O   UNL     1      -9.199   7.898  67.667  1.00  0.00    -0.136 OA 
HETATM   20  H   UNL     1      -9.221   7.583  68.563  1.00  0.00     0.000 HD 
HETATM   21  C   UNL     1     -11.270  10.887  67.944  1.00  0.00    -0.387 A  
ENDBRANCH   9  12
ENDBRANCH   3   9
ENDBRANCH   2   3
TORSDOF 5
ENDMDL
MODEL      150
REMARK 921   NORMALIZED FREE ENERGY PREDICTED BY IDOCK:   -4.24 KCAL/MOL
REMARK 922        TOTAL FREE ENERGY PREDICTED BY IDOCK:   -6.16 KCAL/MOL
REMARK 923 INTER-LIGAND FREE ENERGY PREDICTED BY IDOCK:   -5.30 KCAL/MOL
REMARK 924 INTRA-LIGAND FREE ENERGY PREDICTED BY IDOCK:   -0.86 KCAL/MOL
REMARK 927      BINDING AFFINITY PREDICTED BY RF-SCORE:    0.00 PKD
ROOT
HETATM    1  C   UNL     1     -10.187   3.376  72.704  1.00  0.00    -0.234 C  
HETATM    2  C   UNL     1     -10.669   4.721  73.232  1.00  0.00    -0.313 C  
ENDROOT
BRANCH   2   3
HETATM    3  C   UNL     1     -10.594   5.889  72.216  1.00  0.00    -0.217 C  
BRANCH   3   4
HETATM    4  N   UNL     1     -11.277   5.646  70.929  1.00  0.00    -0.136 NA 
HETATM    5  H   UNL     1     -12.295   5.637  70.872  1.00  0.00     0.000 HD 
BRANCH   4   6
HETATM    6  C   UNL     1     -10.458   5.418  69.734  1.00  0.00    -0.307 C  
HETATM    7  C   UNL     1     -10.932   6.399  68.653  1.00  0.00    -0.404 C  
HETATM    8  C   UNL     1      -8.961   5.648  69.948  1.00  0.00    -0.142 C  
ENDBRANCH   4   6
ENDBRANCH   3   4
BRANCH   3   9
HETATM    9  C   UNL     1     -10.963   7.243  72.930  1.00  0.00    -0.337 C  
HETATM   10  H   UNL     1     -10.174   8.403  74.317  1.00  0.00     0.000 HD 
HETATM   11  O   UNL     1      -9.952   7.586  73.886  1.00  0.00    -0.281 OA 
BRANCH   9  12
HETATM   12  C   UNL     1     -11.166   8.461  72.046  1.00  0.00    -0.404 A  
HETATM   13  C   UNL     1     -10.164   8.971  71.205  1.00  0.00    -0.363 A  
HETATM   14  C   UNL     1     -10.416  10.098  70.423  1.00  0.00    -0.173 A  
HETATM   15  O   UNL     1      -9.471  10.620  69.584  1.00  0.00    -0.414 OA 
HETATM   16  C   UNL     1     -11.656  10.725  70.466  1.00  0.00    -0.330 A  
HETATM   17  H   UNL     1      -9.643  11.387  69.052  1.00  0.00     0.000 HD 
HETATM   18  C   UNL     1     -12.654  10.252  71.300  1.00  0.00    -0.522 A  
HETATM   19  O   UNL     1     -11.896  11.818  69.683  1.00  0.00    -0.300 OA 
HETATM   20  H   UNL     1     -12.743  12.246  69.711  1.00  0.00     0.000 HD 
HETATM   21  C   UNL     1     -12.407   9.131  72.094  1.00  0.00    -0.424 A  
ENDBRANCH   9  12
ENDBRANCH   3   9
ENDBRANCH   2   3
TORSDOF 5
ENDMDL
MODEL      151
REMARK 921   NORMALIZED FREE ENERGY PREDICTED BY IDOCK:   -4.22 KCAL/MOL
REMARK 922        TOTAL FREE ENERGY PREDICTED BY IDOCK:   -6.13 KCAL/MOL
REMARK 923 INTER-LIGAND FREE ENERGY PREDICTED BY IDOCK:   -5.43 KCAL/MOL
REMARK 924 INTRA-LIGAND FREE ENERGY PREDICTED BY IDOCK:   -0.70 KCAL/MOL
REMARK 927      BINDING AFFINITY PREDICTED BY RF-SCORE:    0.00 PKD
ROOT
HETATM    1  C   UNL     1      -9.059   3.349  71.100  1.00  0.00    -0.179 C  
HETATM    2  C   UNL     1      -9.999   4.487  71.475  1.00  0.00    -0.259 C  
ENDROOT
BRANCH   2   3
HETATM    3  C   UNL     1      -9.763   5.813  70.710  1.00  0.00    -0.174 C  
BRANCH   3   4
HETATM    4  N   UNL     1     -10.695   6.067  69.592  1.00  0.00    -0.300 NA 
HETATM    5  H   UNL     1     -11.704   6.038  69.737  1.00  0.00     0.000 HD 
BRANCH   4   6
HETATM    6  C   UNL     1     -10.137   6.363  68.269  1.00  0.00    -0.153 C  
HETATM    7  C   UNL     1     -10.624   5.272  67.305  1.00  0.00    -0.200 C  
HETATM    8  C   UNL     1     -10.565   7.715  67.696  1.00  0.00    -0.294 C  
ENDBRANCH   4   6
ENDBRANCH   3   4
BRANCH   3   9
HETATM    9  C   UNL     1      -9.596   6.998  71.732  1.00  0.00    -0.155 C  
HETATM   10  H   UNL     1      -8.244   8.378  72.132  1.00  0.00     0.000 HD 
HETATM   11  O   UNL     1      -8.345   7.662  71.515  1.00  0.00    -0.104 OA 
BRANCH   9  12
HETATM   12  C   UNL     1     -10.672   8.072  71.733  1.00  0.00    -0.296 A  
HETATM   13  C   UNL     1     -11.880   7.941  72.435  1.00  0.00    -0.402 A  
HETATM   14  C   UNL     1     -12.828   8.963  72.388  1.00  0.00    -0.380 A  
HETATM   15  O   UNL     1     -14.012   8.880  73.065  1.00  0.00    -1.022 OA 
HETATM   16  C   UNL     1     -12.587  10.117  71.650  1.00  0.00    -0.434 A  
HETATM   17  H   UNL     1     -14.658   9.576  73.033  1.00  0.00     0.000 HD 
HETATM   18  C   UNL     1     -11.412  10.260  70.935  1.00  0.00    -0.425 A  
HETATM   19  O   UNL     1     -13.516  11.117  71.626  1.00  0.00    -0.264 OA 
HETATM   20  H   UNL     1     -13.352  11.906  71.123  1.00  0.00     0.000 HD 
HETATM   21  C   UNL     1     -10.461   9.238  70.968  1.00  0.00    -0.384 A  
ENDBRANCH   9  12
ENDBRANCH   3   9
ENDBRANCH   2   3
TORSDOF 5
ENDMDL
MODEL      152
REMARK 921   NORMALIZED FREE ENERGY PREDICTED BY IDOCK:   -4.22 KCAL/MOL
REMARK 922        TOTAL FREE ENERGY PREDICTED BY IDOCK:   -6.13 KCAL/MOL
REMARK 923 INTER-LIGAND FREE ENERGY PREDICTED BY IDOCK:   -5.79 KCAL/MOL
REMARK 924 INTRA-LIGAND FREE ENERGY PREDICTED BY IDOCK:   -0.34 KCAL/MOL
REMARK 927      BINDING AFFINITY PREDICTED BY RF-SCORE:    0.00 PKD
ROOT
HETATM    1  C   UNL     1     -12.441  12.613  70.642  1.00  0.00    -0.323 C  
HETATM    2  C   UNL     1     -11.537  12.515  69.420  1.00  0.00    -0.368 C  
ENDROOT
BRANCH   2   3
HETATM    3  C   UNL     1     -11.709  11.225  68.579  1.00  0.00    -0.308 C  
BRANCH   3   4
HETATM    4  N   UNL     1     -11.697  11.422  67.116  1.00  0.00    -0.544 NA 
HETATM    5  H   UNL     1     -12.523  11.218  66.555  1.00  0.00     0.000 HD 
BRANCH   4   6
HETATM    6  C   UNL     1     -10.469  11.919  66.487  1.00  0.00    -0.221 C  
HETATM    7  C   UNL     1     -10.122  10.969  65.331  1.00  0.00    -0.326 C  
HETATM    8  C   UNL     1     -10.587  13.331  65.909  1.00  0.00    -0.288 C  
ENDBRANCH   4   6
ENDBRANCH   3   4
BRANCH   3   9
HETATM    9  C   UNL     1     -10.743  10.103  69.117  1.00  0.00    -0.226 C  
HETATM   10  H   UNL     1      -9.050  10.019  70.125  1.00  0.00     0.000 HD 
HETATM   11  O   UNL     1      -9.633  10.696  69.801  1.00  0.00    -0.052 OA 
BRANCH   9  12
HETATM   12  C   UNL     1     -11.338   9.066  70.055  1.00  0.00    -0.072 A  
HETATM   13  C   UNL     1     -12.172   9.401  71.134  1.00  0.00    -0.402 A  
HETATM   14  C   UNL     1     -12.678   8.398  71.960  1.00  0.00    -0.360 A  
HETATM   15  O   UNL     1     -13.502   8.681  73.014  1.00  0.00    -0.812 OA 
HETATM   16  C   UNL     1     -12.366   7.064  71.726  1.00  0.00    -0.354 A  
HETATM   17  H   UNL     1     -13.847   7.998  73.578  1.00  0.00     0.000 HD 
HETATM   18  C   UNL     1     -11.531   6.711  70.680  1.00  0.00    -0.420 A  
HETATM   19  O   UNL     1     -12.882   6.091  72.533  1.00  0.00    -0.507 OA 
HETATM   20  H   UNL     1     -12.670   5.179  72.373  1.00  0.00     0.000 HD 
HETATM   21  C   UNL     1     -11.011   7.709  69.854  1.00  0.00    -0.208 A  
ENDBRANCH   9  12
ENDBRANCH   3   9
ENDBRANCH   2   3
TORSDOF 5
ENDMDL
MODEL      153
REMARK 921   NORMALIZED FREE ENERGY PREDICTED BY IDOCK:   -4.21 KCAL/MOL
REMARK 922        TOTAL FREE ENERGY PREDICTED BY IDOCK:   -6.11 KCAL/MOL
REMARK 923 INTER-LIGAND FREE ENERGY PREDICTED BY IDOCK:   -5.26 KCAL/MOL
REMARK 924 INTRA-LIGAND FREE ENERGY PREDICTED BY IDOCK:   -0.86 KCAL/MOL
REMARK 927      BINDING AFFINITY PREDICTED BY RF-SCORE:    0.00 PKD
ROOT
HETATM    1  C   UNL     1      -9.638  17.218  67.057  1.00  0.00    -0.262 C  
HETATM    2  C   UNL     1     -10.641  16.276  66.401  1.00  0.00    -0.253 C  
ENDROOT
BRANCH   2   3
HETATM    3  C   UNL     1     -11.286  15.239  67.354  1.00  0.00    -0.284 C  
BRANCH   3   4
HETATM    4  N   UNL     1     -12.072  15.811  68.466  1.00  0.00    -0.472 NA 
HETATM    5  H   UNL     1     -12.906  16.368  68.283  1.00  0.00     0.000 HD 
BRANCH   4   6
HETATM    6  C   UNL     1     -11.626  15.560  69.841  1.00  0.00    -0.335 C  
HETATM    7  C   UNL     1     -12.786  14.887  70.588  1.00  0.00    -0.422 C  
HETATM    8  C   UNL     1     -10.408  14.641  69.946  1.00  0.00     0.109 C  
ENDBRANCH   4   6
ENDBRANCH   3   4
BRANCH   3   9
HETATM    9  C   UNL     1     -12.016  14.124  66.516  1.00  0.00    -0.442 C  
HETATM   10  H   UNL     1     -12.363  13.746  64.611  1.00  0.00     0.000 HD 
HETATM   11  O   UNL     1     -11.922  14.419  65.117  1.00  0.00    -0.368 OA 
BRANCH   9  12
HETATM   12  C   UNL     1     -11.538  12.693  66.699  1.00  0.00    -0.443 A  
HETATM   13  C   UNL     1     -11.829  11.931  67.842  1.00  0.00    -0.308 A  
HETATM   14  C   UNL     1     -11.353  10.625  67.948  1.00  0.00    -0.268 A  
HETATM   15  O   UNL     1     -11.622   9.846  69.039  1.00  0.00    -0.473 OA 
HETATM   16  C   UNL     1     -10.592  10.064  66.928  1.00  0.00    -0.192 A  
HETATM   17  H   UNL     1     -11.298   8.956  69.112  1.00  0.00     0.000 HD 
HETATM   18  C   UNL     1     -10.278  10.802  65.801  1.00  0.00    -0.319 A  
HETATM   19  O   UNL     1     -10.147   8.778  67.037  1.00  0.00    -0.214 OA 
HETATM   20  H   UNL     1      -9.627   8.395  66.341  1.00  0.00     0.000 HD 
HETATM   21  C   UNL     1     -10.741  12.114  65.690  1.00  0.00    -0.312 A  
ENDBRANCH   9  12
ENDBRANCH   3   9
ENDBRANCH   2   3
TORSDOF 5
ENDMDL
MODEL      154
REMARK 921   NORMALIZED FREE ENERGY PREDICTED BY IDOCK:   -4.20 KCAL/MOL
REMARK 922        TOTAL FREE ENERGY PREDICTED BY IDOCK:   -6.10 KCAL/MOL
REMARK 923 INTER-LIGAND FREE ENERGY PREDICTED BY IDOCK:   -5.49 KCAL/MOL
REMARK 924 INTRA-LIGAND FREE ENERGY PREDICTED BY IDOCK:   -0.61 KCAL/MOL
REMARK 927      BINDING AFFINITY PREDICTED BY RF-SCORE:    0.00 PKD
ROOT
HETATM    1  C   UNL     1      -6.887   8.895  70.198  1.00  0.00    -0.042 C  
HETATM    2  C   UNL     1      -7.611   8.261  69.018  1.00  0.00    -0.089 C  
ENDROOT
BRANCH   2   3
HETATM    3  C   UNL     1      -8.906   8.987  68.575  1.00  0.00    -0.134 C  
BRANCH   3   4
HETATM    4  N   UNL     1      -9.999   8.103  68.122  1.00  0.00    -0.179 NA 
HETATM    5  H   UNL     1     -10.961   8.271  68.415  1.00  0.00     0.000 HD 
BRANCH   4   6
HETATM    6  C   UNL     1      -9.670   6.977  67.242  1.00  0.00    -0.149 C  
HETATM    7  C   UNL     1     -10.952   6.157  67.038  1.00  0.00    -0.414 C  
HETATM    8  C   UNL     1      -9.156   7.389  65.862  1.00  0.00    -0.073 C  
ENDBRANCH   4   6
ENDBRANCH   3   4
BRANCH   3   9
HETATM    9  C   UNL     1      -9.310  10.063  69.650  1.00  0.00    -0.220 C  
HETATM   10  H   UNL     1      -9.912  11.942  69.656  1.00  0.00     0.000 HD 
HETATM   11  O   UNL     1      -9.668  11.292  69.007  1.00  0.00    -0.160 OA 
BRANCH   9  12
HETATM   12  C   UNL     1     -10.449   9.710  70.592  1.00  0.00    -0.379 A  
HETATM   13  C   UNL     1     -10.373   8.663  71.524  1.00  0.00    -0.341 A  
HETATM   14  C   UNL     1     -11.458   8.388  72.355  1.00  0.00    -0.380 A  
HETATM   15  O   UNL     1     -11.421   7.385  73.283  1.00  0.00    -0.602 OA 
HETATM   16  C   UNL     1     -12.622   9.145  72.271  1.00  0.00    -0.355 A  
HETATM   17  H   UNL     1     -12.160   7.197  73.849  1.00  0.00     0.000 HD 
HETATM   18  C   UNL     1     -12.728  10.169  71.348  1.00  0.00    -0.530 A  
HETATM   19  O   UNL     1     -13.672   8.876  73.102  1.00  0.00    -1.009 OA 
HETATM   20  H   UNL     1     -14.467   9.392  73.045  1.00  0.00     0.000 HD 
HETATM   21  C   UNL     1     -11.650  10.445  70.505  1.00  0.00    -0.433 A  
ENDBRANCH   9  12
ENDBRANCH   3   9
ENDBRANCH   2   3
TORSDOF 5
ENDMDL
MODEL      155
REMARK 921   NORMALIZED FREE ENERGY PREDICTED BY IDOCK:   -4.20 KCAL/MOL
REMARK 922        TOTAL FREE ENERGY PREDICTED BY IDOCK:   -6.10 KCAL/MOL
REMARK 923 INTER-LIGAND FREE ENERGY PREDICTED BY IDOCK:   -5.57 KCAL/MOL
REMARK 924 INTRA-LIGAND FREE ENERGY PREDICTED BY IDOCK:   -0.53 KCAL/MOL
REMARK 927      BINDING AFFINITY PREDICTED BY RF-SCORE:    0.00 PKD
ROOT
HETATM    1  C   UNL     1     -12.450   6.947  71.617  1.00  0.00    -0.418 C  
HETATM    2  C   UNL     1     -11.226   7.665  71.064  1.00  0.00    -0.283 C  
ENDROOT
BRANCH   2   3
HETATM    3  C   UNL     1     -11.092   9.151  71.482  1.00  0.00    -0.365 C  
BRANCH   3   4
HETATM    4  N   UNL     1      -9.799   9.783  71.150  1.00  0.00    -0.248 NA 
HETATM    5  H   UNL     1      -9.703  10.798  71.139  1.00  0.00     0.000 HD 
BRANCH   4   6
HETATM    6  C   UNL     1      -8.657   8.918  70.836  1.00  0.00    -0.199 C  
HETATM    7  C   UNL     1      -7.697   9.722  69.948  1.00  0.00    -0.162 C  
HETATM    8  C   UNL     1      -7.873   8.446  72.062  1.00  0.00    -0.171 C  
ENDBRANCH   4   6
ENDBRANCH   3   4
BRANCH   3   9
HETATM    9  C   UNL     1     -12.370   9.951  71.030  1.00  0.00    -0.357 C  
HETATM   10  H   UNL     1     -13.865  10.897  71.905  1.00  0.00     0.000 HD 
HETATM   11  O   UNL     1     -13.093  10.413  72.177  1.00  0.00    -0.445 OA 
BRANCH   9  12
HETATM   12  C   UNL     1     -12.153  11.156  70.130  1.00  0.00    -0.443 A  
HETATM   13  C   UNL     1     -11.782  11.044  68.780  1.00  0.00    -0.383 A  
HETATM   14  C   UNL     1     -11.593  12.192  68.012  1.00  0.00    -0.348 A  
HETATM   15  O   UNL     1     -11.241  12.126  66.692  1.00  0.00    -0.288 OA 
HETATM   16  C   UNL     1     -11.770  13.453  68.569  1.00  0.00    -0.357 A  
HETATM   17  H   UNL     1     -11.112  12.908  66.168  1.00  0.00     0.000 HD 
HETATM   18  C   UNL     1     -12.116  13.589  69.902  1.00  0.00    -0.408 A  
HETATM   19  O   UNL     1     -11.597  14.569  67.801  1.00  0.00    -0.330 OA 
HETATM   20  H   UNL     1     -11.718  15.431  68.182  1.00  0.00     0.000 HD 
HETATM   21  C   UNL     1     -12.298  12.446  70.682  1.00  0.00    -0.367 A  
ENDBRANCH   9  12
ENDBRANCH   3   9
ENDBRANCH   2   3
TORSDOF 5
ENDMDL
MODEL      156
REMARK 921   NORMALIZED FREE ENERGY PREDICTED BY IDOCK:   -4.19 KCAL/MOL
REMARK 922        TOTAL FREE ENERGY PREDICTED BY IDOCK:   -6.09 KCAL/MOL
REMARK 923 INTER-LIGAND FREE ENERGY PREDICTED BY IDOCK:   -5.32 KCAL/MOL
REMARK 924 INTRA-LIGAND FREE ENERGY PREDICTED BY IDOCK:   -0.77 KCAL/MOL
REMARK 927      BINDING AFFINITY PREDICTED BY RF-SCORE:    0.00 PKD
ROOT
HETATM    1  C   UNL     1     -11.211   3.407  73.711  1.00  0.00    -0.236 C  
HETATM    2  C   UNL     1     -11.326   4.839  73.205  1.00  0.00    -0.380 C  
ENDROOT
BRANCH   2   3
HETATM    3  C   UNL     1     -10.003   5.644  73.209  1.00  0.00    -0.177 C  
BRANCH   3   4
HETATM    4  N   UNL     1      -9.147   5.454  72.020  1.00  0.00    -0.137 NA 
HETATM    5  H   UNL     1      -8.155   5.684  72.049  1.00  0.00     0.000 HD 
BRANCH   4   6
HETATM    6  C   UNL     1      -9.759   4.928  70.795  1.00  0.00    -0.198 C  
HETATM    7  C   UNL     1      -9.406   5.888  69.651  1.00  0.00    -0.162 C  
HETATM    8  C   UNL     1      -9.270   3.533  70.400  1.00  0.00    -0.219 C  
ENDBRANCH   4   6
ENDBRANCH   3   4
BRANCH   3   9
HETATM    9  C   UNL     1     -10.289   7.142  73.601  1.00  0.00    -0.368 C  
HETATM   10  H   UNL     1      -9.255   8.679  74.280  1.00  0.00     0.000 HD 
HETATM   11  O   UNL     1      -9.082   7.775  74.043  1.00  0.00    -0.263 OA 
BRANCH   9  12
HETATM   12  C   UNL     1     -10.891   8.037  72.530  1.00  0.00    -0.415 A  
HETATM   13  C   UNL     1     -12.272   8.126  72.297  1.00  0.00    -0.397 A  
HETATM   14  C   UNL     1     -12.757   8.964  71.293  1.00  0.00    -0.248 A  
HETATM   15  O   UNL     1     -14.096   9.086  71.041  1.00  0.00    -0.572 OA 
HETATM   16  C   UNL     1     -11.884   9.717  70.518  1.00  0.00    -0.240 A  
HETATM   17  H   UNL     1     -14.426   9.657  70.357  1.00  0.00     0.000 HD 
HETATM   18  C   UNL     1     -10.517   9.632  70.717  1.00  0.00    -0.375 A  
HETATM   19  O   UNL     1     -12.373  10.546  69.549  1.00  0.00    -0.537 OA 
HETATM   20  H   UNL     1     -11.776  11.061  69.020  1.00  0.00     0.000 HD 
HETATM   21  C   UNL     1     -10.022   8.788  71.713  1.00  0.00    -0.396 A  
ENDBRANCH   9  12
ENDBRANCH   3   9
ENDBRANCH   2   3
TORSDOF 5
ENDMDL
MODEL      157
REMARK 921   NORMALIZED FREE ENERGY PREDICTED BY IDOCK:   -4.18 KCAL/MOL
REMARK 922        TOTAL FREE ENERGY PREDICTED BY IDOCK:   -6.08 KCAL/MOL
REMARK 923 INTER-LIGAND FREE ENERGY PREDICTED BY IDOCK:   -5.08 KCAL/MOL
REMARK 924 INTRA-LIGAND FREE ENERGY PREDICTED BY IDOCK:   -0.99 KCAL/MOL
REMARK 927      BINDING AFFINITY PREDICTED BY RF-SCORE:    0.00 PKD
ROOT
HETATM    1  C   UNL     1      -8.305  10.359  68.508  1.00  0.00    -0.124 C  
HETATM    2  C   UNL     1      -9.138  10.933  67.368  1.00  0.00    -0.144 C  
ENDROOT
BRANCH   2   3
HETATM    3  C   UNL     1      -9.546  12.417  67.537  1.00  0.00    -0.185 C  
BRANCH   3   4
HETATM    4  N   UNL     1      -8.898  13.358  66.600  1.00  0.00    -0.434 NA 
HETATM    5  H   UNL     1      -8.942  13.203  65.593  1.00  0.00     0.000 HD 
BRANCH   4   6
HETATM    6  C   UNL     1      -8.190  14.518  67.150  1.00  0.00    -0.188 C  
HETATM    7  C   UNL     1      -9.010  15.769  66.805  1.00  0.00    -0.289 C  
HETATM    8  C   UNL     1      -8.012  14.481  68.669  1.00  0.00    -0.145 C  
ENDBRANCH   4   6
ENDBRANCH   3   4
BRANCH   3   9
HETATM    9  C   UNL     1     -11.113  12.534  67.633  1.00  0.00    -0.258 C  
HETATM   10  H   UNL     1     -12.650  11.298  67.691  1.00  0.00     0.000 HD 
HETATM   11  O   UNL     1     -11.704  11.229  67.633  1.00  0.00    -0.564 OA 
BRANCH   9  12
HETATM   12  C   UNL     1     -11.682  13.277  68.830  1.00  0.00    -0.369 A  
HETATM   13  C   UNL     1     -12.056  12.634  70.021  1.00  0.00    -0.339 A  
HETATM   14  C   UNL     1     -12.578  13.376  71.080  1.00  0.00    -0.343 A  
HETATM   15  O   UNL     1     -12.944  12.790  72.260  1.00  0.00    -0.319 OA 
HETATM   16  C   UNL     1     -12.732  14.753  70.970  1.00  0.00    -0.345 A  
HETATM   17  H   UNL     1     -13.300  13.295  72.981  1.00  0.00     0.000 HD 
HETATM   18  C   UNL     1     -12.389  15.406  69.799  1.00  0.00    -0.288 A  
HETATM   19  O   UNL     1     -13.229  15.470  72.020  1.00  0.00    -0.399 OA 
HETATM   20  H   UNL     1     -13.335  16.411  71.945  1.00  0.00     0.000 HD 
HETATM   21  C   UNL     1     -11.875  14.670  68.730  1.00  0.00    -0.348 A  
ENDBRANCH   9  12
ENDBRANCH   3   9
ENDBRANCH   2   3
TORSDOF 5
ENDMDL
MODEL      158
REMARK 921   NORMALIZED FREE ENERGY PREDICTED BY IDOCK:   -4.17 KCAL/MOL
REMARK 922        TOTAL FREE ENERGY PREDICTED BY IDOCK:   -6.06 KCAL/MOL
REMARK 923 INTER-LIGAND FREE ENERGY PREDICTED BY IDOCK:   -5.55 KCAL/MOL
REMARK 924 INTRA-LIGAND FREE ENERGY PREDICTED BY IDOCK:   -0.51 KCAL/MOL
REMARK 927      BINDING AFFINITY PREDICTED BY RF-SCORE:    0.00 PKD
ROOT
HETATM    1  C   UNL     1      -7.708  13.005  67.761  1.00  0.00    -0.151 C  
HETATM    2  C   UNL     1      -8.919  12.191  68.200  1.00  0.00    -0.195 C  
ENDROOT
BRANCH   2   3
HETATM    3  C   UNL     1      -9.950  11.895  67.083  1.00  0.00    -0.194 C  
BRANCH   3   4
HETATM    4  N   UNL     1     -10.311  10.472  66.921  1.00  0.00    -0.229 NA 
HETATM    5  H   UNL     1     -10.892  10.000  67.613  1.00  0.00     0.000 HD 
BRANCH   4   6
HETATM    6  C   UNL     1      -9.815   9.754  65.742  1.00  0.00    -0.290 C  
HETATM    7  C   UNL     1      -9.810  10.741  64.566  1.00  0.00    -0.369 C  
HETATM    8  C   UNL     1      -8.397   9.203  65.895  1.00  0.00    -0.127 C  
ENDBRANCH   4   6
ENDBRANCH   3   4
BRANCH   3   9
HETATM    9  C   UNL     1     -11.165  12.890  67.200  1.00  0.00    -0.289 C  
HETATM   10  H   UNL     1     -13.018  12.989  66.530  1.00  0.00     0.000 HD 
HETATM   11  O   UNL     1     -12.285  12.389  66.459  1.00  0.00    -0.586 OA 
BRANCH   9  12
HETATM   12  C   UNL     1     -11.668  13.211  68.597  1.00  0.00    -0.362 A  
HETATM   13  C   UNL     1     -11.882  14.523  69.049  1.00  0.00    -0.354 A  
HETATM   14  C   UNL     1     -12.339  14.747  70.347  1.00  0.00    -0.344 A  
HETATM   15  O   UNL     1     -12.571  16.009  70.822  1.00  0.00    -0.497 OA 
HETATM   16  C   UNL     1     -12.588  13.681  71.203  1.00  0.00    -0.371 A  
HETATM   17  H   UNL     1     -12.882  16.162  71.707  1.00  0.00     0.000 HD 
HETATM   18  C   UNL     1     -12.366  12.380  70.787  1.00  0.00    -0.377 A  
HETATM   19  O   UNL     1     -13.051  13.914  72.467  1.00  0.00    -0.433 OA 
HETATM   20  H   UNL     1     -13.221  13.185  73.052  1.00  0.00     0.000 HD 
HETATM   21  C   UNL     1     -11.899  12.146  69.493  1.00  0.00    -0.386 A  
ENDBRANCH   9  12
ENDBRANCH   3   9
ENDBRANCH   2   3
TORSDOF 5
ENDMDL
MODEL      159
REMARK 921   NORMALIZED FREE ENERGY PREDICTED BY IDOCK:   -4.16 KCAL/MOL
REMARK 922        TOTAL FREE ENERGY PREDICTED BY IDOCK:   -6.05 KCAL/MOL
REMARK 923 INTER-LIGAND FREE ENERGY PREDICTED BY IDOCK:   -5.40 KCAL/MOL
REMARK 924 INTRA-LIGAND FREE ENERGY PREDICTED BY IDOCK:   -0.64 KCAL/MOL
REMARK 927      BINDING AFFINITY PREDICTED BY RF-SCORE:    0.00 PKD
ROOT
HETATM    1  C   UNL     1     -10.734  18.053  65.849  1.00  0.00    -0.124 C  
HETATM    2  C   UNL     1     -10.703  17.957  67.369  1.00  0.00    -0.306 C  
ENDROOT
BRANCH   2   3
HETATM    3  C   UNL     1     -10.683  16.515  67.935  1.00  0.00    -0.337 C  
BRANCH   3   4
HETATM    4  N   UNL     1      -9.853  15.555  67.179  1.00  0.00    -0.233 NA 
HETATM    5  H   UNL     1     -10.252  15.011  66.414  1.00  0.00     0.000 HD 
BRANCH   4   6
HETATM    6  C   UNL     1      -8.444  15.400  67.554  1.00  0.00    -0.173 C  
HETATM    7  C   UNL     1      -8.052  13.939  67.292  1.00  0.00    -0.162 C  
HETATM    8  C   UNL     1      -7.484  16.290  66.761  1.00  0.00    -0.266 C  
ENDBRANCH   4   6
ENDBRANCH   3   4
BRANCH   3   9
HETATM    9  C   UNL     1     -10.424  16.554  69.487  1.00  0.00    -0.298 C  
HETATM   10  H   UNL     1     -10.249  17.933  70.887  1.00  0.00     0.000 HD 
HETATM   11  O   UNL     1     -10.405  17.910  69.950  1.00  0.00     0.244 OA 
BRANCH   9  12
HETATM   12  C   UNL     1     -11.401  15.798  70.373  1.00  0.00    -0.389 A  
HETATM   13  C   UNL     1     -11.871  16.304  71.596  1.00  0.00    -0.482 A  
HETATM   14  C   UNL     1     -12.762  15.555  72.363  1.00  0.00    -0.397 A  
HETATM   15  O   UNL     1     -13.251  16.015  73.554  1.00  0.00    -0.611 OA 
HETATM   16  C   UNL     1     -13.194  14.307  71.928  1.00  0.00    -0.375 A  
HETATM   17  H   UNL     1     -13.859  15.505  74.077  1.00  0.00     0.000 HD 
HETATM   18  C   UNL     1     -12.730  13.780  70.736  1.00  0.00    -0.361 A  
HETATM   19  O   UNL     1     -14.080  13.591  72.681  1.00  0.00    -0.762 OA 
HETATM   20  H   UNL     1     -14.376  12.739  72.384  1.00  0.00     0.000 HD 
HETATM   21  C   UNL     1     -11.830  14.518  69.966  1.00  0.00    -0.372 A  
ENDBRANCH   9  12
ENDBRANCH   3   9
ENDBRANCH   2   3
TORSDOF 5
ENDMDL
MODEL      160
REMARK 921   NORMALIZED FREE ENERGY PREDICTED BY IDOCK:   -4.14 KCAL/MOL
REMARK 922        TOTAL FREE ENERGY PREDICTED BY IDOCK:   -6.03 KCAL/MOL
REMARK 923 INTER-LIGAND FREE ENERGY PREDICTED BY IDOCK:   -5.12 KCAL/MOL
REMARK 924 INTRA-LIGAND FREE ENERGY PREDICTED BY IDOCK:   -0.91 KCAL/MOL
REMARK 927      BINDING AFFINITY PREDICTED BY RF-SCORE:    0.00 PKD
ROOT
HETATM    1  C   UNL     1     -12.260  13.662  65.299  1.00  0.00    -0.466 C  
HETATM    2  C   UNL     1     -12.273  14.144  66.744  1.00  0.00    -0.429 C  
ENDROOT
BRANCH   2   3
HETATM    3  C   UNL     1     -10.895  14.133  67.451  1.00  0.00    -0.287 C  
BRANCH   3   4
HETATM    4  N   UNL     1     -10.524  15.395  68.124  1.00  0.00    -0.243 NA 
HETATM    5  H   UNL     1     -10.806  15.575  69.087  1.00  0.00     0.000 HD 
BRANCH   4   6
HETATM    6  C   UNL     1      -9.741  16.384  67.375  1.00  0.00    -0.238 C  
HETATM    7  C   UNL     1      -9.018  15.641  66.242  1.00  0.00    -0.377 C  
HETATM    8  C   UNL     1     -10.578  17.497  66.743  1.00  0.00    -0.201 C  
ENDBRANCH   4   6
ENDBRANCH   3   4
BRANCH   3   9
HETATM    9  C   UNL     1     -10.755  12.834  68.330  1.00  0.00    -0.239 C  
HETATM   10  H   UNL     1     -11.900  11.784  69.545  1.00  0.00     0.000 HD 
HETATM   11  O   UNL     1     -11.985  12.568  69.015  1.00  0.00    -0.289 OA 
BRANCH   9  12
HETATM   12  C   UNL     1     -10.360  11.552  67.616  1.00  0.00    -0.209 A  
HETATM   13  C   UNL     1     -10.856  10.291  67.981  1.00  0.00    -0.325 A  
HETATM   14  C   UNL     1     -10.447   9.153  67.287  1.00  0.00    -0.265 A  
HETATM   15  O   UNL     1     -10.914   7.908  67.604  1.00  0.00    -0.502 OA 
HETATM   16  C   UNL     1      -9.551   9.254  66.229  1.00  0.00    -0.248 A  
HETATM   17  H   UNL     1     -10.636   7.132  67.131  1.00  0.00     0.000 HD 
HETATM   18  C   UNL     1      -9.034  10.484  65.863  1.00  0.00    -0.185 A  
HETATM   19  O   UNL     1      -9.171   8.134  65.547  1.00  0.00    -0.401 OA 
HETATM   20  H   UNL     1      -8.559   8.203  64.824  1.00  0.00     0.000 HD 
HETATM   21  C   UNL     1      -9.429  11.628  66.559  1.00  0.00    -0.219 A  
ENDBRANCH   9  12
ENDBRANCH   3   9
ENDBRANCH   2   3
TORSDOF 5
ENDMDL
MODEL      161
REMARK 921   NORMALIZED FREE ENERGY PREDICTED BY IDOCK:   -4.12 KCAL/MOL
REMARK 922        TOTAL FREE ENERGY PREDICTED BY IDOCK:   -6.00 KCAL/MOL
REMARK 923 INTER-LIGAND FREE ENERGY PREDICTED BY IDOCK:   -5.03 KCAL/MOL
REMARK 924 INTRA-LIGAND FREE ENERGY PREDICTED BY IDOCK:   -0.97 KCAL/MOL
REMARK 927      BINDING AFFINITY PREDICTED BY RF-SCORE:    0.00 PKD
ROOT
HETATM    1  C   UNL     1      -9.668  14.874  68.568  1.00  0.00    -0.215 C  
HETATM    2  C   UNL     1      -9.221  14.372  67.201  1.00  0.00    -0.230 C  
ENDROOT
BRANCH   2   3
HETATM    3  C   UNL     1     -10.210  13.408  66.500  1.00  0.00    -0.282 C  
BRANCH   3   4
HETATM    4  N   UNL     1      -9.738  12.847  65.218  1.00  0.00    -0.485 NA 
HETATM    5  H   UNL     1      -8.824  12.402  65.149  1.00  0.00     0.000 HD 
BRANCH   4   6
HETATM    6  C   UNL     1     -10.616  12.942  64.047  1.00  0.00    -0.389 C  
HETATM    7  C   UNL     1     -11.153  11.534  63.754  1.00  0.00    -0.471 C  
HETATM    8  C   UNL     1     -11.817  13.869  64.238  1.00  0.00    -0.441 C  
ENDBRANCH   4   6
ENDBRANCH   3   4
BRANCH   3   9
HETATM    9  C   UNL     1     -10.758  12.357  67.536  1.00  0.00    -0.228 C  
HETATM   10  H   UNL     1     -12.491  11.511  67.954  1.00  0.00     0.000 HD 
HETATM   11  O   UNL     1     -12.160  12.146  67.329  1.00  0.00    -0.565 OA 
BRANCH   9  12
HETATM   12  C   UNL     1     -10.101  10.987  67.548  1.00  0.00    -0.208 A  
HETATM   13  C   UNL     1     -10.747   9.827  67.092  1.00  0.00    -0.273 A  
HETATM   14  C   UNL     1     -10.088   8.599  67.137  1.00  0.00    -0.261 A  
HETATM   15  O   UNL     1     -10.677   7.447  66.694  1.00  0.00    -0.498 OA 
HETATM   16  C   UNL     1      -8.791   8.510  67.630  1.00  0.00    -0.136 A  
HETATM   17  H   UNL     1     -10.229   6.610  66.724  1.00  0.00     0.000 HD 
HETATM   18  C   UNL     1      -8.141   9.636  68.103  1.00  0.00    -0.105 A  
HETATM   19  O   UNL     1      -8.151   7.304  67.654  1.00  0.00    -0.112 OA 
HETATM   20  H   UNL     1      -7.265   7.243  67.990  1.00  0.00     0.000 HD 
HETATM   21  C   UNL     1      -8.797  10.869  68.071  1.00  0.00    -0.135 A  
ENDBRANCH   9  12
ENDBRANCH   3   9
ENDBRANCH   2   3
TORSDOF 5
ENDMDL
MODEL      162
REMARK 921   NORMALIZED FREE ENERGY PREDICTED BY IDOCK:   -4.12 KCAL/MOL
REMARK 922        TOTAL FREE ENERGY PREDICTED BY IDOCK:   -5.99 KCAL/MOL
REMARK 923 INTER-LIGAND FREE ENERGY PREDICTED BY IDOCK:   -5.31 KCAL/MOL
REMARK 924 INTRA-LIGAND FREE ENERGY PREDICTED BY IDOCK:   -0.68 KCAL/MOL
REMARK 927      BINDING AFFINITY PREDICTED BY RF-SCORE:    0.00 PKD
ROOT
HETATM    1  C   UNL     1     -10.701  14.552  65.189  1.00  0.00    -0.422 C  
HETATM    2  C   UNL     1     -11.668  13.776  66.075  1.00  0.00    -0.383 C  
ENDROOT
BRANCH   2   3
HETATM    3  C   UNL     1     -11.362  13.838  67.592  1.00  0.00    -0.304 C  
BRANCH   3   4
HETATM    4  N   UNL     1     -12.337  14.598  68.400  1.00  0.00    -0.606 NA 
HETATM    5  H   UNL     1     -13.338  14.425  68.307  1.00  0.00     0.000 HD 
BRANCH   4   6
HETATM    6  C   UNL     1     -11.835  15.607  69.338  1.00  0.00    -0.375 C  
HETATM    7  C   UNL     1     -12.651  15.483  70.632  1.00  0.00    -0.493 C  
HETATM    8  C   UNL     1     -10.358  15.444  69.701  1.00  0.00    -0.283 C  
ENDBRANCH   4   6
ENDBRANCH   3   4
BRANCH   3   9
HETATM    9  C   UNL     1     -11.019  12.398  68.128  1.00  0.00    -0.228 C  
HETATM   10  H   UNL     1     -11.993  10.716  68.470  1.00  0.00     0.000 HD 
HETATM   11  O   UNL     1     -12.199  11.586  68.147  1.00  0.00    -0.576 OA 
BRANCH   9  12
HETATM   12  C   UNL     1      -9.955  11.613  67.378  1.00  0.00    -0.200 A  
HETATM   13  C   UNL     1     -10.227  10.416  66.696  1.00  0.00    -0.292 A  
HETATM   14  C   UNL     1      -9.201   9.743  66.034  1.00  0.00    -0.179 A  
HETATM   15  O   UNL     1      -9.427   8.581  65.350  1.00  0.00    -0.437 OA 
HETATM   16  C   UNL     1      -7.906  10.247  66.039  1.00  0.00    -0.133 A  
HETATM   17  H   UNL     1      -8.728   8.121  64.898  1.00  0.00     0.000 HD 
HETATM   18  C   UNL     1      -7.610  11.414  66.720  1.00  0.00    -0.143 A  
HETATM   19  O   UNL     1      -6.914   9.586  65.373  1.00  0.00    -0.087 OA 
HETATM   20  H   UNL     1      -6.029   9.930  65.376  1.00  0.00     0.000 HD 
HETATM   21  C   UNL     1      -8.628  12.090  67.395  1.00  0.00    -0.171 A  
ENDBRANCH   9  12
ENDBRANCH   3   9
ENDBRANCH   2   3
TORSDOF 5
ENDMDL
MODEL      163
REMARK 921   NORMALIZED FREE ENERGY PREDICTED BY IDOCK:   -4.11 KCAL/MOL
REMARK 922        TOTAL FREE ENERGY PREDICTED BY IDOCK:   -5.99 KCAL/MOL
REMARK 923 INTER-LIGAND FREE ENERGY PREDICTED BY IDOCK:   -5.32 KCAL/MOL
REMARK 924 INTRA-LIGAND FREE ENERGY PREDICTED BY IDOCK:   -0.67 KCAL/MOL
REMARK 927      BINDING AFFINITY PREDICTED BY RF-SCORE:    0.00 PKD
ROOT
HETATM    1  C   UNL     1     -11.053  16.131  64.730  1.00  0.00    -0.345 C  
HETATM    2  C   UNL     1     -10.300  14.821  64.927  1.00  0.00    -0.365 C  
ENDROOT
BRANCH   2   3
HETATM    3  C   UNL     1     -10.301  14.276  66.376  1.00  0.00    -0.286 C  
BRANCH   3   4
HETATM    4  N   UNL     1      -9.685  15.164  67.383  1.00  0.00    -0.209 NA 
HETATM    5  H   UNL     1      -9.880  16.164  67.385  1.00  0.00     0.000 HD 
BRANCH   4   6
HETATM    6  C   UNL     1      -8.784  14.574  68.379  1.00  0.00    -0.175 C  
HETATM    7  C   UNL     1      -7.970  13.479  67.677  1.00  0.00    -0.177 C  
HETATM    8  C   UNL     1      -7.797  15.566  68.996  1.00  0.00    -0.201 C  
ENDBRANCH   4   6
ENDBRANCH   3   4
BRANCH   3   9
HETATM    9  C   UNL     1     -11.733  13.733  66.743  1.00  0.00    -0.391 C  
HETATM   10  H   UNL     1     -13.072  12.532  65.932  1.00  0.00     0.000 HD 
HETATM   11  O   UNL     1     -12.208  12.860  65.711  1.00  0.00    -0.444 OA 
BRANCH   9  12
HETATM   12  C   UNL     1     -11.877  12.984  68.057  1.00  0.00    -0.391 A  
HETATM   13  C   UNL     1     -12.244  13.612  69.258  1.00  0.00    -0.283 A  
HETATM   14  C   UNL     1     -12.351  12.866  70.430  1.00  0.00    -0.258 A  
HETATM   15  O   UNL     1     -12.715  13.437  71.618  1.00  0.00    -0.328 OA 
HETATM   16  C   UNL     1     -12.101  11.498  70.423  1.00  0.00    -0.382 A  
HETATM   17  H   UNL     1     -12.789  12.928  72.417  1.00  0.00     0.000 HD 
HETATM   18  C   UNL     1     -11.720  10.861  69.256  1.00  0.00    -0.395 A  
HETATM   19  O   UNL     1     -12.226  10.776  71.575  1.00  0.00    -0.311 OA 
HETATM   20  H   UNL     1     -12.055   9.842  71.571  1.00  0.00     0.000 HD 
HETATM   21  C   UNL     1     -11.599  11.602  68.079  1.00  0.00    -0.383 A  
ENDBRANCH   9  12
ENDBRANCH   3   9
ENDBRANCH   2   3
TORSDOF 5
ENDMDL
MODEL      164
REMARK 921   NORMALIZED FREE ENERGY PREDICTED BY IDOCK:   -4.11 KCAL/MOL
REMARK 922        TOTAL FREE ENERGY PREDICTED BY IDOCK:   -5.99 KCAL/MOL
REMARK 923 INTER-LIGAND FREE ENERGY PREDICTED BY IDOCK:   -5.39 KCAL/MOL
REMARK 924 INTRA-LIGAND FREE ENERGY PREDICTED BY IDOCK:   -0.60 KCAL/MOL
REMARK 927      BINDING AFFINITY PREDICTED BY RF-SCORE:    0.00 PKD
ROOT
HETATM    1  C   UNL     1      -8.252  11.225  67.153  1.00  0.00    -0.149 C  
HETATM    2  C   UNL     1      -8.468  10.977  68.641  1.00  0.00    -0.157 C  
ENDROOT
BRANCH   2   3
HETATM    3  C   UNL     1      -9.925  10.640  69.045  1.00  0.00    -0.213 C  
BRANCH   3   4
HETATM    4  N   UNL     1     -10.136  10.392  70.485  1.00  0.00    -0.233 NA 
HETATM    5  H   UNL     1      -9.970  11.128  71.171  1.00  0.00     0.000 HD 
BRANCH   4   6
HETATM    6  C   UNL     1     -10.590   9.063  70.908  1.00  0.00    -0.250 C  
HETATM    7  C   UNL     1      -9.830   8.700  72.191  1.00  0.00    -0.387 C  
HETATM    8  C   UNL     1     -12.087   8.979  71.212  1.00  0.00    -0.375 C  
ENDBRANCH   4   6
ENDBRANCH   3   4
BRANCH   3   9
HETATM    9  C   UNL     1     -10.915  11.673  68.386  1.00  0.00    -0.220 C  
HETATM   10  H   UNL     1     -12.791  11.685  67.777  1.00  0.00     0.000 HD 
HETATM   11  O   UNL     1     -12.194  11.063  68.175  1.00  0.00    -0.578 OA 
BRANCH   9  12
HETATM   12  C   UNL     1     -11.163  12.972  69.135  1.00  0.00    -0.297 A  
HETATM   13  C   UNL     1     -10.494  14.168  68.831  1.00  0.00    -0.229 A  
HETATM   14  C   UNL     1     -10.765  15.323  69.563  1.00  0.00    -0.265 A  
HETATM   15  O   UNL     1     -10.143  16.510  69.293  1.00  0.00    -0.267 OA 
HETATM   16  C   UNL     1     -11.698  15.305  70.594  1.00  0.00    -0.332 A  
HETATM   17  H   UNL     1     -10.327  17.298  69.791  1.00  0.00     0.000 HD 
HETATM   18  C   UNL     1     -12.356  14.133  70.924  1.00  0.00    -0.438 A  
HETATM   19  O   UNL     1     -11.966  16.447  71.292  1.00  0.00    -0.621 OA 
HETATM   20  H   UNL     1     -12.603  16.435  71.996  1.00  0.00     0.000 HD 
HETATM   21  C   UNL     1     -12.084  12.969  70.203  1.00  0.00    -0.377 A  
ENDBRANCH   9  12
ENDBRANCH   3   9
ENDBRANCH   2   3
TORSDOF 5
ENDMDL
MODEL      165
REMARK 921   NORMALIZED FREE ENERGY PREDICTED BY IDOCK:   -4.11 KCAL/MOL
REMARK 922        TOTAL FREE ENERGY PREDICTED BY IDOCK:   -5.98 KCAL/MOL
REMARK 923 INTER-LIGAND FREE ENERGY PREDICTED BY IDOCK:   -5.17 KCAL/MOL
REMARK 924 INTRA-LIGAND FREE ENERGY PREDICTED BY IDOCK:   -0.81 KCAL/MOL
REMARK 927      BINDING AFFINITY PREDICTED BY RF-SCORE:    0.00 PKD
ROOT
HETATM    1  C   UNL     1      -7.624  10.352  69.695  1.00  0.00    -0.158 C  
HETATM    2  C   UNL     1      -9.041   9.796  69.739  1.00  0.00    -0.246 C  
ENDROOT
BRANCH   2   3
HETATM    3  C   UNL     1     -10.029  10.439  68.734  1.00  0.00    -0.188 C  
BRANCH   3   4
HETATM    4  N   UNL     1      -9.943   9.925  67.352  1.00  0.00    -0.179 NA 
HETATM    5  H   UNL     1     -10.350   9.024  67.105  1.00  0.00     0.000 HD 
BRANCH   4   6
HETATM    6  C   UNL     1      -9.258  10.740  66.343  1.00  0.00    -0.170 C  
HETATM    7  C   UNL     1      -9.150  12.168  66.896  1.00  0.00    -0.203 C  
HETATM    8  C   UNL     1      -7.844  10.262  66.006  1.00  0.00    -0.133 C  
ENDBRANCH   4   6
ENDBRANCH   3   4
BRANCH   3   9
HETATM    9  C   UNL     1     -11.476  10.471  69.352  1.00  0.00    -0.262 C  
HETATM   10  H   UNL     1     -12.487   9.461  70.713  1.00  0.00     0.000 HD 
HETATM   11  O   UNL     1     -11.613   9.442  70.340  1.00  0.00    -0.257 OA 
BRANCH   9  12
HETATM   12  C   UNL     1     -11.925  11.770  70.002  1.00  0.00    -0.421 A  
HETATM   13  C   UNL     1     -12.689  11.810  71.179  1.00  0.00    -0.405 A  
HETATM   14  C   UNL     1     -13.073  13.037  71.719  1.00  0.00    -0.373 A  
HETATM   15  O   UNL     1     -13.809  13.120  72.869  1.00  0.00    -0.667 OA 
HETATM   16  C   UNL     1     -12.704  14.227  71.103  1.00  0.00    -0.360 A  
HETATM   17  H   UNL     1     -14.070  13.956  73.237  1.00  0.00     0.000 HD 
HETATM   18  C   UNL     1     -11.967  14.212  69.932  1.00  0.00    -0.398 A  
HETATM   19  O   UNL     1     -13.073  15.422  71.651  1.00  0.00    -0.392 OA 
HETATM   20  H   UNL     1     -12.821  16.236  71.231  1.00  0.00     0.000 HD 
HETATM   21  C   UNL     1     -11.587  12.988  69.378  1.00  0.00    -0.360 A  
ENDBRANCH   9  12
ENDBRANCH   3   9
ENDBRANCH   2   3
TORSDOF 5
ENDMDL
MODEL      166
REMARK 921   NORMALIZED FREE ENERGY PREDICTED BY IDOCK:   -4.11 KCAL/MOL
REMARK 922        TOTAL FREE ENERGY PREDICTED BY IDOCK:   -5.98 KCAL/MOL
REMARK 923 INTER-LIGAND FREE ENERGY PREDICTED BY IDOCK:   -5.30 KCAL/MOL
REMARK 924 INTRA-LIGAND FREE ENERGY PREDICTED BY IDOCK:   -0.68 KCAL/MOL
REMARK 927      BINDING AFFINITY PREDICTED BY RF-SCORE:    0.00 PKD
ROOT
HETATM    1  C   UNL     1      -9.371   5.954  71.897  1.00  0.00    -0.163 C  
HETATM    2  C   UNL     1     -10.518   5.422  71.047  1.00  0.00    -0.302 C  
ENDROOT
BRANCH   2   3
HETATM    3  C   UNL     1     -11.011   6.382  69.935  1.00  0.00    -0.348 C  
BRANCH   3   4
HETATM    4  N   UNL     1     -12.298   7.054  70.210  1.00  0.00    -0.610 NA 
HETATM    5  H   UNL     1     -12.838   7.475  69.455  1.00  0.00     0.000 HD 
BRANCH   4   6
HETATM    6  C   UNL     1     -12.781   7.101  71.594  1.00  0.00    -0.379 C  
HETATM    7  C   UNL     1     -12.261   8.402  72.222  1.00  0.00    -0.449 C  
HETATM    8  C   UNL     1     -14.305   7.096  71.726  1.00  0.00    -0.515 C  
ENDBRANCH   4   6
ENDBRANCH   3   4
BRANCH   3   9
HETATM    9  C   UNL     1      -9.837   7.330  69.488  1.00  0.00    -0.163 C  
HETATM   10  H   UNL     1      -8.293   7.236  68.263  1.00  0.00     0.000 HD 
HETATM   11  O   UNL     1      -9.002   6.664  68.533  1.00  0.00    -0.122 OA 
BRANCH   9  12
HETATM   12  C   UNL     1     -10.219   8.670  68.881  1.00  0.00    -0.221 A  
HETATM   13  C   UNL     1     -10.401   9.832  69.648  1.00  0.00    -0.259 A  
HETATM   14  C   UNL     1     -10.758  11.028  69.027  1.00  0.00    -0.219 A  
HETATM   15  O   UNL     1     -10.935  12.184  69.736  1.00  0.00    -0.467 OA 
HETATM   16  C   UNL     1     -10.935  11.084  67.649  1.00  0.00    -0.275 A  
HETATM   17  H   UNL     1     -11.178  12.999  69.313  1.00  0.00     0.000 HD 
HETATM   18  C   UNL     1     -10.780   9.948  66.875  1.00  0.00    -0.195 A  
HETATM   19  O   UNL     1     -11.269  12.266  67.052  1.00  0.00    -0.273 OA 
HETATM   20  H   UNL     1     -11.390  12.305  66.111  1.00  0.00     0.000 HD 
HETATM   21  C   UNL     1     -10.433   8.744  67.489  1.00  0.00    -0.340 A  
ENDBRANCH   9  12
ENDBRANCH   3   9
ENDBRANCH   2   3
TORSDOF 5
ENDMDL
MODEL      167
REMARK 921   NORMALIZED FREE ENERGY PREDICTED BY IDOCK:   -4.08 KCAL/MOL
REMARK 922        TOTAL FREE ENERGY PREDICTED BY IDOCK:   -5.95 KCAL/MOL
REMARK 923 INTER-LIGAND FREE ENERGY PREDICTED BY IDOCK:   -5.28 KCAL/MOL
REMARK 924 INTRA-LIGAND FREE ENERGY PREDICTED BY IDOCK:   -0.67 KCAL/MOL
REMARK 927      BINDING AFFINITY PREDICTED BY RF-SCORE:    0.00 PKD
ROOT
HETATM    1  C   UNL     1      -8.679  12.307  68.238  1.00  0.00    -0.178 C  
HETATM    2  C   UNL     1      -8.743  10.821  67.907  1.00  0.00    -0.129 C  
ENDROOT
BRANCH   2   3
HETATM    3  C   UNL     1     -10.161  10.199  67.955  1.00  0.00    -0.173 C  
BRANCH   3   4
HETATM    4  N   UNL     1     -10.210   8.733  67.787  1.00  0.00    -0.215 NA 
HETATM    5  H   UNL     1     -11.080   8.220  67.930  1.00  0.00     0.000 HD 
BRANCH   4   6
HETATM    6  C   UNL     1      -8.980   8.030  67.408  1.00  0.00    -0.134 C  
HETATM    7  C   UNL     1      -8.748   6.914  68.436  1.00  0.00    -0.124 C  
HETATM    8  C   UNL     1      -9.029   7.384  66.022  1.00  0.00    -0.156 C  
ENDBRANCH   4   6
ENDBRANCH   3   4
BRANCH   3   9
HETATM    9  C   UNL     1     -10.950  10.762  69.196  1.00  0.00    -0.244 C  
HETATM   10  H   UNL     1     -12.747  11.496  69.551  1.00  0.00     0.000 HD 
HETATM   11  O   UNL     1     -12.271  11.156  68.802  1.00  0.00    -0.555 OA 
BRANCH   9  12
HETATM   12  C   UNL     1     -11.103   9.844  70.397  1.00  0.00    -0.382 A  
HETATM   13  C   UNL     1     -12.345   9.556  70.985  1.00  0.00    -0.363 A  
HETATM   14  C   UNL     1     -12.413   8.709  72.091  1.00  0.00    -0.389 A  
HETATM   15  O   UNL     1     -13.603   8.396  72.687  1.00  0.00    -0.602 OA 
HETATM   16  C   UNL     1     -11.259   8.141  72.618  1.00  0.00    -0.378 A  
HETATM   17  H   UNL     1     -13.650   7.819  73.440  1.00  0.00     0.000 HD 
HETATM   18  C   UNL     1     -10.022   8.424  72.067  1.00  0.00    -0.354 A  
HETATM   19  O   UNL     1     -11.341   7.300  73.691  1.00  0.00    -0.542 OA 
HETATM   20  H   UNL     1     -10.553   6.912  74.052  1.00  0.00     0.000 HD 
HETATM   21  C   UNL     1      -9.943   9.280  70.966  1.00  0.00    -0.364 A  
ENDBRANCH   9  12
ENDBRANCH   3   9
ENDBRANCH   2   3
TORSDOF 5
ENDMDL
MODEL      168
REMARK 921   NORMALIZED FREE ENERGY PREDICTED BY IDOCK:   -4.08 KCAL/MOL
REMARK 922        TOTAL FREE ENERGY PREDICTED BY IDOCK:   -5.95 KCAL/MOL
REMARK 923 INTER-LIGAND FREE ENERGY PREDICTED BY IDOCK:   -5.19 KCAL/MOL
REMARK 924 INTRA-LIGAND FREE ENERGY PREDICTED BY IDOCK:   -0.75 KCAL/MOL
REMARK 927      BINDING AFFINITY PREDICTED BY RF-SCORE:    0.00 PKD
ROOT
HETATM    1  C   UNL     1     -12.752  13.903  65.443  1.00  0.00    -0.525 C  
HETATM    2  C   UNL     1     -11.273  14.267  65.410  1.00  0.00    -0.329 C  
ENDROOT
BRANCH   2   3
HETATM    3  C   UNL     1     -10.300  13.071  65.562  1.00  0.00    -0.294 C  
BRANCH   3   4
HETATM    4  N   UNL     1      -9.178  13.289  66.497  1.00  0.00    -0.401 NA 
HETATM    5  H   UNL     1      -8.564  12.519  66.763  1.00  0.00     0.000 HD 
BRANCH   4   6
HETATM    6  C   UNL     1      -8.966  14.637  67.035  1.00  0.00    -0.240 C  
HETATM    7  C   UNL     1      -9.649  14.701  68.408  1.00  0.00    -0.217 C  
HETATM    8  C   UNL     1      -7.495  15.010  67.228  1.00  0.00    -0.215 C  
ENDBRANCH   4   6
ENDBRANCH   3   4
BRANCH   3   9
HETATM    9  C   UNL     1     -11.115  11.743  65.783  1.00  0.00    -0.297 C  
HETATM   10  H   UNL     1     -11.164   9.932  65.002  1.00  0.00     0.000 HD 
HETATM   11  O   UNL     1     -10.672  10.734  64.868  1.00  0.00    -0.250 OA 
BRANCH   9  12
HETATM   12  C   UNL     1     -11.076  11.128  67.172  1.00  0.00    -0.352 A  
HETATM   13  C   UNL     1     -10.418   9.920  67.454  1.00  0.00    -0.325 A  
HETATM   14  C   UNL     1     -10.427   9.408  68.751  1.00  0.00    -0.212 A  
HETATM   15  O   UNL     1      -9.790   8.240  69.069  1.00  0.00    -0.169 OA 
HETATM   16  C   UNL     1     -11.081  10.084  69.774  1.00  0.00    -0.274 A  
HETATM   17  H   UNL     1      -9.795   7.891  69.953  1.00  0.00     0.000 HD 
HETATM   18  C   UNL     1     -11.752  11.266  69.517  1.00  0.00    -0.415 A  
HETATM   19  O   UNL     1     -11.067   9.580  71.043  1.00  0.00    -0.303 OA 
HETATM   20  H   UNL     1     -11.514  10.042  71.743  1.00  0.00     0.000 HD 
HETATM   21  C   UNL     1     -11.758  11.782  68.220  1.00  0.00    -0.377 A  
ENDBRANCH   9  12
ENDBRANCH   3   9
ENDBRANCH   2   3
TORSDOF 5
ENDMDL
MODEL      169
REMARK 921   NORMALIZED FREE ENERGY PREDICTED BY IDOCK:   -4.07 KCAL/MOL
REMARK 922        TOTAL FREE ENERGY PREDICTED BY IDOCK:   -5.93 KCAL/MOL
REMARK 923 INTER-LIGAND FREE ENERGY PREDICTED BY IDOCK:   -5.60 KCAL/MOL
REMARK 924 INTRA-LIGAND FREE ENERGY PREDICTED BY IDOCK:   -0.34 KCAL/MOL
REMARK 927      BINDING AFFINITY PREDICTED BY RF-SCORE:    0.00 PKD
ROOT
HETATM    1  C   UNL     1     -12.367  14.666  64.252  1.00  0.00    -0.375 C  
HETATM    2  C   UNL     1     -11.325  15.212  65.220  1.00  0.00    -0.318 C  
ENDROOT
BRANCH   2   3
HETATM    3  C   UNL     1     -10.605  14.142  66.080  1.00  0.00    -0.297 C  
BRANCH   3   4
HETATM    4  N   UNL     1      -9.956  13.056  65.318  1.00  0.00    -0.466 NA 
HETATM    5  H   UNL     1      -9.063  13.210  64.850  1.00  0.00     0.000 HD 
BRANCH   4   6
HETATM    6  C   UNL     1     -10.624  11.752  65.250  1.00  0.00    -0.278 C  
HETATM    7  C   UNL     1     -10.645  11.319  63.778  1.00  0.00    -0.455 C  
HETATM    8  C   UNL     1      -9.928  10.650  66.051  1.00  0.00    -0.295 C  
ENDBRANCH   4   6
ENDBRANCH   3   4
BRANCH   3   9
HETATM    9  C   UNL     1      -9.699  14.845  67.159  1.00  0.00    -0.228 C  
HETATM   10  H   UNL     1      -7.899  14.583  67.923  1.00  0.00     0.000 HD 
HETATM   11  O   UNL     1      -8.446  14.159  67.271  1.00  0.00    -0.197 OA 
BRANCH   9  12
HETATM   12  C   UNL     1      -9.381  16.315  66.948  1.00  0.00    -0.241 A  
HETATM   13  C   UNL     1     -10.208  17.350  67.414  1.00  0.00    -0.326 A  
HETATM   14  C   UNL     1      -9.859  18.680  67.180  1.00  0.00    -0.314 A  
HETATM   15  O   UNL     1     -10.631  19.717  67.626  1.00  0.00    -0.437 OA 
HETATM   16  C   UNL     1      -8.695  18.994  66.489  1.00  0.00    -0.322 A  
HETATM   17  H   UNL     1     -10.394  20.623  67.467  1.00  0.00     0.000 HD 
HETATM   18  C   UNL     1      -7.874  17.992  66.004  1.00  0.00    -0.177 A  
HETATM   19  O   UNL     1      -8.357  20.301  66.281  1.00  0.00    -0.504 OA 
HETATM   20  H   UNL     1      -7.562  20.516  65.809  1.00  0.00     0.000 HD 
HETATM   21  C   UNL     1      -8.220  16.657  66.224  1.00  0.00    -0.365 A  
ENDBRANCH   9  12
ENDBRANCH   3   9
ENDBRANCH   2   3
TORSDOF 5
ENDMDL
MODEL      170
REMARK 921   NORMALIZED FREE ENERGY PREDICTED BY IDOCK:   -4.06 KCAL/MOL
REMARK 922        TOTAL FREE ENERGY PREDICTED BY IDOCK:   -5.92 KCAL/MOL
REMARK 923 INTER-LIGAND FREE ENERGY PREDICTED BY IDOCK:   -5.18 KCAL/MOL
REMARK 924 INTRA-LIGAND FREE ENERGY PREDICTED BY IDOCK:   -0.74 KCAL/MOL
REMARK 927      BINDING AFFINITY PREDICTED BY RF-SCORE:    0.00 PKD
ROOT
HETATM    1  C   UNL     1      -9.702   7.311  72.251  1.00  0.00    -0.177 C  
HETATM    2  C   UNL     1      -9.989   8.562  71.430  1.00  0.00    -0.301 C  
ENDROOT
BRANCH   2   3
HETATM    3  C   UNL     1     -10.950   8.355  70.232  1.00  0.00    -0.232 C  
BRANCH   3   4
HETATM    4  N   UNL     1     -12.251   9.046  70.343  1.00  0.00    -0.451 NA 
HETATM    5  H   UNL     1     -12.944   8.976  69.599  1.00  0.00     0.000 HD 
BRANCH   4   6
HETATM    6  C   UNL     1     -12.523   9.837  71.548  1.00  0.00    -0.403 C  
HETATM    7  C   UNL     1     -12.760  11.288  71.106  1.00  0.00    -0.492 C  
HETATM    8  C   UNL     1     -13.754   9.381  72.332  1.00  0.00    -0.469 C  
ENDBRANCH   4   6
ENDBRANCH   3   4
BRANCH   3   9
HETATM    9  C   UNL     1     -10.177   8.585  68.880  1.00  0.00    -0.207 C  
HETATM   10  H   UNL     1     -10.233   7.861  67.046  1.00  0.00     0.000 HD 
HETATM   11  O   UNL     1     -10.699   7.723  67.862  1.00  0.00    -0.187 OA 
BRANCH   9  12
HETATM   12  C   UNL     1     -10.178   9.993  68.310  1.00  0.00    -0.200 A  
HETATM   13  C   UNL     1     -11.195  10.477  67.472  1.00  0.00    -0.299 A  
HETATM   14  C   UNL     1     -11.130  11.780  66.978  1.00  0.00    -0.304 A  
HETATM   15  O   UNL     1     -12.104  12.292  66.167  1.00  0.00    -0.625 OA 
HETATM   16  C   UNL     1     -10.066  12.610  67.310  1.00  0.00    -0.214 A  
HETATM   17  H   UNL     1     -12.061  13.180  65.831  1.00  0.00     0.000 HD 
HETATM   18  C   UNL     1      -9.043  12.149  68.120  1.00  0.00    -0.196 A  
HETATM   19  O   UNL     1     -10.023  13.889  66.834  1.00  0.00    -0.252 OA 
HETATM   20  H   UNL     1      -9.296  14.456  67.061  1.00  0.00     0.000 HD 
HETATM   21  C   UNL     1      -9.093  10.843  68.611  1.00  0.00    -0.175 A  
ENDBRANCH   9  12
ENDBRANCH   3   9
ENDBRANCH   2   3
TORSDOF 5
ENDMDL
MODEL      171
REMARK 921   NORMALIZED FREE ENERGY PREDICTED BY IDOCK:   -4.06 KCAL/MOL
REMARK 922        TOTAL FREE ENERGY PREDICTED BY IDOCK:   -5.92 KCAL/MOL
REMARK 923 INTER-LIGAND FREE ENERGY PREDICTED BY IDOCK:   -5.33 KCAL/MOL
REMARK 924 INTRA-LIGAND FREE ENERGY PREDICTED BY IDOCK:   -0.58 KCAL/MOL
REMARK 927      BINDING AFFINITY PREDICTED BY RF-SCORE:    0.00 PKD
ROOT
HETATM    1  C   UNL     1     -13.218   9.930  72.026  1.00  0.00    -0.555 C  
HETATM    2  C   UNL     1     -11.816   9.945  71.431  1.00  0.00    -0.476 C  
ENDROOT
BRANCH   2   3
HETATM    3  C   UNL     1     -11.740   9.604  69.922  1.00  0.00     0.040 C  
BRANCH   3   4
HETATM    4  N   UNL     1     -12.330  10.614  69.019  1.00  0.00    -0.779 NA 
HETATM    5  H   UNL     1     -13.244  10.463  68.595  1.00  0.00     0.000 HD 
BRANCH   4   6
HETATM    6  C   UNL     1     -11.570  11.839  68.748  1.00  0.00    -0.307 C  
HETATM    7  C   UNL     1     -11.784  12.199  67.271  1.00  0.00    -0.369 C  
HETATM    8  C   UNL     1     -12.001  13.043  69.588  1.00  0.00    -0.367 C  
ENDBRANCH   4   6
ENDBRANCH   3   4
BRANCH   3   9
HETATM    9  C   UNL     1     -10.283   9.138  69.551  1.00  0.00    -0.203 C  
HETATM   10  H   UNL     1      -8.565   8.890  70.490  1.00  0.00     0.000 HD 
HETATM   11  O   UNL     1      -9.445   9.171  70.713  1.00  0.00    -0.229 OA 
BRANCH   9  12
HETATM   12  C   UNL     1     -10.131   7.757  68.937  1.00  0.00    -0.201 A  
HETATM   13  C   UNL     1     -10.856   7.338  67.809  1.00  0.00    -0.214 A  
HETATM   14  C   UNL     1     -10.672   6.054  67.300  1.00  0.00    -0.318 A  
HETATM   15  O   UNL     1     -11.351   5.611  66.198  1.00  0.00    -0.739 OA 
HETATM   16  C   UNL     1      -9.773   5.178  67.898  1.00  0.00    -0.145 A  
HETATM   17  H   UNL     1     -11.226   4.735  65.851  1.00  0.00     0.000 HD 
HETATM   18  C   UNL     1      -9.061   5.561  69.020  1.00  0.00    -0.131 A  
HETATM   19  O   UNL     1      -9.590   3.928  67.379  1.00  0.00    -0.192 OA 
HETATM   20  H   UNL     1      -8.976   3.329  67.786  1.00  0.00     0.000 HD 
HETATM   21  C   UNL     1      -9.246   6.842  69.544  1.00  0.00    -0.147 A  
ENDBRANCH   9  12
ENDBRANCH   3   9
ENDBRANCH   2   3
TORSDOF 5
ENDMDL
MODEL      172
REMARK 921   NORMALIZED FREE ENERGY PREDICTED BY IDOCK:   -4.03 KCAL/MOL
REMARK 922        TOTAL FREE ENERGY PREDICTED BY IDOCK:   -5.88 KCAL/MOL
REMARK 923 INTER-LIGAND FREE ENERGY PREDICTED BY IDOCK:   -5.31 KCAL/MOL
REMARK 924 INTRA-LIGAND FREE ENERGY PREDICTED BY IDOCK:   -0.56 KCAL/MOL
REMARK 927      BINDING AFFINITY PREDICTED BY RF-SCORE:    0.00 PKD
ROOT
HETATM    1  C   UNL     1      -6.634  10.964  69.780  1.00  0.00    -0.140 C  
HETATM    2  C   UNL     1      -7.478   9.895  69.097  1.00  0.00    -0.087 C  
ENDROOT
BRANCH   2   3
HETATM    3  C   UNL     1      -8.944   9.805  69.587  1.00  0.00    -0.215 C  
BRANCH   3   4
HETATM    4  N   UNL     1      -9.965   9.815  68.519  1.00  0.00    -0.156 NA 
HETATM    5  H   UNL     1     -10.194   8.963  68.008  1.00  0.00     0.000 HD 
BRANCH   4   6
HETATM    6  C   UNL     1     -10.643  11.079  68.211  1.00  0.00    -0.187 C  
HETATM    7  C   UNL     1     -11.718  11.303  69.284  1.00  0.00    -0.403 C  
HETATM    8  C   UNL     1      -9.722  12.300  68.212  1.00  0.00    -0.219 C  
ENDBRANCH   4   6
ENDBRANCH   3   4
BRANCH   3   9
HETATM    9  C   UNL     1      -9.085   8.646  70.643  1.00  0.00    -0.171 C  
HETATM   10  H   UNL     1      -8.490   8.299  72.492  1.00  0.00     0.000 HD 
HETATM   11  O   UNL     1      -8.406   8.998  71.854  1.00  0.00    -0.365 OA 
BRANCH   9  12
HETATM   12  C   UNL     1     -10.493   8.227  71.032  1.00  0.00    -0.241 A  
HETATM   13  C   UNL     1     -11.287   8.959  71.928  1.00  0.00    -0.446 A  
HETATM   14  C   UNL     1     -12.570   8.514  72.246  1.00  0.00    -0.381 A  
HETATM   15  O   UNL     1     -13.379   9.204  73.107  1.00  0.00    -0.844 OA 
HETATM   16  C   UNL     1     -13.075   7.349  71.682  1.00  0.00    -0.364 A  
HETATM   17  H   UNL     1     -14.253   8.901  73.324  1.00  0.00     0.000 HD 
HETATM   18  C   UNL     1     -12.304   6.600  70.810  1.00  0.00    -0.218 A  
HETATM   19  O   UNL     1     -14.339   6.933  71.989  1.00  0.00    -0.581 OA 
HETATM   20  H   UNL     1     -14.684   6.137  71.603  1.00  0.00     0.000 HD 
HETATM   21  C   UNL     1     -11.014   7.032  70.493  1.00  0.00    -0.297 A  
ENDBRANCH   9  12
ENDBRANCH   3   9
ENDBRANCH   2   3
TORSDOF 5
ENDMDL
MODEL      173
REMARK 921   NORMALIZED FREE ENERGY PREDICTED BY IDOCK:   -4.02 KCAL/MOL
REMARK 922        TOTAL FREE ENERGY PREDICTED BY IDOCK:   -5.87 KCAL/MOL
REMARK 923 INTER-LIGAND FREE ENERGY PREDICTED BY IDOCK:   -4.94 KCAL/MOL
REMARK 924 INTRA-LIGAND FREE ENERGY PREDICTED BY IDOCK:   -0.93 KCAL/MOL
REMARK 927      BINDING AFFINITY PREDICTED BY RF-SCORE:    0.00 PKD
ROOT
HETATM    1  C   UNL     1     -10.763  11.937  68.643  1.00  0.00    -0.266 C  
HETATM    2  C   UNL     1     -11.685  11.334  69.694  1.00  0.00    -0.420 C  
ENDROOT
BRANCH   2   3
HETATM    3  C   UNL     1     -11.210   9.983  70.286  1.00  0.00    -0.313 C  
BRANCH   3   4
HETATM    4  N   UNL     1     -12.274   8.980  70.496  1.00  0.00    -0.476 NA 
HETATM    5  H   UNL     1     -12.923   8.744  69.746  1.00  0.00     0.000 HD 
BRANCH   4   6
HETATM    6  C   UNL     1     -12.376   8.332  71.807  1.00  0.00    -0.328 C  
HETATM    7  C   UNL     1     -12.681   6.847  71.568  1.00  0.00    -0.396 C  
HETATM    8  C   UNL     1     -11.101   8.416  72.649  1.00  0.00    -0.325 C  
ENDBRANCH   4   6
ENDBRANCH   3   4
BRANCH   3   9
HETATM    9  C   UNL     1      -9.945   9.470  69.501  1.00  0.00    -0.194 C  
HETATM   10  H   UNL     1      -8.014   9.272  69.849  1.00  0.00     0.000 HD 
HETATM   11  O   UNL     1      -8.777   9.581  70.323  1.00  0.00    -0.207 OA 
BRANCH   9  12
HETATM   12  C   UNL     1      -9.984   8.044  68.978  1.00  0.00    -0.186 A  
HETATM   13  C   UNL     1     -10.658   7.680  67.801  1.00  0.00    -0.265 A  
HETATM   14  C   UNL     1     -10.659   6.350  67.382  1.00  0.00    -0.295 A  
HETATM   15  O   UNL     1     -11.295   5.956  66.237  1.00  0.00    -0.717 OA 
HETATM   16  C   UNL     1      -9.994   5.376  68.117  1.00  0.00    -0.158 A  
HETATM   17  H   UNL     1     -11.296   5.050  65.951  1.00  0.00     0.000 HD 
HETATM   18  C   UNL     1      -9.337   5.707  69.289  1.00  0.00    -0.150 A  
HETATM   19  O   UNL     1      -9.988   4.080  67.685  1.00  0.00    -0.098 OA 
HETATM   20  H   UNL     1      -9.533   3.415  68.187  1.00  0.00     0.000 HD 
HETATM   21  C   UNL     1      -9.340   7.034  69.723  1.00  0.00    -0.146 A  
ENDBRANCH   9  12
ENDBRANCH   3   9
ENDBRANCH   2   3
TORSDOF 5
ENDMDL
MODEL      174
REMARK 921   NORMALIZED FREE ENERGY PREDICTED BY IDOCK:   -4.02 KCAL/MOL
REMARK 922        TOTAL FREE ENERGY PREDICTED BY IDOCK:   -5.87 KCAL/MOL
REMARK 923 INTER-LIGAND FREE ENERGY PREDICTED BY IDOCK:   -5.28 KCAL/MOL
REMARK 924 INTRA-LIGAND FREE ENERGY PREDICTED BY IDOCK:   -0.60 KCAL/MOL
REMARK 927      BINDING AFFINITY PREDICTED BY RF-SCORE:    0.00 PKD
ROOT
HETATM    1  C   UNL     1     -13.831   8.899  72.088  1.00  0.00    -0.531 C  
HETATM    2  C   UNL     1     -12.814   7.858  71.639  1.00  0.00    -0.357 C  
ENDROOT
BRANCH   2   3
HETATM    3  C   UNL     1     -11.451   7.912  72.374  1.00  0.00    -0.376 C  
BRANCH   3   4
HETATM    4  N   UNL     1     -10.715   6.632  72.427  1.00  0.00    -0.215 NA 
HETATM    5  H   UNL     1     -10.340   6.211  71.578  1.00  0.00     0.000 HD 
BRANCH   4   6
HETATM    6  C   UNL     1     -10.536   5.981  73.729  1.00  0.00    -0.275 C  
HETATM    7  C   UNL     1     -10.962   4.514  73.577  1.00  0.00    -0.387 C  
HETATM    8  C   UNL     1      -9.096   5.998  74.245  1.00  0.00    -0.132 C  
ENDBRANCH   4   6
ENDBRANCH   3   4
BRANCH   3   9
HETATM    9  C   UNL     1     -10.619   9.148  71.868  1.00  0.00    -0.233 C  
HETATM   10  H   UNL     1      -8.745   9.760  71.958  1.00  0.00     0.000 HD 
HETATM   11  O   UNL     1      -9.248   9.013  72.263  1.00  0.00    -0.344 OA 
BRANCH   9  12
HETATM   12  C   UNL     1     -10.623   9.425  70.374  1.00  0.00    -0.316 A  
HETATM   13  C   UNL     1     -11.330  10.492  69.797  1.00  0.00    -0.367 A  
HETATM   14  C   UNL     1     -11.297  10.684  68.416  1.00  0.00    -0.283 A  
HETATM   15  O   UNL     1     -11.963  11.717  67.816  1.00  0.00    -0.608 OA 
HETATM   16  C   UNL     1     -10.566   9.828  67.601  1.00  0.00    -0.276 A  
HETATM   17  H   UNL     1     -11.940  11.848  66.875  1.00  0.00     0.000 HD 
HETATM   18  C   UNL     1      -9.877   8.759  68.144  1.00  0.00    -0.194 A  
HETATM   19  O   UNL     1     -10.528  10.038  66.252  1.00  0.00    -0.189 OA 
HETATM   20  H   UNL     1     -10.029   9.454  65.694  1.00  0.00     0.000 HD 
HETATM   21  C   UNL     1      -9.913   8.552  69.524  1.00  0.00    -0.193 A  
ENDBRANCH   9  12
ENDBRANCH   3   9
ENDBRANCH   2   3
TORSDOF 5
ENDMDL
MODEL      175
REMARK 921   NORMALIZED FREE ENERGY PREDICTED BY IDOCK:   -4.01 KCAL/MOL
REMARK 922        TOTAL FREE ENERGY PREDICTED BY IDOCK:   -5.86 KCAL/MOL
REMARK 923 INTER-LIGAND FREE ENERGY PREDICTED BY IDOCK:   -4.83 KCAL/MOL
REMARK 924 INTRA-LIGAND FREE ENERGY PREDICTED BY IDOCK:   -1.03 KCAL/MOL
REMARK 927      BINDING AFFINITY PREDICTED BY RF-SCORE:    0.00 PKD
ROOT
HETATM    1  C   UNL     1      -7.766   8.793  69.454  1.00  0.00    -0.093 C  
HETATM    2  C   UNL     1      -7.381  10.126  68.825  1.00  0.00    -0.084 C  
ENDROOT
BRANCH   2   3
HETATM    3  C   UNL     1      -8.563  10.947  68.252  1.00  0.00    -0.139 C  
BRANCH   3   4
HETATM    4  N   UNL     1      -9.395  11.637  69.259  1.00  0.00    -0.265 NA 
HETATM    5  H   UNL     1      -8.974  12.272  69.937  1.00  0.00     0.000 HD 
BRANCH   4   6
HETATM    6  C   UNL     1     -10.840  11.389  69.262  1.00  0.00    -0.194 C  
HETATM    7  C   UNL     1     -11.532  12.670  68.774  1.00  0.00    -0.349 C  
HETATM    8  C   UNL     1     -11.281  10.245  68.348  1.00  0.00    -0.284 C  
ENDBRANCH   4   6
ENDBRANCH   3   4
BRANCH   3   9
HETATM    9  C   UNL     1      -8.062  11.846  67.060  1.00  0.00    -0.167 C  
HETATM   10  H   UNL     1      -6.663  11.753  65.673  1.00  0.00     0.000 HD 
HETATM   11  O   UNL     1      -6.965  11.211  66.392  1.00  0.00    -0.135 OA 
BRANCH   9  12
HETATM   12  C   UNL     1      -9.079  12.211  65.992  1.00  0.00    -0.057 A  
HETATM   13  C   UNL     1      -9.547  13.521  65.800  1.00  0.00    -0.073 A  
HETATM   14  C   UNL     1     -10.486  13.786  64.803  1.00  0.00    -0.428 A  
HETATM   15  O   UNL     1     -10.960  15.049  64.577  1.00  0.00    -0.611 OA 
HETATM   16  C   UNL     1     -10.965  12.763  63.992  1.00  0.00    -0.415 A  
HETATM   17  H   UNL     1     -11.600  15.230  63.899  1.00  0.00     0.000 HD 
HETATM   18  C   UNL     1     -10.532  11.462  64.175  1.00  0.00    -0.421 A  
HETATM   19  O   UNL     1     -11.871  13.040  63.010  1.00  0.00    -0.841 OA 
HETATM   20  H   UNL     1     -12.198  12.342  62.455  1.00  0.00     0.000 HD 
HETATM   21  C   UNL     1      -9.600  11.185  65.177  1.00  0.00    -0.273 A  
ENDBRANCH   9  12
ENDBRANCH   3   9
ENDBRANCH   2   3
TORSDOF 5
ENDMDL
MODEL      176
REMARK 921   NORMALIZED FREE ENERGY PREDICTED BY IDOCK:   -4.01 KCAL/MOL
REMARK 922        TOTAL FREE ENERGY PREDICTED BY IDOCK:   -5.85 KCAL/MOL
REMARK 923 INTER-LIGAND FREE ENERGY PREDICTED BY IDOCK:   -5.75 KCAL/MOL
REMARK 924 INTRA-LIGAND FREE ENERGY PREDICTED BY IDOCK:   -0.11 KCAL/MOL
REMARK 927      BINDING AFFINITY PREDICTED BY RF-SCORE:    0.00 PKD
ROOT
HETATM    1  C   UNL     1     -12.259  14.494  70.173  1.00  0.00    -0.399 C  
HETATM    2  C   UNL     1     -11.644  13.898  68.913  1.00  0.00    -0.353 C  
ENDROOT
BRANCH   2   3
HETATM    3  C   UNL     1     -10.778  14.875  68.080  1.00  0.00    -0.251 C  
BRANCH   3   4
HETATM    4  N   UNL     1      -9.329  14.586  68.079  1.00  0.00    -0.196 NA 
HETATM    5  H   UNL     1      -8.988  13.631  67.971  1.00  0.00     0.000 HD 
BRANCH   4   6
HETATM    6  C   UNL     1      -8.392  15.703  68.238  1.00  0.00    -0.154 C  
HETATM    7  C   UNL     1      -7.443  15.351  69.393  1.00  0.00    -0.218 C  
HETATM    8  C   UNL     1      -7.537  15.984  67.001  1.00  0.00    -0.265 C  
ENDBRANCH   4   6
ENDBRANCH   3   4
BRANCH   3   9
HETATM    9  C   UNL     1     -11.424  15.087  66.661  1.00  0.00    -0.251 C  
HETATM   10  H   UNL     1     -11.301  16.410  65.202  1.00  0.00     0.000 HD 
HETATM   11  O   UNL     1     -10.910  16.282  66.059  1.00  0.00    -0.244 OA 
BRANCH   9  12
HETATM   12  C   UNL     1     -11.250  13.971  65.645  1.00  0.00    -0.310 A  
HETATM   13  C   UNL     1     -10.284  12.961  65.778  1.00  0.00    -0.298 A  
HETATM   14  C   UNL     1     -10.174  11.969  64.804  1.00  0.00    -0.279 A  
HETATM   15  O   UNL     1      -9.253  10.962  64.901  1.00  0.00    -0.200 OA 
HETATM   16  C   UNL     1     -11.016  11.967  63.698  1.00  0.00    -0.448 A  
HETATM   17  H   UNL     1      -9.178  10.286  64.238  1.00  0.00     0.000 HD 
HETATM   18  C   UNL     1     -11.963  12.962  63.536  1.00  0.00    -0.629 A  
HETATM   19  O   UNL     1     -10.909  10.980  62.760  1.00  0.00    -0.780 OA 
HETATM   20  H   UNL     1     -11.484  10.979  62.005  1.00  0.00     0.000 HD 
HETATM   21  C   UNL     1     -12.074  13.966  64.500  1.00  0.00    -0.473 A  
ENDBRANCH   9  12
ENDBRANCH   3   9
ENDBRANCH   2   3
TORSDOF 5
ENDMDL
MODEL      177
REMARK 921   NORMALIZED FREE ENERGY PREDICTED BY IDOCK:   -4.00 KCAL/MOL
REMARK 922        TOTAL FREE ENERGY PREDICTED BY IDOCK:   -5.84 KCAL/MOL
REMARK 923 INTER-LIGAND FREE ENERGY PREDICTED BY IDOCK:   -5.30 KCAL/MOL
REMARK 924 INTRA-LIGAND FREE ENERGY PREDICTED BY IDOCK:   -0.55 KCAL/MOL
REMARK 927      BINDING AFFINITY PREDICTED BY RF-SCORE:    0.00 PKD
ROOT
HETATM    1  C   UNL     1      -7.456  14.280  67.464  1.00  0.00    -0.201 C  
HETATM    2  C   UNL     1      -8.449  14.370  68.615  1.00  0.00    -0.156 C  
ENDROOT
BRANCH   2   3
HETATM    3  C   UNL     1      -9.858  13.800  68.313  1.00  0.00    -0.232 C  
BRANCH   3   4
HETATM    4  N   UNL     1     -10.217  12.581  69.066  1.00  0.00    -0.426 NA 
HETATM    5  H   UNL     1     -10.323  12.607  70.080  1.00  0.00     0.000 HD 
BRANCH   4   6
HETATM    6  C   UNL     1     -10.418  11.333  68.323  1.00  0.00    -0.196 C  
HETATM    7  C   UNL     1     -11.220  10.382  69.222  1.00  0.00    -0.304 C  
HETATM    8  C   UNL     1     -11.193  11.501  67.014  1.00  0.00    -0.365 C  
ENDBRANCH   4   6
ENDBRANCH   3   4
BRANCH   3   9
HETATM    9  C   UNL     1     -10.924  14.958  68.355  1.00  0.00    -0.261 C  
HETATM   10  H   UNL     1     -12.529  15.478  67.333  1.00  0.00     0.000 HD 
HETATM   11  O   UNL     1     -11.886  14.779  67.308  1.00  0.00    -0.378 OA 
BRANCH   9  12
HETATM   12  C   UNL     1     -11.705  15.137  69.646  1.00  0.00    -0.353 A  
HETATM   13  C   UNL     1     -11.317  16.033  70.655  1.00  0.00    -0.424 A  
HETATM   14  C   UNL     1     -12.077  16.143  71.819  1.00  0.00    -0.451 A  
HETATM   15  O   UNL     1     -11.740  17.011  72.820  1.00  0.00    -0.334 OA 
HETATM   16  C   UNL     1     -13.220  15.372  71.992  1.00  0.00    -0.429 A  
HETATM   17  H   UNL     1     -12.257  17.087  73.614  1.00  0.00     0.000 HD 
HETATM   18  C   UNL     1     -13.612  14.468  71.021  1.00  0.00    -0.294 A  
HETATM   19  O   UNL     1     -13.964  15.502  73.130  1.00  0.00    -0.536 OA 
HETATM   20  H   UNL     1     -14.746  14.976  73.249  1.00  0.00     0.000 HD 
HETATM   21  C   UNL     1     -12.852  14.344  69.856  1.00  0.00     0.041 A  
ENDBRANCH   9  12
ENDBRANCH   3   9
ENDBRANCH   2   3
TORSDOF 5
ENDMDL
MODEL      178
REMARK 921   NORMALIZED FREE ENERGY PREDICTED BY IDOCK:   -3.99 KCAL/MOL
REMARK 922        TOTAL FREE ENERGY PREDICTED BY IDOCK:   -5.83 KCAL/MOL
REMARK 923 INTER-LIGAND FREE ENERGY PREDICTED BY IDOCK:   -5.25 KCAL/MOL
REMARK 924 INTRA-LIGAND FREE ENERGY PREDICTED BY IDOCK:   -0.58 KCAL/MOL
REMARK 927      BINDING AFFINITY PREDICTED BY RF-SCORE:    0.00 PKD
ROOT
HETATM    1  C   UNL     1      -9.761   5.330  70.296  1.00  0.00    -0.261 C  
HETATM    2  C   UNL     1     -10.520   5.732  69.038  1.00  0.00    -0.336 C  
ENDROOT
BRANCH   2   3
HETATM    3  C   UNL     1     -10.958   7.217  68.982  1.00  0.00    -0.089 C  
BRANCH   3   4
HETATM    4  N   UNL     1     -11.640   7.716  70.194  1.00  0.00    -0.483 NA 
HETATM    5  H   UNL     1     -12.593   7.427  70.413  1.00  0.00     0.000 HD 
BRANCH   4   6
HETATM    6  C   UNL     1     -10.916   8.639  71.075  1.00  0.00    -0.260 C  
HETATM    7  C   UNL     1     -11.772   9.904  71.226  1.00  0.00    -0.472 C  
HETATM    8  C   UNL     1     -10.648   8.086  72.476  1.00  0.00    -0.397 C  
ENDBRANCH   4   6
ENDBRANCH   3   4
BRANCH   3   9
HETATM    9  C   UNL     1      -9.768   8.106  68.463  1.00  0.00    -0.162 C  
HETATM   10  H   UNL     1      -8.041   7.818  67.555  1.00  0.00     0.000 HD 
HETATM   11  O   UNL     1      -8.759   7.281  67.868  1.00  0.00    -0.123 OA 
BRANCH   9  12
HETATM   12  C   UNL     1     -10.102   9.192  67.453  1.00  0.00    -0.289 A  
HETATM   13  C   UNL     1     -10.927  10.288  67.754  1.00  0.00    -0.360 A  
HETATM   14  C   UNL     1     -11.198  11.245  66.778  1.00  0.00    -0.195 A  
HETATM   15  O   UNL     1     -11.987  12.332  67.034  1.00  0.00    -0.576 OA 
HETATM   16  C   UNL     1     -10.656  11.128  65.503  1.00  0.00    -0.225 A  
HETATM   17  H   UNL     1     -12.172  12.985  66.368  1.00  0.00     0.000 HD 
HETATM   18  C   UNL     1      -9.856  10.048  65.177  1.00  0.00    -0.388 A  
HETATM   19  O   UNL     1     -10.916  12.082  64.561  1.00  0.00    -0.292 OA 
HETATM   20  H   UNL     1     -10.546  12.003  63.690  1.00  0.00     0.000 HD 
HETATM   21  C   UNL     1      -9.587   9.078  66.145  1.00  0.00    -0.341 A  
ENDBRANCH   9  12
ENDBRANCH   3   9
ENDBRANCH   2   3
TORSDOF 5
ENDMDL
MODEL      179
REMARK 921   NORMALIZED FREE ENERGY PREDICTED BY IDOCK:   -3.95 KCAL/MOL
REMARK 922        TOTAL FREE ENERGY PREDICTED BY IDOCK:   -5.78 KCAL/MOL
REMARK 923 INTER-LIGAND FREE ENERGY PREDICTED BY IDOCK:   -5.13 KCAL/MOL
REMARK 924 INTRA-LIGAND FREE ENERGY PREDICTED BY IDOCK:   -0.65 KCAL/MOL
REMARK 927      BINDING AFFINITY PREDICTED BY RF-SCORE:    0.00 PKD
ROOT
HETATM    1  C   UNL     1     -10.238  10.499  65.517  1.00  0.00    -0.325 C  
HETATM    2  C   UNL     1     -10.628  10.101  66.935  1.00  0.00    -0.267 C  
ENDROOT
BRANCH   2   3
HETATM    3  C   UNL     1     -10.025  10.986  68.054  1.00  0.00    -0.173 C  
BRANCH   3   4
HETATM    4  N   UNL     1      -9.290  12.179  67.584  1.00  0.00    -0.182 NA 
HETATM    5  H   UNL     1      -9.716  12.825  66.921  1.00  0.00     0.000 HD 
BRANCH   4   6
HETATM    6  C   UNL     1      -7.935  12.412  68.094  1.00  0.00    -0.153 C  
HETATM    7  C   UNL     1      -7.074  11.207  67.689  1.00  0.00    -0.089 C  
HETATM    8  C   UNL     1      -7.265  13.670  67.540  1.00  0.00    -0.169 C  
ENDBRANCH   4   6
ENDBRANCH   3   4
BRANCH   3   9
HETATM    9  C   UNL     1     -11.107  11.255  69.165  1.00  0.00    -0.253 C  
HETATM   10  H   UNL     1     -13.060  11.523  69.242  1.00  0.00     0.000 HD 
HETATM   11  O   UNL     1     -12.406  11.361  68.571  1.00  0.00    -0.504 OA 
BRANCH   9  12
HETATM   12  C   UNL     1     -11.216  10.238  70.289  1.00  0.00    -0.395 A  
HETATM   13  C   UNL     1     -10.177   9.354  70.623  1.00  0.00    -0.353 A  
HETATM   14  C   UNL     1     -10.346   8.441  71.662  1.00  0.00    -0.243 A  
HETATM   15  O   UNL     1      -9.356   7.570  72.025  1.00  0.00    -0.131 OA 
HETATM   16  C   UNL     1     -11.538   8.395  72.377  1.00  0.00    -0.380 A  
HETATM   17  H   UNL     1      -9.471   6.947  72.734  1.00  0.00     0.000 HD 
HETATM   18  C   UNL     1     -12.582   9.243  72.054  1.00  0.00    -0.465 A  
HETATM   19  O   UNL     1     -11.684   7.507  73.404  1.00  0.00    -0.574 OA 
HETATM   20  H   UNL     1     -12.498   7.476  73.892  1.00  0.00     0.000 HD 
HETATM   21  C   UNL     1     -12.426  10.154  71.008  1.00  0.00    -0.474 A  
ENDBRANCH   9  12
ENDBRANCH   3   9
ENDBRANCH   2   3
TORSDOF 5
ENDMDL
MODEL      180
REMARK 921   NORMALIZED FREE ENERGY PREDICTED BY IDOCK:   -3.95 KCAL/MOL
REMARK 922        TOTAL FREE ENERGY PREDICTED BY IDOCK:   -5.78 KCAL/MOL
REMARK 923 INTER-LIGAND FREE ENERGY PREDICTED BY IDOCK:   -5.11 KCAL/MOL
REMARK 924 INTRA-LIGAND FREE ENERGY PREDICTED BY IDOCK:   -0.67 KCAL/MOL
REMARK 927      BINDING AFFINITY PREDICTED BY RF-SCORE:    0.00 PKD
ROOT
HETATM    1  C   UNL     1     -11.711  12.921  69.456  1.00  0.00    -0.387 C  
HETATM    2  C   UNL     1     -11.338  13.331  68.037  1.00  0.00    -0.325 C  
ENDROOT
BRANCH   2   3
HETATM    3  C   UNL     1     -11.569  12.244  66.958  1.00  0.00    -0.349 C  
BRANCH   3   4
HETATM    4  N   UNL     1     -12.428  12.654  65.828  1.00  0.00    -0.579 NA 
HETATM    5  H   UNL     1     -13.443  12.571  65.888  1.00  0.00     0.000 HD 
BRANCH   4   6
HETATM    6  C   UNL     1     -11.790  13.181  64.618  1.00  0.00    -0.370 C  
HETATM    7  C   UNL     1     -12.234  12.304  63.439  1.00  0.00    -0.630 C  
HETATM    8  C   UNL     1     -12.166  14.627  64.291  1.00  0.00    -0.432 C  
ENDBRANCH   4   6
ENDBRANCH   3   4
BRANCH   3   9
HETATM    9  C   UNL     1     -10.196  11.588  66.557  1.00  0.00    -0.218 C  
HETATM   10  H   UNL     1      -8.279  11.993  66.793  1.00  0.00     0.000 HD 
HETATM   11  O   UNL     1      -9.109  12.389  67.035  1.00  0.00    -0.194 OA 
BRANCH   9  12
HETATM   12  C   UNL     1      -9.940  10.167  67.033  1.00  0.00    -0.249 A  
HETATM   13  C   UNL     1      -9.997   9.793  68.385  1.00  0.00    -0.176 A  
HETATM   14  C   UNL     1      -9.745   8.472  68.753  1.00  0.00    -0.164 A  
HETATM   15  O   UNL     1      -9.801   8.064  70.057  1.00  0.00    -0.183 OA 
HETATM   16  C   UNL     1      -9.438   7.516  67.792  1.00  0.00    -0.141 A  
HETATM   17  H   UNL     1      -9.629   7.164  70.309  1.00  0.00     0.000 HD 
HETATM   18  C   UNL     1      -9.357   7.865  66.456  1.00  0.00    -0.255 A  
HETATM   19  O   UNL     1      -9.209   6.222  68.165  1.00  0.00    -0.113 OA 
HETATM   20  H   UNL     1      -9.000   5.569  67.508  1.00  0.00     0.000 HD 
HETATM   21  C   UNL     1      -9.598   9.187  66.078  1.00  0.00    -0.342 A  
ENDBRANCH   9  12
ENDBRANCH   3   9
ENDBRANCH   2   3
TORSDOF 5
ENDMDL
MODEL      181
REMARK 921   NORMALIZED FREE ENERGY PREDICTED BY IDOCK:   -3.94 KCAL/MOL
REMARK 922        TOTAL FREE ENERGY PREDICTED BY IDOCK:   -5.77 KCAL/MOL
REMARK 923 INTER-LIGAND FREE ENERGY PREDICTED BY IDOCK:   -5.03 KCAL/MOL
REMARK 924 INTRA-LIGAND FREE ENERGY PREDICTED BY IDOCK:   -0.74 KCAL/MOL
REMARK 927      BINDING AFFINITY PREDICTED BY RF-SCORE:    0.00 PKD
ROOT
HETATM    1  C   UNL     1      -9.378  10.173  63.664  1.00  0.00    -0.336 C  
HETATM    2  C   UNL     1     -10.494  11.037  64.238  1.00  0.00    -0.427 C  
ENDROOT
BRANCH   2   3
HETATM    3  C   UNL     1     -10.285  11.489  65.705  1.00  0.00    -0.248 C  
BRANCH   3   4
HETATM    4  N   UNL     1     -11.522  11.804  66.447  1.00  0.00    -0.435 NA 
HETATM    5  H   UNL     1     -12.134  11.061  66.782  1.00  0.00     0.000 HD 
BRANCH   4   6
HETATM    6  C   UNL     1     -11.851  13.213  66.693  1.00  0.00    -0.391 C  
HETATM    7  C   UNL     1     -10.529  13.975  66.859  1.00  0.00    -0.276 C  
HETATM    8  C   UNL     1     -12.635  13.879  65.561  1.00  0.00    -0.560 C  
ENDBRANCH   4   6
ENDBRANCH   3   4
BRANCH   3   9
HETATM    9  C   UNL     1      -9.295  10.504  66.432  1.00  0.00    -0.168 C  
HETATM   10  H   UNL     1      -7.846  10.637  67.764  1.00  0.00     0.000 HD 
HETATM   11  O   UNL     1      -8.443  11.231  67.325  1.00  0.00    -0.137 OA 
BRANCH   9  12
HETATM   12  C   UNL     1      -9.909   9.368  67.234  1.00  0.00    -0.232 A  
HETATM   13  C   UNL     1     -10.201   9.471  68.603  1.00  0.00    -0.215 A  
HETATM   14  C   UNL     1     -10.759   8.388  69.280  1.00  0.00    -0.126 A  
HETATM   15  O   UNL     1     -11.067   8.451  70.611  1.00  0.00    -0.251 OA 
HETATM   16  C   UNL     1     -11.033   7.200  68.611  1.00  0.00    -0.035 A  
HETATM   17  H   UNL     1     -11.447   7.712  71.073  1.00  0.00     0.000 HD 
HETATM   18  C   UNL     1     -10.736   7.069  67.266  1.00  0.00    -0.412 A  
HETATM   19  O   UNL     1     -11.594   6.152  69.283  1.00  0.00    -0.453 OA 
HETATM   20  H   UNL     1     -11.782   5.341  68.826  1.00  0.00     0.000 HD 
HETATM   21  C   UNL     1     -10.168   8.145  66.582  1.00  0.00    -0.329 A  
ENDBRANCH   9  12
ENDBRANCH   3   9
ENDBRANCH   2   3
TORSDOF 5
ENDMDL
MODEL      182
REMARK 921   NORMALIZED FREE ENERGY PREDICTED BY IDOCK:   -3.94 KCAL/MOL
REMARK 922        TOTAL FREE ENERGY PREDICTED BY IDOCK:   -5.76 KCAL/MOL
REMARK 923 INTER-LIGAND FREE ENERGY PREDICTED BY IDOCK:   -5.00 KCAL/MOL
REMARK 924 INTRA-LIGAND FREE ENERGY PREDICTED BY IDOCK:   -0.76 KCAL/MOL
REMARK 927      BINDING AFFINITY PREDICTED BY RF-SCORE:    0.00 PKD
ROOT
HETATM    1  C   UNL     1      -8.219  11.140  67.603  1.00  0.00    -0.118 C  
HETATM    2  C   UNL     1      -8.838  10.048  68.465  1.00  0.00    -0.120 C  
ENDROOT
BRANCH   2   3
HETATM    3  C   UNL     1     -10.387  10.016  68.472  1.00  0.00    -0.193 C  
BRANCH   3   4
HETATM    4  N   UNL     1     -10.992   8.769  67.961  1.00  0.00    -0.480 NA 
HETATM    5  H   UNL     1     -11.951   8.758  67.616  1.00  0.00     0.000 HD 
BRANCH   4   6
HETATM    6  C   UNL     1     -10.182   7.546  67.960  1.00  0.00    -0.195 C  
HETATM    7  C   UNL     1     -10.857   6.541  68.903  1.00  0.00    -0.354 C  
HETATM    8  C   UNL     1     -10.050   6.883  66.588  1.00  0.00    -0.211 C  
ENDBRANCH   4   6
ENDBRANCH   3   4
BRANCH   3   9
HETATM    9  C   UNL     1     -10.926  10.504  69.868  1.00  0.00    -0.298 C  
HETATM   10  H   UNL     1     -12.631  11.170  70.604  1.00  0.00     0.000 HD 
HETATM   11  O   UNL     1     -12.306  10.875  69.761  1.00  0.00    -0.330 OA 
BRANCH   9  12
HETATM   12  C   UNL     1     -10.819   9.532  71.032  1.00  0.00    -0.423 A  
HETATM   13  C   UNL     1      -9.590   9.105  71.560  1.00  0.00    -0.278 A  
HETATM   14  C   UNL     1      -9.564   8.207  72.626  1.00  0.00    -0.282 A  
HETATM   15  O   UNL     1      -8.389   7.774  73.175  1.00  0.00    -0.127 OA 
HETATM   16  C   UNL     1     -10.748   7.728  73.176  1.00  0.00    -0.351 A  
HETATM   17  H   UNL     1      -8.371   7.162  73.901  1.00  0.00     0.000 HD 
HETATM   18  C   UNL     1     -11.970   8.119  72.660  1.00  0.00    -0.353 A  
HETATM   19  O   UNL     1     -10.708   6.861  74.230  1.00  0.00    -0.463 OA 
HETATM   20  H   UNL     1     -11.517   6.533  74.606  1.00  0.00     0.000 HD 
HETATM   21  C   UNL     1     -12.006   9.011  71.586  1.00  0.00    -0.426 A  
ENDBRANCH   9  12
ENDBRANCH   3   9
ENDBRANCH   2   3
TORSDOF 5
ENDMDL
MODEL      183
REMARK 921   NORMALIZED FREE ENERGY PREDICTED BY IDOCK:   -3.93 KCAL/MOL
REMARK 922        TOTAL FREE ENERGY PREDICTED BY IDOCK:   -5.75 KCAL/MOL
REMARK 923 INTER-LIGAND FREE ENERGY PREDICTED BY IDOCK:   -5.25 KCAL/MOL
REMARK 924 INTRA-LIGAND FREE ENERGY PREDICTED BY IDOCK:   -0.50 KCAL/MOL
REMARK 927      BINDING AFFINITY PREDICTED BY RF-SCORE:    0.00 PKD
ROOT
HETATM    1  C   UNL     1     -12.297  13.036  64.490  1.00  0.00    -0.461 C  
HETATM    2  C   UNL     1     -12.063  13.783  65.797  1.00  0.00    -0.458 C  
ENDROOT
BRANCH   2   3
HETATM    3  C   UNL     1     -11.803  12.881  67.029  1.00  0.00    -0.374 C  
BRANCH   3   4
HETATM    4  N   UNL     1     -10.650  11.966  66.906  1.00  0.00    -0.222 NA 
HETATM    5  H   UNL     1      -9.696  12.312  67.009  1.00  0.00     0.000 HD 
BRANCH   4   6
HETATM    6  C   UNL     1     -10.907  10.549  66.632  1.00  0.00    -0.096 C  
HETATM    7  C   UNL     1     -10.025  10.138  65.445  1.00  0.00    -0.377 C  
HETATM    8  C   UNL     1     -10.582   9.615  67.799  1.00  0.00    -0.320 C  
ENDBRANCH   4   6
ENDBRANCH   3   4
BRANCH   3   9
HETATM    9  C   UNL     1     -11.838  13.748  68.343  1.00  0.00    -0.376 C  
HETATM   10  H   UNL     1     -11.617  13.442  70.280  1.00  0.00     0.000 HD 
HETATM   11  O   UNL     1     -11.596  12.919  69.486  1.00  0.00    -0.290 OA 
BRANCH   9  12
HETATM   12  C   UNL     1     -10.871  14.916  68.431  1.00  0.00    -0.252 A  
HETATM   13  C   UNL     1     -11.283  16.256  68.354  1.00  0.00    -0.349 A  
HETATM   14  C   UNL     1     -10.340  17.281  68.436  1.00  0.00    -0.366 A  
HETATM   15  O   UNL     1     -10.701  18.599  68.376  1.00  0.00    -0.332 OA 
HETATM   16  C   UNL     1      -8.991  16.989  68.595  1.00  0.00    -0.267 A  
HETATM   17  H   UNL     1     -10.059  19.297  68.431  1.00  0.00     0.000 HD 
HETATM   18  C   UNL     1      -8.558  15.676  68.654  1.00  0.00    -0.188 A  
HETATM   19  O   UNL     1      -8.080  18.002  68.690  1.00  0.00    -0.303 OA 
HETATM   20  H   UNL     1      -7.158  17.803  68.799  1.00  0.00     0.000 HD 
HETATM   21  C   UNL     1      -9.494  14.643  68.563  1.00  0.00    -0.216 A  
ENDBRANCH   9  12
ENDBRANCH   3   9
ENDBRANCH   2   3
TORSDOF 5
ENDMDL
MODEL      184
REMARK 921   NORMALIZED FREE ENERGY PREDICTED BY IDOCK:   -3.93 KCAL/MOL
REMARK 922        TOTAL FREE ENERGY PREDICTED BY IDOCK:   -5.75 KCAL/MOL
REMARK 923 INTER-LIGAND FREE ENERGY PREDICTED BY IDOCK:   -5.15 KCAL/MOL
REMARK 924 INTRA-LIGAND FREE ENERGY PREDICTED BY IDOCK:   -0.59 KCAL/MOL
REMARK 927      BINDING AFFINITY PREDICTED BY RF-SCORE:    0.00 PKD
ROOT
HETATM    1  C   UNL     1      -6.287   8.775  69.746  1.00  0.00    -0.035 C  
HETATM    2  C   UNL     1      -7.723   8.363  70.043  1.00  0.00    -0.090 C  
ENDROOT
BRANCH   2   3
HETATM    3  C   UNL     1      -8.778   9.483  69.860  1.00  0.00    -0.210 C  
BRANCH   3   4
HETATM    4  N   UNL     1      -8.345  10.623  69.026  1.00  0.00    -0.152 NA 
HETATM    5  H   UNL     1      -7.690  11.315  69.388  1.00  0.00     0.000 HD 
BRANCH   4   6
HETATM    6  C   UNL     1      -8.880  10.736  67.665  1.00  0.00    -0.132 C  
HETATM    7  C   UNL     1      -8.521  12.134  67.141  1.00  0.00    -0.182 C  
HETATM    8  C   UNL     1      -8.313   9.710  66.681  1.00  0.00    -0.123 C  
ENDBRANCH   4   6
ENDBRANCH   3   4
BRANCH   3   9
HETATM    9  C   UNL     1     -10.167   8.852  69.472  1.00  0.00    -0.204 C  
HETATM   10  H   UNL     1     -10.854   7.069  68.978  1.00  0.00     0.000 HD 
HETATM   11  O   UNL     1     -10.015   7.451  69.213  1.00  0.00    -0.166 OA 
BRANCH   9  12
HETATM   12  C   UNL     1     -11.299   8.995  70.475  1.00  0.00    -0.282 A  
HETATM   13  C   UNL     1     -11.829  10.239  70.856  1.00  0.00    -0.473 A  
HETATM   14  C   UNL     1     -12.865  10.299  71.787  1.00  0.00    -0.460 A  
HETATM   15  O   UNL     1     -13.415  11.488  72.177  1.00  0.00    -0.545 OA 
HETATM   16  C   UNL     1     -13.383   9.136  72.345  1.00  0.00    -0.463 A  
HETATM   17  H   UNL     1     -14.121  11.530  72.812  1.00  0.00     0.000 HD 
HETATM   18  C   UNL     1     -12.865   7.900  71.999  1.00  0.00    -0.287 A  
HETATM   19  O   UNL     1     -14.409   9.208  73.243  1.00  0.00    -1.059 OA 
HETATM   20  H   UNL     1     -14.763   8.414  73.624  1.00  0.00     0.000 HD 
HETATM   21  C   UNL     1     -11.821   7.830  71.075  1.00  0.00    -0.290 A  
ENDBRANCH   9  12
ENDBRANCH   3   9
ENDBRANCH   2   3
TORSDOF 5
ENDMDL
MODEL      185
REMARK 921   NORMALIZED FREE ENERGY PREDICTED BY IDOCK:   -3.92 KCAL/MOL
REMARK 922        TOTAL FREE ENERGY PREDICTED BY IDOCK:   -5.73 KCAL/MOL
REMARK 923 INTER-LIGAND FREE ENERGY PREDICTED BY IDOCK:   -5.00 KCAL/MOL
REMARK 924 INTRA-LIGAND FREE ENERGY PREDICTED BY IDOCK:   -0.73 KCAL/MOL
REMARK 927      BINDING AFFINITY PREDICTED BY RF-SCORE:    0.00 PKD
ROOT
HETATM    1  C   UNL     1      -7.949  13.392  68.192  1.00  0.00    -0.150 C  
HETATM    2  C   UNL     1      -8.018  11.973  67.643  1.00  0.00    -0.150 C  
ENDROOT
BRANCH   2   3
HETATM    3  C   UNL     1      -9.415  11.532  67.139  1.00  0.00    -0.177 C  
BRANCH   3   4
HETATM    4  N   UNL     1      -9.491  11.207  65.700  1.00  0.00    -0.216 NA 
HETATM    5  H   UNL     1      -8.871  10.509  65.290  1.00  0.00     0.000 HD 
BRANCH   4   6
HETATM    6  C   UNL     1     -10.477  11.911  64.874  1.00  0.00    -0.287 C  
HETATM    7  C   UNL     1     -10.358  13.409  65.186  1.00  0.00    -0.349 C  
HETATM    8  C   UNL     1     -10.277  11.730  63.369  1.00  0.00    -0.482 C  
ENDBRANCH   4   6
ENDBRANCH   3   4
BRANCH   3   9
HETATM    9  C   UNL     1     -10.015  10.445  68.108  1.00  0.00    -0.149 C  
HETATM   10  H   UNL     1      -9.320   9.059  69.328  1.00  0.00     0.000 HD 
HETATM   11  O   UNL     1      -8.959   9.715  68.743  1.00  0.00    -0.129 OA 
BRANCH   9  12
HETATM   12  C   UNL     1     -10.940  10.933  69.211  1.00  0.00    -0.295 A  
HETATM   13  C   UNL     1     -11.509  10.075  70.165  1.00  0.00    -0.344 A  
HETATM   14  C   UNL     1     -12.355  10.588  71.147  1.00  0.00    -0.405 A  
HETATM   15  O   UNL     1     -12.922   9.788  72.101  1.00  0.00    -0.407 OA 
HETATM   16  C   UNL     1     -12.642  11.948  71.194  1.00  0.00    -0.288 A  
HETATM   17  H   UNL     1     -13.498  10.138  72.770  1.00  0.00     0.000 HD 
HETATM   18  C   UNL     1     -12.108  12.810  70.253  1.00  0.00    -0.373 A  
HETATM   19  O   UNL     1     -13.459  12.440  72.171  1.00  0.00    -0.525 OA 
HETATM   20  H   UNL     1     -13.655  13.369  72.203  1.00  0.00     0.000 HD 
HETATM   21  C   UNL     1     -11.268  12.304  69.259  1.00  0.00    -0.275 A  
ENDBRANCH   9  12
ENDBRANCH   3   9
ENDBRANCH   2   3
TORSDOF 5
ENDMDL
MODEL      186
REMARK 921   NORMALIZED FREE ENERGY PREDICTED BY IDOCK:   -3.91 KCAL/MOL
REMARK 922        TOTAL FREE ENERGY PREDICTED BY IDOCK:   -5.72 KCAL/MOL
REMARK 923 INTER-LIGAND FREE ENERGY PREDICTED BY IDOCK:   -5.05 KCAL/MOL
REMARK 924 INTRA-LIGAND FREE ENERGY PREDICTED BY IDOCK:   -0.67 KCAL/MOL
REMARK 927      BINDING AFFINITY PREDICTED BY RF-SCORE:    0.00 PKD
ROOT
HETATM    1  C   UNL     1     -10.416   7.211  68.140  1.00  0.00    -0.244 C  
HETATM    2  C   UNL     1     -10.300   7.722  69.570  1.00  0.00    -0.219 C  
ENDROOT
BRANCH   2   3
HETATM    3  C   UNL     1     -11.025   9.063  69.848  1.00  0.00    -0.193 C  
BRANCH   3   4
HETATM    4  N   UNL     1     -11.770   9.121  71.122  1.00  0.00    -0.294 NA 
HETATM    5  H   UNL     1     -11.407   8.666  71.959  1.00  0.00     0.000 HD 
BRANCH   4   6
HETATM    6  C   UNL     1     -13.042   9.849  71.156  1.00  0.00    -0.370 C  
HETATM    7  C   UNL     1     -13.910   9.215  72.252  1.00  0.00    -0.527 C  
HETATM    8  C   UNL     1     -12.904  11.339  71.476  1.00  0.00    -0.519 C  
ENDBRANCH   4   6
ENDBRANCH   3   4
BRANCH   3   9
HETATM    9  C   UNL     1     -10.045  10.266  69.584  1.00  0.00    -0.224 C  
HETATM   10  H   UNL     1      -8.106  10.606  69.727  1.00  0.00     0.000 HD 
HETATM   11  O   UNL     1      -8.698   9.880  69.886  1.00  0.00    -0.205 OA 
BRANCH   9  12
HETATM   12  C   UNL     1     -10.031  10.856  68.184  1.00  0.00    -0.188 A  
HETATM   13  C   UNL     1      -8.967  10.671  67.287  1.00  0.00    -0.141 A  
HETATM   14  C   UNL     1      -9.016  11.247  66.018  1.00  0.00    -0.200 A  
HETATM   15  O   UNL     1      -8.006  11.082  65.112  1.00  0.00    -0.363 OA 
HETATM   16  C   UNL     1     -10.114  12.005  65.628  1.00  0.00    -0.243 A  
HETATM   17  H   UNL     1      -8.039  11.474  64.247  1.00  0.00     0.000 HD 
HETATM   18  C   UNL     1     -11.166  12.217  66.501  1.00  0.00    -0.373 A  
HETATM   19  O   UNL     1     -10.157  12.549  64.376  1.00  0.00    -0.439 OA 
HETATM   20  H   UNL     1     -10.907  13.067  64.109  1.00  0.00     0.000 HD 
HETATM   21  C   UNL     1     -11.121  11.653  67.777  1.00  0.00    -0.309 A  
ENDBRANCH   9  12
ENDBRANCH   3   9
ENDBRANCH   2   3
TORSDOF 5
ENDMDL
MODEL      187
REMARK 921   NORMALIZED FREE ENERGY PREDICTED BY IDOCK:   -3.90 KCAL/MOL
REMARK 922        TOTAL FREE ENERGY PREDICTED BY IDOCK:   -5.72 KCAL/MOL
REMARK 923 INTER-LIGAND FREE ENERGY PREDICTED BY IDOCK:   -5.34 KCAL/MOL
REMARK 924 INTRA-LIGAND FREE ENERGY PREDICTED BY IDOCK:   -0.38 KCAL/MOL
REMARK 927      BINDING AFFINITY PREDICTED BY RF-SCORE:    0.00 PKD
ROOT
HETATM    1  C   UNL     1      -7.953  11.583  68.312  1.00  0.00    -0.142 C  
HETATM    2  C   UNL     1      -8.849  10.571  69.015  1.00  0.00    -0.174 C  
ENDROOT
BRANCH   2   3
HETATM    3  C   UNL     1     -10.203  10.296  68.314  1.00  0.00    -0.159 C  
BRANCH   3   4
HETATM    4  N   UNL     1     -10.971   9.157  68.856  1.00  0.00    -0.435 NA 
HETATM    5  H   UNL     1     -11.645   9.293  69.609  1.00  0.00     0.000 HD 
BRANCH   4   6
HETATM    6  C   UNL     1     -10.743   7.824  68.287  1.00  0.00    -0.036 C  
HETATM    7  C   UNL     1     -10.194   8.015  66.866  1.00  0.00    -0.385 C  
HETATM    8  C   UNL     1      -9.737   6.975  69.065  1.00  0.00    -0.145 C  
ENDBRANCH   4   6
ENDBRANCH   3   4
BRANCH   3   9
HETATM    9  C   UNL     1     -11.008  11.640  68.159  1.00  0.00    -0.226 C  
HETATM   10  H   UNL     1     -12.557  12.282  67.119  1.00  0.00     0.000 HD 
HETATM   11  O   UNL     1     -12.071  11.471  67.212  1.00  0.00    -0.548 OA 
BRANCH   9  12
HETATM   12  C   UNL     1     -11.627  12.228  69.416  1.00  0.00    -0.378 A  
HETATM   13  C   UNL     1     -12.329  11.456  70.355  1.00  0.00    -0.404 A  
HETATM   14  C   UNL     1     -12.877  12.061  71.485  1.00  0.00    -0.297 A  
HETATM   15  O   UNL     1     -13.559  11.343  72.428  1.00  0.00    -0.538 OA 
HETATM   16  C   UNL     1     -12.733  13.428  71.695  1.00  0.00    -0.265 A  
HETATM   17  H   UNL     1     -13.933  11.756  73.199  1.00  0.00     0.000 HD 
HETATM   18  C   UNL     1     -12.061  14.212  70.775  1.00  0.00    -0.419 A  
HETATM   19  O   UNL     1     -13.260  14.005  72.815  1.00  0.00    -0.503 OA 
HETATM   20  H   UNL     1     -13.162  14.939  72.959  1.00  0.00     0.000 HD 
HETATM   21  C   UNL     1     -11.518  13.617  69.635  1.00  0.00    -0.286 A  
ENDBRANCH   9  12
ENDBRANCH   3   9
ENDBRANCH   2   3
TORSDOF 5
ENDMDL
MODEL      188
REMARK 921   NORMALIZED FREE ENERGY PREDICTED BY IDOCK:   -3.90 KCAL/MOL
REMARK 922        TOTAL FREE ENERGY PREDICTED BY IDOCK:   -5.72 KCAL/MOL
REMARK 923 INTER-LIGAND FREE ENERGY PREDICTED BY IDOCK:   -5.02 KCAL/MOL
REMARK 924 INTRA-LIGAND FREE ENERGY PREDICTED BY IDOCK:   -0.69 KCAL/MOL
REMARK 927      BINDING AFFINITY PREDICTED BY RF-SCORE:    0.00 PKD
ROOT
HETATM    1  C   UNL     1      -7.430  15.166  67.246  1.00  0.00    -0.228 C  
HETATM    2  C   UNL     1      -8.617  14.212  67.216  1.00  0.00    -0.231 C  
ENDROOT
BRANCH   2   3
HETATM    3  C   UNL     1      -9.463  14.178  68.514  1.00  0.00    -0.202 C  
BRANCH   3   4
HETATM    4  N   UNL     1      -9.461  15.429  69.299  1.00  0.00    -0.247 NA 
HETATM    5  H   UNL     1      -8.647  15.696  69.852  1.00  0.00     0.000 HD 
BRANCH   4   6
HETATM    6  C   UNL     1     -10.655  16.279  69.265  1.00  0.00    -0.293 C  
HETATM    7  C   UNL     1     -11.310  16.213  70.652  1.00  0.00    -0.394 C  
HETATM    8  C   UNL     1     -10.369  17.749  68.954  1.00  0.00    -0.300 C  
ENDBRANCH   4   6
ENDBRANCH   3   4
BRANCH   3   9
HETATM    9  C   UNL     1     -10.886  13.576  68.209  1.00  0.00    -0.259 C  
HETATM   10  H   UNL     1     -11.882  12.960  66.621  1.00  0.00     0.000 HD 
HETATM   11  O   UNL     1     -11.023  13.324  66.805  1.00  0.00    -0.281 OA 
BRANCH   9  12
HETATM   12  C   UNL     1     -11.265  12.292  68.928  1.00  0.00    -0.323 A  
HETATM   13  C   UNL     1     -10.954  11.017  68.429  1.00  0.00    -0.281 A  
HETATM   14  C   UNL     1     -11.337   9.878  69.137  1.00  0.00    -0.039 A  
HETATM   15  O   UNL     1     -11.045   8.619  68.691  1.00  0.00    -0.433 OA 
HETATM   16  C   UNL     1     -12.026   9.992  70.339  1.00  0.00    -0.236 A  
HETATM   17  H   UNL     1     -11.307   7.843  69.173  1.00  0.00     0.000 HD 
HETATM   18  C   UNL     1     -12.360  11.237  70.841  1.00  0.00    -0.490 A  
HETATM   19  O   UNL     1     -12.382   8.870  71.031  1.00  0.00    -0.412 OA 
HETATM   20  H   UNL     1     -12.852   8.947  71.852  1.00  0.00     0.000 HD 
HETATM   21  C   UNL     1     -11.989  12.383  70.134  1.00  0.00    -0.376 A  
ENDBRANCH   9  12
ENDBRANCH   3   9
ENDBRANCH   2   3
TORSDOF 5
ENDMDL
MODEL      189
REMARK 921   NORMALIZED FREE ENERGY PREDICTED BY IDOCK:   -3.90 KCAL/MOL
REMARK 922        TOTAL FREE ENERGY PREDICTED BY IDOCK:   -5.72 KCAL/MOL
REMARK 923 INTER-LIGAND FREE ENERGY PREDICTED BY IDOCK:   -5.06 KCAL/MOL
REMARK 924 INTRA-LIGAND FREE ENERGY PREDICTED BY IDOCK:   -0.66 KCAL/MOL
REMARK 927      BINDING AFFINITY PREDICTED BY RF-SCORE:    0.00 PKD
ROOT
HETATM    1  C   UNL     1      -9.074   9.552  64.760  1.00  0.00    -0.271 C  
HETATM    2  C   UNL     1     -10.149  10.480  65.312  1.00  0.00    -0.369 C  
ENDROOT
BRANCH   2   3
HETATM    3  C   UNL     1      -9.665  11.471  66.400  1.00  0.00    -0.207 C  
BRANCH   3   4
HETATM    4  N   UNL     1      -8.262  11.914  66.267  1.00  0.00    -0.386 NA 
HETATM    5  H   UNL     1      -7.852  12.076  65.349  1.00  0.00     0.000 HD 
BRANCH   4   6
HETATM    6  C   UNL     1      -7.473  12.116  67.487  1.00  0.00    -0.148 C  
HETATM    7  C   UNL     1      -7.319  13.629  67.695  1.00  0.00    -0.185 C  
HETATM    8  C   UNL     1      -8.113  11.535  68.750  1.00  0.00    -0.093 C  
ENDBRANCH   4   6
ENDBRANCH   3   4
BRANCH   3   9
HETATM    9  C   UNL     1     -10.722  12.623  66.583  1.00  0.00    -0.253 C  
HETATM   10  H   UNL     1     -12.467  13.116  65.805  1.00  0.00     0.000 HD 
HETATM   11  O   UNL     1     -11.829  12.421  65.696  1.00  0.00    -0.401 OA 
BRANCH   9  12
HETATM   12  C   UNL     1     -11.301  12.821  67.974  1.00  0.00    -0.335 A  
HETATM   13  C   UNL     1     -11.576  11.755  68.845  1.00  0.00    -0.370 A  
HETATM   14  C   UNL     1     -12.113  12.007  70.107  1.00  0.00    -0.298 A  
HETATM   15  O   UNL     1     -12.385  10.998  70.989  1.00  0.00    -0.357 OA 
HETATM   16  C   UNL     1     -12.380  13.309  70.515  1.00  0.00    -0.316 A  
HETATM   17  H   UNL     1     -12.752  11.169  71.849  1.00  0.00     0.000 HD 
HETATM   18  C   UNL     1     -12.135  14.374  69.666  1.00  0.00    -0.381 A  
HETATM   19  O   UNL     1     -12.891  13.543  71.759  1.00  0.00    -0.340 OA 
HETATM   20  H   UNL     1     -13.073  14.432  72.038  1.00  0.00     0.000 HD 
HETATM   21  C   UNL     1     -11.607  14.131  68.397  1.00  0.00    -0.353 A  
ENDBRANCH   9  12
ENDBRANCH   3   9
ENDBRANCH   2   3
TORSDOF 5
ENDMDL
MODEL      190
REMARK 921   NORMALIZED FREE ENERGY PREDICTED BY IDOCK:   -3.89 KCAL/MOL
REMARK 922        TOTAL FREE ENERGY PREDICTED BY IDOCK:   -5.70 KCAL/MOL
REMARK 923 INTER-LIGAND FREE ENERGY PREDICTED BY IDOCK:   -5.30 KCAL/MOL
REMARK 924 INTRA-LIGAND FREE ENERGY PREDICTED BY IDOCK:   -0.39 KCAL/MOL
REMARK 927      BINDING AFFINITY PREDICTED BY RF-SCORE:    0.00 PKD
ROOT
HETATM    1  C   UNL     1      -7.548  13.771  67.800  1.00  0.00    -0.173 C  
HETATM    2  C   UNL     1      -8.913  13.109  67.939  1.00  0.00    -0.200 C  
ENDROOT
BRANCH   2   3
HETATM    3  C   UNL     1      -9.931  13.465  66.826  1.00  0.00    -0.264 C  
BRANCH   3   4
HETATM    4  N   UNL     1     -10.579  12.308  66.175  1.00  0.00    -0.243 NA 
HETATM    5  H   UNL     1     -11.343  12.443  65.514  1.00  0.00     0.000 HD 
BRANCH   4   6
HETATM    6  C   UNL     1     -10.098  10.961  66.501  1.00  0.00    -0.222 C  
HETATM    7  C   UNL     1     -11.161  10.291  67.384  1.00  0.00    -0.261 C  
HETATM    8  C   UNL     1      -9.872  10.065  65.282  1.00  0.00    -0.388 C  
ENDBRANCH   4   6
ENDBRANCH   3   4
BRANCH   3   9
HETATM    9  C   UNL     1     -10.910  14.588  67.335  1.00  0.00    -0.291 C  
HETATM   10  H   UNL     1     -12.639  15.356  66.777  1.00  0.00     0.000 HD 
HETATM   11  O   UNL     1     -12.048  14.678  66.470  1.00  0.00    -0.340 OA 
BRANCH   9  12
HETATM   12  C   UNL     1     -11.441  14.456  68.753  1.00  0.00    -0.319 A  
HETATM   13  C   UNL     1     -11.767  13.220  69.334  1.00  0.00    -0.383 A  
HETATM   14  C   UNL     1     -12.257  13.171  70.639  1.00  0.00    -0.321 A  
HETATM   15  O   UNL     1     -12.576  11.988  71.245  1.00  0.00    -0.347 OA 
HETATM   16  C   UNL     1     -12.426  14.338  71.375  1.00  0.00    -0.360 A  
HETATM   17  H   UNL     1     -12.910  11.954  72.134  1.00  0.00     0.000 HD 
HETATM   18  C   UNL     1     -12.129  15.569  70.817  1.00  0.00    -0.435 A  
HETATM   19  O   UNL     1     -12.891  14.275  72.657  1.00  0.00    -0.393 OA 
HETATM   20  H   UNL     1     -13.006  15.072  73.161  1.00  0.00     0.000 HD 
HETATM   21  C   UNL     1     -11.648  15.629  69.508  1.00  0.00    -0.366 A  
ENDBRANCH   9  12
ENDBRANCH   3   9
ENDBRANCH   2   3
TORSDOF 5
ENDMDL
MODEL      191
REMARK 921   NORMALIZED FREE ENERGY PREDICTED BY IDOCK:   -3.88 KCAL/MOL
REMARK 922        TOTAL FREE ENERGY PREDICTED BY IDOCK:   -5.69 KCAL/MOL
REMARK 923 INTER-LIGAND FREE ENERGY PREDICTED BY IDOCK:   -5.22 KCAL/MOL
REMARK 924 INTRA-LIGAND FREE ENERGY PREDICTED BY IDOCK:   -0.48 KCAL/MOL
REMARK 927      BINDING AFFINITY PREDICTED BY RF-SCORE:    0.00 PKD
ROOT
HETATM    1  C   UNL     1     -10.211  11.820  64.203  1.00  0.00    -0.363 C  
HETATM    2  C   UNL     1     -11.270  12.236  65.216  1.00  0.00    -0.372 C  
ENDROOT
BRANCH   2   3
HETATM    3  C   UNL     1     -11.019  11.747  66.664  1.00  0.00    -0.294 C  
BRANCH   3   4
HETATM    4  N   UNL     1      -9.604  11.728  67.085  1.00  0.00    -0.179 NA 
HETATM    5  H   UNL     1      -9.047  12.583  67.082  1.00  0.00     0.000 HD 
BRANCH   4   6
HETATM    6  C   UNL     1      -9.016  10.453  67.509  1.00  0.00    -0.135 C  
HETATM    7  C   UNL     1      -9.995   9.338  67.114  1.00  0.00    -0.276 C  
HETATM    8  C   UNL     1      -7.666  10.140  66.861  1.00  0.00    -0.103 C  
ENDBRANCH   4   6
ENDBRANCH   3   4
BRANCH   3   9
HETATM    9  C   UNL     1     -12.007  12.473  67.652  1.00  0.00    -0.221 C  
HETATM   10  H   UNL     1     -12.796  12.116  69.425  1.00  0.00     0.000 HD 
HETATM   11  O   UNL     1     -12.200  11.678  68.828  1.00  0.00    -0.416 OA 
BRANCH   9  12
HETATM   12  C   UNL     1     -11.622  13.867  68.119  1.00  0.00    -0.370 A  
HETATM   13  C   UNL     1     -11.744  14.286  69.454  1.00  0.00    -0.363 A  
HETATM   14  C   UNL     1     -11.378  15.582  69.813  1.00  0.00    -0.319 A  
HETATM   15  O   UNL     1     -11.472  16.026  71.103  1.00  0.00    -0.396 OA 
HETATM   16  C   UNL     1     -10.890  16.469  68.861  1.00  0.00    -0.336 A  
HETATM   17  H   UNL     1     -11.222  16.910  71.349  1.00  0.00     0.000 HD 
HETATM   18  C   UNL     1     -10.779  16.086  67.536  1.00  0.00    -0.314 A  
HETATM   19  O   UNL     1     -10.520  17.731  69.230  1.00  0.00    -0.426 OA 
HETATM   20  H   UNL     1     -10.186  18.337  68.579  1.00  0.00     0.000 HD 
HETATM   21  C   UNL     1     -11.153  14.793  67.165  1.00  0.00    -0.333 A  
ENDBRANCH   9  12
ENDBRANCH   3   9
ENDBRANCH   2   3
TORSDOF 5
ENDMDL
MODEL      192
REMARK 921   NORMALIZED FREE ENERGY PREDICTED BY IDOCK:   -3.88 KCAL/MOL
REMARK 922        TOTAL FREE ENERGY PREDICTED BY IDOCK:   -5.69 KCAL/MOL
REMARK 923 INTER-LIGAND FREE ENERGY PREDICTED BY IDOCK:   -5.66 KCAL/MOL
REMARK 924 INTRA-LIGAND FREE ENERGY PREDICTED BY IDOCK:   -0.03 KCAL/MOL
REMARK 927      BINDING AFFINITY PREDICTED BY RF-SCORE:    0.00 PKD
ROOT
HETATM    1  C   UNL     1      -7.752  10.222  69.579  1.00  0.00    -0.167 C  
HETATM    2  C   UNL     1      -9.094   9.950  68.912  1.00  0.00    -0.156 C  
ENDROOT
BRANCH   2   3
HETATM    3  C   UNL     1      -9.236  10.507  67.473  1.00  0.00    -0.142 C  
BRANCH   3   4
HETATM    4  N   UNL     1      -8.235  10.013  66.506  1.00  0.00    -0.118 NA 
HETATM    5  H   UNL     1      -7.333  10.477  66.406  1.00  0.00     0.000 HD 
BRANCH   4   6
HETATM    6  C   UNL     1      -8.568   8.838  65.693  1.00  0.00    -0.172 C  
HETATM    7  C   UNL     1      -7.291   8.405  64.960  1.00  0.00    -0.086 C  
HETATM    8  C   UNL     1      -9.073   7.641  66.499  1.00  0.00    -0.203 C  
ENDBRANCH   4   6
ENDBRANCH   3   4
BRANCH   3   9
HETATM    9  C   UNL     1     -10.736  10.403  67.005  1.00  0.00    -0.235 C  
HETATM   10  H   UNL     1     -12.519  10.498  67.843  1.00  0.00     0.000 HD 
HETATM   11  O   UNL     1     -11.614  10.561  68.125  1.00  0.00    -0.402 OA 
BRANCH   9  12
HETATM   12  C   UNL     1     -11.200  11.381  65.938  1.00  0.00    -0.172 A  
HETATM   13  C   UNL     1     -12.016  12.488  66.220  1.00  0.00    -0.410 A  
HETATM   14  C   UNL     1     -12.411  13.342  65.191  1.00  0.00    -0.459 A  
HETATM   15  O   UNL     1     -13.197  14.437  65.425  1.00  0.00    -0.607 OA 
HETATM   16  C   UNL     1     -12.002  13.111  63.883  1.00  0.00    -0.488 A  
HETATM   17  H   UNL     1     -13.466  15.019  64.725  1.00  0.00     0.000 HD 
HETATM   18  C   UNL     1     -11.213  12.016  63.578  1.00  0.00    -0.526 A  
HETATM   19  O   UNL     1     -12.382  13.965  62.888  1.00  0.00    -1.023 OA 
HETATM   20  H   UNL     1     -12.103  13.807  61.994  1.00  0.00     0.000 HD 
HETATM   21  C   UNL     1     -10.821  11.149  64.599  1.00  0.00    -0.295 A  
ENDBRANCH   9  12
ENDBRANCH   3   9
ENDBRANCH   2   3
TORSDOF 5
ENDMDL
MODEL      193
REMARK 921   NORMALIZED FREE ENERGY PREDICTED BY IDOCK:   -3.88 KCAL/MOL
REMARK 922        TOTAL FREE ENERGY PREDICTED BY IDOCK:   -5.69 KCAL/MOL
REMARK 923 INTER-LIGAND FREE ENERGY PREDICTED BY IDOCK:   -5.03 KCAL/MOL
REMARK 924 INTRA-LIGAND FREE ENERGY PREDICTED BY IDOCK:   -0.66 KCAL/MOL
REMARK 927      BINDING AFFINITY PREDICTED BY RF-SCORE:    0.00 PKD
ROOT
HETATM    1  C   UNL     1      -9.453  12.175  67.147  1.00  0.00    -0.190 C  
HETATM    2  C   UNL     1     -10.635  11.238  67.361  1.00  0.00    -0.262 C  
ENDROOT
BRANCH   2   3
HETATM    3  C   UNL     1     -10.350  10.021  68.275  1.00  0.00    -0.193 C  
BRANCH   3   4
HETATM    4  N   UNL     1      -9.027   9.391  68.088  1.00  0.00    -0.128 NA 
HETATM    5  H   UNL     1      -8.821   8.849  67.250  1.00  0.00     0.000 HD 
BRANCH   4   6
HETATM    6  C   UNL     1      -8.015   9.562  69.137  1.00  0.00    -0.094 C  
HETATM    7  C   UNL     1      -7.646   8.166  69.658  1.00  0.00    -0.099 C  
HETATM    8  C   UNL     1      -6.728  10.237  68.661  1.00  0.00    -0.053 C  
ENDBRANCH   4   6
ENDBRANCH   3   4
BRANCH   3   9
HETATM    9  C   UNL     1     -10.726  10.369  69.764  1.00  0.00    -0.278 C  
HETATM   10  H   UNL     1     -11.590  11.862  70.721  1.00  0.00     0.000 HD 
HETATM   11  O   UNL     1     -11.362  11.652  69.823  1.00  0.00    -0.258 OA 
BRANCH   9  12
HETATM   12  C   UNL     1     -11.630   9.393  70.498  1.00  0.00    -0.291 A  
HETATM   13  C   UNL     1     -12.548   9.795  71.482  1.00  0.00    -0.493 A  
HETATM   14  C   UNL     1     -13.344   8.845  72.122  1.00  0.00    -0.440 A  
HETATM   15  O   UNL     1     -14.257   9.196  73.077  1.00  0.00    -1.082 OA 
HETATM   16  C   UNL     1     -13.239   7.498  71.794  1.00  0.00    -0.316 A  
HETATM   17  H   UNL     1     -14.799   8.549  73.514  1.00  0.00     0.000 HD 
HETATM   18  C   UNL     1     -12.328   7.076  70.842  1.00  0.00    -0.361 A  
HETATM   19  O   UNL     1     -14.035   6.580  72.417  1.00  0.00    -0.482 OA 
HETATM   20  H   UNL     1     -13.964   5.660  72.193  1.00  0.00     0.000 HD 
HETATM   21  C   UNL     1     -11.520   8.019  70.203  1.00  0.00    -0.008 A  
ENDBRANCH   9  12
ENDBRANCH   3   9
ENDBRANCH   2   3
TORSDOF 5
ENDMDL
MODEL      194
REMARK 921   NORMALIZED FREE ENERGY PREDICTED BY IDOCK:   -3.87 KCAL/MOL
REMARK 922        TOTAL FREE ENERGY PREDICTED BY IDOCK:   -5.68 KCAL/MOL
REMARK 923 INTER-LIGAND FREE ENERGY PREDICTED BY IDOCK:   -4.81 KCAL/MOL
REMARK 924 INTRA-LIGAND FREE ENERGY PREDICTED BY IDOCK:   -0.86 KCAL/MOL
REMARK 927      BINDING AFFINITY PREDICTED BY RF-SCORE:    0.00 PKD
ROOT
HETATM    1  C   UNL     1     -11.379  12.900  69.266  1.00  0.00    -0.303 C  
HETATM    2  C   UNL     1     -12.040  11.528  69.303  1.00  0.00    -0.344 C  
ENDROOT
BRANCH   2   3
HETATM    3  C   UNL     1     -11.186  10.405  69.941  1.00  0.00    -0.306 C  
BRANCH   3   4
HETATM    4  N   UNL     1      -9.725  10.556  69.778  1.00  0.00    -0.427 NA 
HETATM    5  H   UNL     1      -9.209  11.246  70.323  1.00  0.00     0.000 HD 
BRANCH   4   6
HETATM    6  C   UNL     1      -9.035   9.692  68.815  1.00  0.00    -0.134 C  
HETATM    7  C   UNL     1      -9.952   8.495  68.525  1.00  0.00    -0.201 C  
HETATM    8  C   UNL     1      -8.718  10.370  67.481  1.00  0.00    -0.125 C  
ENDBRANCH   4   6
ENDBRANCH   3   4
BRANCH   3   9
HETATM    9  C   UNL     1     -11.675  10.130  71.412  1.00  0.00    -0.290 C  
HETATM   10  H   UNL     1     -13.344  10.351  72.442  1.00  0.00     0.000 HD 
HETATM   11  O   UNL     1     -13.048  10.516  71.554  1.00  0.00    -0.400 OA 
BRANCH   9  12
HETATM   12  C   UNL     1     -11.562   8.706  71.928  1.00  0.00    -0.420 A  
HETATM   13  C   UNL     1     -10.512   8.274  72.755  1.00  0.00    -0.329 A  
HETATM   14  C   UNL     1     -10.465   6.950  73.187  1.00  0.00    -0.287 A  
HETATM   15  O   UNL     1      -9.467   6.492  74.001  1.00  0.00    -0.163 OA 
HETATM   16  C   UNL     1     -11.452   6.047  72.808  1.00  0.00    -0.208 A  
HETATM   17  H   UNL     1      -9.434   5.589  74.296  1.00  0.00     0.000 HD 
HETATM   18  C   UNL     1     -12.486   6.443  71.979  1.00  0.00    -0.212 A  
HETATM   19  O   UNL     1     -11.403   4.756  73.253  1.00  0.00    -0.319 OA 
HETATM   20  H   UNL     1     -12.077   4.139  72.994  1.00  0.00     0.000 HD 
HETATM   21  C   UNL     1     -12.536   7.765  71.532  1.00  0.00    -0.348 A  
ENDBRANCH   9  12
ENDBRANCH   3   9
ENDBRANCH   2   3
TORSDOF 5
ENDMDL
MODEL      195
REMARK 921   NORMALIZED FREE ENERGY PREDICTED BY IDOCK:   -3.86 KCAL/MOL
REMARK 922        TOTAL FREE ENERGY PREDICTED BY IDOCK:   -5.66 KCAL/MOL
REMARK 923 INTER-LIGAND FREE ENERGY PREDICTED BY IDOCK:   -5.29 KCAL/MOL
REMARK 924 INTRA-LIGAND FREE ENERGY PREDICTED BY IDOCK:   -0.37 KCAL/MOL
REMARK 927      BINDING AFFINITY PREDICTED BY RF-SCORE:    0.00 PKD
ROOT
HETATM    1  C   UNL     1     -10.675   6.786  67.350  1.00  0.00    -0.405 C  
HETATM    2  C   UNL     1     -10.179   8.049  68.041  1.00  0.00    -0.260 C  
ENDROOT
BRANCH   2   3
HETATM    3  C   UNL     1     -10.123   9.309  67.142  1.00  0.00    -0.236 C  
BRANCH   3   4
HETATM    4  N   UNL     1     -10.003   9.043  65.694  1.00  0.00    -0.413 NA 
HETATM    5  H   UNL     1     -10.828   8.832  65.133  1.00  0.00     0.000 HD 
BRANCH   4   6
HETATM    6  C   UNL     1      -8.672   9.089  65.081  1.00  0.00    -0.189 C  
HETATM    7  C   UNL     1      -7.763   9.909  66.008  1.00  0.00    -0.108 C  
HETATM    8  C   UNL     1      -8.024   7.717  64.887  1.00  0.00    -0.139 C  
ENDBRANCH   4   6
ENDBRANCH   3   4
BRANCH   3   9
HETATM    9  C   UNL     1     -11.267  10.310  67.551  1.00  0.00    -0.117 C  
HETATM   10  H   UNL     1     -12.024  11.030  69.225  1.00  0.00     0.000 HD 
HETATM   11  O   UNL     1     -11.333  10.426  68.978  1.00  0.00    -0.242 OA 
BRANCH   9  12
HETATM   12  C   UNL     1     -11.186  11.723  66.997  1.00  0.00    -0.382 A  
HETATM   13  C   UNL     1     -10.674  12.015  65.723  1.00  0.00    -0.319 A  
HETATM   14  C   UNL     1     -10.623  13.335  65.278  1.00  0.00    -0.315 A  
HETATM   15  O   UNL     1     -10.141  13.661  64.040  1.00  0.00    -0.710 OA 
HETATM   16  C   UNL     1     -11.077  14.372  66.086  1.00  0.00    -0.330 A  
HETATM   17  H   UNL     1     -10.106  14.561  63.737  1.00  0.00     0.000 HD 
HETATM   18  C   UNL     1     -11.568  14.110  67.352  1.00  0.00    -0.399 A  
HETATM   19  O   UNL     1     -11.036  15.659  65.632  1.00  0.00    -0.323 OA 
HETATM   20  H   UNL     1     -11.346  16.367  66.183  1.00  0.00     0.000 HD 
HETATM   21  C   UNL     1     -11.614  12.792  67.810  1.00  0.00    -0.405 A  
ENDBRANCH   9  12
ENDBRANCH   3   9
ENDBRANCH   2   3
TORSDOF 5
ENDMDL
MODEL      196
REMARK 921   NORMALIZED FREE ENERGY PREDICTED BY IDOCK:   -3.86 KCAL/MOL
REMARK 922        TOTAL FREE ENERGY PREDICTED BY IDOCK:   -5.66 KCAL/MOL
REMARK 923 INTER-LIGAND FREE ENERGY PREDICTED BY IDOCK:   -5.19 KCAL/MOL
REMARK 924 INTRA-LIGAND FREE ENERGY PREDICTED BY IDOCK:   -0.47 KCAL/MOL
REMARK 927      BINDING AFFINITY PREDICTED BY RF-SCORE:    0.00 PKD
ROOT
HETATM    1  C   UNL     1      -8.091  11.726  67.824  1.00  0.00    -0.143 C  
HETATM    2  C   UNL     1      -8.897  10.761  68.685  1.00  0.00    -0.152 C  
ENDROOT
BRANCH   2   3
HETATM    3  C   UNL     1     -10.432  10.832  68.489  1.00  0.00    -0.187 C  
BRANCH   3   4
HETATM    4  N   UNL     1     -11.009   9.760  67.652  1.00  0.00    -0.437 NA 
HETATM    5  H   UNL     1     -12.017   9.681  67.528  1.00  0.00     0.000 HD 
BRANCH   4   6
HETATM    6  C   UNL     1     -10.097   8.812  67.003  1.00  0.00    -0.265 C  
HETATM    7  C   UNL     1     -10.773   7.434  67.020  1.00  0.00    -0.389 C  
HETATM    8  C   UNL     1      -9.771   9.153  65.548  1.00  0.00    -0.171 C  
ENDBRANCH   4   6
ENDBRANCH   3   4
BRANCH   3   9
HETATM    9  C   UNL     1     -11.139  11.058  69.877  1.00  0.00    -0.205 C  
HETATM   10  H   UNL     1     -12.545  12.235  70.606  1.00  0.00     0.000 HD 
HETATM   11  O   UNL     1     -12.118  12.099  69.768  1.00  0.00    -0.290 OA 
BRANCH   9  12
HETATM   12  C   UNL     1     -11.835   9.861  70.505  1.00  0.00    -0.350 A  
HETATM   13  C   UNL     1     -11.259   8.582  70.553  1.00  0.00    -0.262 A  
HETATM   14  C   UNL     1     -11.956   7.526  71.139  1.00  0.00    -0.308 A  
HETATM   15  O   UNL     1     -11.426   6.267  71.215  1.00  0.00    -0.298 OA 
HETATM   16  C   UNL     1     -13.220   7.727  71.680  1.00  0.00    -0.343 A  
HETATM   17  H   UNL     1     -11.901   5.547  71.614  1.00  0.00     0.000 HD 
HETATM   18  C   UNL     1     -13.816   8.974  71.628  1.00  0.00    -0.422 A  
HETATM   19  O   UNL     1     -13.885   6.687  72.266  1.00  0.00    -0.535 OA 
HETATM   20  H   UNL     1     -14.748   6.824  72.637  1.00  0.00     0.000 HD 
HETATM   21  C   UNL     1     -13.130  10.036  71.034  1.00  0.00    -0.435 A  
ENDBRANCH   9  12
ENDBRANCH   3   9
ENDBRANCH   2   3
TORSDOF 5
ENDMDL
MODEL      197
REMARK 921   NORMALIZED FREE ENERGY PREDICTED BY IDOCK:   -3.86 KCAL/MOL
REMARK 922        TOTAL FREE ENERGY PREDICTED BY IDOCK:   -5.66 KCAL/MOL
REMARK 923 INTER-LIGAND FREE ENERGY PREDICTED BY IDOCK:   -5.07 KCAL/MOL
REMARK 924 INTRA-LIGAND FREE ENERGY PREDICTED BY IDOCK:   -0.58 KCAL/MOL
REMARK 927      BINDING AFFINITY PREDICTED BY RF-SCORE:    0.00 PKD
ROOT
HETATM    1  C   UNL     1      -7.234  15.175  69.251  1.00  0.00    -0.182 C  
HETATM    2  C   UNL     1      -8.207  14.934  68.104  1.00  0.00    -0.139 C  
ENDROOT
BRANCH   2   3
HETATM    3  C   UNL     1      -9.378  13.973  68.427  1.00  0.00    -0.210 C  
BRANCH   3   4
HETATM    4  N   UNL     1     -10.122  14.283  69.666  1.00  0.00    -0.355 NA 
HETATM    5  H   UNL     1      -9.689  14.156  70.580  1.00  0.00     0.000 HD 
BRANCH   4   6
HETATM    6  C   UNL     1     -11.498  14.778  69.551  1.00  0.00    -0.298 C  
HETATM    7  C   UNL     1     -12.185  14.554  70.905  1.00  0.00    -0.409 C  
HETATM    8  C   UNL     1     -11.602  16.267  69.215  1.00  0.00    -0.196 C  
ENDBRANCH   4   6
ENDBRANCH   3   4
BRANCH   3   9
HETATM    9  C   UNL     1     -10.265  13.759  67.144  1.00  0.00    -0.244 C  
HETATM   10  H   UNL     1     -10.674  14.754  65.491  1.00  0.00     0.000 HD 
HETATM   11  O   UNL     1     -10.139  14.883  66.265  1.00  0.00    -0.259 OA 
BRANCH   9  12
HETATM   12  C   UNL     1      -9.994  12.516  66.313  1.00  0.00    -0.263 A  
HETATM   13  C   UNL     1     -10.495  12.343  65.013  1.00  0.00    -0.324 A  
HETATM   14  C   UNL     1     -10.213  11.173  64.307  1.00  0.00    -0.340 A  
HETATM   15  O   UNL     1     -10.673  10.970  63.036  1.00  0.00    -0.786 OA 
HETATM   16  C   UNL     1      -9.436  10.172  64.879  1.00  0.00    -0.289 A  
HETATM   17  H   UNL     1     -10.482  10.174  62.555  1.00  0.00     0.000 HD 
HETATM   18  C   UNL     1      -8.947  10.312  66.165  1.00  0.00    -0.174 A  
HETATM   19  O   UNL     1      -9.154   9.039  64.171  1.00  0.00    -0.426 OA 
HETATM   20  H   UNL     1      -8.623   8.355  64.561  1.00  0.00     0.000 HD 
HETATM   21  C   UNL     1      -9.233  11.475  66.884  1.00  0.00    -0.181 A  
ENDBRANCH   9  12
ENDBRANCH   3   9
ENDBRANCH   2   3
TORSDOF 5
ENDMDL
MODEL      198
REMARK 921   NORMALIZED FREE ENERGY PREDICTED BY IDOCK:   -3.84 KCAL/MOL
REMARK 922        TOTAL FREE ENERGY PREDICTED BY IDOCK:   -5.64 KCAL/MOL
REMARK 923 INTER-LIGAND FREE ENERGY PREDICTED BY IDOCK:   -4.91 KCAL/MOL
REMARK 924 INTRA-LIGAND FREE ENERGY PREDICTED BY IDOCK:   -0.73 KCAL/MOL
REMARK 927      BINDING AFFINITY PREDICTED BY RF-SCORE:    0.00 PKD
ROOT
HETATM    1  C   UNL     1      -8.705   7.216  66.500  1.00  0.00    -0.139 C  
HETATM    2  C   UNL     1      -9.390   8.554  66.254  1.00  0.00    -0.287 C  
ENDROOT
BRANCH   2   3
HETATM    3  C   UNL     1      -8.433   9.742  65.984  1.00  0.00    -0.124 C  
BRANCH   3   4
HETATM    4  N   UNL     1      -6.994   9.413  66.035  1.00  0.00    -0.089 NA 
HETATM    5  H   UNL     1      -6.579   8.779  65.353  1.00  0.00     0.000 HD 
BRANCH   4   6
HETATM    6  C   UNL     1      -6.175  10.019  67.090  1.00  0.00    -0.066 C  
HETATM    7  C   UNL     1      -5.350  11.143  66.449  1.00  0.00    -0.130 C  
HETATM    8  C   UNL     1      -6.982  10.630  68.237  1.00  0.00    -0.072 C  
ENDBRANCH   4   6
ENDBRANCH   3   4
BRANCH   3   9
HETATM    9  C   UNL     1      -8.901  10.524  64.700  1.00  0.00    -0.196 C  
HETATM   10  H   UNL     1      -9.512  10.075  62.879  1.00  0.00     0.000 HD 
HETATM   11  O   UNL     1      -9.230   9.602  63.654  1.00  0.00    -0.247 OA 
BRANCH   9  12
HETATM   12  C   UNL     1     -10.086  11.463  64.852  1.00  0.00    -0.323 A  
HETATM   13  C   UNL     1     -10.418  12.084  66.067  1.00  0.00    -0.284 A  
HETATM   14  C   UNL     1     -11.524  12.929  66.138  1.00  0.00    -0.348 A  
HETATM   15  O   UNL     1     -11.875  13.562  67.298  1.00  0.00    -0.355 OA 
HETATM   16  C   UNL     1     -12.306  13.167  65.013  1.00  0.00    -0.459 A  
HETATM   17  H   UNL     1     -12.629  14.138  67.347  1.00  0.00     0.000 HD 
HETATM   18  C   UNL     1     -12.010  12.552  63.810  1.00  0.00    -0.598 A  
HETATM   19  O   UNL     1     -13.377  14.010  65.092  1.00  0.00    -0.703 OA 
HETATM   20  H   UNL     1     -13.911  14.173  64.324  1.00  0.00     0.000 HD 
HETATM   21  C   UNL     1     -10.910  11.695  63.731  1.00  0.00    -0.493 A  
ENDBRANCH   9  12
ENDBRANCH   3   9
ENDBRANCH   2   3
TORSDOF 5
ENDMDL
MODEL      199
REMARK 921   NORMALIZED FREE ENERGY PREDICTED BY IDOCK:   -3.83 KCAL/MOL
REMARK 922        TOTAL FREE ENERGY PREDICTED BY IDOCK:   -5.63 KCAL/MOL
REMARK 923 INTER-LIGAND FREE ENERGY PREDICTED BY IDOCK:   -5.01 KCAL/MOL
REMARK 924 INTRA-LIGAND FREE ENERGY PREDICTED BY IDOCK:   -0.62 KCAL/MOL
REMARK 927      BINDING AFFINITY PREDICTED BY RF-SCORE:    0.00 PKD
ROOT
HETATM    1  C   UNL     1      -8.230  11.286  68.656  1.00  0.00    -0.146 C  
HETATM    2  C   UNL     1      -9.209  11.207  67.492  1.00  0.00    -0.155 C  
ENDROOT
BRANCH   2   3
HETATM    3  C   UNL     1     -10.613  10.661  67.852  1.00  0.00    -0.228 C  
BRANCH   3   4
HETATM    4  N   UNL     1     -11.746  11.398  67.255  1.00  0.00    -0.583 NA 
HETATM    5  H   UNL     1     -12.691  11.018  67.289  1.00  0.00     0.000 HD 
BRANCH   4   6
HETATM    6  C   UNL     1     -11.480  12.690  66.613  1.00  0.00    -0.351 C  
HETATM    7  C   UNL     1     -12.241  12.710  65.280  1.00  0.00    -0.532 C  
HETATM    8  C   UNL     1     -11.936  13.901  67.428  1.00  0.00    -0.436 C  
ENDBRANCH   4   6
ENDBRANCH   3   4
BRANCH   3   9
HETATM    9  C   UNL     1     -10.647   9.099  67.655  1.00  0.00    -0.242 C  
HETATM   10  H   UNL     1      -9.481   7.720  66.860  1.00  0.00     0.000 HD 
HETATM   11  O   UNL     1      -9.461   8.663  66.979  1.00  0.00    -0.153 OA 
BRANCH   9  12
HETATM   12  C   UNL     1     -10.783   8.245  68.904  1.00  0.00    -0.089 A  
HETATM   13  C   UNL     1     -10.865   8.788  70.196  1.00  0.00    -0.241 A  
HETATM   14  C   UNL     1     -10.983   7.945  71.300  1.00  0.00    -0.238 A  
HETATM   15  O   UNL     1     -11.076   8.434  72.574  1.00  0.00    -0.361 OA 
HETATM   16  C   UNL     1     -11.023   6.565  71.135  1.00  0.00    -0.266 A  
HETATM   17  H   UNL     1     -11.156   7.860  73.326  1.00  0.00     0.000 HD 
HETATM   18  C   UNL     1     -10.925   6.006  69.874  1.00  0.00    -0.458 A  
HETATM   19  O   UNL     1     -11.155   5.751  72.224  1.00  0.00    -0.252 OA 
HETATM   20  H   UNL     1     -11.182   4.809  72.112  1.00  0.00     0.000 HD 
HETATM   21  C   UNL     1     -10.796   6.842  68.763  1.00  0.00    -0.280 A  
ENDBRANCH   9  12
ENDBRANCH   3   9
ENDBRANCH   2   3
TORSDOF 5
ENDMDL
MODEL      200
REMARK 921   NORMALIZED FREE ENERGY PREDICTED BY IDOCK:   -3.83 KCAL/MOL
REMARK 922        TOTAL FREE ENERGY PREDICTED BY IDOCK:   -5.62 KCAL/MOL
REMARK 923 INTER-LIGAND FREE ENERGY PREDICTED BY IDOCK:   -4.73 KCAL/MOL
REMARK 924 INTRA-LIGAND FREE ENERGY PREDICTED BY IDOCK:   -0.89 KCAL/MOL
REMARK 927      BINDING AFFINITY PREDICTED BY RF-SCORE:    0.00 PKD
ROOT
HETATM    1  C   UNL     1      -9.297   7.590  72.281  1.00  0.00    -0.185 C  
HETATM    2  C   UNL     1      -9.834   8.778  71.492  1.00  0.00    -0.371 C  
ENDROOT
BRANCH   2   3
HETATM    3  C   UNL     1     -10.769   8.413  70.312  1.00  0.00    -0.234 C  
BRANCH   3   4
HETATM    4  N   UNL     1     -11.794   9.426  69.987  1.00  0.00    -0.459 NA 
HETATM    5  H   UNL     1     -12.575   9.199  69.373  1.00  0.00     0.000 HD 
BRANCH   4   6
HETATM    6  C   UNL     1     -11.663  10.766  70.568  1.00  0.00    -0.351 C  
HETATM    7  C   UNL     1     -11.677  11.776  69.412  1.00  0.00    -0.405 C  
HETATM    8  C   UNL     1     -12.789  11.145  71.531  1.00  0.00    -0.542 C  
ENDBRANCH   4   6
ENDBRANCH   3   4
BRANCH   3   9
HETATM    9  C   UNL     1      -9.916   7.901  69.092  1.00  0.00    -0.184 C  
HETATM   10  H   UNL     1     -10.053   6.477  67.734  1.00  0.00     0.000 HD 
HETATM   11  O   UNL     1     -10.567   6.786  68.470  1.00  0.00    -0.195 OA 
BRANCH   9  12
HETATM   12  C   UNL     1      -9.607   8.902  67.992  1.00  0.00    -0.167 A  
HETATM   13  C   UNL     1      -8.730   9.984  68.168  1.00  0.00    -0.122 A  
HETATM   14  C   UNL     1      -8.495  10.870  67.117  1.00  0.00    -0.128 A  
HETATM   15  O   UNL     1      -7.640  11.929  67.245  1.00  0.00    -0.137 OA 
HETATM   16  C   UNL     1      -9.122  10.692  65.889  1.00  0.00    -0.180 A  
HETATM   17  H   UNL     1      -7.481  12.533  66.529  1.00  0.00     0.000 HD 
HETATM   18  C   UNL     1     -10.005   9.644  65.697  1.00  0.00    -0.321 A  
HETATM   19  O   UNL     1      -8.871  11.557  64.863  1.00  0.00    -0.392 OA 
HETATM   20  H   UNL     1      -9.299  11.436  64.024  1.00  0.00     0.000 HD 
HETATM   21  C   UNL     1     -10.254   8.758  66.747  1.00  0.00    -0.354 A  
ENDBRANCH   9  12
ENDBRANCH   3   9
ENDBRANCH   2   3
TORSDOF 5
ENDMDL
MODEL      201
REMARK 921   NORMALIZED FREE ENERGY PREDICTED BY IDOCK:   -3.81 KCAL/MOL
REMARK 922        TOTAL FREE ENERGY PREDICTED BY IDOCK:   -5.60 KCAL/MOL
REMARK 923 INTER-LIGAND FREE ENERGY PREDICTED BY IDOCK:   -5.26 KCAL/MOL
REMARK 924 INTRA-LIGAND FREE ENERGY PREDICTED BY IDOCK:   -0.34 KCAL/MOL
REMARK 927      BINDING AFFINITY PREDICTED BY RF-SCORE:    0.00 PKD
ROOT
HETATM    1  C   UNL     1      -8.532   7.511  67.096  1.00  0.00    -0.121 C  
HETATM    2  C   UNL     1      -8.253   9.007  67.141  1.00  0.00    -0.110 C  
ENDROOT
BRANCH   2   3
HETATM    3  C   UNL     1      -8.825   9.817  65.950  1.00  0.00    -0.150 C  
BRANCH   3   4
HETATM    4  N   UNL     1      -8.400   9.354  64.614  1.00  0.00    -0.146 NA 
HETATM    5  H   UNL     1      -8.583   8.398  64.310  1.00  0.00     0.000 HD 
BRANCH   4   6
HETATM    6  C   UNL     1      -7.709  10.301  63.732  1.00  0.00    -0.100 C  
HETATM    7  C   UNL     1      -6.324   9.716  63.419  1.00  0.00    -0.107 C  
HETATM    8  C   UNL     1      -8.420  10.552  62.402  1.00  0.00    -0.253 C  
ENDBRANCH   4   6
ENDBRANCH   3   4
BRANCH   3   9
HETATM    9  C   UNL     1     -10.376  10.015  66.134  1.00  0.00    -0.155 C  
HETATM   10  H   UNL     1     -11.656  10.072  67.635  1.00  0.00     0.000 HD 
HETATM   11  O   UNL     1     -10.719   9.953  67.524  1.00  0.00    -0.258 OA 
BRANCH   9  12
HETATM   12  C   UNL     1     -10.983  11.296  65.586  1.00  0.00    -0.201 A  
HETATM   13  C   UNL     1     -11.464  12.326  66.409  1.00  0.00    -0.434 A  
HETATM   14  C   UNL     1     -12.015  13.474  65.839  1.00  0.00    -0.406 A  
HETATM   15  O   UNL     1     -12.485  14.504  66.605  1.00  0.00    -0.494 OA 
HETATM   16  C   UNL     1     -12.092  13.611  64.458  1.00  0.00    -0.419 A  
HETATM   17  H   UNL     1     -12.861  15.286  66.218  1.00  0.00     0.000 HD 
HETATM   18  C   UNL     1     -11.641  12.601  63.627  1.00  0.00    -0.575 A  
HETATM   19  O   UNL     1     -12.618  14.747  63.913  1.00  0.00    -0.952 OA 
HETATM   20  H   UNL     1     -12.671  14.841  62.970  1.00  0.00     0.000 HD 
HETATM   21  C   UNL     1     -11.097  11.444  64.188  1.00  0.00    -0.382 A  
ENDBRANCH   9  12
ENDBRANCH   3   9
ENDBRANCH   2   3
TORSDOF 5
ENDMDL
MODEL      202
REMARK 921   NORMALIZED FREE ENERGY PREDICTED BY IDOCK:   -3.81 KCAL/MOL
REMARK 922        TOTAL FREE ENERGY PREDICTED BY IDOCK:   -5.59 KCAL/MOL
REMARK 923 INTER-LIGAND FREE ENERGY PREDICTED BY IDOCK:   -5.02 KCAL/MOL
REMARK 924 INTRA-LIGAND FREE ENERGY PREDICTED BY IDOCK:   -0.58 KCAL/MOL
REMARK 927      BINDING AFFINITY PREDICTED BY RF-SCORE:    0.00 PKD
ROOT
HETATM    1  C   UNL     1      -9.223   9.641  64.767  1.00  0.00    -0.298 C  
HETATM    2  C   UNL     1     -10.141  10.683  65.394  1.00  0.00    -0.356 C  
ENDROOT
BRANCH   2   3
HETATM    3  C   UNL     1      -9.592  11.354  66.678  1.00  0.00    -0.191 C  
BRANCH   3   4
HETATM    4  N   UNL     1      -8.421  12.232  66.476  1.00  0.00    -0.393 NA 
HETATM    5  H   UNL     1      -8.408  12.918  65.722  1.00  0.00     0.000 HD 
BRANCH   4   6
HETATM    6  C   UNL     1      -7.278  12.095  67.385  1.00  0.00    -0.147 C  
HETATM    7  C   UNL     1      -6.333  11.044  66.787  1.00  0.00    -0.114 C  
HETATM    8  C   UNL     1      -6.477  13.383  67.583  1.00  0.00    -0.169 C  
ENDBRANCH   4   6
ENDBRANCH   3   4
BRANCH   3   9
HETATM    9  C   UNL     1     -10.776  11.987  67.499  1.00  0.00    -0.226 C  
HETATM   10  H   UNL     1     -12.650  12.504  67.163  1.00  0.00     0.000 HD 
HETATM   11  O   UNL     1     -11.935  12.122  66.667  1.00  0.00    -0.616 OA 
BRANCH   9  12
HETATM   12  C   UNL     1     -11.217  11.258  68.757  1.00  0.00    -0.311 A  
HETATM   13  C   UNL     1     -11.016   9.882  68.952  1.00  0.00    -0.214 A  
HETATM   14  C   UNL     1     -11.451   9.274  70.128  1.00  0.00    -0.108 A  
HETATM   15  O   UNL     1     -11.265   7.939  70.362  1.00  0.00    -0.269 OA 
HETATM   16  C   UNL     1     -12.085  10.018  71.117  1.00  0.00    -0.380 A  
HETATM   17  H   UNL     1     -11.562   7.524  71.163  1.00  0.00     0.000 HD 
HETATM   18  C   UNL     1     -12.311  11.372  70.939  1.00  0.00    -0.483 A  
HETATM   19  O   UNL     1     -12.492   9.413  72.272  1.00  0.00    -0.341 OA 
HETATM   20  H   UNL     1     -12.924   9.922  72.947  1.00  0.00     0.000 HD 
HETATM   21  C   UNL     1     -11.888  11.987  69.760  1.00  0.00    -0.401 A  
ENDBRANCH   9  12
ENDBRANCH   3   9
ENDBRANCH   2   3
TORSDOF 5
ENDMDL
MODEL      203
REMARK 921   NORMALIZED FREE ENERGY PREDICTED BY IDOCK:   -3.81 KCAL/MOL
REMARK 922        TOTAL FREE ENERGY PREDICTED BY IDOCK:   -5.59 KCAL/MOL
REMARK 923 INTER-LIGAND FREE ENERGY PREDICTED BY IDOCK:   -5.75 KCAL/MOL
REMARK 924 INTRA-LIGAND FREE ENERGY PREDICTED BY IDOCK:    0.16 KCAL/MOL
REMARK 927      BINDING AFFINITY PREDICTED BY RF-SCORE:    0.00 PKD
ROOT
HETATM    1  C   UNL     1      -9.921   9.641  66.148  1.00  0.00    -0.346 C  
HETATM    2  C   UNL     1     -10.978  10.738  66.156  1.00  0.00    -0.037 C  
ENDROOT
BRANCH   2   3
HETATM    3  C   UNL     1     -10.733  11.878  67.176  1.00  0.00    -0.240 C  
BRANCH   3   4
HETATM    4  N   UNL     1     -11.590  13.069  67.005  1.00  0.00    -0.340 NA 
HETATM    5  H   UNL     1     -12.534  13.091  67.389  1.00  0.00     0.000 HD 
BRANCH   4   6
HETATM    6  C   UNL     1     -11.053  14.218  66.270  1.00  0.00    -0.323 C  
HETATM    7  C   UNL     1     -11.944  14.439  65.039  1.00  0.00    -0.413 C  
HETATM    8  C   UNL     1     -11.034  15.521  67.071  1.00  0.00    -0.283 C  
ENDBRANCH   4   6
ENDBRANCH   3   4
BRANCH   3   9
HETATM    9  C   UNL     1     -10.680  11.289  68.635  1.00  0.00    -0.205 C  
HETATM   10  H   UNL     1      -9.310  10.997  70.024  1.00  0.00     0.000 HD 
HETATM   11  O   UNL     1      -9.342  11.352  69.143  1.00  0.00    -0.022 OA 
BRANCH   9  12
HETATM   12  C   UNL     1     -11.580  11.932  69.677  1.00  0.00    -0.387 A  
HETATM   13  C   UNL     1     -11.795  13.318  69.749  1.00  0.00    -0.394 A  
HETATM   14  C   UNL     1     -12.629  13.843  70.735  1.00  0.00    -0.354 A  
HETATM   15  O   UNL     1     -12.873  15.185  70.833  1.00  0.00    -0.359 OA 
HETATM   16  C   UNL     1     -13.254  13.006  71.652  1.00  0.00    -0.336 A  
HETATM   17  H   UNL     1     -13.441  15.543  71.505  1.00  0.00     0.000 HD 
HETATM   18  C   UNL     1     -13.042  11.639  71.613  1.00  0.00    -0.456 A  
HETATM   19  O   UNL     1     -14.081  13.531  72.603  1.00  0.00    -0.762 OA 
HETATM   20  H   UNL     1     -14.508  12.960  73.229  1.00  0.00     0.000 HD 
HETATM   21  C   UNL     1     -12.201  11.105  70.635  1.00  0.00    -0.492 A  
ENDBRANCH   9  12
ENDBRANCH   3   9
ENDBRANCH   2   3
TORSDOF 5
ENDMDL
MODEL      204
REMARK 921   NORMALIZED FREE ENERGY PREDICTED BY IDOCK:   -3.80 KCAL/MOL
REMARK 922        TOTAL FREE ENERGY PREDICTED BY IDOCK:   -5.59 KCAL/MOL
REMARK 923 INTER-LIGAND FREE ENERGY PREDICTED BY IDOCK:   -5.01 KCAL/MOL
REMARK 924 INTRA-LIGAND FREE ENERGY PREDICTED BY IDOCK:   -0.58 KCAL/MOL
REMARK 927      BINDING AFFINITY PREDICTED BY RF-SCORE:    0.00 PKD
ROOT
HETATM    1  C   UNL     1     -11.295  14.478  65.354  1.00  0.00    -0.341 C  
HETATM    2  C   UNL     1     -11.392  15.314  66.623  1.00  0.00    -0.170 C  
ENDROOT
BRANCH   2   3
HETATM    3  C   UNL     1     -10.185  15.188  67.586  1.00  0.00    -0.241 C  
BRANCH   3   4
HETATM    4  N   UNL     1      -9.089  16.149  67.349  1.00  0.00    -0.194 NA 
HETATM    5  H   UNL     1      -8.701  16.278  66.415  1.00  0.00     0.000 HD 
BRANCH   4   6
HETATM    6  C   UNL     1      -8.570  16.914  68.487  1.00  0.00    -0.251 C  
HETATM    7  C   UNL     1      -7.046  16.727  68.516  1.00  0.00    -0.183 C  
HETATM    8  C   UNL     1      -8.854  18.415  68.416  1.00  0.00    -0.340 C  
ENDBRANCH   4   6
ENDBRANCH   3   4
BRANCH   3   9
HETATM    9  C   UNL     1     -10.694  15.098  69.073  1.00  0.00    -0.239 C  
HETATM   10  H   UNL     1     -12.010  16.034  70.206  1.00  0.00     0.000 HD 
HETATM   11  O   UNL     1     -11.703  16.088  69.308  1.00  0.00    -0.350 OA 
BRANCH   9  12
HETATM   12  C   UNL     1     -11.265  13.767  69.533  1.00  0.00    -0.221 A  
HETATM   13  C   UNL     1     -12.169  13.652  70.601  1.00  0.00    -0.434 A  
HETATM   14  C   UNL     1     -12.649  12.398  70.975  1.00  0.00    -0.254 A  
HETATM   15  O   UNL     1     -13.538  12.243  72.002  1.00  0.00    -0.400 OA 
HETATM   16  C   UNL     1     -12.242  11.254  70.298  1.00  0.00    -0.345 A  
HETATM   17  H   UNL     1     -13.866  11.389  72.258  1.00  0.00     0.000 HD 
HETATM   18  C   UNL     1     -11.338  11.340  69.254  1.00  0.00    -0.354 A  
HETATM   19  O   UNL     1     -12.733  10.033  70.664  1.00  0.00    -0.459 OA 
HETATM   20  H   UNL     1     -12.456   9.251  70.201  1.00  0.00     0.000 HD 
HETATM   21  C   UNL     1     -10.843  12.590  68.879  1.00  0.00    -0.238 A  
ENDBRANCH   9  12
ENDBRANCH   3   9
ENDBRANCH   2   3
TORSDOF 5
ENDMDL
MODEL      205
REMARK 921   NORMALIZED FREE ENERGY PREDICTED BY IDOCK:   -3.80 KCAL/MOL
REMARK 922        TOTAL FREE ENERGY PREDICTED BY IDOCK:   -5.58 KCAL/MOL
REMARK 923 INTER-LIGAND FREE ENERGY PREDICTED BY IDOCK:   -4.91 KCAL/MOL
REMARK 924 INTRA-LIGAND FREE ENERGY PREDICTED BY IDOCK:   -0.67 KCAL/MOL
REMARK 927      BINDING AFFINITY PREDICTED BY RF-SCORE:    0.00 PKD
ROOT
HETATM    1  C   UNL     1      -6.769   7.559  68.753  1.00  0.00    -0.053 C  
HETATM    2  C   UNL     1      -7.384   8.275  67.557  1.00  0.00    -0.093 C  
ENDROOT
BRANCH   2   3
HETATM    3  C   UNL     1      -8.655   9.103  67.871  1.00  0.00    -0.121 C  
BRANCH   3   4
HETATM    4  N   UNL     1      -9.149   8.995  69.259  1.00  0.00    -0.143 NA 
HETATM    5  H   UNL     1      -8.498   8.904  70.038  1.00  0.00     0.000 HD 
BRANCH   4   6
HETATM    6  C   UNL     1     -10.597   9.020  69.491  1.00  0.00    -0.225 C  
HETATM    7  C   UNL     1     -11.015   7.620  69.963  1.00  0.00    -0.237 C  
HETATM    8  C   UNL     1     -11.043  10.024  70.555  1.00  0.00    -0.400 C  
ENDBRANCH   4   6
ENDBRANCH   3   4
BRANCH   3   9
HETATM    9  C   UNL     1      -8.485  10.571  67.328  1.00  0.00    -0.122 C  
HETATM   10  H   UNL     1      -7.179  11.561  66.230  1.00  0.00     0.000 HD 
HETATM   11  O   UNL     1      -7.282  10.674  66.557  1.00  0.00    -0.118 OA 
BRANCH   9  12
HETATM   12  C   UNL     1      -9.609  11.130  66.471  1.00  0.00    -0.222 A  
HETATM   13  C   UNL     1      -9.739  10.845  65.103  1.00  0.00    -0.312 A  
HETATM   14  C   UNL     1     -10.792  11.396  64.374  1.00  0.00    -0.330 A  
HETATM   15  O   UNL     1     -10.961  11.136  63.042  1.00  0.00    -0.820 OA 
HETATM   16  C   UNL     1     -11.720  12.228  64.990  1.00  0.00    -0.352 A  
HETATM   17  H   UNL     1     -11.678  11.512  62.545  1.00  0.00     0.000 HD 
HETATM   18  C   UNL     1     -11.601  12.538  66.333  1.00  0.00    -0.449 A  
HETATM   19  O   UNL     1     -12.755  12.748  64.268  1.00  0.00    -0.654 OA 
HETATM   20  H   UNL     1     -13.390  13.316  64.689  1.00  0.00     0.000 HD 
HETATM   21  C   UNL     1     -10.544  11.999  67.069  1.00  0.00    -0.258 A  
ENDBRANCH   9  12
ENDBRANCH   3   9
ENDBRANCH   2   3
TORSDOF 5
ENDMDL
MODEL      206
REMARK 921   NORMALIZED FREE ENERGY PREDICTED BY IDOCK:   -3.78 KCAL/MOL
REMARK 922        TOTAL FREE ENERGY PREDICTED BY IDOCK:   -5.55 KCAL/MOL
REMARK 923 INTER-LIGAND FREE ENERGY PREDICTED BY IDOCK:   -4.98 KCAL/MOL
REMARK 924 INTRA-LIGAND FREE ENERGY PREDICTED BY IDOCK:   -0.57 KCAL/MOL
REMARK 927      BINDING AFFINITY PREDICTED BY RF-SCORE:    0.00 PKD
ROOT
HETATM    1  C   UNL     1     -10.950  14.107  69.433  1.00  0.00    -0.216 C  
HETATM    2  C   UNL     1     -11.963  13.615  68.407  1.00  0.00    -0.391 C  
ENDROOT
BRANCH   2   3
HETATM    3  C   UNL     1     -11.354  13.113  67.073  1.00  0.00    -0.312 C  
BRANCH   3   4
HETATM    4  N   UNL     1     -10.626  14.133  66.292  1.00  0.00    -0.281 NA 
HETATM    5  H   UNL     1      -9.624  14.044  66.125  1.00  0.00     0.000 HD 
BRANCH   4   6
HETATM    6  C   UNL     1     -11.375  15.277  65.763  1.00  0.00    -0.180 C  
HETATM    7  C   UNL     1     -10.420  16.478  65.720  1.00  0.00    -0.343 C  
HETATM    8  C   UNL     1     -11.923  15.067  64.350  1.00  0.00    -0.366 C  
ENDBRANCH   4   6
ENDBRANCH   3   4
BRANCH   3   9
HETATM    9  C   UNL     1     -10.577  11.765  67.314  1.00  0.00    -0.224 C  
HETATM   10  H   UNL     1     -11.015   9.931  67.894  1.00  0.00     0.000 HD 
HETATM   11  O   UNL     1     -11.484  10.745  67.749  1.00  0.00    -0.460 OA 
BRANCH   9  12
HETATM   12  C   UNL     1      -9.799  11.194  66.141  1.00  0.00    -0.265 A  
HETATM   13  C   UNL     1     -10.359  11.016  64.866  1.00  0.00    -0.378 A  
HETATM   14  C   UNL     1      -9.590  10.480  63.835  1.00  0.00    -0.309 A  
HETATM   15  O   UNL     1     -10.095  10.300  62.576  1.00  0.00    -0.687 OA 
HETATM   16  C   UNL     1      -8.265  10.118  64.055  1.00  0.00    -0.164 A  
HETATM   17  H   UNL     1      -9.570   9.935  61.873  1.00  0.00     0.000 HD 
HETATM   18  C   UNL     1      -7.696  10.267  65.307  1.00  0.00    -0.144 A  
HETATM   19  O   UNL     1      -7.518   9.610  63.031  1.00  0.00    -0.107 OA 
HETATM   20  H   UNL     1      -6.613   9.363  63.181  1.00  0.00     0.000 HD 
HETATM   21  C   UNL     1      -8.462  10.793  66.349  1.00  0.00    -0.158 A  
ENDBRANCH   9  12
ENDBRANCH   3   9
ENDBRANCH   2   3
TORSDOF 5
ENDMDL
MODEL      207
REMARK 921   NORMALIZED FREE ENERGY PREDICTED BY IDOCK:   -3.77 KCAL/MOL
REMARK 922        TOTAL FREE ENERGY PREDICTED BY IDOCK:   -5.55 KCAL/MOL
REMARK 923 INTER-LIGAND FREE ENERGY PREDICTED BY IDOCK:   -4.69 KCAL/MOL
REMARK 924 INTRA-LIGAND FREE ENERGY PREDICTED BY IDOCK:   -0.86 KCAL/MOL
REMARK 927      BINDING AFFINITY PREDICTED BY RF-SCORE:    0.00 PKD
ROOT
HETATM    1  C   UNL     1      -7.795   5.402  69.892  1.00  0.00    -0.081 C  
HETATM    2  C   UNL     1      -8.475   6.249  68.824  1.00  0.00    -0.119 C  
ENDROOT
BRANCH   2   3
HETATM    3  C   UNL     1      -8.767   7.713  69.236  1.00  0.00    -0.136 C  
BRANCH   3   4
HETATM    4  N   UNL     1      -7.758   8.701  68.803  1.00  0.00    -0.096 NA 
HETATM    5  H   UNL     1      -7.561   8.846  67.813  1.00  0.00     0.000 HD 
BRANCH   4   6
HETATM    6  C   UNL     1      -7.045   9.470  69.829  1.00  0.00    -0.075 C  
HETATM    7  C   UNL     1      -7.337  10.957  69.580  1.00  0.00    -0.068 C  
HETATM    8  C   UNL     1      -7.469   9.145  71.262  1.00  0.00    -0.054 C  
ENDBRANCH   4   6
ENDBRANCH   3   4
BRANCH   3   9
HETATM    9  C   UNL     1     -10.259   8.078  68.892  1.00  0.00    -0.209 C  
HETATM   10  H   UNL     1     -11.726   7.299  67.827  1.00  0.00     0.000 HD 
HETATM   11  O   UNL     1     -10.825   7.079  68.035  1.00  0.00    -0.208 OA 
BRANCH   9  12
HETATM   12  C   UNL     1     -11.218   8.254  70.058  1.00  0.00    -0.081 A  
HETATM   13  C   UNL     1     -11.952   7.192  70.610  1.00  0.00    -0.312 A  
HETATM   14  C   UNL     1     -12.820   7.425  71.676  1.00  0.00    -0.367 A  
HETATM   15  O   UNL     1     -13.545   6.417  72.249  1.00  0.00    -0.476 OA 
HETATM   16  C   UNL     1     -12.966   8.704  72.203  1.00  0.00    -0.387 A  
HETATM   17  H   UNL     1     -14.136   6.576  72.976  1.00  0.00     0.000 HD 
HETATM   18  C   UNL     1     -12.267   9.769  71.663  1.00  0.00    -0.488 A  
HETATM   19  O   UNL     1     -13.807   8.915  73.258  1.00  0.00    -1.163 OA 
HETATM   20  H   UNL     1     -13.906   9.788  73.618  1.00  0.00     0.000 HD 
HETATM   21  C   UNL     1     -11.404   9.547  70.589  1.00  0.00    -0.364 A  
ENDBRANCH   9  12
ENDBRANCH   3   9
ENDBRANCH   2   3
TORSDOF 5
ENDMDL
MODEL      208
REMARK 921   NORMALIZED FREE ENERGY PREDICTED BY IDOCK:   -3.77 KCAL/MOL
REMARK 922        TOTAL FREE ENERGY PREDICTED BY IDOCK:   -5.54 KCAL/MOL
REMARK 923 INTER-LIGAND FREE ENERGY PREDICTED BY IDOCK:   -4.75 KCAL/MOL
REMARK 924 INTRA-LIGAND FREE ENERGY PREDICTED BY IDOCK:   -0.79 KCAL/MOL
REMARK 927      BINDING AFFINITY PREDICTED BY RF-SCORE:    0.00 PKD
ROOT
HETATM    1  C   UNL     1     -10.754  16.959  68.260  1.00  0.00    -0.377 C  
HETATM    2  C   UNL     1     -10.359  15.504  68.038  1.00  0.00    -0.247 C  
ENDROOT
BRANCH   2   3
HETATM    3  C   UNL     1      -9.922  15.157  66.593  1.00  0.00    -0.251 C  
BRANCH   3   4
HETATM    4  N   UNL     1      -8.517  14.723  66.450  1.00  0.00    -0.394 NA 
HETATM    5  H   UNL     1      -8.087  14.644  65.529  1.00  0.00     0.000 HD 
BRANCH   4   6
HETATM    6  C   UNL     1      -7.754  14.407  67.662  1.00  0.00    -0.184 C  
HETATM    7  C   UNL     1      -7.190  12.989  67.498  1.00  0.00    -0.154 C  
HETATM    8  C   UNL     1      -6.579  15.349  67.926  1.00  0.00    -0.169 C  
ENDBRANCH   4   6
ENDBRANCH   3   4
BRANCH   3   9
HETATM    9  C   UNL     1     -10.991  14.216  65.923  1.00  0.00    -0.297 C  
HETATM   10  H   UNL     1     -12.011  14.164  64.235  1.00  0.00     0.000 HD 
HETATM   11  O   UNL     1     -11.365  14.732  64.640  1.00  0.00    -0.389 OA 
BRANCH   9  12
HETATM   12  C   UNL     1     -10.603  12.761  65.717  1.00  0.00    -0.295 A  
HETATM   13  C   UNL     1     -10.844  11.763  66.675  1.00  0.00    -0.318 A  
HETATM   14  C   UNL     1     -10.457  10.448  66.424  1.00  0.00    -0.177 A  
HETATM   15  O   UNL     1     -10.683   9.445  67.327  1.00  0.00    -0.267 OA 
HETATM   16  C   UNL     1      -9.833  10.110  65.229  1.00  0.00    -0.319 A  
HETATM   17  H   UNL     1     -10.419   8.549  67.156  1.00  0.00     0.000 HD 
HETATM   18  C   UNL     1      -9.568  11.078  64.277  1.00  0.00    -0.303 A  
HETATM   19  O   UNL     1      -9.474   8.814  64.989  1.00  0.00    -0.407 OA 
HETATM   20  H   UNL     1      -9.048   8.583  64.172  1.00  0.00     0.000 HD 
HETATM   21  C   UNL     1      -9.943  12.401  64.524  1.00  0.00    -0.202 A  
ENDBRANCH   9  12
ENDBRANCH   3   9
ENDBRANCH   2   3
TORSDOF 5
ENDMDL
MODEL      209
REMARK 921   NORMALIZED FREE ENERGY PREDICTED BY IDOCK:   -3.76 KCAL/MOL
REMARK 922        TOTAL FREE ENERGY PREDICTED BY IDOCK:   -5.54 KCAL/MOL
REMARK 923 INTER-LIGAND FREE ENERGY PREDICTED BY IDOCK:   -4.89 KCAL/MOL
REMARK 924 INTRA-LIGAND FREE ENERGY PREDICTED BY IDOCK:   -0.65 KCAL/MOL
REMARK 927      BINDING AFFINITY PREDICTED BY RF-SCORE:    0.00 PKD
ROOT
HETATM    1  C   UNL     1      -5.715   7.636  70.399  1.00  0.00    -0.023 C  
HETATM    2  C   UNL     1      -6.445   7.118  71.632  1.00  0.00    -0.047 C  
ENDROOT
BRANCH   2   3
HETATM    3  C   UNL     1      -7.952   6.822  71.426  1.00  0.00    -0.109 C  
BRANCH   3   4
HETATM    4  N   UNL     1      -8.280   5.414  71.123  1.00  0.00    -0.117 NA 
HETATM    5  H   UNL     1      -7.557   4.765  70.815  1.00  0.00     0.000 HD 
BRANCH   4   6
HETATM    6  C   UNL     1      -9.670   4.971  71.276  1.00  0.00    -0.173 C  
HETATM    7  C   UNL     1     -10.356   5.117  69.910  1.00  0.00    -0.347 C  
HETATM    8  C   UNL     1      -9.818   3.515  71.719  1.00  0.00    -0.230 C  
ENDBRANCH   4   6
ENDBRANCH   3   4
BRANCH   3   9
HETATM    9  C   UNL     1      -8.789   7.476  72.588  1.00  0.00    -0.139 C  
HETATM   10  H   UNL     1      -8.475   8.777  74.037  1.00  0.00     0.000 HD 
HETATM   11  O   UNL     1      -7.969   8.383  73.335  1.00  0.00    -0.303 OA 
BRANCH   9  12
HETATM   12  C   UNL     1     -10.046   8.235  72.197  1.00  0.00    -0.344 A  
HETATM   13  C   UNL     1     -11.272   8.077  72.862  1.00  0.00    -0.389 A  
HETATM   14  C   UNL     1     -12.388   8.801  72.447  1.00  0.00    -0.344 A  
HETATM   15  O   UNL     1     -13.598   8.684  73.074  1.00  0.00    -0.815 OA 
HETATM   16  C   UNL     1     -12.301   9.684  71.376  1.00  0.00    -0.378 A  
HETATM   17  H   UNL     1     -14.359   9.177  72.791  1.00  0.00     0.000 HD 
HETATM   18  C   UNL     1     -11.108   9.843  70.693  1.00  0.00    -0.409 A  
HETATM   19  O   UNL     1     -13.398  10.399  70.990  1.00  0.00    -0.342 OA 
HETATM   20  H   UNL     1     -13.339  11.003  70.260  1.00  0.00     0.000 HD 
HETATM   21  C   UNL     1      -9.987   9.114  71.095  1.00  0.00    -0.377 A  
ENDBRANCH   9  12
ENDBRANCH   3   9
ENDBRANCH   2   3
TORSDOF 5
ENDMDL
MODEL      210
REMARK 921   NORMALIZED FREE ENERGY PREDICTED BY IDOCK:   -3.75 KCAL/MOL
REMARK 922        TOTAL FREE ENERGY PREDICTED BY IDOCK:   -5.53 KCAL/MOL
REMARK 923 INTER-LIGAND FREE ENERGY PREDICTED BY IDOCK:   -5.03 KCAL/MOL
REMARK 924 INTRA-LIGAND FREE ENERGY PREDICTED BY IDOCK:   -0.49 KCAL/MOL
REMARK 927      BINDING AFFINITY PREDICTED BY RF-SCORE:    0.00 PKD
ROOT
HETATM    1  C   UNL     1     -11.429  15.786  64.365  1.00  0.00    -0.268 C  
HETATM    2  C   UNL     1     -10.940  14.454  64.919  1.00  0.00    -0.416 C  
ENDROOT
BRANCH   2   3
HETATM    3  C   UNL     1     -10.144  14.547  66.245  1.00  0.00    -0.295 C  
BRANCH   3   4
HETATM    4  N   UNL     1      -9.421  15.817  66.455  1.00  0.00    -0.250 NA 
HETATM    5  H   UNL     1      -8.771  16.170  65.753  1.00  0.00     0.000 HD 
BRANCH   4   6
HETATM    6  C   UNL     1      -9.657  16.561  67.697  1.00  0.00    -0.235 C  
HETATM    7  C   UNL     1      -8.304  17.102  68.178  1.00  0.00    -0.226 C  
HETATM    8  C   UNL     1     -10.607  17.750  67.544  1.00  0.00    -0.365 C  
ENDBRANCH   4   6
ENDBRANCH   3   4
BRANCH   3   9
HETATM    9  C   UNL     1     -11.048  14.079  67.446  1.00  0.00    -0.303 C  
HETATM   10  H   UNL     1     -12.955  14.181  67.941  1.00  0.00     0.000 HD 
HETATM   11  O   UNL     1     -12.409  14.464  67.216  1.00  0.00    -0.322 OA 
BRANCH   9  12
HETATM   12  C   UNL     1     -11.058  12.595  67.771  1.00  0.00    -0.287 A  
HETATM   13  C   UNL     1     -10.545  11.619  66.901  1.00  0.00    -0.276 A  
HETATM   14  C   UNL     1     -10.591  10.272  67.260  1.00  0.00    -0.267 A  
HETATM   15  O   UNL     1     -10.093   9.293  66.446  1.00  0.00    -0.271 OA 
HETATM   16  C   UNL     1     -11.140   9.883  68.476  1.00  0.00    -0.129 A  
HETATM   17  H   UNL     1     -10.124   8.375  66.690  1.00  0.00     0.000 HD 
HETATM   18  C   UNL     1     -11.668  10.824  69.341  1.00  0.00    -0.378 A  
HETATM   19  O   UNL     1     -11.163   8.562  68.822  1.00  0.00    -0.370 OA 
HETATM   20  H   UNL     1     -11.538   8.295  69.653  1.00  0.00     0.000 HD 
HETATM   21  C   UNL     1     -11.636  12.174  68.986  1.00  0.00    -0.374 A  
ENDBRANCH   9  12
ENDBRANCH   3   9
ENDBRANCH   2   3
TORSDOF 5
ENDMDL
MODEL      211
REMARK 921   NORMALIZED FREE ENERGY PREDICTED BY IDOCK:   -3.75 KCAL/MOL
REMARK 922        TOTAL FREE ENERGY PREDICTED BY IDOCK:   -5.52 KCAL/MOL
REMARK 923 INTER-LIGAND FREE ENERGY PREDICTED BY IDOCK:   -5.04 KCAL/MOL
REMARK 924 INTRA-LIGAND FREE ENERGY PREDICTED BY IDOCK:   -0.48 KCAL/MOL
REMARK 927      BINDING AFFINITY PREDICTED BY RF-SCORE:    0.00 PKD
ROOT
HETATM    1  C   UNL     1      -8.174   7.907  73.829  1.00  0.00    -0.277 C  
HETATM    2  C   UNL     1      -9.441   7.155  73.442  1.00  0.00    -0.234 C  
ENDROOT
BRANCH   2   3
HETATM    3  C   UNL     1      -9.541   6.765  71.946  1.00  0.00    -0.148 C  
BRANCH   3   4
HETATM    4  N   UNL     1      -9.005   5.431  71.607  1.00  0.00    -0.135 NA 
HETATM    5  H   UNL     1      -8.000   5.277  71.532  1.00  0.00     0.000 HD 
BRANCH   4   6
HETATM    6  C   UNL     1      -9.951   4.334  71.380  1.00  0.00    -0.168 C  
HETATM    7  C   UNL     1      -9.358   3.429  70.290  1.00  0.00    -0.243 C  
HETATM    8  C   UNL     1     -10.213   3.467  72.613  1.00  0.00    -0.241 C  
ENDBRANCH   4   6
ENDBRANCH   3   4
BRANCH   3   9
HETATM    9  C   UNL     1     -10.991   7.065  71.411  1.00  0.00    -0.240 C  
HETATM   10  H   UNL     1     -12.844   6.736  72.003  1.00  0.00     0.000 HD 
HETATM   11  O   UNL     1     -11.968   6.555  72.326  1.00  0.00    -0.292 OA 
BRANCH   9  12
HETATM   12  C   UNL     1     -11.347   8.519  71.148  1.00  0.00    -0.319 A  
HETATM   13  C   UNL     1     -12.295   9.222  71.908  1.00  0.00    -0.454 A  
HETATM   14  C   UNL     1     -12.579  10.554  71.609  1.00  0.00    -0.393 A  
HETATM   15  O   UNL     1     -13.488  11.277  72.331  1.00  0.00    -0.586 OA 
HETATM   16  C   UNL     1     -11.929  11.198  70.562  1.00  0.00    -0.380 A  
HETATM   17  H   UNL     1     -13.682  12.185  72.127  1.00  0.00     0.000 HD 
HETATM   18  C   UNL     1     -11.005  10.520  69.787  1.00  0.00    -0.350 A  
HETATM   19  O   UNL     1     -12.205  12.507  70.290  1.00  0.00    -0.329 OA 
HETATM   20  H   UNL     1     -11.761  12.948  69.575  1.00  0.00     0.000 HD 
HETATM   21  C   UNL     1     -10.721   9.183  70.073  1.00  0.00    -0.254 A  
ENDBRANCH   9  12
ENDBRANCH   3   9
ENDBRANCH   2   3
TORSDOF 5
ENDMDL
MODEL      212
REMARK 921   NORMALIZED FREE ENERGY PREDICTED BY IDOCK:   -3.75 KCAL/MOL
REMARK 922        TOTAL FREE ENERGY PREDICTED BY IDOCK:   -5.51 KCAL/MOL
REMARK 923 INTER-LIGAND FREE ENERGY PREDICTED BY IDOCK:   -5.13 KCAL/MOL
REMARK 924 INTRA-LIGAND FREE ENERGY PREDICTED BY IDOCK:   -0.38 KCAL/MOL
REMARK 927      BINDING AFFINITY PREDICTED BY RF-SCORE:    0.00 PKD
ROOT
HETATM    1  C   UNL     1     -12.402  13.266  65.400  1.00  0.00    -0.528 C  
HETATM    2  C   UNL     1     -12.196  13.777  66.821  1.00  0.00    -0.440 C  
ENDROOT
BRANCH   2   3
HETATM    3  C   UNL     1     -10.927  13.245  67.531  1.00  0.00    -0.263 C  
BRANCH   3   4
HETATM    4  N   UNL     1     -10.691  13.786  68.885  1.00  0.00    -0.300 NA 
HETATM    5  H   UNL     1     -10.929  13.241  69.713  1.00  0.00     0.000 HD 
BRANCH   4   6
HETATM    6  C   UNL     1     -10.107  15.125  69.012  1.00  0.00    -0.244 C  
HETATM    7  C   UNL     1      -9.352  15.427  67.710  1.00  0.00    -0.195 C  
HETATM    8  C   UNL     1     -11.134  16.239  69.224  1.00  0.00    -0.325 C  
ENDBRANCH   4   6
ENDBRANCH   3   4
BRANCH   3   9
HETATM    9  C   UNL     1     -10.864  11.676  67.412  1.00  0.00    -0.250 C  
HETATM   10  H   UNL     1      -9.660  10.337  66.607  1.00  0.00     0.000 HD 
HETATM   11  O   UNL     1      -9.697  11.284  66.679  1.00  0.00    -0.190 OA 
BRANCH   9  12
HETATM   12  C   UNL     1     -10.861  10.880  68.706  1.00  0.00    -0.251 A  
HETATM   13  C   UNL     1      -9.746  10.153  69.153  1.00  0.00    -0.225 A  
HETATM   14  C   UNL     1      -9.814   9.439  70.349  1.00  0.00    -0.259 A  
HETATM   15  O   UNL     1      -8.747   8.727  70.824  1.00  0.00    -0.153 OA 
HETATM   16  C   UNL     1     -10.978   9.440  71.109  1.00  0.00    -0.360 A  
HETATM   17  H   UNL     1      -8.793   8.240  71.639  1.00  0.00     0.000 HD 
HETATM   18  C   UNL     1     -12.095  10.134  70.680  1.00  0.00    -0.411 A  
HETATM   19  O   UNL     1     -11.025   8.750  72.286  1.00  0.00    -0.359 OA 
HETATM   20  H   UNL     1     -11.820   8.751  72.806  1.00  0.00     0.000 HD 
HETATM   21  C   UNL     1     -12.041  10.844  69.479  1.00  0.00    -0.380 A  
ENDBRANCH   9  12
ENDBRANCH   3   9
ENDBRANCH   2   3
TORSDOF 5
ENDMDL
MODEL      213
REMARK 921   NORMALIZED FREE ENERGY PREDICTED BY IDOCK:   -3.72 KCAL/MOL
REMARK 922        TOTAL FREE ENERGY PREDICTED BY IDOCK:   -5.48 KCAL/MOL
REMARK 923 INTER-LIGAND FREE ENERGY PREDICTED BY IDOCK:   -4.62 KCAL/MOL
REMARK 924 INTRA-LIGAND FREE ENERGY PREDICTED BY IDOCK:   -0.85 KCAL/MOL
REMARK 927      BINDING AFFINITY PREDICTED BY RF-SCORE:    0.00 PKD
ROOT
HETATM    1  C   UNL     1      -5.503   6.847  70.341  1.00  0.00    -0.023 C  
HETATM    2  C   UNL     1      -6.942   6.933  70.835  1.00  0.00    -0.066 C  
ENDROOT
BRANCH   2   3
HETATM    3  C   UNL     1      -7.914   7.686  69.893  1.00  0.00    -0.115 C  
BRANCH   3   4
HETATM    4  N   UNL     1      -8.896   6.834  69.191  1.00  0.00    -0.134 NA 
HETATM    5  H   UNL     1      -9.402   7.183  68.378  1.00  0.00     0.000 HD 
BRANCH   4   6
HETATM    6  C   UNL     1      -9.125   5.474  69.691  1.00  0.00    -0.128 C  
HETATM    7  C   UNL     1     -10.618   5.349  70.024  1.00  0.00    -0.354 C  
HETATM    8  C   UNL     1      -8.777   4.372  68.689  1.00  0.00    -0.119 C  
ENDBRANCH   4   6
ENDBRANCH   3   4
BRANCH   3   9
HETATM    9  C   UNL     1      -8.516   8.937  70.635  1.00  0.00    -0.184 C  
HETATM   10  H   UNL     1      -8.837  10.841  70.227  1.00  0.00     0.000 HD 
HETATM   11  O   UNL     1      -8.474  10.085  69.779  1.00  0.00    -0.178 OA 
BRANCH   9  12
HETATM   12  C   UNL     1      -9.942   8.821  71.148  1.00  0.00    -0.317 A  
HETATM   13  C   UNL     1     -11.021   9.507  70.568  1.00  0.00    -0.348 A  
HETATM   14  C   UNL     1     -12.304   9.360  71.093  1.00  0.00    -0.308 A  
HETATM   15  O   UNL     1     -13.383  10.002  70.551  1.00  0.00    -0.605 OA 
HETATM   16  C   UNL     1     -12.529   8.535  72.189  1.00  0.00    -0.379 A  
HETATM   17  H   UNL     1     -14.257   9.902  70.909  1.00  0.00     0.000 HD 
HETATM   18  C   UNL     1     -11.479   7.864  72.790  1.00  0.00    -0.428 A  
HETATM   19  O   UNL     1     -13.793   8.387  72.683  1.00  0.00    -0.615 OA 
HETATM   20  H   UNL     1     -13.948   7.824  73.432  1.00  0.00     0.000 HD 
HETATM   21  C   UNL     1     -10.189   8.013  72.277  1.00  0.00    -0.325 A  
ENDBRANCH   9  12
ENDBRANCH   3   9
ENDBRANCH   2   3
TORSDOF 5
ENDMDL
MODEL      214
REMARK 921   NORMALIZED FREE ENERGY PREDICTED BY IDOCK:   -3.71 KCAL/MOL
REMARK 922        TOTAL FREE ENERGY PREDICTED BY IDOCK:   -5.47 KCAL/MOL
REMARK 923 INTER-LIGAND FREE ENERGY PREDICTED BY IDOCK:   -4.69 KCAL/MOL
REMARK 924 INTRA-LIGAND FREE ENERGY PREDICTED BY IDOCK:   -0.78 KCAL/MOL
REMARK 927      BINDING AFFINITY PREDICTED BY RF-SCORE:    0.00 PKD
ROOT
HETATM    1  C   UNL     1     -11.749   6.067  72.242  1.00  0.00    -0.338 C  
HETATM    2  C   UNL     1     -12.062   7.306  71.413  1.00  0.00    -0.370 C  
ENDROOT
BRANCH   2   3
HETATM    3  C   UNL     1     -10.914   7.786  70.491  1.00  0.00    -0.245 C  
BRANCH   3   4
HETATM    4  N   UNL     1     -11.192   7.697  69.043  1.00  0.00    -0.390 NA 
HETATM    5  H   UNL     1     -11.947   8.238  68.623  1.00  0.00     0.000 HD 
BRANCH   4   6
HETATM    6  C   UNL     1     -10.357   6.813  68.222  1.00  0.00    -0.187 C  
HETATM    7  C   UNL     1     -10.096   7.527  66.889  1.00  0.00    -0.336 C  
HETATM    8  C   UNL     1      -9.000   6.478  68.844  1.00  0.00    -0.128 C  
ENDBRANCH   4   6
ENDBRANCH   3   4
BRANCH   3   9
HETATM    9  C   UNL     1     -10.373   9.178  70.990  1.00  0.00    -0.293 C  
HETATM   10  H   UNL     1      -8.649   9.924  71.591  1.00  0.00     0.000 HD 
HETATM   11  O   UNL     1      -8.975   9.084  71.290  1.00  0.00    -0.225 OA 
BRANCH   9  12
HETATM   12  C   UNL     1     -10.546  10.365  70.057  1.00  0.00    -0.282 A  
HETATM   13  C   UNL     1      -9.600  10.713  69.080  1.00  0.00    -0.207 A  
HETATM   14  C   UNL     1      -9.819  11.820  68.261  1.00  0.00    -0.198 A  
HETATM   15  O   UNL     1      -8.928  12.186  67.291  1.00  0.00    -0.171 OA 
HETATM   16  C   UNL     1     -10.971  12.586  68.400  1.00  0.00    -0.248 A  
HETATM   17  H   UNL     1      -9.077  12.940  66.732  1.00  0.00     0.000 HD 
HETATM   18  C   UNL     1     -11.909  12.274  69.368  1.00  0.00    -0.370 A  
HETATM   19  O   UNL     1     -11.181  13.657  67.580  1.00  0.00    -0.262 OA 
HETATM   20  H   UNL     1     -11.968  14.181  67.675  1.00  0.00     0.000 HD 
HETATM   21  C   UNL     1     -11.693  11.173  70.200  1.00  0.00    -0.439 A  
ENDBRANCH   9  12
ENDBRANCH   3   9
ENDBRANCH   2   3
TORSDOF 5
ENDMDL
MODEL      215
REMARK 921   NORMALIZED FREE ENERGY PREDICTED BY IDOCK:   -3.70 KCAL/MOL
REMARK 922        TOTAL FREE ENERGY PREDICTED BY IDOCK:   -5.45 KCAL/MOL
REMARK 923 INTER-LIGAND FREE ENERGY PREDICTED BY IDOCK:   -5.14 KCAL/MOL
REMARK 924 INTRA-LIGAND FREE ENERGY PREDICTED BY IDOCK:   -0.31 KCAL/MOL
REMARK 927      BINDING AFFINITY PREDICTED BY RF-SCORE:    0.00 PKD
ROOT
HETATM    1  C   UNL     1     -13.487   7.291  71.783  1.00  0.00    -0.373 C  
HETATM    2  C   UNL     1     -12.275   6.920  70.938  1.00  0.00    -0.404 C  
ENDROOT
BRANCH   2   3
HETATM    3  C   UNL     1     -10.903   7.173  71.613  1.00  0.00    -0.224 C  
BRANCH   3   4
HETATM    4  N   UNL     1      -9.798   6.320  71.129  1.00  0.00    -0.179 NA 
HETATM    5  H   UNL     1      -8.829   6.626  71.209  1.00  0.00     0.000 HD 
BRANCH   4   6
HETATM    6  C   UNL     1     -10.127   5.021  70.531  1.00  0.00    -0.253 C  
HETATM    7  C   UNL     1      -9.984   5.163  69.009  1.00  0.00    -0.265 C  
HETATM    8  C   UNL     1      -9.217   3.877  70.980  1.00  0.00    -0.200 C  
ENDBRANCH   4   6
ENDBRANCH   3   4
BRANCH   3   9
HETATM    9  C   UNL     1     -10.598   8.717  71.644  1.00  0.00    -0.331 C  
HETATM   10  H   UNL     1      -9.037   9.873  71.988  1.00  0.00     0.000 HD 
HETATM   11  O   UNL     1      -9.221   8.941  71.969  1.00  0.00    -0.348 OA 
BRANCH   9  12
HETATM   12  C   UNL     1     -10.888   9.508  70.379  1.00  0.00    -0.338 A  
HETATM   13  C   UNL     1     -11.452  10.793  70.394  1.00  0.00    -0.397 A  
HETATM   14  C   UNL     1     -11.698  11.461  69.195  1.00  0.00    -0.342 A  
HETATM   15  O   UNL     1     -12.236  12.718  69.167  1.00  0.00    -0.196 OA 
HETATM   16  C   UNL     1     -11.387  10.866  67.978  1.00  0.00    -0.312 A  
HETATM   17  H   UNL     1     -12.404  13.173  68.350  1.00  0.00     0.000 HD 
HETATM   18  C   UNL     1     -10.848   9.592  67.937  1.00  0.00    -0.272 A  
HETATM   19  O   UNL     1     -11.618  11.537  66.811  1.00  0.00    -0.492 OA 
HETATM   20  H   UNL     1     -11.406  11.131  65.980  1.00  0.00     0.000 HD 
HETATM   21  C   UNL     1     -10.608   8.912  69.132  1.00  0.00    -0.211 A  
ENDBRANCH   9  12
ENDBRANCH   3   9
ENDBRANCH   2   3
TORSDOF 5
ENDMDL
MODEL      216
REMARK 921   NORMALIZED FREE ENERGY PREDICTED BY IDOCK:   -3.69 KCAL/MOL
REMARK 922        TOTAL FREE ENERGY PREDICTED BY IDOCK:   -5.45 KCAL/MOL
REMARK 923 INTER-LIGAND FREE ENERGY PREDICTED BY IDOCK:   -4.49 KCAL/MOL
REMARK 924 INTRA-LIGAND FREE ENERGY PREDICTED BY IDOCK:   -0.95 KCAL/MOL
REMARK 927      BINDING AFFINITY PREDICTED BY RF-SCORE:    0.00 PKD
ROOT
HETATM    1  C   UNL     1     -10.933   5.982  70.110  1.00  0.00    -0.429 C  
HETATM    2  C   UNL     1     -11.296   7.457  70.217  1.00  0.00    -0.244 C  
ENDROOT
BRANCH   2   3
HETATM    3  C   UNL     1     -10.533   8.393  69.246  1.00  0.00    -0.215 C  
BRANCH   3   4
HETATM    4  N   UNL     1     -10.991   8.351  67.842  1.00  0.00    -0.476 NA 
HETATM    5  H   UNL     1     -11.933   8.650  67.593  1.00  0.00     0.000 HD 
BRANCH   4   6
HETATM    6  C   UNL     1     -10.061   7.869  66.816  1.00  0.00    -0.281 C  
HETATM    7  C   UNL     1      -9.735   9.053  65.894  1.00  0.00    -0.306 C  
HETATM    8  C   UNL     1      -8.741   7.332  67.370  1.00  0.00    -0.121 C  
ENDBRANCH   4   6
ENDBRANCH   3   4
BRANCH   3   9
HETATM    9  C   UNL     1     -10.412   9.832  69.873  1.00  0.00    -0.261 C  
HETATM   10  H   UNL     1      -9.334  10.709  71.274  1.00  0.00     0.000 HD 
HETATM   11  O   UNL     1      -9.407   9.841  70.895  1.00  0.00    -0.100 OA 
BRANCH   9  12
HETATM   12  C   UNL     1     -10.092  10.977  68.928  1.00  0.00    -0.212 A  
HETATM   13  C   UNL     1     -11.076  11.820  68.388  1.00  0.00    -0.286 A  
HETATM   14  C   UNL     1     -10.713  12.850  67.521  1.00  0.00    -0.226 A  
HETATM   15  O   UNL     1     -11.639  13.699  66.982  1.00  0.00    -0.323 OA 
HETATM   16  C   UNL     1      -9.380  13.053  67.184  1.00  0.00    -0.230 A  
HETATM   17  H   UNL     1     -11.392  14.400  66.390  1.00  0.00     0.000 HD 
HETATM   18  C   UNL     1      -8.394  12.224  67.688  1.00  0.00    -0.166 A  
HETATM   19  O   UNL     1      -9.036  14.075  66.346  1.00  0.00    -0.454 OA 
HETATM   20  H   UNL     1      -8.125  14.215  66.116  1.00  0.00     0.000 HD 
HETATM   21  C   UNL     1      -8.749  11.184  68.549  1.00  0.00    -0.161 A  
ENDBRANCH   9  12
ENDBRANCH   3   9
ENDBRANCH   2   3
TORSDOF 5
ENDMDL
MODEL      217
REMARK 921   NORMALIZED FREE ENERGY PREDICTED BY IDOCK:   -3.69 KCAL/MOL
REMARK 922        TOTAL FREE ENERGY PREDICTED BY IDOCK:   -5.44 KCAL/MOL
REMARK 923 INTER-LIGAND FREE ENERGY PREDICTED BY IDOCK:   -4.86 KCAL/MOL
REMARK 924 INTRA-LIGAND FREE ENERGY PREDICTED BY IDOCK:   -0.58 KCAL/MOL
REMARK 927      BINDING AFFINITY PREDICTED BY RF-SCORE:    0.00 PKD
ROOT
HETATM    1  C   UNL     1      -7.312   8.945  70.160  1.00  0.00    -0.059 C  
HETATM    2  C   UNL     1      -8.635   9.698  70.118  1.00  0.00    -0.243 C  
ENDROOT
BRANCH   2   3
HETATM    3  C   UNL     1      -9.873   8.831  69.777  1.00  0.00    -0.186 C  
BRANCH   3   4
HETATM    4  N   UNL     1     -10.300   7.900  70.842  1.00  0.00    -0.200 NA 
HETATM    5  H   UNL     1      -9.857   7.920  71.760  1.00  0.00     0.000 HD 
BRANCH   4   6
HETATM    6  C   UNL     1     -11.374   6.947  70.548  1.00  0.00    -0.327 C  
HETATM    7  C   UNL     1     -10.733   5.710  69.902  1.00  0.00    -0.399 C  
HETATM    8  C   UNL     1     -12.151   6.479  71.779  1.00  0.00    -0.393 C  
ENDBRANCH   4   6
ENDBRANCH   3   4
BRANCH   3   9
HETATM    9  C   UNL     1     -11.012   9.738  69.177  1.00  0.00    -0.175 C  
HETATM   10  H   UNL     1     -11.927  11.416  69.664  1.00  0.00     0.000 HD 
HETATM   11  O   UNL     1     -11.240  10.869  70.026  1.00  0.00    -0.281 OA 
BRANCH   9  12
HETATM   12  C   UNL     1     -10.803  10.275  67.771  1.00  0.00    -0.346 A  
HETATM   13  C   UNL     1     -11.242  11.546  67.367  1.00  0.00    -0.367 A  
HETATM   14  C   UNL     1     -11.023  11.975  66.058  1.00  0.00    -0.304 A  
HETATM   15  O   UNL     1     -11.425  13.209  65.627  1.00  0.00    -0.309 OA 
HETATM   16  C   UNL     1     -10.370  11.155  65.145  1.00  0.00    -0.293 A  
HETATM   17  H   UNL     1     -11.277  13.501  64.735  1.00  0.00     0.000 HD 
HETATM   18  C   UNL     1      -9.945   9.891  65.515  1.00  0.00    -0.363 A  
HETATM   19  O   UNL     1     -10.148  11.594  63.871  1.00  0.00    -0.296 OA 
HETATM   20  H   UNL     1      -9.702  11.034  63.247  1.00  0.00     0.000 HD 
HETATM   21  C   UNL     1     -10.169   9.449  66.820  1.00  0.00    -0.320 A  
ENDBRANCH   9  12
ENDBRANCH   3   9
ENDBRANCH   2   3
TORSDOF 5
ENDMDL
MODEL      218
REMARK 921   NORMALIZED FREE ENERGY PREDICTED BY IDOCK:   -3.68 KCAL/MOL
REMARK 922        TOTAL FREE ENERGY PREDICTED BY IDOCK:   -5.43 KCAL/MOL
REMARK 923 INTER-LIGAND FREE ENERGY PREDICTED BY IDOCK:   -4.76 KCAL/MOL
REMARK 924 INTRA-LIGAND FREE ENERGY PREDICTED BY IDOCK:   -0.67 KCAL/MOL
REMARK 927      BINDING AFFINITY PREDICTED BY RF-SCORE:    0.00 PKD
ROOT
HETATM    1  C   UNL     1      -6.975  14.525  67.521  1.00  0.00    -0.188 C  
HETATM    2  C   UNL     1      -8.294  13.852  67.163  1.00  0.00    -0.171 C  
ENDROOT
BRANCH   2   3
HETATM    3  C   UNL     1      -8.974  13.082  68.322  1.00  0.00    -0.177 C  
BRANCH   3   4
HETATM    4  N   UNL     1     -10.127  13.768  68.940  1.00  0.00    -0.408 NA 
HETATM    5  H   UNL     1     -10.517  13.440  69.824  1.00  0.00     0.000 HD 
BRANCH   4   6
HETATM    6  C   UNL     1     -10.700  14.931  68.255  1.00  0.00    -0.249 C  
HETATM    7  C   UNL     1     -11.937  14.452  67.483  1.00  0.00    -0.389 C  
HETATM    8  C   UNL     1     -11.143  16.056  69.193  1.00  0.00    -0.317 C  
ENDBRANCH   4   6
ENDBRANCH   3   4
BRANCH   3   9
HETATM    9  C   UNL     1      -9.227  11.588  67.896  1.00  0.00    -0.168 C  
HETATM   10  H   UNL     1     -10.490  10.148  68.368  1.00  0.00     0.000 HD 
HETATM   11  O   UNL     1     -10.337  11.050  68.624  1.00  0.00    -0.178 OA 
BRANCH   9  12
HETATM   12  C   UNL     1      -9.492  11.321  66.424  1.00  0.00    -0.221 A  
HETATM   13  C   UNL     1      -8.551  10.715  65.577  1.00  0.00    -0.191 A  
HETATM   14  C   UNL     1      -8.857  10.504  64.233  1.00  0.00    -0.197 A  
HETATM   15  O   UNL     1      -7.973   9.909  63.376  1.00  0.00    -0.139 OA 
HETATM   16  C   UNL     1     -10.091  10.888  63.720  1.00  0.00    -0.353 A  
HETATM   17  H   UNL     1      -8.182   9.765  62.461  1.00  0.00     0.000 HD 
HETATM   18  C   UNL     1     -11.028  11.504  64.532  1.00  0.00    -0.367 A  
HETATM   19  O   UNL     1     -10.385  10.661  62.406  1.00  0.00    -0.716 OA 
HETATM   20  H   UNL     1     -11.228  10.923  62.056  1.00  0.00     0.000 HD 
HETATM   21  C   UNL     1     -10.726  11.728  65.876  1.00  0.00    -0.328 A  
ENDBRANCH   9  12
ENDBRANCH   3   9
ENDBRANCH   2   3
TORSDOF 5
ENDMDL
MODEL      219
REMARK 921   NORMALIZED FREE ENERGY PREDICTED BY IDOCK:   -3.67 KCAL/MOL
REMARK 922        TOTAL FREE ENERGY PREDICTED BY IDOCK:   -5.42 KCAL/MOL
REMARK 923 INTER-LIGAND FREE ENERGY PREDICTED BY IDOCK:   -4.83 KCAL/MOL
REMARK 924 INTRA-LIGAND FREE ENERGY PREDICTED BY IDOCK:   -0.59 KCAL/MOL
REMARK 927      BINDING AFFINITY PREDICTED BY RF-SCORE:    0.00 PKD
ROOT
HETATM    1  C   UNL     1     -13.149  10.427  71.147  1.00  0.00    -0.474 C  
HETATM    2  C   UNL     1     -11.685  10.448  70.728  1.00  0.00    -0.464 C  
ENDROOT
BRANCH   2   3
HETATM    3  C   UNL     1     -11.440  10.441  69.198  1.00  0.00    -0.196 C  
BRANCH   3   4
HETATM    4  N   UNL     1     -12.147  11.496  68.444  1.00  0.00    -0.560 NA 
HETATM    5  H   UNL     1     -13.037  11.303  67.986  1.00  0.00     0.000 HD 
BRANCH   4   6
HETATM    6  C   UNL     1     -11.538  12.828  68.367  1.00  0.00    -0.325 C  
HETATM    7  C   UNL     1     -11.924  13.437  67.012  1.00  0.00    -0.429 C  
HETATM    8  C   UNL     1     -12.002  13.792  69.460  1.00  0.00    -0.399 C  
ENDBRANCH   4   6
ENDBRANCH   3   4
BRANCH   3   9
HETATM    9  C   UNL     1      -9.899  10.318  68.903  1.00  0.00    -0.195 C  
HETATM   10  H   UNL     1      -8.283   9.755  69.885  1.00  0.00     0.000 HD 
HETATM   11  O   UNL     1      -9.213   9.829  70.063  1.00  0.00    -0.222 OA 
BRANCH   9  12
HETATM   12  C   UNL     1      -9.482   9.435  67.739  1.00  0.00    -0.152 A  
HETATM   13  C   UNL     1     -10.037   8.166  67.506  1.00  0.00    -0.286 A  
HETATM   14  C   UNL     1      -9.604   7.405  66.421  1.00  0.00    -0.114 A  
HETATM   15  O   UNL     1     -10.126   6.170  66.153  1.00  0.00    -0.394 OA 
HETATM   16  C   UNL     1      -8.625   7.891  65.562  1.00  0.00    -0.116 A  
HETATM   17  H   UNL     1      -9.831   5.651  65.414  1.00  0.00     0.000 HD 
HETATM   18  C   UNL     1      -8.050   9.129  65.782  1.00  0.00    -0.112 A  
HETATM   19  O   UNL     1      -8.222   7.142  64.494  1.00  0.00    -0.268 OA 
HETATM   20  H   UNL     1      -7.553   7.473  63.906  1.00  0.00     0.000 HD 
HETATM   21  C   UNL     1      -8.470   9.895  66.872  1.00  0.00    -0.125 A  
ENDBRANCH   9  12
ENDBRANCH   3   9
ENDBRANCH   2   3
TORSDOF 5
ENDMDL
MODEL      220
REMARK 921   NORMALIZED FREE ENERGY PREDICTED BY IDOCK:   -3.67 KCAL/MOL
REMARK 922        TOTAL FREE ENERGY PREDICTED BY IDOCK:   -5.41 KCAL/MOL
REMARK 923 INTER-LIGAND FREE ENERGY PREDICTED BY IDOCK:   -4.86 KCAL/MOL
REMARK 924 INTRA-LIGAND FREE ENERGY PREDICTED BY IDOCK:   -0.55 KCAL/MOL
REMARK 927      BINDING AFFINITY PREDICTED BY RF-SCORE:    0.00 PKD
ROOT
HETATM    1  C   UNL     1      -7.659  14.552  68.318  1.00  0.00    -0.121 C  
HETATM    2  C   UNL     1      -8.499  14.520  67.048  1.00  0.00    -0.222 C  
ENDROOT
BRANCH   2   3
HETATM    3  C   UNL     1     -10.028  14.633  67.269  1.00  0.00    -0.235 C  
BRANCH   3   4
HETATM    4  N   UNL     1     -10.563  16.010  67.266  1.00  0.00    -0.313 NA 
HETATM    5  H   UNL     1     -11.248  16.301  66.569  1.00  0.00     0.000 HD 
BRANCH   4   6
HETATM    6  C   UNL     1     -10.087  16.949  68.287  1.00  0.00    -0.302 C  
HETATM    7  C   UNL     1     -10.458  18.365  67.824  1.00  0.00    -0.433 C  
HETATM    8  C   UNL     1     -10.703  16.734  69.671  1.00  0.00    -0.229 C  
ENDBRANCH   4   6
ENDBRANCH   3   4
BRANCH   3   9
HETATM    9  C   UNL     1     -10.781  13.615  66.335  1.00  0.00    -0.281 C  
HETATM   10  H   UNL     1     -10.779  13.141  64.419  1.00  0.00     0.000 HD 
HETATM   11  O   UNL     1     -10.324  13.756  64.984  1.00  0.00    -0.359 OA 
BRANCH   9  12
HETATM   12  C   UNL     1     -10.674  12.140  66.685  1.00  0.00    -0.281 A  
HETATM   13  C   UNL     1     -10.258  11.164  65.766  1.00  0.00    -0.310 A  
HETATM   14  C   UNL     1     -10.188   9.827  66.152  1.00  0.00    -0.208 A  
HETATM   15  O   UNL     1      -9.778   8.847  65.290  1.00  0.00    -0.432 OA 
HETATM   16  C   UNL     1     -10.525   9.446  67.446  1.00  0.00    -0.278 A  
HETATM   17  H   UNL     1      -9.730   7.936  65.554  1.00  0.00     0.000 HD 
HETATM   18  C   UNL     1     -10.956  10.387  68.365  1.00  0.00    -0.312 A  
HETATM   19  O   UNL     1     -10.437   8.135  67.817  1.00  0.00    -0.248 OA 
HETATM   20  H   UNL     1     -10.667   7.874  68.700  1.00  0.00     0.000 HD 
HETATM   21  C   UNL     1     -11.039  11.727  67.984  1.00  0.00    -0.297 A  
ENDBRANCH   9  12
ENDBRANCH   3   9
ENDBRANCH   2   3
TORSDOF 5
ENDMDL
MODEL      221
REMARK 921   NORMALIZED FREE ENERGY PREDICTED BY IDOCK:   -3.66 KCAL/MOL
REMARK 922        TOTAL FREE ENERGY PREDICTED BY IDOCK:   -5.40 KCAL/MOL
REMARK 923 INTER-LIGAND FREE ENERGY PREDICTED BY IDOCK:   -4.81 KCAL/MOL
REMARK 924 INTRA-LIGAND FREE ENERGY PREDICTED BY IDOCK:   -0.59 KCAL/MOL
REMARK 927      BINDING AFFINITY PREDICTED BY RF-SCORE:    0.00 PKD
ROOT
HETATM    1  C   UNL     1      -8.463   8.004  67.551  1.00  0.00    -0.127 C  
HETATM    2  C   UNL     1      -8.960   9.328  68.118  1.00  0.00    -0.128 C  
ENDROOT
BRANCH   2   3
HETATM    3  C   UNL     1      -9.970  10.088  67.222  1.00  0.00    -0.197 C  
BRANCH   3   4
HETATM    4  N   UNL     1     -10.224   9.475  65.902  1.00  0.00    -0.245 NA 
HETATM    5  H   UNL     1     -10.851   8.677  65.810  1.00  0.00     0.000 HD 
BRANCH   4   6
HETATM    6  C   UNL     1      -9.552  10.040  64.727  1.00  0.00    -0.308 C  
HETATM    7  C   UNL     1     -10.307  11.318  64.332  1.00  0.00    -0.388 C  
HETATM    8  C   UNL     1      -8.089  10.417  64.963  1.00  0.00    -0.136 C  
ENDBRANCH   4   6
ENDBRANCH   3   4
BRANCH   3   9
HETATM    9  C   UNL     1     -11.255  10.452  68.055  1.00  0.00    -0.272 C  
HETATM   10  H   UNL     1     -12.052   9.928  69.782  1.00  0.00     0.000 HD 
HETATM   11  O   UNL     1     -11.276   9.708  69.279  1.00  0.00    -0.168 OA 
BRANCH   9  12
HETATM   12  C   UNL     1     -11.453  11.913  68.423  1.00  0.00    -0.357 A  
HETATM   13  C   UNL     1     -11.684  12.345  69.739  1.00  0.00    -0.361 A  
HETATM   14  C   UNL     1     -11.864  13.702  70.006  1.00  0.00    -0.308 A  
HETATM   15  O   UNL     1     -12.082  14.164  71.274  1.00  0.00    -0.351 OA 
HETATM   16  C   UNL     1     -11.815  14.637  68.979  1.00  0.00    -0.310 A  
HETATM   17  H   UNL     1     -12.204  15.088  71.456  1.00  0.00     0.000 HD 
HETATM   18  C   UNL     1     -11.607  14.234  67.671  1.00  0.00    -0.396 A  
HETATM   19  O   UNL     1     -11.976  15.964  69.256  1.00  0.00    -0.373 OA 
HETATM   20  H   UNL     1     -11.943  16.604  68.555  1.00  0.00     0.000 HD 
HETATM   21  C   UNL     1     -11.436  12.877  67.393  1.00  0.00    -0.388 A  
ENDBRANCH   9  12
ENDBRANCH   3   9
ENDBRANCH   2   3
TORSDOF 5
ENDMDL
MODEL      222
REMARK 921   NORMALIZED FREE ENERGY PREDICTED BY IDOCK:   -3.66 KCAL/MOL
REMARK 922        TOTAL FREE ENERGY PREDICTED BY IDOCK:   -5.40 KCAL/MOL
REMARK 923 INTER-LIGAND FREE ENERGY PREDICTED BY IDOCK:   -4.61 KCAL/MOL
REMARK 924 INTRA-LIGAND FREE ENERGY PREDICTED BY IDOCK:   -0.79 KCAL/MOL
REMARK 927      BINDING AFFINITY PREDICTED BY RF-SCORE:    0.00 PKD
ROOT
HETATM    1  C   UNL     1     -12.385  13.290  65.332  1.00  0.00    -0.528 C  
HETATM    2  C   UNL     1     -12.434  14.208  66.546  1.00  0.00    -0.306 C  
ENDROOT
BRANCH   2   3
HETATM    3  C   UNL     1     -11.382  13.903  67.642  1.00  0.00    -0.309 C  
BRANCH   3   4
HETATM    4  N   UNL     1     -11.937  13.486  68.946  1.00  0.00    -0.349 NA 
HETATM    5  H   UNL     1     -12.416  12.592  69.047  1.00  0.00     0.000 HD 
BRANCH   4   6
HETATM    6  C   UNL     1     -11.782  14.387  70.093  1.00  0.00    -0.297 C  
HETATM    7  C   UNL     1     -10.602  15.322  69.792  1.00  0.00    -0.293 C  
HETATM    8  C   UNL     1     -13.007  15.259  70.374  1.00  0.00    -0.307 C  
ENDBRANCH   4   6
ENDBRANCH   3   4
BRANCH   3   9
HETATM    9  C   UNL     1     -10.257  12.969  67.058  1.00  0.00    -0.245 C  
HETATM   10  H   UNL     1      -8.307  13.065  66.773  1.00  0.00     0.000 HD 
HETATM   11  O   UNL     1      -8.986  13.629  67.125  1.00  0.00    -0.213 OA 
BRANCH   9  12
HETATM   12  C   UNL     1     -10.081  11.605  67.705  1.00  0.00    -0.204 A  
HETATM   13  C   UNL     1      -9.230  11.383  68.799  1.00  0.00    -0.108 A  
HETATM   14  C   UNL     1      -9.111  10.103  69.341  1.00  0.00    -0.203 A  
HETATM   15  O   UNL     1      -8.302   9.847  70.412  1.00  0.00    -0.278 OA 
HETATM   16  C   UNL     1      -9.831   9.040  68.807  1.00  0.00    -0.172 A  
HETATM   17  H   UNL     1      -8.221   8.975  70.781  1.00  0.00     0.000 HD 
HETATM   18  C   UNL     1     -10.661   9.231  67.717  1.00  0.00    -0.307 A  
HETATM   19  O   UNL     1      -9.717   7.795  69.357  1.00  0.00    -0.166 OA 
HETATM   20  H   UNL     1     -10.209   7.069  68.993  1.00  0.00     0.000 HD 
HETATM   21  C   UNL     1     -10.779  10.507  67.162  1.00  0.00    -0.323 A  
ENDBRANCH   9  12
ENDBRANCH   3   9
ENDBRANCH   2   3
TORSDOF 5
ENDMDL
MODEL      223
REMARK 921   NORMALIZED FREE ENERGY PREDICTED BY IDOCK:   -3.65 KCAL/MOL
REMARK 922        TOTAL FREE ENERGY PREDICTED BY IDOCK:   -5.39 KCAL/MOL
REMARK 923 INTER-LIGAND FREE ENERGY PREDICTED BY IDOCK:   -4.60 KCAL/MOL
REMARK 924 INTRA-LIGAND FREE ENERGY PREDICTED BY IDOCK:   -0.80 KCAL/MOL
REMARK 927      BINDING AFFINITY PREDICTED BY RF-SCORE:    0.00 PKD
ROOT
HETATM    1  C   UNL     1      -6.524   5.701  69.591  1.00  0.00    -0.041 C  
HETATM    2  C   UNL     1      -7.686   6.680  69.696  1.00  0.00    -0.107 C  
ENDROOT
BRANCH   2   3
HETATM    3  C   UNL     1      -9.017   6.067  70.200  1.00  0.00    -0.147 C  
BRANCH   3   4
HETATM    4  N   UNL     1      -9.151   5.977  71.668  1.00  0.00    -0.143 NA 
HETATM    5  H   UNL     1      -9.776   5.293  72.094  1.00  0.00     0.000 HD 
BRANCH   4   6
HETATM    6  C   UNL     1      -8.365   6.894  72.501  1.00  0.00    -0.110 C  
HETATM    7  C   UNL     1      -9.317   7.516  73.532  1.00  0.00    -0.316 C  
HETATM    8  C   UNL     1      -7.224   6.222  73.266  1.00  0.00    -0.087 C  
ENDBRANCH   4   6
ENDBRANCH   3   4
BRANCH   3   9
HETATM    9  C   UNL     1     -10.230   6.734  69.451  1.00  0.00    -0.187 C  
HETATM   10  H   UNL     1     -11.880   6.130  68.553  1.00  0.00     0.000 HD 
HETATM   11  O   UNL     1     -11.147   5.728  69.005  1.00  0.00    -0.285 OA 
BRANCH   9  12
HETATM   12  C   UNL     1     -11.043   7.761  70.223  1.00  0.00    -0.242 A  
HETATM   13  C   UNL     1     -12.122   7.416  71.051  1.00  0.00    -0.330 A  
HETATM   14  C   UNL     1     -12.829   8.410  71.725  1.00  0.00    -0.345 A  
HETATM   15  O   UNL     1     -13.880   8.115  72.549  1.00  0.00    -0.557 OA 
HETATM   16  C   UNL     1     -12.474   9.747  71.588  1.00  0.00    -0.410 A  
HETATM   17  H   UNL     1     -14.362   8.792  73.009  1.00  0.00     0.000 HD 
HETATM   18  C   UNL     1     -11.426  10.114  70.763  1.00  0.00    -0.442 A  
HETATM   19  O   UNL     1     -13.165  10.710  72.267  1.00  0.00    -0.594 OA 
HETATM   20  H   UNL     1     -12.922  11.623  72.174  1.00  0.00     0.000 HD 
HETATM   21  C   UNL     1     -10.719   9.126  70.075  1.00  0.00    -0.254 A  
ENDBRANCH   9  12
ENDBRANCH   3   9
ENDBRANCH   2   3
TORSDOF 5
ENDMDL
MODEL      224
REMARK 921   NORMALIZED FREE ENERGY PREDICTED BY IDOCK:   -3.65 KCAL/MOL
REMARK 922        TOTAL FREE ENERGY PREDICTED BY IDOCK:   -5.39 KCAL/MOL
REMARK 923 INTER-LIGAND FREE ENERGY PREDICTED BY IDOCK:   -4.76 KCAL/MOL
REMARK 924 INTRA-LIGAND FREE ENERGY PREDICTED BY IDOCK:   -0.63 KCAL/MOL
REMARK 927      BINDING AFFINITY PREDICTED BY RF-SCORE:    0.00 PKD
ROOT
HETATM    1  C   UNL     1     -12.739  10.829  70.228  1.00  0.00    -0.286 C  
HETATM    2  C   UNL     1     -11.226  10.655  70.192  1.00  0.00    -0.378 C  
ENDROOT
BRANCH   2   3
HETATM    3  C   UNL     1     -10.724   9.220  70.494  1.00  0.00    -0.257 C  
BRANCH   3   4
HETATM    4  N   UNL     1     -11.717   8.148  70.274  1.00  0.00    -0.471 NA 
HETATM    5  H   UNL     1     -12.109   7.983  69.348  1.00  0.00     0.000 HD 
BRANCH   4   6
HETATM    6  C   UNL     1     -12.125   7.327  71.418  1.00  0.00    -0.335 C  
HETATM    7  C   UNL     1     -11.545   7.974  72.684  1.00  0.00    -0.448 C  
HETATM    8  C   UNL     1     -13.639   7.217  71.602  1.00  0.00    -0.435 C  
ENDBRANCH   4   6
ENDBRANCH   3   4
BRANCH   3   9
HETATM    9  C   UNL     1      -9.322   8.991  69.816  1.00  0.00    -0.171 C  
HETATM   10  H   UNL     1      -7.997   7.534  69.701  1.00  0.00     0.000 HD 
HETATM   11  O   UNL     1      -8.843   7.673  70.110  1.00  0.00    -0.144 OA 
BRANCH   9  12
HETATM   12  C   UNL     1      -9.242   9.164  68.309  1.00  0.00    -0.135 A  
HETATM   13  C   UNL     1      -9.022  10.407  67.694  1.00  0.00    -0.139 A  
HETATM   14  C   UNL     1      -8.966  10.496  66.303  1.00  0.00    -0.158 A  
HETATM   15  O   UNL     1      -8.743  11.685  65.666  1.00  0.00    -0.393 OA 
HETATM   16  C   UNL     1      -9.126   9.363  65.515  1.00  0.00    -0.218 A  
HETATM   17  H   UNL     1      -8.705  11.746  64.718  1.00  0.00     0.000 HD 
HETATM   18  C   UNL     1      -9.363   8.130  66.097  1.00  0.00    -0.232 A  
HETATM   19  O   UNL     1      -9.053   9.461  64.155  1.00  0.00    -0.382 OA 
HETATM   20  H   UNL     1      -9.161   8.687  63.616  1.00  0.00     0.000 HD 
HETATM   21  C   UNL     1      -9.431   8.033  67.489  1.00  0.00    -0.177 A  
ENDBRANCH   9  12
ENDBRANCH   3   9
ENDBRANCH   2   3
TORSDOF 5
ENDMDL
MODEL      225
REMARK 921   NORMALIZED FREE ENERGY PREDICTED BY IDOCK:   -3.63 KCAL/MOL
REMARK 922        TOTAL FREE ENERGY PREDICTED BY IDOCK:   -5.36 KCAL/MOL
REMARK 923 INTER-LIGAND FREE ENERGY PREDICTED BY IDOCK:   -5.15 KCAL/MOL
REMARK 924 INTRA-LIGAND FREE ENERGY PREDICTED BY IDOCK:   -0.21 KCAL/MOL
REMARK 927      BINDING AFFINITY PREDICTED BY RF-SCORE:    0.00 PKD
ROOT
HETATM    1  C   UNL     1      -7.214  12.006  68.410  1.00  0.00    -0.092 C  
HETATM    2  C   UNL     1      -8.545  11.397  67.990  1.00  0.00    -0.147 C  
ENDROOT
BRANCH   2   3
HETATM    3  C   UNL     1      -8.547   9.854  67.855  1.00  0.00    -0.125 C  
BRANCH   3   4
HETATM    4  N   UNL     1      -9.268   9.131  68.922  1.00  0.00    -0.139 NA 
HETATM    5  H   UNL     1      -9.565   8.165  68.789  1.00  0.00     0.000 HD 
BRANCH   4   6
HETATM    6  C   UNL     1      -9.548   9.835  70.178  1.00  0.00    -0.237 C  
HETATM    7  C   UNL     1     -11.066  10.047  70.262  1.00  0.00    -0.381 C  
HETATM    8  C   UNL     1      -9.114   9.074  71.433  1.00  0.00    -0.271 C  
ENDBRANCH   4   6
ENDBRANCH   3   4
BRANCH   3   9
HETATM    9  C   UNL     1      -8.933   9.446  66.384  1.00  0.00    -0.152 C  
HETATM   10  H   UNL     1      -9.938   7.992  65.507  1.00  0.00     0.000 HD 
HETATM   11  O   UNL     1      -9.705   8.239  66.395  1.00  0.00    -0.236 OA 
BRANCH   9  12
HETATM   12  C   UNL     1      -9.712  10.461  65.564  1.00  0.00    -0.307 A  
HETATM   13  C   UNL     1     -10.831  11.147  66.060  1.00  0.00    -0.230 A  
HETATM   14  C   UNL     1     -11.503  12.062  65.250  1.00  0.00    -0.302 A  
HETATM   15  O   UNL     1     -12.591  12.758  65.698  1.00  0.00    -0.596 OA 
HETATM   16  C   UNL     1     -11.074  12.304  63.950  1.00  0.00    -0.412 A  
HETATM   17  H   UNL     1     -13.050  13.382  65.147  1.00  0.00     0.000 HD 
HETATM   18  C   UNL     1      -9.985  11.626  63.433  1.00  0.00    -0.447 A  
HETATM   19  O   UNL     1     -11.732  13.215  63.173  1.00  0.00    -0.778 OA 
HETATM   20  H   UNL     1     -11.439  13.381  62.285  1.00  0.00     0.000 HD 
HETATM   21  C   UNL     1      -9.312  10.701  64.233  1.00  0.00    -0.298 A  
ENDBRANCH   9  12
ENDBRANCH   3   9
ENDBRANCH   2   3
TORSDOF 5
ENDMDL
MODEL      226
REMARK 921   NORMALIZED FREE ENERGY PREDICTED BY IDOCK:   -3.61 KCAL/MOL
REMARK 922        TOTAL FREE ENERGY PREDICTED BY IDOCK:   -5.34 KCAL/MOL
REMARK 923 INTER-LIGAND FREE ENERGY PREDICTED BY IDOCK:   -4.56 KCAL/MOL
REMARK 924 INTRA-LIGAND FREE ENERGY PREDICTED BY IDOCK:   -0.78 KCAL/MOL
REMARK 927      BINDING AFFINITY PREDICTED BY RF-SCORE:    0.00 PKD
ROOT
HETATM    1  C   UNL     1      -8.958   8.112  73.109  1.00  0.00    -0.330 C  
HETATM    2  C   UNL     1     -10.174   7.239  72.828  1.00  0.00    -0.266 C  
ENDROOT
BRANCH   2   3
HETATM    3  C   UNL     1     -11.018   7.664  71.600  1.00  0.00    -0.233 C  
BRANCH   3   4
HETATM    4  N   UNL     1     -11.123   9.122  71.385  1.00  0.00    -0.317 NA 
HETATM    5  H   UNL     1     -10.298   9.718  71.440  1.00  0.00     0.000 HD 
BRANCH   4   6
HETATM    6  C   UNL     1     -12.442   9.692  71.090  1.00  0.00    -0.332 C  
HETATM    7  C   UNL     1     -13.395   9.261  72.214  1.00  0.00    -0.547 C  
HETATM    8  C   UNL     1     -12.462  11.220  71.023  1.00  0.00    -0.503 C  
ENDBRANCH   4   6
ENDBRANCH   3   4
BRANCH   3   9
HETATM    9  C   UNL     1     -10.588   6.825  70.339  1.00  0.00    -0.227 C  
HETATM   10  H   UNL     1     -11.488   5.796  68.916  1.00  0.00     0.000 HD 
HETATM   11  O   UNL     1     -11.747   6.303  69.678  1.00  0.00    -0.382 OA 
BRANCH   9  12
HETATM   12  C   UNL     1      -9.759   7.535  69.282  1.00  0.00    -0.163 A  
HETATM   13  C   UNL     1     -10.287   7.954  68.051  1.00  0.00    -0.264 A  
HETATM   14  C   UNL     1      -9.468   8.595  67.122  1.00  0.00    -0.160 A  
HETATM   15  O   UNL     1      -9.946   9.028  65.916  1.00  0.00    -0.413 OA 
HETATM   16  C   UNL     1      -8.127   8.827  67.405  1.00  0.00    -0.105 A  
HETATM   17  H   UNL     1      -9.388   9.465  65.284  1.00  0.00     0.000 HD 
HETATM   18  C   UNL     1      -7.579   8.407  68.603  1.00  0.00    -0.102 A  
HETATM   19  O   UNL     1      -7.339   9.471  66.494  1.00  0.00    -0.089 OA 
HETATM   20  H   UNL     1      -6.423   9.630  66.686  1.00  0.00     0.000 HD 
HETATM   21  C   UNL     1      -8.389   7.755  69.535  1.00  0.00    -0.129 A  
ENDBRANCH   9  12
ENDBRANCH   3   9
ENDBRANCH   2   3
TORSDOF 5
ENDMDL
MODEL      227
REMARK 921   NORMALIZED FREE ENERGY PREDICTED BY IDOCK:   -3.60 KCAL/MOL
REMARK 922        TOTAL FREE ENERGY PREDICTED BY IDOCK:   -5.33 KCAL/MOL
REMARK 923 INTER-LIGAND FREE ENERGY PREDICTED BY IDOCK:   -4.79 KCAL/MOL
REMARK 924 INTRA-LIGAND FREE ENERGY PREDICTED BY IDOCK:   -0.54 KCAL/MOL
REMARK 927      BINDING AFFINITY PREDICTED BY RF-SCORE:    0.00 PKD
ROOT
HETATM    1  C   UNL     1     -12.603  11.782  70.463  1.00  0.00    -0.234 C  
HETATM    2  C   UNL     1     -11.448  11.725  69.471  1.00  0.00    -0.363 C  
ENDROOT
BRANCH   2   3
HETATM    3  C   UNL     1     -11.309  10.387  68.702  1.00  0.00    -0.216 C  
BRANCH   3   4
HETATM    4  N   UNL     1     -11.366  10.499  67.231  1.00  0.00    -0.371 NA 
HETATM    5  H   UNL     1     -12.214  10.252  66.722  1.00  0.00     0.000 HD 
BRANCH   4   6
HETATM    6  C   UNL     1     -10.176  10.975  66.518  1.00  0.00    -0.234 C  
HETATM    7  C   UNL     1      -9.930  10.022  65.339  1.00  0.00    -0.364 C  
HETATM    8  C   UNL     1     -10.308  12.390  65.953  1.00  0.00    -0.282 C  
ENDBRANCH   4   6
ENDBRANCH   3   4
BRANCH   3   9
HETATM    9  C   UNL     1     -10.089   9.569  69.269  1.00  0.00    -0.198 C  
HETATM   10  H   UNL     1      -8.356   9.968  70.122  1.00  0.00     0.000 HD 
HETATM   11  O   UNL     1      -9.092  10.462  69.780  1.00  0.00    -0.125 OA 
BRANCH   9  12
HETATM   12  C   UNL     1     -10.380   8.557  70.365  1.00  0.00    -0.222 A  
HETATM   13  C   UNL     1     -10.330   7.170  70.157  1.00  0.00    -0.218 A  
HETATM   14  C   UNL     1     -10.615   6.297  71.207  1.00  0.00    -0.236 A  
HETATM   15  O   UNL     1     -10.568   4.940  71.048  1.00  0.00    -0.146 OA 
HETATM   16  C   UNL     1     -10.949   6.788  72.464  1.00  0.00    -0.247 A  
HETATM   17  H   UNL     1     -10.762   4.345  71.763  1.00  0.00     0.000 HD 
HETATM   18  C   UNL     1     -11.023   8.151  72.688  1.00  0.00    -0.440 A  
HETATM   19  O   UNL     1     -11.210   5.922  73.487  1.00  0.00    -0.449 OA 
HETATM   20  H   UNL     1     -11.437   6.257  74.346  1.00  0.00     0.000 HD 
HETATM   21  C   UNL     1     -10.749   9.033  71.641  1.00  0.00    -0.441 A  
ENDBRANCH   9  12
ENDBRANCH   3   9
ENDBRANCH   2   3
TORSDOF 5
ENDMDL
MODEL      228
REMARK 921   NORMALIZED FREE ENERGY PREDICTED BY IDOCK:   -3.59 KCAL/MOL
REMARK 922        TOTAL FREE ENERGY PREDICTED BY IDOCK:   -5.31 KCAL/MOL
REMARK 923 INTER-LIGAND FREE ENERGY PREDICTED BY IDOCK:   -4.48 KCAL/MOL
REMARK 924 INTRA-LIGAND FREE ENERGY PREDICTED BY IDOCK:   -0.84 KCAL/MOL
REMARK 927      BINDING AFFINITY PREDICTED BY RF-SCORE:    0.00 PKD
ROOT
HETATM    1  C   UNL     1      -7.739   8.191  71.176  1.00  0.00    -0.092 C  
HETATM    2  C   UNL     1      -9.103   8.781  71.509  1.00  0.00    -0.322 C  
ENDROOT
BRANCH   2   3
HETATM    3  C   UNL     1     -10.315   7.922  71.069  1.00  0.00    -0.201 C  
BRANCH   3   4
HETATM    4  N   UNL     1     -11.038   7.247  72.166  1.00  0.00    -0.237 NA 
HETATM    5  H   UNL     1     -11.372   7.774  72.972  1.00  0.00     0.000 HD 
BRANCH   4   6
HETATM    6  C   UNL     1     -11.265   5.801  72.070  1.00  0.00    -0.247 C  
HETATM    7  C   UNL     1     -10.267   5.242  71.047  1.00  0.00    -0.299 C  
HETATM    8  C   UNL     1     -11.059   5.046  73.384  1.00  0.00    -0.404 C  
ENDBRANCH   4   6
ENDBRANCH   3   4
BRANCH   3   9
HETATM    9  C   UNL     1     -11.215   8.739  70.070  1.00  0.00    -0.106 C  
HETATM   10  H   UNL     1     -11.918  10.577  69.934  1.00  0.00     0.000 HD 
HETATM   11  O   UNL     1     -11.375  10.084  70.538  1.00  0.00    -0.284 OA 
BRANCH   9  12
HETATM   12  C   UNL     1     -10.749   8.826  68.626  1.00  0.00    -0.109 A  
HETATM   13  C   UNL     1     -10.283   7.714  67.906  1.00  0.00    -0.250 A  
HETATM   14  C   UNL     1      -9.864   7.865  66.585  1.00  0.00    -0.241 A  
HETATM   15  O   UNL     1      -9.413   6.807  65.846  1.00  0.00    -0.388 OA 
HETATM   16  C   UNL     1      -9.904   9.111  65.969  1.00  0.00    -0.272 A  
HETATM   17  H   UNL     1      -9.127   6.909  64.946  1.00  0.00     0.000 HD 
HETATM   18  C   UNL     1     -10.342  10.224  66.663  1.00  0.00    -0.283 A  
HETATM   19  O   UNL     1      -9.506   9.242  64.669  1.00  0.00    -0.439 OA 
HETATM   20  H   UNL     1      -9.534  10.092  64.247  1.00  0.00     0.000 HD 
HETATM   21  C   UNL     1     -10.754  10.084  67.990  1.00  0.00    -0.303 A  
ENDBRANCH   9  12
ENDBRANCH   3   9
ENDBRANCH   2   3
TORSDOF 5
ENDMDL
MODEL      229
REMARK 921   NORMALIZED FREE ENERGY PREDICTED BY IDOCK:   -3.59 KCAL/MOL
REMARK 922        TOTAL FREE ENERGY PREDICTED BY IDOCK:   -5.31 KCAL/MOL
REMARK 923 INTER-LIGAND FREE ENERGY PREDICTED BY IDOCK:   -4.78 KCAL/MOL
REMARK 924 INTRA-LIGAND FREE ENERGY PREDICTED BY IDOCK:   -0.53 KCAL/MOL
REMARK 927      BINDING AFFINITY PREDICTED BY RF-SCORE:    0.00 PKD
ROOT
HETATM    1  C   UNL     1     -11.608  15.983  64.746  1.00  0.00    -0.100 C  
HETATM    2  C   UNL     1     -11.291  14.494  64.781  1.00  0.00    -0.397 C  
ENDROOT
BRANCH   2   3
HETATM    3  C   UNL     1     -10.356  14.049  65.933  1.00  0.00    -0.318 C  
BRANCH   3   4
HETATM    4  N   UNL     1      -9.869  15.138  66.803  1.00  0.00    -0.235 NA 
HETATM    5  H   UNL     1     -10.466  15.532  67.529  1.00  0.00     0.000 HD 
BRANCH   4   6
HETATM    6  C   UNL     1      -8.506  15.641  66.599  1.00  0.00    -0.288 C  
HETATM    7  C   UNL     1      -8.579  17.174  66.557  1.00  0.00    -0.306 C  
HETATM    8  C   UNL     1      -7.523  15.251  67.705  1.00  0.00    -0.197 C  
ENDBRANCH   4   6
ENDBRANCH   3   4
BRANCH   3   9
HETATM    9  C   UNL     1     -10.982  12.815  66.683  1.00  0.00    -0.270 C  
HETATM   10  H   UNL     1     -12.780  12.046  66.946  1.00  0.00     0.000 HD 
HETATM   11  O   UNL     1     -12.402  12.791  66.493  1.00  0.00    -0.476 OA 
BRANCH   9  12
HETATM   12  C   UNL     1     -10.462  11.437  66.308  1.00  0.00    -0.301 A  
HETATM   13  C   UNL     1      -9.714  11.193  65.145  1.00  0.00    -0.296 A  
HETATM   14  C   UNL     1      -9.274   9.902  64.858  1.00  0.00    -0.246 A  
HETATM   15  O   UNL     1      -8.534   9.625  63.741  1.00  0.00    -0.159 OA 
HETATM   16  C   UNL     1      -9.566   8.848  65.715  1.00  0.00    -0.174 A  
HETATM   17  H   UNL     1      -8.234   8.745  63.545  1.00  0.00     0.000 HD 
HETATM   18  C   UNL     1     -10.317   9.060  66.857  1.00  0.00    -0.324 A  
HETATM   19  O   UNL     1      -9.114   7.591  65.430  1.00  0.00    -0.379 OA 
HETATM   20  H   UNL     1      -9.313   6.870  66.015  1.00  0.00     0.000 HD 
HETATM   21  C   UNL     1     -10.772  10.347  67.148  1.00  0.00    -0.316 A  
ENDBRANCH   9  12
ENDBRANCH   3   9
ENDBRANCH   2   3
TORSDOF 5
ENDMDL
MODEL      230
REMARK 921   NORMALIZED FREE ENERGY PREDICTED BY IDOCK:   -3.58 KCAL/MOL
REMARK 922        TOTAL FREE ENERGY PREDICTED BY IDOCK:   -5.30 KCAL/MOL
REMARK 923 INTER-LIGAND FREE ENERGY PREDICTED BY IDOCK:   -4.63 KCAL/MOL
REMARK 924 INTRA-LIGAND FREE ENERGY PREDICTED BY IDOCK:   -0.66 KCAL/MOL
REMARK 927      BINDING AFFINITY PREDICTED BY RF-SCORE:    0.00 PKD
ROOT
HETATM    1  C   UNL     1      -9.940   7.590  66.706  1.00  0.00    -0.307 C  
HETATM    2  C   UNL     1     -10.567   8.893  67.184  1.00  0.00    -0.301 C  
ENDROOT
BRANCH   2   3
HETATM    3  C   UNL     1     -10.101  10.161  66.426  1.00  0.00    -0.236 C  
BRANCH   3   4
HETATM    4  N   UNL     1      -9.745   9.951  65.007  1.00  0.00    -0.336 NA 
HETATM    5  H   UNL     1     -10.468   9.782  64.308  1.00  0.00     0.000 HD 
BRANCH   4   6
HETATM    6  C   UNL     1      -8.329   9.989  64.628  1.00  0.00    -0.165 C  
HETATM    7  C   UNL     1      -7.541  10.526  65.831  1.00  0.00    -0.148 C  
HETATM    8  C   UNL     1      -7.743   8.626  64.257  1.00  0.00    -0.128 C  
ENDBRANCH   4   6
ENDBRANCH   3   4
BRANCH   3   9
HETATM    9  C   UNL     1     -11.100  11.347  66.702  1.00  0.00    -0.271 C  
HETATM   10  H   UNL     1     -12.136  12.033  68.234  1.00  0.00     0.000 HD 
HETATM   11  O   UNL     1     -11.533  11.318  68.067  1.00  0.00    -0.302 OA 
BRANCH   9  12
HETATM   12  C   UNL     1     -10.599  12.755  66.427  1.00  0.00    -0.273 A  
HETATM   13  C   UNL     1      -9.869  13.503  67.364  1.00  0.00    -0.227 A  
HETATM   14  C   UNL     1      -9.446  14.793  67.049  1.00  0.00    -0.231 A  
HETATM   15  O   UNL     1      -8.724  15.550  67.929  1.00  0.00    -0.161 OA 
HETATM   16  C   UNL     1      -9.738  15.350  65.809  1.00  0.00    -0.350 A  
HETATM   17  H   UNL     1      -8.435  16.430  67.715  1.00  0.00     0.000 HD 
HETATM   18  C   UNL     1     -10.472  14.640  64.876  1.00  0.00    -0.415 A  
HETATM   19  O   UNL     1      -9.302  16.609  65.507  1.00  0.00    -0.461 OA 
HETATM   20  H   UNL     1      -9.501  16.989  64.660  1.00  0.00     0.000 HD 
HETATM   21  C   UNL     1     -10.909  13.351  65.186  1.00  0.00    -0.322 A  
ENDBRANCH   9  12
ENDBRANCH   3   9
ENDBRANCH   2   3
TORSDOF 5
ENDMDL
MODEL      231
REMARK 921   NORMALIZED FREE ENERGY PREDICTED BY IDOCK:   -3.58 KCAL/MOL
REMARK 922        TOTAL FREE ENERGY PREDICTED BY IDOCK:   -5.29 KCAL/MOL
REMARK 923 INTER-LIGAND FREE ENERGY PREDICTED BY IDOCK:   -4.84 KCAL/MOL
REMARK 924 INTRA-LIGAND FREE ENERGY PREDICTED BY IDOCK:   -0.45 KCAL/MOL
REMARK 927      BINDING AFFINITY PREDICTED BY RF-SCORE:    0.00 PKD
ROOT
HETATM    1  C   UNL     1      -7.756   9.903  70.136  1.00  0.00    -0.188 C  
HETATM    2  C   UNL     1      -8.157   8.440  69.994  1.00  0.00    -0.115 C  
ENDROOT
BRANCH   2   3
HETATM    3  C   UNL     1      -9.250   8.160  68.933  1.00  0.00    -0.147 C  
BRANCH   3   4
HETATM    4  N   UNL     1      -8.752   7.950  67.558  1.00  0.00    -0.125 NA 
HETATM    5  H   UNL     1      -8.827   8.688  66.858  1.00  0.00     0.000 HD 
BRANCH   4   6
HETATM    6  C   UNL     1      -8.147   6.657  67.222  1.00  0.00    -0.121 C  
HETATM    7  C   UNL     1      -8.910   6.087  66.018  1.00  0.00    -0.159 C  
HETATM    8  C   UNL     1      -6.668   6.738  66.841  1.00  0.00    -0.056 C  
ENDBRANCH   4   6
ENDBRANCH   3   4
BRANCH   3   9
HETATM    9  C   UNL     1     -10.243   7.060  69.465  1.00  0.00    -0.199 C  
HETATM   10  H   UNL     1     -10.119   5.376  70.485  1.00  0.00     0.000 HD 
HETATM   11  O   UNL     1      -9.520   6.040  70.163  1.00  0.00    -0.155 OA 
BRANCH   9  12
HETATM   12  C   UNL     1     -11.359   7.521  70.388  1.00  0.00    -0.253 A  
HETATM   13  C   UNL     1     -12.337   6.651  70.897  1.00  0.00    -0.260 A  
HETATM   14  C   UNL     1     -13.338   7.142  71.735  1.00  0.00    -0.283 A  
HETATM   15  O   UNL     1     -14.302   6.326  72.260  1.00  0.00    -0.596 OA 
HETATM   16  C   UNL     1     -13.378   8.489  72.075  1.00  0.00    -0.369 A  
HETATM   17  H   UNL     1     -14.984   6.660  72.831  1.00  0.00     0.000 HD 
HETATM   18  C   UNL     1     -12.437   9.369  71.570  1.00  0.00    -0.450 A  
HETATM   19  O   UNL     1     -14.354   8.953  72.910  1.00  0.00    -1.050 OA 
HETATM   20  H   UNL     1     -14.382   9.873  73.142  1.00  0.00     0.000 HD 
HETATM   21  C   UNL     1     -11.437   8.889  70.722  1.00  0.00    -0.319 A  
ENDBRANCH   9  12
ENDBRANCH   3   9
ENDBRANCH   2   3
TORSDOF 5
ENDMDL
MODEL      232
REMARK 921   NORMALIZED FREE ENERGY PREDICTED BY IDOCK:   -3.57 KCAL/MOL
REMARK 922        TOTAL FREE ENERGY PREDICTED BY IDOCK:   -5.29 KCAL/MOL
REMARK 923 INTER-LIGAND FREE ENERGY PREDICTED BY IDOCK:   -4.71 KCAL/MOL
REMARK 924 INTRA-LIGAND FREE ENERGY PREDICTED BY IDOCK:   -0.58 KCAL/MOL
REMARK 927      BINDING AFFINITY PREDICTED BY RF-SCORE:    0.00 PKD
ROOT
HETATM    1  C   UNL     1     -11.414  12.001  69.519  1.00  0.00    -0.351 C  
HETATM    2  C   UNL     1     -12.183  11.020  70.395  1.00  0.00    -0.461 C  
ENDROOT
BRANCH   2   3
HETATM    3  C   UNL     1     -11.430   9.707  70.726  1.00  0.00    -0.328 C  
BRANCH   3   4
HETATM    4  N   UNL     1     -12.151   8.465  70.383  1.00  0.00    -0.441 NA 
HETATM    5  H   UNL     1     -12.588   8.351  69.468  1.00  0.00     0.000 HD 
BRANCH   4   6
HETATM    6  C   UNL     1     -12.226   7.398  71.386  1.00  0.00    -0.342 C  
HETATM    7  C   UNL     1     -13.692   6.952  71.481  1.00  0.00    -0.274 C  
HETATM    8  C   UNL     1     -11.384   6.165  71.054  1.00  0.00    -0.348 C  
ENDBRANCH   4   6
ENDBRANCH   3   4
BRANCH   3   9
HETATM    9  C   UNL     1      -9.948   9.793  70.202  1.00  0.00    -0.263 C  
HETATM   10  H   UNL     1      -8.146   9.380  70.893  1.00  0.00     0.000 HD 
HETATM   11  O   UNL     1      -9.041   9.328  71.209  1.00  0.00    -0.264 OA 
BRANCH   9  12
HETATM   12  C   UNL     1      -9.617   9.037  68.926  1.00  0.00    -0.156 A  
HETATM   13  C   UNL     1      -8.766   7.921  68.899  1.00  0.00    -0.135 A  
HETATM   14  C   UNL     1      -8.500   7.276  67.692  1.00  0.00    -0.116 A  
HETATM   15  O   UNL     1      -7.685   6.180  67.624  1.00  0.00    -0.095 OA 
HETATM   16  C   UNL     1      -9.073   7.727  66.508  1.00  0.00    -0.170 A  
HETATM   17  H   UNL     1      -7.503   5.741  66.801  1.00  0.00     0.000 HD 
HETATM   18  C   UNL     1      -9.900   8.836  66.507  1.00  0.00    -0.349 A  
HETATM   19  O   UNL     1      -8.817   7.077  65.335  1.00  0.00    -0.352 OA 
HETATM   20  H   UNL     1      -9.209   7.384  64.526  1.00  0.00     0.000 HD 
HETATM   21  C   UNL     1     -10.164   9.494  67.709  1.00  0.00    -0.265 A  
ENDBRANCH   9  12
ENDBRANCH   3   9
ENDBRANCH   2   3
TORSDOF 5
ENDMDL
MODEL      233
REMARK 921   NORMALIZED FREE ENERGY PREDICTED BY IDOCK:   -3.57 KCAL/MOL
REMARK 922        TOTAL FREE ENERGY PREDICTED BY IDOCK:   -5.29 KCAL/MOL
REMARK 923 INTER-LIGAND FREE ENERGY PREDICTED BY IDOCK:   -4.51 KCAL/MOL
REMARK 924 INTRA-LIGAND FREE ENERGY PREDICTED BY IDOCK:   -0.78 KCAL/MOL
REMARK 927      BINDING AFFINITY PREDICTED BY RF-SCORE:    0.00 PKD
ROOT
HETATM    1  C   UNL     1     -14.128   8.267  71.556  1.00  0.00    -0.446 C  
HETATM    2  C   UNL     1     -13.395   6.935  71.473  1.00  0.00    -0.303 C  
ENDROOT
BRANCH   2   3
HETATM    3  C   UNL     1     -11.855   7.023  71.623  1.00  0.00    -0.313 C  
BRANCH   3   4
HETATM    4  N   UNL     1     -11.161   5.725  71.749  1.00  0.00    -0.246 NA 
HETATM    5  H   UNL     1     -11.421   4.935  71.159  1.00  0.00     0.000 HD 
BRANCH   4   6
HETATM    6  C   UNL     1     -10.089   5.598  72.742  1.00  0.00    -0.180 C  
HETATM    7  C   UNL     1     -10.349   6.638  73.840  1.00  0.00    -0.385 C  
HETATM    8  C   UNL     1     -10.013   4.224  73.409  1.00  0.00    -0.176 C  
ENDBRANCH   4   6
ENDBRANCH   3   4
BRANCH   3   9
HETATM    9  C   UNL     1     -11.267   7.999  70.537  1.00  0.00    -0.250 C  
HETATM   10  H   UNL     1      -9.972   9.487  70.485  1.00  0.00     0.000 HD 
HETATM   11  O   UNL     1     -10.327   8.897  71.140  1.00  0.00    -0.222 OA 
BRANCH   9  12
HETATM   12  C   UNL     1     -10.574   7.371  69.340  1.00  0.00    -0.231 A  
HETATM   13  C   UNL     1     -11.269   6.709  68.316  1.00  0.00    -0.208 A  
HETATM   14  C   UNL     1     -10.568   6.149  67.248  1.00  0.00    -0.290 A  
HETATM   15  O   UNL     1     -11.208   5.504  66.225  1.00  0.00    -0.746 OA 
HETATM   16  C   UNL     1      -9.183   6.240  67.185  1.00  0.00    -0.122 A  
HETATM   17  H   UNL     1     -10.731   5.122  65.498  1.00  0.00     0.000 HD 
HETATM   18  C   UNL     1      -8.475   6.872  68.192  1.00  0.00    -0.124 A  
HETATM   19  O   UNL     1      -8.511   5.702  66.125  1.00  0.00    -0.120 OA 
HETATM   20  H   UNL     1      -7.564   5.765  66.081  1.00  0.00     0.000 HD 
HETATM   21  C   UNL     1      -9.166   7.427  69.270  1.00  0.00    -0.147 A  
ENDBRANCH   9  12
ENDBRANCH   3   9
ENDBRANCH   2   3
TORSDOF 5
ENDMDL
MODEL      234
REMARK 921   NORMALIZED FREE ENERGY PREDICTED BY IDOCK:   -3.57 KCAL/MOL
REMARK 922        TOTAL FREE ENERGY PREDICTED BY IDOCK:   -5.28 KCAL/MOL
REMARK 923 INTER-LIGAND FREE ENERGY PREDICTED BY IDOCK:   -4.69 KCAL/MOL
REMARK 924 INTRA-LIGAND FREE ENERGY PREDICTED BY IDOCK:   -0.60 KCAL/MOL
REMARK 927      BINDING AFFINITY PREDICTED BY RF-SCORE:    0.00 PKD
ROOT
HETATM    1  C   UNL     1      -9.876   7.589  66.535  1.00  0.00    -0.226 C  
HETATM    2  C   UNL     1     -10.324   8.938  67.083  1.00  0.00    -0.351 C  
ENDROOT
BRANCH   2   3
HETATM    3  C   UNL     1      -9.211  10.011  67.175  1.00  0.00    -0.141 C  
BRANCH   3   4
HETATM    4  N   UNL     1      -8.304  10.076  66.011  1.00  0.00    -0.122 NA 
HETATM    5  H   UNL     1      -8.671  10.225  65.071  1.00  0.00     0.000 HD 
BRANCH   4   6
HETATM    6  C   UNL     1      -6.863   9.922  66.237  1.00  0.00    -0.091 C  
HETATM    7  C   UNL     1      -6.484   8.485  65.850  1.00  0.00    -0.053 C  
HETATM    8  C   UNL     1      -5.994  10.871  65.410  1.00  0.00     0.014 C  
ENDBRANCH   4   6
ENDBRANCH   3   4
BRANCH   3   9
HETATM    9  C   UNL     1      -9.830  11.387  67.625  1.00  0.00    -0.176 C  
HETATM   10  H   UNL     1      -9.219  12.997  68.588  1.00  0.00     0.000 HD 
HETATM   11  O   UNL     1      -8.846  12.166  68.316  1.00  0.00    -0.184 OA 
BRANCH   9  12
HETATM   12  C   UNL     1     -10.415  12.274  66.539  1.00  0.00    -0.254 A  
HETATM   13  C   UNL     1      -9.736  13.385  66.013  1.00  0.00    -0.228 A  
HETATM   14  C   UNL     1     -10.334  14.161  65.021  1.00  0.00    -0.418 A  
HETATM   15  O   UNL     1      -9.702  15.244  64.475  1.00  0.00    -0.214 OA 
HETATM   16  C   UNL     1     -11.601  13.845  64.544  1.00  0.00    -0.393 A  
HETATM   17  H   UNL     1     -10.110  15.773  63.799  1.00  0.00     0.000 HD 
HETATM   18  C   UNL     1     -12.297  12.767  65.060  1.00  0.00    -0.559 A  
HETATM   19  O   UNL     1     -12.168  14.604  63.560  1.00  0.00    -0.978 OA 
HETATM   20  H   UNL     1     -13.033  14.389  63.234  1.00  0.00     0.000 HD 
HETATM   21  C   UNL     1     -11.710  11.990  66.061  1.00  0.00    -0.311 A  
ENDBRANCH   9  12
ENDBRANCH   3   9
ENDBRANCH   2   3
TORSDOF 5
ENDMDL
MODEL      235
REMARK 921   NORMALIZED FREE ENERGY PREDICTED BY IDOCK:   -3.55 KCAL/MOL
REMARK 922        TOTAL FREE ENERGY PREDICTED BY IDOCK:   -5.27 KCAL/MOL
REMARK 923 INTER-LIGAND FREE ENERGY PREDICTED BY IDOCK:   -4.59 KCAL/MOL
REMARK 924 INTRA-LIGAND FREE ENERGY PREDICTED BY IDOCK:   -0.68 KCAL/MOL
REMARK 927      BINDING AFFINITY PREDICTED BY RF-SCORE:    0.00 PKD
ROOT
HETATM    1  C   UNL     1      -8.179   8.047  72.929  1.00  0.00    -0.221 C  
HETATM    2  C   UNL     1      -9.547   8.095  73.597  1.00  0.00     0.101 C  
ENDROOT
BRANCH   2   3
HETATM    3  C   UNL     1     -10.753   7.969  72.633  1.00  0.00    -0.358 C  
BRANCH   3   4
HETATM    4  N   UNL     1     -10.809   8.984  71.561  1.00  0.00    -0.320 NA 
HETATM    5  H   UNL     1      -9.961   9.285  71.083  1.00  0.00     0.000 HD 
BRANCH   4   6
HETATM    6  C   UNL     1     -12.114   9.549  71.200  1.00  0.00    -0.347 C  
HETATM    7  C   UNL     1     -13.005   9.492  72.448  1.00  0.00    -0.396 C  
HETATM    8  C   UNL     1     -12.058  11.005  70.733  1.00  0.00    -0.467 C  
ENDBRANCH   4   6
ENDBRANCH   3   4
BRANCH   3   9
HETATM    9  C   UNL     1     -10.903   6.476  72.156  1.00  0.00    -0.232 C  
HETATM   10  H   UNL     1     -12.349   5.140  72.032  1.00  0.00     0.000 HD 
HETATM   11  O   UNL     1     -12.258   6.041  72.319  1.00  0.00    -0.281 OA 
BRANCH   9  12
HETATM   12  C   UNL     1     -10.507   6.161  70.723  1.00  0.00    -0.285 A  
HETATM   13  C   UNL     1     -11.369   6.356  69.632  1.00  0.00    -0.479 A  
HETATM   14  C   UNL     1     -10.943   6.039  68.343  1.00  0.00    -0.251 A  
HETATM   15  O   UNL     1     -11.747   6.223  67.253  1.00  0.00    -0.514 OA 
HETATM   16  C   UNL     1      -9.667   5.532  68.124  1.00  0.00    -0.132 A  
HETATM   17  H   UNL     1     -11.458   6.008  66.374  1.00  0.00     0.000 HD 
HETATM   18  C   UNL     1      -8.807   5.315  69.185  1.00  0.00    -0.113 A  
HETATM   19  O   UNL     1      -9.257   5.242  66.854  1.00  0.00    -0.118 OA 
HETATM   20  H   UNL     1      -8.385   4.897  66.704  1.00  0.00     0.000 HD 
HETATM   21  C   UNL     1      -9.228   5.618  70.481  1.00  0.00    -0.175 A  
ENDBRANCH   9  12
ENDBRANCH   3   9
ENDBRANCH   2   3
TORSDOF 5
ENDMDL
MODEL      236
REMARK 921   NORMALIZED FREE ENERGY PREDICTED BY IDOCK:   -3.55 KCAL/MOL
REMARK 922        TOTAL FREE ENERGY PREDICTED BY IDOCK:   -5.26 KCAL/MOL
REMARK 923 INTER-LIGAND FREE ENERGY PREDICTED BY IDOCK:   -4.64 KCAL/MOL
REMARK 924 INTRA-LIGAND FREE ENERGY PREDICTED BY IDOCK:   -0.62 KCAL/MOL
REMARK 927      BINDING AFFINITY PREDICTED BY RF-SCORE:    0.00 PKD
ROOT
HETATM    1  C   UNL     1      -8.090  10.668  69.191  1.00  0.00    -0.143 C  
HETATM    2  C   UNL     1      -9.532  10.982  68.813  1.00  0.00    -0.190 C  
ENDROOT
BRANCH   2   3
HETATM    3  C   UNL     1     -10.475   9.754  68.744  1.00  0.00    -0.218 C  
BRANCH   3   4
HETATM    4  N   UNL     1     -11.715   9.870  69.538  1.00  0.00    -0.461 NA 
HETATM    5  H   UNL     1     -12.629   9.818  69.087  1.00  0.00     0.000 HD 
BRANCH   4   6
HETATM    6  C   UNL     1     -11.604  10.060  70.988  1.00  0.00    -0.393 C  
HETATM    7  C   UNL     1     -12.888  10.755  71.464  1.00  0.00    -0.567 C  
HETATM    8  C   UNL     1     -11.457   8.760  71.780  1.00  0.00    -0.413 C  
ENDBRANCH   4   6
ENDBRANCH   3   4
BRANCH   3   9
HETATM    9  C   UNL     1     -10.670   9.313  67.246  1.00  0.00    -0.174 C  
HETATM   10  H   UNL     1     -10.164   9.992  65.464  1.00  0.00     0.000 HD 
HETATM   11  O   UNL     1     -10.045  10.258  66.369  1.00  0.00    -0.217 OA 
BRANCH   9  12
HETATM   12  C   UNL     1     -10.155   7.938  66.854  1.00  0.00    -0.362 A  
HETATM   13  C   UNL     1      -8.941   7.743  66.176  1.00  0.00    -0.201 A  
HETATM   14  C   UNL     1      -8.531   6.453  65.840  1.00  0.00    -0.147 A  
HETATM   15  O   UNL     1      -7.351   6.218  65.190  1.00  0.00    -0.071 OA 
HETATM   16  C   UNL     1      -9.313   5.353  66.172  1.00  0.00    -0.157 A  
HETATM   17  H   UNL     1      -7.071   5.340  64.960  1.00  0.00     0.000 HD 
HETATM   18  C   UNL     1     -10.522   5.522  66.823  1.00  0.00    -0.355 A  
HETATM   19  O   UNL     1      -8.891   4.094  65.852  1.00  0.00    -0.116 OA 
HETATM   20  H   UNL     1      -9.425   3.342  66.079  1.00  0.00     0.000 HD 
HETATM   21  C   UNL     1     -10.946   6.810  67.155  1.00  0.00    -0.458 A  
ENDBRANCH   9  12
ENDBRANCH   3   9
ENDBRANCH   2   3
TORSDOF 5
ENDMDL
MODEL      237
REMARK 921   NORMALIZED FREE ENERGY PREDICTED BY IDOCK:   -3.54 KCAL/MOL
REMARK 922        TOTAL FREE ENERGY PREDICTED BY IDOCK:   -5.25 KCAL/MOL
REMARK 923 INTER-LIGAND FREE ENERGY PREDICTED BY IDOCK:   -4.99 KCAL/MOL
REMARK 924 INTRA-LIGAND FREE ENERGY PREDICTED BY IDOCK:   -0.26 KCAL/MOL
REMARK 927      BINDING AFFINITY PREDICTED BY RF-SCORE:    0.00 PKD
ROOT
HETATM    1  C   UNL     1     -10.094   9.152  66.602  1.00  0.00    -0.343 C  
HETATM    2  C   UNL     1     -10.719  10.518  66.853  1.00  0.00    -0.281 C  
ENDROOT
BRANCH   2   3
HETATM    3  C   UNL     1     -10.532  11.071  68.288  1.00  0.00    -0.186 C  
BRANCH   3   4
HETATM    4  N   UNL     1      -9.436  12.049  68.447  1.00  0.00    -0.255 NA 
HETATM    5  H   UNL     1      -9.606  13.046  68.322  1.00  0.00     0.000 HD 
BRANCH   4   6
HETATM    6  C   UNL     1      -8.099  11.553  68.788  1.00  0.00    -0.093 C  
HETATM    7  C   UNL     1      -8.273  10.216  69.522  1.00  0.00    -0.176 C  
HETATM    8  C   UNL     1      -7.195  11.307  67.578  1.00  0.00    -0.100 C  
ENDBRANCH   4   6
ENDBRANCH   3   4
BRANCH   3   9
HETATM    9  C   UNL     1     -11.923  11.515  68.876  1.00  0.00    -0.299 C  
HETATM   10  H   UNL     1     -13.238  10.804  70.164  1.00  0.00     0.000 HD 
HETATM   11  O   UNL     1     -12.398  10.537  69.809  1.00  0.00    -0.250 OA 
BRANCH   9  12
HETATM   12  C   UNL     1     -11.983  12.861  69.579  1.00  0.00    -0.346 A  
HETATM   13  C   UNL     1     -11.565  14.057  68.974  1.00  0.00    -0.345 A  
HETATM   14  C   UNL     1     -11.641  15.258  69.679  1.00  0.00    -0.321 A  
HETATM   15  O   UNL     1     -11.255  16.446  69.123  1.00  0.00    -0.314 OA 
HETATM   16  C   UNL     1     -12.130  15.284  70.980  1.00  0.00    -0.342 A  
HETATM   17  H   UNL     1     -11.306  17.264  69.602  1.00  0.00     0.000 HD 
HETATM   18  C   UNL     1     -12.529  14.116  71.604  1.00  0.00    -0.395 A  
HETATM   19  O   UNL     1     -12.214  16.470  71.653  1.00  0.00    -0.556 OA 
HETATM   20  H   UNL     1     -12.548  16.488  72.542  1.00  0.00     0.000 HD 
HETATM   21  C   UNL     1     -12.447  12.907  70.910  1.00  0.00    -0.383 A  
ENDBRANCH   9  12
ENDBRANCH   3   9
ENDBRANCH   2   3
TORSDOF 5
ENDMDL
MODEL      238
REMARK 921   NORMALIZED FREE ENERGY PREDICTED BY IDOCK:   -3.52 KCAL/MOL
REMARK 922        TOTAL FREE ENERGY PREDICTED BY IDOCK:   -5.22 KCAL/MOL
REMARK 923 INTER-LIGAND FREE ENERGY PREDICTED BY IDOCK:   -4.74 KCAL/MOL
REMARK 924 INTRA-LIGAND FREE ENERGY PREDICTED BY IDOCK:   -0.48 KCAL/MOL
REMARK 927      BINDING AFFINITY PREDICTED BY RF-SCORE:    0.00 PKD
ROOT
HETATM    1  C   UNL     1      -6.902  12.839  68.529  1.00  0.00    -0.094 C  
HETATM    2  C   UNL     1      -8.022  13.694  67.950  1.00  0.00    -0.161 C  
ENDROOT
BRANCH   2   3
HETATM    3  C   UNL     1      -9.222  12.901  67.374  1.00  0.00    -0.197 C  
BRANCH   3   4
HETATM    4  N   UNL     1      -9.913  12.020  68.337  1.00  0.00    -0.210 NA 
HETATM    5  H   UNL     1     -10.557  12.406  69.027  1.00  0.00     0.000 HD 
BRANCH   4   6
HETATM    6  C   UNL     1      -9.652  10.578  68.278  1.00  0.00    -0.158 C  
HETATM    7  C   UNL     1      -9.499  10.076  69.721  1.00  0.00    -0.239 C  
HETATM    8  C   UNL     1     -10.768   9.766  67.618  1.00  0.00    -0.334 C  
ENDBRANCH   4   6
ENDBRANCH   3   4
BRANCH   3   9
HETATM    9  C   UNL     1     -10.155  13.866  66.552  1.00  0.00    -0.286 C  
HETATM   10  H   UNL     1     -12.072  13.980  66.101  1.00  0.00     0.000 HD 
HETATM   11  O   UNL     1     -11.509  13.398  66.597  1.00  0.00    -0.318 OA 
BRANCH   9  12
HETATM   12  C   UNL     1     -10.179  15.328  66.964  1.00  0.00    -0.260 A  
HETATM   13  C   UNL     1      -9.477  16.328  66.273  1.00  0.00    -0.347 A  
HETATM   14  C   UNL     1      -9.537  17.651  66.710  1.00  0.00    -0.294 A  
HETATM   15  O   UNL     1      -8.877  18.656  66.059  1.00  0.00    -0.489 OA 
HETATM   16  C   UNL     1     -10.290  17.993  67.827  1.00  0.00    -0.393 A  
HETATM   17  H   UNL     1      -8.918  19.557  66.357  1.00  0.00     0.000 HD 
HETATM   18  C   UNL     1     -10.975  17.022  68.536  1.00  0.00    -0.247 A  
HETATM   19  O   UNL     1     -10.354  19.295  68.235  1.00  0.00    -0.404 OA 
HETATM   20  H   UNL     1     -10.869  19.529  68.998  1.00  0.00     0.000 HD 
HETATM   21  C   UNL     1     -10.913  15.693  68.112  1.00  0.00    -0.314 A  
ENDBRANCH   9  12
ENDBRANCH   3   9
ENDBRANCH   2   3
TORSDOF 5
ENDMDL
MODEL      239
REMARK 921   NORMALIZED FREE ENERGY PREDICTED BY IDOCK:   -3.51 KCAL/MOL
REMARK 922        TOTAL FREE ENERGY PREDICTED BY IDOCK:   -5.21 KCAL/MOL
REMARK 923 INTER-LIGAND FREE ENERGY PREDICTED BY IDOCK:   -5.38 KCAL/MOL
REMARK 924 INTRA-LIGAND FREE ENERGY PREDICTED BY IDOCK:    0.17 KCAL/MOL
REMARK 927      BINDING AFFINITY PREDICTED BY RF-SCORE:    0.00 PKD
ROOT
HETATM    1  C   UNL     1      -7.880  11.716  68.568  1.00  0.00    -0.140 C  
HETATM    2  C   UNL     1      -8.501  10.739  69.558  1.00  0.00     0.091 C  
ENDROOT
BRANCH   2   3
HETATM    3  C   UNL     1      -9.861  10.139  69.121  1.00  0.00    -0.214 C  
BRANCH   3   4
HETATM    4  N   UNL     1     -10.484   9.219  70.095  1.00  0.00    -0.214 NA 
HETATM    5  H   UNL     1     -11.171   9.559  70.767  1.00  0.00     0.000 HD 
BRANCH   4   6
HETATM    6  C   UNL     1     -10.090   7.806  70.074  1.00  0.00    -0.201 C  
HETATM    7  C   UNL     1      -9.107   7.582  71.232  1.00  0.00    -0.147 C  
HETATM    8  C   UNL     1     -11.253   6.829  70.255  1.00  0.00    -0.385 C  
ENDBRANCH   4   6
ENDBRANCH   3   4
BRANCH   3   9
HETATM    9  C   UNL     1     -10.799  11.279  68.576  1.00  0.00    -0.205 C  
HETATM   10  H   UNL     1     -12.209  11.457  67.207  1.00  0.00     0.000 HD 
HETATM   11  O   UNL     1     -11.642  10.769  67.536  1.00  0.00    -0.510 OA 
BRANCH   9  12
HETATM   12  C   UNL     1     -11.706  11.972  69.579  1.00  0.00    -0.408 A  
HETATM   13  C   UNL     1     -12.007  13.342  69.518  1.00  0.00    -0.377 A  
HETATM   14  C   UNL     1     -12.842  13.916  70.476  1.00  0.00    -0.184 A  
HETATM   15  O   UNL     1     -13.168  15.244  70.447  1.00  0.00    -0.666 OA 
HETATM   16  C   UNL     1     -13.384  13.142  71.496  1.00  0.00    -0.222 A  
HETATM   17  H   UNL     1     -13.736  15.635  71.099  1.00  0.00     0.000 HD 
HETATM   18  C   UNL     1     -13.087  11.794  71.588  1.00  0.00    -0.443 A  
HETATM   19  O   UNL     1     -14.214  13.713  72.418  1.00  0.00    -0.660 OA 
HETATM   20  H   UNL     1     -14.585  13.185  73.115  1.00  0.00     0.000 HD 
HETATM   21  C   UNL     1     -12.244  11.213  70.639  1.00  0.00    -0.492 A  
ENDBRANCH   9  12
ENDBRANCH   3   9
ENDBRANCH   2   3
TORSDOF 5
ENDMDL
MODEL      240
REMARK 921   NORMALIZED FREE ENERGY PREDICTED BY IDOCK:   -3.50 KCAL/MOL
REMARK 922        TOTAL FREE ENERGY PREDICTED BY IDOCK:   -5.20 KCAL/MOL
REMARK 923 INTER-LIGAND FREE ENERGY PREDICTED BY IDOCK:   -4.72 KCAL/MOL
REMARK 924 INTRA-LIGAND FREE ENERGY PREDICTED BY IDOCK:   -0.48 KCAL/MOL
REMARK 927      BINDING AFFINITY PREDICTED BY RF-SCORE:    0.00 PKD
ROOT
HETATM    1  C   UNL     1     -10.216   7.779  69.381  1.00  0.00    -0.208 C  
HETATM    2  C   UNL     1     -10.127   8.548  70.692  1.00  0.00    -0.225 C  
ENDROOT
BRANCH   2   3
HETATM    3  C   UNL     1     -11.482   9.041  71.257  1.00  0.00    -0.320 C  
BRANCH   3   4
HETATM    4  N   UNL     1     -12.436   9.547  70.249  1.00  0.00    -0.412 NA 
HETATM    5  H   UNL     1     -12.844   8.920  69.557  1.00  0.00     0.000 HD 
BRANCH   4   6
HETATM    6  C   UNL     1     -12.783  10.972  70.267  1.00  0.00    -0.183 C  
HETATM    7  C   UNL     1     -12.978  11.384  71.733  1.00  0.00    -0.519 C  
HETATM    8  C   UNL     1     -11.713  11.884  69.665  1.00  0.00    -0.413 C  
ENDBRANCH   4   6
ENDBRANCH   3   4
BRANCH   3   9
HETATM    9  C   UNL     1     -12.063   7.976  72.261  1.00  0.00    -0.341 C  
HETATM   10  H   UNL     1     -13.539   6.668  72.282  1.00  0.00     0.000 HD 
HETATM   11  O   UNL     1     -13.189   7.311  71.676  1.00  0.00    -0.367 OA 
BRANCH   9  12
HETATM   12  C   UNL     1     -11.115   6.894  72.751  1.00  0.00    -0.304 A  
HETATM   13  C   UNL     1     -11.224   5.550  72.360  1.00  0.00    -0.305 A  
HETATM   14  C   UNL     1     -10.323   4.606  72.853  1.00  0.00    -0.187 A  
HETATM   15  O   UNL     1     -10.389   3.289  72.489  1.00  0.00    -0.162 OA 
HETATM   16  C   UNL     1      -9.313   4.983  73.729  1.00  0.00    -0.128 A  
HETATM   17  H   UNL     1      -9.775   2.646  72.824  1.00  0.00     0.000 HD 
HETATM   18  C   UNL     1      -9.197   6.298  74.143  1.00  0.00    -0.164 A  
HETATM   19  O   UNL     1      -8.427   4.051  74.191  1.00  0.00    -0.093 OA 
HETATM   20  H   UNL     1      -7.737   4.309  74.790  1.00  0.00     0.000 HD 
HETATM   21  C   UNL     1     -10.100   7.249  73.664  1.00  0.00    -0.387 A  
ENDBRANCH   9  12
ENDBRANCH   3   9
ENDBRANCH   2   3
TORSDOF 5
ENDMDL
MODEL      241
REMARK 921   NORMALIZED FREE ENERGY PREDICTED BY IDOCK:   -3.49 KCAL/MOL
REMARK 922        TOTAL FREE ENERGY PREDICTED BY IDOCK:   -5.19 KCAL/MOL
REMARK 923 INTER-LIGAND FREE ENERGY PREDICTED BY IDOCK:   -4.61 KCAL/MOL
REMARK 924 INTRA-LIGAND FREE ENERGY PREDICTED BY IDOCK:   -0.58 KCAL/MOL
REMARK 927      BINDING AFFINITY PREDICTED BY RF-SCORE:    0.00 PKD
ROOT
HETATM    1  C   UNL     1     -11.340  12.293  63.830  1.00  0.00    -0.501 C  
HETATM    2  C   UNL     1     -10.217  12.136  64.847  1.00  0.00    -0.309 C  
ENDROOT
BRANCH   2   3
HETATM    3  C   UNL     1     -10.451  12.853  66.200  1.00  0.00    -0.269 C  
BRANCH   3   4
HETATM    4  N   UNL     1     -11.464  13.928  66.174  1.00  0.00    -0.335 NA 
HETATM    5  H   UNL     1     -12.453  13.714  66.297  1.00  0.00     0.000 HD 
BRANCH   4   6
HETATM    6  C   UNL     1     -11.015  15.309  65.968  1.00  0.00    -0.317 C  
HETATM    7  C   UNL     1      -9.485  15.323  66.094  1.00  0.00    -0.361 C  
HETATM    8  C   UNL     1     -11.375  15.886  64.598  1.00  0.00    -0.328 C  
ENDBRANCH   4   6
ENDBRANCH   3   4
BRANCH   3   9
HETATM    9  C   UNL     1     -10.625  11.790  67.347  1.00  0.00    -0.224 C  
HETATM   10  H   UNL     1     -12.118  10.836  68.216  1.00  0.00     0.000 HD 
HETATM   11  O   UNL     1     -12.012  11.478  67.523  1.00  0.00    -0.629 OA 
BRANCH   9  12
HETATM   12  C   UNL     1      -9.892  10.468  67.186  1.00  0.00    -0.213 A  
HETATM   13  C   UNL     1      -8.492  10.369  67.166  1.00  0.00    -0.126 A  
HETATM   14  C   UNL     1      -7.884   9.124  67.008  1.00  0.00    -0.102 A  
HETATM   15  O   UNL     1      -6.523   8.983  66.994  1.00  0.00    -0.059 OA 
HETATM   16  C   UNL     1      -8.652   7.974  66.872  1.00  0.00    -0.128 A  
HETATM   17  H   UNL     1      -6.109   8.135  66.886  1.00  0.00     0.000 HD 
HETATM   18  C   UNL     1     -10.033   8.049  66.869  1.00  0.00    -0.338 A  
HETATM   19  O   UNL     1      -8.043   6.759  66.735  1.00  0.00    -0.106 OA 
HETATM   20  H   UNL     1      -8.568   5.973  66.641  1.00  0.00     0.000 HD 
HETATM   21  C   UNL     1     -10.652   9.292  67.016  1.00  0.00    -0.263 A  
ENDBRANCH   9  12
ENDBRANCH   3   9
ENDBRANCH   2   3
TORSDOF 5
ENDMDL
MODEL      242
REMARK 921   NORMALIZED FREE ENERGY PREDICTED BY IDOCK:   -3.49 KCAL/MOL
REMARK 922        TOTAL FREE ENERGY PREDICTED BY IDOCK:   -5.19 KCAL/MOL
REMARK 923 INTER-LIGAND FREE ENERGY PREDICTED BY IDOCK:   -5.42 KCAL/MOL
REMARK 924 INTRA-LIGAND FREE ENERGY PREDICTED BY IDOCK:    0.23 KCAL/MOL
REMARK 927      BINDING AFFINITY PREDICTED BY RF-SCORE:    0.00 PKD
ROOT
HETATM    1  C   UNL     1      -9.406   9.917  64.614  1.00  0.00    -0.338 C  
HETATM    2  C   UNL     1     -10.347  11.097  64.405  1.00  0.00    -0.407 C  
ENDROOT
BRANCH   2   3
HETATM    3  C   UNL     1     -10.170  12.263  65.409  1.00  0.00    -0.270 C  
BRANCH   3   4
HETATM    4  N   UNL     1     -10.116  13.610  64.805  1.00  0.00    -0.621 NA 
HETATM    5  H   UNL     1      -9.357  13.868  64.175  1.00  0.00     0.000 HD 
BRANCH   4   6
HETATM    6  C   UNL     1     -11.178  14.567  65.131  1.00  0.00    -0.367 C  
HETATM    7  C   UNL     1     -10.522  15.942  65.317  1.00  0.00    -0.403 C  
HETATM    8  C   UNL     1     -12.250  14.705  64.049  1.00  0.00    -0.226 C  
ENDBRANCH   4   6
ENDBRANCH   3   4
BRANCH   3   9
HETATM    9  C   UNL     1     -11.184  12.100  66.602  1.00  0.00    -0.324 C  
HETATM   10  H   UNL     1     -11.619  10.724  67.947  1.00  0.00     0.000 HD 
HETATM   11  O   UNL     1     -11.007  10.823  67.227  1.00  0.00    -0.290 OA 
BRANCH   9  12
HETATM   12  C   UNL     1     -11.130  13.143  67.706  1.00  0.00    -0.287 A  
HETATM   13  C   UNL     1     -12.280  13.653  68.331  1.00  0.00    -0.168 A  
HETATM   14  C   UNL     1     -12.159  14.614  69.334  1.00  0.00    -0.280 A  
HETATM   15  O   UNL     1     -13.253  15.129  69.974  1.00  0.00    -0.584 OA 
HETATM   16  C   UNL     1     -10.907  15.074  69.726  1.00  0.00    -0.261 A  
HETATM   17  H   UNL     1     -13.171  15.784  70.658  1.00  0.00     0.000 HD 
HETATM   18  C   UNL     1      -9.762  14.600  69.113  1.00  0.00    -0.108 A  
HETATM   19  O   UNL     1     -10.803  16.003  70.721  1.00  0.00    -0.252 OA 
HETATM   20  H   UNL     1      -9.948  16.317  70.990  1.00  0.00     0.000 HD 
HETATM   21  C   UNL     1      -9.873  13.645  68.100  1.00  0.00    -0.236 A  
ENDBRANCH   9  12
ENDBRANCH   3   9
ENDBRANCH   2   3
TORSDOF 5
ENDMDL
MODEL      243
REMARK 921   NORMALIZED FREE ENERGY PREDICTED BY IDOCK:   -3.49 KCAL/MOL
REMARK 922        TOTAL FREE ENERGY PREDICTED BY IDOCK:   -5.18 KCAL/MOL
REMARK 923 INTER-LIGAND FREE ENERGY PREDICTED BY IDOCK:   -4.87 KCAL/MOL
REMARK 924 INTRA-LIGAND FREE ENERGY PREDICTED BY IDOCK:   -0.31 KCAL/MOL
REMARK 927      BINDING AFFINITY PREDICTED BY RF-SCORE:    0.00 PKD
ROOT
HETATM    1  C   UNL     1     -11.749  15.500  70.218  1.00  0.00    -0.367 C  
HETATM    2  C   UNL     1     -10.932  14.422  69.519  1.00  0.00    -0.230 C  
ENDROOT
BRANCH   2   3
HETATM    3  C   UNL     1     -10.960  14.478  67.971  1.00  0.00    -0.260 C  
BRANCH   3   4
HETATM    4  N   UNL     1     -10.042  15.462  67.361  1.00  0.00    -0.232 NA 
HETATM    5  H   UNL     1      -9.050  15.465  67.597  1.00  0.00     0.000 HD 
BRANCH   4   6
HETATM    6  C   UNL     1     -10.590  16.434  66.410  1.00  0.00    -0.236 C  
HETATM    7  C   UNL     1      -9.581  17.584  66.289  1.00  0.00    -0.253 C  
HETATM    8  C   UNL     1     -10.827  15.872  65.007  1.00  0.00    -0.444 C  
ENDBRANCH   4   6
ENDBRANCH   3   4
BRANCH   3   9
HETATM    9  C   UNL     1     -10.875  13.020  67.381  1.00  0.00    -0.251 C  
HETATM   10  H   UNL     1      -9.607  11.979  66.286  1.00  0.00     0.000 HD 
HETATM   11  O   UNL     1      -9.658  12.859  66.642  1.00  0.00    -0.245 OA 
BRANCH   9  12
HETATM   12  C   UNL     1     -10.949  11.867  68.368  1.00  0.00    -0.273 A  
HETATM   13  C   UNL     1     -12.134  11.497  69.023  1.00  0.00    -0.303 A  
HETATM   14  C   UNL     1     -12.131  10.431  69.921  1.00  0.00    -0.181 A  
HETATM   15  O   UNL     1     -13.265  10.033  70.572  1.00  0.00    -0.604 OA 
HETATM   16  C   UNL     1     -10.961   9.725  70.176  1.00  0.00    -0.291 A  
HETATM   17  H   UNL     1     -13.263   9.306  71.185  1.00  0.00     0.000 HD 
HETATM   18  C   UNL     1      -9.776  10.082  69.557  1.00  0.00    -0.253 A  
HETATM   19  O   UNL     1     -10.974   8.672  71.046  1.00  0.00    -0.239 OA 
HETATM   20  H   UNL     1     -10.175   8.190  71.220  1.00  0.00     0.000 HD 
HETATM   21  C   UNL     1      -9.768  11.155  68.663  1.00  0.00    -0.202 A  
ENDBRANCH   9  12
ENDBRANCH   3   9
ENDBRANCH   2   3
TORSDOF 5
ENDMDL
MODEL      244
REMARK 921   NORMALIZED FREE ENERGY PREDICTED BY IDOCK:   -3.46 KCAL/MOL
REMARK 922        TOTAL FREE ENERGY PREDICTED BY IDOCK:   -5.15 KCAL/MOL
REMARK 923 INTER-LIGAND FREE ENERGY PREDICTED BY IDOCK:   -4.56 KCAL/MOL
REMARK 924 INTRA-LIGAND FREE ENERGY PREDICTED BY IDOCK:   -0.60 KCAL/MOL
REMARK 927      BINDING AFFINITY PREDICTED BY RF-SCORE:    0.00 PKD
ROOT
HETATM    1  C   UNL     1     -11.098   6.451  67.150  1.00  0.00    -0.422 C  
HETATM    2  C   UNL     1     -10.251   7.082  68.248  1.00  0.00    -0.206 C  
ENDROOT
BRANCH   2   3
HETATM    3  C   UNL     1      -9.632   8.457  67.890  1.00  0.00    -0.156 C  
BRANCH   3   4
HETATM    4  N   UNL     1      -9.934   8.947  66.530  1.00  0.00    -0.273 NA 
HETATM    5  H   UNL     1     -10.878   9.239  66.279  1.00  0.00     0.000 HD 
BRANCH   4   6
HETATM    6  C   UNL     1      -8.845   9.006  65.549  1.00  0.00    -0.194 C  
HETATM    7  C   UNL     1      -7.655   9.707  66.218  1.00  0.00    -0.101 C  
HETATM    8  C   UNL     1      -8.366   7.637  65.063  1.00  0.00    -0.078 C  
ENDBRANCH   4   6
ENDBRANCH   3   4
BRANCH   3   9
HETATM    9  C   UNL     1      -9.901   9.483  69.053  1.00  0.00    -0.176 C  
HETATM   10  H   UNL     1     -11.358  10.698  69.596  1.00  0.00     0.000 HD 
HETATM   11  O   UNL     1     -11.195  10.078  68.895  1.00  0.00    -0.209 OA 
BRANCH   9  12
HETATM   12  C   UNL     1      -9.828   8.956  70.476  1.00  0.00    -0.242 A  
HETATM   13  C   UNL     1     -10.968   8.656  71.239  1.00  0.00    -0.333 A  
HETATM   14  C   UNL     1     -10.829   8.181  72.542  1.00  0.00    -0.361 A  
HETATM   15  O   UNL     1     -11.913   7.868  73.314  1.00  0.00    -0.629 OA 
HETATM   16  C   UNL     1      -9.568   7.998  73.098  1.00  0.00    -0.274 A  
HETATM   17  H   UNL     1     -11.819   7.544  74.203  1.00  0.00     0.000 HD 
HETATM   18  C   UNL     1      -8.431   8.304  72.372  1.00  0.00    -0.252 A  
HETATM   19  O   UNL     1      -9.446   7.516  74.370  1.00  0.00    -0.414 OA 
HETATM   20  H   UNL     1      -8.585   7.391  74.749  1.00  0.00     0.000 HD 
HETATM   21  C   UNL     1      -8.560   8.790  71.070  1.00  0.00    -0.236 A  
ENDBRANCH   9  12
ENDBRANCH   3   9
ENDBRANCH   2   3
TORSDOF 5
ENDMDL
MODEL      245
REMARK 921   NORMALIZED FREE ENERGY PREDICTED BY IDOCK:   -3.46 KCAL/MOL
REMARK 922        TOTAL FREE ENERGY PREDICTED BY IDOCK:   -5.15 KCAL/MOL
REMARK 923 INTER-LIGAND FREE ENERGY PREDICTED BY IDOCK:   -4.54 KCAL/MOL
REMARK 924 INTRA-LIGAND FREE ENERGY PREDICTED BY IDOCK:   -0.61 KCAL/MOL
REMARK 927      BINDING AFFINITY PREDICTED BY RF-SCORE:    0.00 PKD
ROOT
HETATM    1  C   UNL     1      -6.647   7.543  67.330  1.00  0.00    -0.062 C  
HETATM    2  C   UNL     1      -8.047   7.956  67.766  1.00  0.00    -0.128 C  
ENDROOT
BRANCH   2   3
HETATM    3  C   UNL     1      -8.236   8.120  69.295  1.00  0.00    -0.119 C  
BRANCH   3   4
HETATM    4  N   UNL     1      -6.998   8.026  70.095  1.00  0.00    -0.048 NA 
HETATM    5  H   UNL     1      -6.224   8.670  69.936  1.00  0.00     0.000 HD 
BRANCH   4   6
HETATM    6  C   UNL     1      -6.907   6.985  71.124  1.00  0.00    -0.060 C  
HETATM    7  C   UNL     1      -6.679   5.645  70.409  1.00  0.00    -0.048 C  
HETATM    8  C   UNL     1      -5.762   7.184  72.118  1.00  0.00    -0.037 C  
ENDBRANCH   4   6
ENDBRANCH   3   4
BRANCH   3   9
HETATM    9  C   UNL     1      -9.136   9.378  69.590  1.00  0.00    -0.181 C  
HETATM   10  H   UNL     1     -10.240  10.638  68.549  1.00  0.00     0.000 HD 
HETATM   11  O   UNL     1      -9.697   9.879  68.371  1.00  0.00    -0.146 OA 
BRANCH   9  12
HETATM   12  C   UNL     1     -10.288   9.194  70.564  1.00  0.00    -0.288 A  
HETATM   13  C   UNL     1     -10.233   8.311  71.654  1.00  0.00    -0.286 A  
HETATM   14  C   UNL     1     -11.330   8.187  72.506  1.00  0.00    -0.401 A  
HETATM   15  O   UNL     1     -11.314   7.346  73.585  1.00  0.00    -0.564 OA 
HETATM   16  C   UNL     1     -12.483   8.932  72.288  1.00  0.00    -0.369 A  
HETATM   17  H   UNL     1     -12.061   7.261  74.165  1.00  0.00     0.000 HD 
HETATM   18  C   UNL     1     -12.567   9.795  71.210  1.00  0.00    -0.460 A  
HETATM   19  O   UNL     1     -13.544   8.813  73.140  1.00  0.00    -0.970 OA 
HETATM   20  H   UNL     1     -14.331   9.323  72.992  1.00  0.00     0.000 HD 
HETATM   21  C   UNL     1     -11.478   9.919  70.346  1.00  0.00    -0.372 A  
ENDBRANCH   9  12
ENDBRANCH   3   9
ENDBRANCH   2   3
TORSDOF 5
ENDMDL
MODEL      246
REMARK 921   NORMALIZED FREE ENERGY PREDICTED BY IDOCK:   -3.46 KCAL/MOL
REMARK 922        TOTAL FREE ENERGY PREDICTED BY IDOCK:   -5.15 KCAL/MOL
REMARK 923 INTER-LIGAND FREE ENERGY PREDICTED BY IDOCK:   -4.23 KCAL/MOL
REMARK 924 INTRA-LIGAND FREE ENERGY PREDICTED BY IDOCK:   -0.92 KCAL/MOL
REMARK 927      BINDING AFFINITY PREDICTED BY RF-SCORE:    0.00 PKD
ROOT
HETATM    1  C   UNL     1     -11.389  14.981  64.864  1.00  0.00    -0.419 C  
HETATM    2  C   UNL     1     -12.158  14.172  65.900  1.00  0.00    -0.441 C  
ENDROOT
BRANCH   2   3
HETATM    3  C   UNL     1     -11.503  14.109  67.302  1.00  0.00    -0.350 C  
BRANCH   3   4
HETATM    4  N   UNL     1     -12.356  14.571  68.416  1.00  0.00    -0.605 NA 
HETATM    5  H   UNL     1     -13.189  14.049  68.686  1.00  0.00     0.000 HD 
BRANCH   4   6
HETATM    6  C   UNL     1     -11.979  15.799  69.124  1.00  0.00    -0.296 C  
HETATM    7  C   UNL     1     -11.381  15.388  70.477  1.00  0.00    -0.351 C  
HETATM    8  C   UNL     1     -10.938  16.649  68.393  1.00  0.00    -0.345 C  
ENDBRANCH   4   6
ENDBRANCH   3   4
BRANCH   3   9
HETATM    9  C   UNL     1     -10.822  12.705  67.512  1.00  0.00    -0.239 C  
HETATM   10  H   UNL     1     -10.609  11.036  66.482  1.00  0.00     0.000 HD 
HETATM   11  O   UNL     1     -11.020  11.884  66.355  1.00  0.00    -0.267 OA 
BRANCH   9  12
HETATM   12  C   UNL     1      -9.332  12.694  67.812  1.00  0.00    -0.198 A  
HETATM   13  C   UNL     1      -8.500  11.604  67.509  1.00  0.00    -0.150 A  
HETATM   14  C   UNL     1      -7.141  11.658  67.818  1.00  0.00    -0.092 A  
HETATM   15  O   UNL     1      -6.296  10.623  67.530  1.00  0.00    -0.056 OA 
HETATM   16  C   UNL     1      -6.598  12.785  68.423  1.00  0.00    -0.083 A  
HETATM   17  H   UNL     1      -5.370  10.659  67.741  1.00  0.00     0.000 HD 
HETATM   18  C   UNL     1      -7.401  13.864  68.748  1.00  0.00    -0.118 A  
HETATM   19  O   UNL     1      -5.262  12.831  68.705  1.00  0.00    -0.055 OA 
HETATM   20  H   UNL     1      -4.890  13.601  69.118  1.00  0.00     0.000 HD 
HETATM   21  C   UNL     1      -8.764  13.815  68.453  1.00  0.00    -0.162 A  
ENDBRANCH   9  12
ENDBRANCH   3   9
ENDBRANCH   2   3
TORSDOF 5
ENDMDL
MODEL      247
REMARK 921   NORMALIZED FREE ENERGY PREDICTED BY IDOCK:   -3.46 KCAL/MOL
REMARK 922        TOTAL FREE ENERGY PREDICTED BY IDOCK:   -5.14 KCAL/MOL
REMARK 923 INTER-LIGAND FREE ENERGY PREDICTED BY IDOCK:   -4.58 KCAL/MOL
REMARK 924 INTRA-LIGAND FREE ENERGY PREDICTED BY IDOCK:   -0.56 KCAL/MOL
REMARK 927      BINDING AFFINITY PREDICTED BY RF-SCORE:    0.00 PKD
ROOT
HETATM    1  C   UNL     1     -11.789  12.276  64.558  1.00  0.00    -0.441 C  
HETATM    2  C   UNL     1     -10.583  12.052  65.462  1.00  0.00    -0.313 C  
ENDROOT
BRANCH   2   3
HETATM    3  C   UNL     1     -10.352  13.149  66.531  1.00  0.00    -0.283 C  
BRANCH   3   4
HETATM    4  N   UNL     1     -10.697  14.522  66.107  1.00  0.00    -0.303 NA 
HETATM    5  H   UNL     1     -11.669  14.796  65.970  1.00  0.00     0.000 HD 
BRANCH   4   6
HETATM    6  C   UNL     1      -9.609  15.481  65.888  1.00  0.00    -0.348 C  
HETATM    7  C   UNL     1     -10.179  16.888  66.113  1.00  0.00    -0.352 C  
HETATM    8  C   UNL     1      -8.418  15.303  66.831  1.00  0.00    -0.286 C  
ENDBRANCH   4   6
ENDBRANCH   3   4
BRANCH   3   9
HETATM    9  C   UNL     1     -10.967  12.694  67.907  1.00  0.00    -0.230 C  
HETATM   10  H   UNL     1     -12.749  12.210  68.601  1.00  0.00     0.000 HD 
HETATM   11  O   UNL     1     -12.378  12.484  67.770  1.00  0.00    -0.266 OA 
BRANCH   9  12
HETATM   12  C   UNL     1     -10.393  11.439  68.542  1.00  0.00    -0.219 A  
HETATM   13  C   UNL     1     -11.195  10.396  69.033  1.00  0.00    -0.289 A  
HETATM   14  C   UNL     1     -10.603   9.274  69.611  1.00  0.00    -0.229 A  
HETATM   15  O   UNL     1     -11.348   8.233  70.092  1.00  0.00    -0.413 OA 
HETATM   16  C   UNL     1      -9.220   9.174  69.705  1.00  0.00    -0.171 A  
HETATM   17  H   UNL     1     -10.945   7.468  70.486  1.00  0.00     0.000 HD 
HETATM   18  C   UNL     1      -8.409  10.197  69.246  1.00  0.00    -0.160 A  
HETATM   19  O   UNL     1      -8.652   8.062  70.259  1.00  0.00    -0.129 OA 
HETATM   20  H   UNL     1      -7.707   7.993  70.323  1.00  0.00     0.000 HD 
HETATM   21  C   UNL     1      -8.994  11.329  68.675  1.00  0.00    -0.148 A  
ENDBRANCH   9  12
ENDBRANCH   3   9
ENDBRANCH   2   3
TORSDOF 5
ENDMDL
MODEL      248
REMARK 921   NORMALIZED FREE ENERGY PREDICTED BY IDOCK:   -3.44 KCAL/MOL
REMARK 922        TOTAL FREE ENERGY PREDICTED BY IDOCK:   -5.12 KCAL/MOL
REMARK 923 INTER-LIGAND FREE ENERGY PREDICTED BY IDOCK:   -4.67 KCAL/MOL
REMARK 924 INTRA-LIGAND FREE ENERGY PREDICTED BY IDOCK:   -0.45 KCAL/MOL
REMARK 927      BINDING AFFINITY PREDICTED BY RF-SCORE:    0.00 PKD
ROOT
HETATM    1  C   UNL     1     -10.577  12.477  65.591  1.00  0.00    -0.298 C  
HETATM    2  C   UNL     1     -10.453  12.615  67.103  1.00  0.00    -0.245 C  
ENDROOT
BRANCH   2   3
HETATM    3  C   UNL     1      -9.922  13.985  67.595  1.00  0.00    -0.237 C  
BRANCH   3   4
HETATM    4  N   UNL     1      -8.675  14.444  66.949  1.00  0.00    -0.320 NA 
HETATM    5  H   UNL     1      -8.506  14.270  65.959  1.00  0.00     0.000 HD 
BRANCH   4   6
HETATM    6  C   UNL     1      -7.686  15.156  67.765  1.00  0.00    -0.149 C  
HETATM    7  C   UNL     1      -7.967  14.818  69.235  1.00  0.00    -0.103 C  
HETATM    8  C   UNL     1      -6.236  14.772  67.467  1.00  0.00    -0.019 C  
ENDBRANCH   4   6
ENDBRANCH   3   4
BRANCH   3   9
HETATM    9  C   UNL     1     -11.094  15.035  67.621  1.00  0.00    -0.316 C  
HETATM   10  H   UNL     1     -12.433  15.670  68.924  1.00  0.00     0.000 HD 
HETATM   11  O   UNL     1     -11.725  15.036  68.908  1.00  0.00    -0.307 OA 
BRANCH   9  12
HETATM   12  C   UNL     1     -10.742  16.478  67.301  1.00  0.00    -0.243 A  
HETATM   13  C   UNL     1     -10.586  17.464  68.288  1.00  0.00    -0.366 A  
HETATM   14  C   UNL     1     -10.268  18.771  67.924  1.00  0.00    -0.396 A  
HETATM   15  O   UNL     1     -10.098  19.758  68.855  1.00  0.00    -0.464 OA 
HETATM   16  C   UNL     1     -10.100  19.112  66.586  1.00  0.00    -0.395 A  
HETATM   17  H   UNL     1      -9.881  20.649  68.607  1.00  0.00     0.000 HD 
HETATM   18  C   UNL     1     -10.266  18.162  65.594  1.00  0.00     0.049 A  
HETATM   19  O   UNL     1      -9.772  20.392  66.244  1.00  0.00    -0.619 OA 
HETATM   20  H   UNL     1      -9.657  20.625  65.331  1.00  0.00     0.000 HD 
HETATM   21  C   UNL     1     -10.595  16.852  65.949  1.00  0.00    -0.239 A  
ENDBRANCH   9  12
ENDBRANCH   3   9
ENDBRANCH   2   3
TORSDOF 5
ENDMDL
MODEL      249
REMARK 921   NORMALIZED FREE ENERGY PREDICTED BY IDOCK:   -3.43 KCAL/MOL
REMARK 922        TOTAL FREE ENERGY PREDICTED BY IDOCK:   -5.11 KCAL/MOL
REMARK 923 INTER-LIGAND FREE ENERGY PREDICTED BY IDOCK:   -4.45 KCAL/MOL
REMARK 924 INTRA-LIGAND FREE ENERGY PREDICTED BY IDOCK:   -0.66 KCAL/MOL
REMARK 927      BINDING AFFINITY PREDICTED BY RF-SCORE:    0.00 PKD
ROOT
HETATM    1  C   UNL     1      -6.910  12.073  69.164  1.00  0.00    -0.090 C  
HETATM    2  C   UNL     1      -7.288  10.614  68.940  1.00  0.00    -0.099 C  
ENDROOT
BRANCH   2   3
HETATM    3  C   UNL     1      -8.692  10.388  68.326  1.00  0.00    -0.128 C  
BRANCH   3   4
HETATM    4  N   UNL     1      -8.727  10.305  66.851  1.00  0.00    -0.126 NA 
HETATM    5  H   UNL     1      -9.376  10.878  66.313  1.00  0.00     0.000 HD 
BRANCH   4   6
HETATM    6  C   UNL     1      -7.807   9.381  66.180  1.00  0.00    -0.100 C  
HETATM    7  C   UNL     1      -8.656   8.331  65.449  1.00  0.00    -0.176 C  
HETATM    8  C   UNL     1      -6.896  10.045  65.147  1.00  0.00    -0.130 C  
ENDBRANCH   4   6
ENDBRANCH   3   4
BRANCH   3   9
HETATM    9  C   UNL     1      -9.425   9.219  69.084  1.00  0.00    -0.157 C  
HETATM   10  H   UNL     1      -8.926   7.764  70.319  1.00  0.00     0.000 HD 
HETATM   11  O   UNL     1      -8.484   8.469  69.861  1.00  0.00    -0.120 OA 
BRANCH   9  12
HETATM   12  C   UNL     1     -10.562   9.602  70.017  1.00  0.00    -0.300 A  
HETATM   13  C   UNL     1     -11.071   8.735  70.997  1.00  0.00    -0.328 A  
HETATM   14  C   UNL     1     -12.121   9.149  71.816  1.00  0.00    -0.376 A  
HETATM   15  O   UNL     1     -12.638   8.339  72.789  1.00  0.00    -0.617 OA 
HETATM   16  C   UNL     1     -12.671  10.418  71.674  1.00  0.00    -0.455 A  
HETATM   17  H   UNL     1     -13.354   8.621  73.348  1.00  0.00     0.000 HD 
HETATM   18  C   UNL     1     -12.199  11.283  70.704  1.00  0.00    -0.489 A  
HETATM   19  O   UNL     1     -13.687  10.816  72.494  1.00  0.00    -0.449 OA 
HETATM   20  H   UNL     1     -14.063  11.683  72.398  1.00  0.00     0.000 HD 
HETATM   21  C   UNL     1     -11.155  10.874  69.872  1.00  0.00    -0.311 A  
ENDBRANCH   9  12
ENDBRANCH   3   9
ENDBRANCH   2   3
TORSDOF 5
ENDMDL
MODEL      250
REMARK 921   NORMALIZED FREE ENERGY PREDICTED BY IDOCK:   -3.43 KCAL/MOL
REMARK 922        TOTAL FREE ENERGY PREDICTED BY IDOCK:   -5.11 KCAL/MOL
REMARK 923 INTER-LIGAND FREE ENERGY PREDICTED BY IDOCK:   -4.49 KCAL/MOL
REMARK 924 INTRA-LIGAND FREE ENERGY PREDICTED BY IDOCK:   -0.62 KCAL/MOL
REMARK 927      BINDING AFFINITY PREDICTED BY RF-SCORE:    0.00 PKD
ROOT
HETATM    1  C   UNL     1     -12.013  11.406  69.501  1.00  0.00    -0.409 C  
HETATM    2  C   UNL     1     -11.126  10.294  70.049  1.00  0.00    -0.373 C  
ENDROOT
BRANCH   2   3
HETATM    3  C   UNL     1     -10.159   9.659  69.019  1.00  0.00    -0.186 C  
BRANCH   3   4
HETATM    4  N   UNL     1     -10.786   8.723  68.063  1.00  0.00    -0.450 NA 
HETATM    5  H   UNL     1     -11.635   8.982  67.561  1.00  0.00     0.000 HD 
BRANCH   4   6
HETATM    6  C   UNL     1     -10.159   7.414  67.851  1.00  0.00    -0.178 C  
HETATM    7  C   UNL     1     -10.166   6.674  69.196  1.00  0.00    -0.201 C  
HETATM    8  C   UNL     1     -10.879   6.532  66.830  1.00  0.00    -0.427 C  
ENDBRANCH   4   6
ENDBRANCH   3   4
BRANCH   3   9
HETATM    9  C   UNL     1      -9.254  10.775  68.376  1.00  0.00    -0.164 C  
HETATM   10  H   UNL     1      -7.326  11.169  68.242  1.00  0.00     0.000 HD 
HETATM   11  O   UNL     1      -7.872  10.496  68.630  1.00  0.00    -0.102 OA 
BRANCH   9  12
HETATM   12  C   UNL     1      -9.390  11.003  66.879  1.00  0.00    -0.189 A  
HETATM   13  C   UNL     1      -8.761  10.191  65.923  1.00  0.00    -0.159 A  
HETATM   14  C   UNL     1      -8.924  10.460  64.564  1.00  0.00    -0.216 A  
HETATM   15  O   UNL     1      -8.337   9.687  63.601  1.00  0.00    -0.146 OA 
HETATM   16  C   UNL     1      -9.707  11.529  64.144  1.00  0.00    -0.211 A  
HETATM   17  H   UNL     1      -8.447   9.871  62.675  1.00  0.00     0.000 HD 
HETATM   18  C   UNL     1     -10.322  12.355  65.069  1.00  0.00    -0.319 A  
HETATM   19  O   UNL     1      -9.871  11.772  62.811  1.00  0.00    -0.518 OA 
HETATM   20  H   UNL     1     -10.407  12.502  62.523  1.00  0.00     0.000 HD 
HETATM   21  C   UNL     1     -10.156  12.099  66.431  1.00  0.00    -0.242 A  
ENDBRANCH   9  12
ENDBRANCH   3   9
ENDBRANCH   2   3
TORSDOF 5
ENDMDL
MODEL      251
REMARK 921   NORMALIZED FREE ENERGY PREDICTED BY IDOCK:   -3.43 KCAL/MOL
REMARK 922        TOTAL FREE ENERGY PREDICTED BY IDOCK:   -5.10 KCAL/MOL
REMARK 923 INTER-LIGAND FREE ENERGY PREDICTED BY IDOCK:   -4.66 KCAL/MOL
REMARK 924 INTRA-LIGAND FREE ENERGY PREDICTED BY IDOCK:   -0.44 KCAL/MOL
REMARK 927      BINDING AFFINITY PREDICTED BY RF-SCORE:    0.00 PKD
ROOT
HETATM    1  C   UNL     1      -8.126  10.968  68.650  1.00  0.00    -0.149 C  
HETATM    2  C   UNL     1      -9.329  10.562  67.809  1.00  0.00    -0.158 C  
ENDROOT
BRANCH   2   3
HETATM    3  C   UNL     1     -10.632  10.309  68.607  1.00  0.00    -0.208 C  
BRANCH   3   4
HETATM    4  N   UNL     1     -11.842  10.955  68.058  1.00  0.00    -0.759 NA 
HETATM    5  H   UNL     1     -12.558  10.405  67.585  1.00  0.00     0.000 HD 
BRANCH   4   6
HETATM    6  C   UNL     1     -11.989  12.407  68.208  1.00  0.00    -0.214 C  
HETATM    7  C   UNL     1     -11.796  12.741  69.693  1.00  0.00    -0.384 C  
HETATM    8  C   UNL     1     -10.972  13.225  67.410  1.00  0.00    -0.287 C  
ENDBRANCH   4   6
ENDBRANCH   3   4
BRANCH   3   9
HETATM    9  C   UNL     1     -10.774   8.774  68.926  1.00  0.00    -0.087 C  
HETATM   10  H   UNL     1      -9.867   7.102  68.403  1.00  0.00     0.000 HD 
HETATM   11  O   UNL     1      -9.781   8.029  68.211  1.00  0.00    -0.157 OA 
BRANCH   9  12
HETATM   12  C   UNL     1     -10.677   8.355  70.383  1.00  0.00    -0.244 A  
HETATM   13  C   UNL     1      -9.554   7.702  70.917  1.00  0.00    -0.167 A  
HETATM   14  C   UNL     1      -9.533   7.340  72.263  1.00  0.00    -0.142 A  
HETATM   15  O   UNL     1      -8.456   6.712  72.824  1.00  0.00    -0.119 OA 
HETATM   16  C   UNL     1     -10.617   7.621  73.088  1.00  0.00    -0.379 A  
HETATM   17  H   UNL     1      -8.441   6.465  73.741  1.00  0.00     0.000 HD 
HETATM   18  C   UNL     1     -11.741   8.246  72.581  1.00  0.00    -0.406 A  
HETATM   19  O   UNL     1     -10.576   7.275  74.409  1.00  0.00    -0.464 OA 
HETATM   20  H   UNL     1     -11.316   7.467  74.973  1.00  0.00     0.000 HD 
HETATM   21  C   UNL     1     -11.776   8.604  71.231  1.00  0.00    -0.341 A  
ENDBRANCH   9  12
ENDBRANCH   3   9
ENDBRANCH   2   3
TORSDOF 5
ENDMDL
MODEL      252
REMARK 921   NORMALIZED FREE ENERGY PREDICTED BY IDOCK:   -3.40 KCAL/MOL
REMARK 922        TOTAL FREE ENERGY PREDICTED BY IDOCK:   -5.06 KCAL/MOL
REMARK 923 INTER-LIGAND FREE ENERGY PREDICTED BY IDOCK:   -4.53 KCAL/MOL
REMARK 924 INTRA-LIGAND FREE ENERGY PREDICTED BY IDOCK:   -0.53 KCAL/MOL
REMARK 927      BINDING AFFINITY PREDICTED BY RF-SCORE:    0.00 PKD
ROOT
HETATM    1  C   UNL     1     -10.471   8.524  72.151  1.00  0.00    -0.412 C  
HETATM    2  C   UNL     1     -11.089   8.190  70.799  1.00  0.00    -0.275 C  
ENDROOT
BRANCH   2   3
HETATM    3  C   UNL     1     -10.918   9.281  69.712  1.00  0.00    -0.196 C  
BRANCH   3   4
HETATM    4  N   UNL     1     -10.832  10.666  70.220  1.00  0.00    -0.459 NA 
HETATM    5  H   UNL     1      -9.978  11.008  70.657  1.00  0.00     0.000 HD 
BRANCH   4   6
HETATM    6  C   UNL     1     -12.004  11.536  70.080  1.00  0.00    -0.369 C  
HETATM    7  C   UNL     1     -12.973  11.196  71.221  1.00  0.00    -0.457 C  
HETATM    8  C   UNL     1     -11.688  13.030  70.167  1.00  0.00    -0.244 C  
ENDBRANCH   4   6
ENDBRANCH   3   4
BRANCH   3   9
HETATM    9  C   UNL     1      -9.783   8.860  68.706  1.00  0.00    -0.164 C  
HETATM   10  H   UNL     1      -7.811   8.867  68.670  1.00  0.00     0.000 HD 
HETATM   11  O   UNL     1      -8.496   9.121  69.278  1.00  0.00    -0.124 OA 
BRANCH   9  12
HETATM   12  C   UNL     1      -9.773   7.415  68.235  1.00  0.00    -0.159 A  
HETATM   13  C   UNL     1      -8.917   6.442  68.776  1.00  0.00    -0.126 A  
HETATM   14  C   UNL     1      -8.955   5.135  68.293  1.00  0.00    -0.110 A  
HETATM   15  O   UNL     1      -8.145   4.156  68.799  1.00  0.00    -0.071 OA 
HETATM   16  C   UNL     1      -9.837   4.781  67.278  1.00  0.00    -0.184 A  
HETATM   17  H   UNL     1      -8.171   3.265  68.470  1.00  0.00     0.000 HD 
HETATM   18  C   UNL     1     -10.677   5.726  66.717  1.00  0.00    -0.369 A  
HETATM   19  O   UNL     1      -9.875   3.493  66.826  1.00  0.00    -0.398 OA 
HETATM   20  H   UNL     1     -10.478   3.251  66.133  1.00  0.00     0.000 HD 
HETATM   21  C   UNL     1     -10.639   7.041  67.187  1.00  0.00    -0.412 A  
ENDBRANCH   9  12
ENDBRANCH   3   9
ENDBRANCH   2   3
TORSDOF 5
ENDMDL
MODEL      253
REMARK 921   NORMALIZED FREE ENERGY PREDICTED BY IDOCK:   -3.40 KCAL/MOL
REMARK 922        TOTAL FREE ENERGY PREDICTED BY IDOCK:   -5.06 KCAL/MOL
REMARK 923 INTER-LIGAND FREE ENERGY PREDICTED BY IDOCK:   -4.40 KCAL/MOL
REMARK 924 INTRA-LIGAND FREE ENERGY PREDICTED BY IDOCK:   -0.66 KCAL/MOL
REMARK 927      BINDING AFFINITY PREDICTED BY RF-SCORE:    0.00 PKD
ROOT
HETATM    1  C   UNL     1      -8.449   8.696  71.392  1.00  0.00    -0.240 C  
HETATM    2  C   UNL     1      -9.509   7.611  71.529  1.00  0.00    -0.166 C  
ENDROOT
BRANCH   2   3
HETATM    3  C   UNL     1      -9.037   6.182  71.163  1.00  0.00    -0.146 C  
BRANCH   3   4
HETATM    4  N   UNL     1     -10.048   5.121  71.343  1.00  0.00    -0.192 NA 
HETATM    5  H   UNL     1     -10.781   4.976  70.649  1.00  0.00     0.000 HD 
BRANCH   4   6
HETATM    6  C   UNL     1      -9.975   4.280  72.542  1.00  0.00    -0.160 C  
HETATM    7  C   UNL     1     -11.281   4.476  73.325  1.00  0.00    -0.388 C  
HETATM    8  C   UNL     1      -9.825   2.786  72.252  1.00  0.00    -0.234 C  
ENDBRANCH   4   6
ENDBRANCH   3   4
BRANCH   3   9
HETATM    9  C   UNL     1      -8.319   6.199  69.762  1.00  0.00    -0.124 C  
HETATM   10  H   UNL     1      -6.715   5.383  68.952  1.00  0.00     0.000 HD 
HETATM   11  O   UNL     1      -7.149   5.373  69.798  1.00  0.00    -0.059 OA 
BRANCH   9  12
HETATM   12  C   UNL     1      -9.134   5.758  68.558  1.00  0.00    -0.116 A  
HETATM   13  C   UNL     1      -8.967   4.509  67.938  1.00  0.00    -0.133 A  
HETATM   14  C   UNL     1      -9.746   4.171  66.832  1.00  0.00    -0.205 A  
HETATM   15  O   UNL     1      -9.621   2.961  66.207  1.00  0.00    -0.389 OA 
HETATM   16  C   UNL     1     -10.691   5.059  66.334  1.00  0.00    -0.178 A  
HETATM   17  H   UNL     1     -10.151   2.730  65.453  1.00  0.00     0.000 HD 
HETATM   18  C   UNL     1     -10.861   6.303  66.916  1.00  0.00    -0.428 A  
HETATM   19  O   UNL     1     -11.459   4.708  65.260  1.00  0.00    -1.070 OA 
HETATM   20  H   UNL     1     -12.105   5.315  64.920  1.00  0.00     0.000 HD 
HETATM   21  C   UNL     1     -10.079   6.655  68.018  1.00  0.00    -0.175 A  
ENDBRANCH   9  12
ENDBRANCH   3   9
ENDBRANCH   2   3
TORSDOF 5
ENDMDL
MODEL      254
REMARK 921   NORMALIZED FREE ENERGY PREDICTED BY IDOCK:   -3.37 KCAL/MOL
REMARK 922        TOTAL FREE ENERGY PREDICTED BY IDOCK:   -5.03 KCAL/MOL
REMARK 923 INTER-LIGAND FREE ENERGY PREDICTED BY IDOCK:   -4.33 KCAL/MOL
REMARK 924 INTRA-LIGAND FREE ENERGY PREDICTED BY IDOCK:   -0.70 KCAL/MOL
REMARK 927      BINDING AFFINITY PREDICTED BY RF-SCORE:    0.00 PKD
ROOT
HETATM    1  C   UNL     1      -8.940   7.637  68.716  1.00  0.00    -0.133 C  
HETATM    2  C   UNL     1      -8.997   9.132  68.427  1.00  0.00    -0.133 C  
ENDROOT
BRANCH   2   3
HETATM    3  C   UNL     1     -10.341   9.817  68.779  1.00  0.00    -0.208 C  
BRANCH   3   4
HETATM    4  N   UNL     1     -10.499  10.200  70.197  1.00  0.00    -0.353 NA 
HETATM    5  H   UNL     1      -9.815  10.803  70.654  1.00  0.00     0.000 HD 
BRANCH   4   6
HETATM    6  C   UNL     1     -11.661   9.693  70.934  1.00  0.00    -0.334 C  
HETATM    7  C   UNL     1     -11.145   8.718  72.001  1.00  0.00    -0.441 C  
HETATM    8  C   UNL     1     -12.472  10.777  71.647  1.00  0.00    -0.381 C  
ENDBRANCH   4   6
ENDBRANCH   3   4
BRANCH   3   9
HETATM    9  C   UNL     1     -10.651  10.954  67.735  1.00  0.00    -0.217 C  
HETATM   10  H   UNL     1     -12.240  11.667  66.808  1.00  0.00     0.000 HD 
HETATM   11  O   UNL     1     -12.053  10.981  67.438  1.00  0.00    -0.231 OA 
BRANCH   9  12
HETATM   12  C   UNL     1     -10.252  12.371  68.112  1.00  0.00    -0.225 A  
HETATM   13  C   UNL     1     -11.175  13.331  68.557  1.00  0.00    -0.304 A  
HETATM   14  C   UNL     1     -10.741  14.617  68.881  1.00  0.00    -0.248 A  
HETATM   15  O   UNL     1     -11.606  15.578  69.328  1.00  0.00    -0.311 OA 
HETATM   16  C   UNL     1      -9.399  14.959  68.769  1.00  0.00    -0.203 A  
HETATM   17  H   UNL     1     -11.311  16.453  69.549  1.00  0.00     0.000 HD 
HETATM   18  C   UNL     1      -8.474  14.036  68.315  1.00  0.00    -0.171 A  
HETATM   19  O   UNL     1      -8.985  16.217  69.106  1.00  0.00    -0.242 OA 
HETATM   20  H   UNL     1      -8.068  16.451  69.030  1.00  0.00     0.000 HD 
HETATM   21  C   UNL     1      -8.900  12.749  67.979  1.00  0.00    -0.195 A  
ENDBRANCH   9  12
ENDBRANCH   3   9
ENDBRANCH   2   3
TORSDOF 5
ENDMDL
MODEL      255
REMARK 921   NORMALIZED FREE ENERGY PREDICTED BY IDOCK:   -3.37 KCAL/MOL
REMARK 922        TOTAL FREE ENERGY PREDICTED BY IDOCK:   -5.02 KCAL/MOL
REMARK 923 INTER-LIGAND FREE ENERGY PREDICTED BY IDOCK:   -4.29 KCAL/MOL
REMARK 924 INTRA-LIGAND FREE ENERGY PREDICTED BY IDOCK:   -0.73 KCAL/MOL
REMARK 927      BINDING AFFINITY PREDICTED BY RF-SCORE:    0.00 PKD
ROOT
HETATM    1  C   UNL     1      -6.700  11.906  69.033  1.00  0.00    -0.099 C  
HETATM    2  C   UNL     1      -6.829  10.651  68.179  1.00  0.00    -0.068 C  
ENDROOT
BRANCH   2   3
HETATM    3  C   UNL     1      -8.274  10.118  68.010  1.00  0.00    -0.113 C  
BRANCH   3   4
HETATM    4  N   UNL     1      -8.843  10.264  66.655  1.00  0.00    -0.136 NA 
HETATM    5  H   UNL     1      -8.535   9.661  65.893  1.00  0.00     0.000 HD 
BRANCH   4   6
HETATM    6  C   UNL     1      -9.860  11.297  66.430  1.00  0.00    -0.211 C  
HETATM    7  C   UNL     1     -10.219  11.277  64.937  1.00  0.00    -0.341 C  
HETATM    8  C   UNL     1     -11.151  11.087  67.222  1.00  0.00    -0.359 C  
ENDBRANCH   4   6
ENDBRANCH   3   4
BRANCH   3   9
HETATM    9  C   UNL     1      -8.390   8.680  68.639  1.00  0.00    -0.122 C  
HETATM   10  H   UNL     1      -7.181   7.377  69.496  1.00  0.00     0.000 HD 
HETATM   11  O   UNL     1      -7.111   8.246  69.116  1.00  0.00    -0.061 OA 
BRANCH   9  12
HETATM   12  C   UNL     1      -9.373   8.500  69.784  1.00  0.00    -0.161 A  
HETATM   13  C   UNL     1     -10.665   7.980  69.607  1.00  0.00    -0.207 A  
HETATM   14  C   UNL     1     -11.519   7.847  70.701  1.00  0.00    -0.238 A  
HETATM   15  O   UNL     1     -12.781   7.336  70.573  1.00  0.00    -0.593 OA 
HETATM   16  C   UNL     1     -11.103   8.224  71.973  1.00  0.00    -0.311 A  
HETATM   17  H   UNL     1     -13.363   7.246  71.319  1.00  0.00     0.000 HD 
HETATM   18  C   UNL     1      -9.841   8.757  72.169  1.00  0.00    -0.347 A  
HETATM   19  O   UNL     1     -11.943   8.074  73.039  1.00  0.00    -0.626 OA 
HETATM   20  H   UNL     1     -11.659   8.331  73.908  1.00  0.00     0.000 HD 
HETATM   21  C   UNL     1      -8.982   8.903  71.078  1.00  0.00    -0.298 A  
ENDBRANCH   9  12
ENDBRANCH   3   9
ENDBRANCH   2   3
TORSDOF 5
ENDMDL
MODEL      256
REMARK 921   NORMALIZED FREE ENERGY PREDICTED BY IDOCK:   -3.35 KCAL/MOL
REMARK 922        TOTAL FREE ENERGY PREDICTED BY IDOCK:   -5.01 KCAL/MOL
REMARK 923 INTER-LIGAND FREE ENERGY PREDICTED BY IDOCK:   -4.41 KCAL/MOL
REMARK 924 INTRA-LIGAND FREE ENERGY PREDICTED BY IDOCK:   -0.59 KCAL/MOL
REMARK 927      BINDING AFFINITY PREDICTED BY RF-SCORE:    0.00 PKD
ROOT
HETATM    1  C   UNL     1      -8.519   8.639  71.603  1.00  0.00    -0.230 C  
HETATM    2  C   UNL     1      -9.473   8.871  70.438  1.00  0.00    -0.227 C  
ENDROOT
BRANCH   2   3
HETATM    3  C   UNL     1     -10.393   7.672  70.096  1.00  0.00    -0.217 C  
BRANCH   3   4
HETATM    4  N   UNL     1     -11.831   7.889  70.355  1.00  0.00    -0.472 NA 
HETATM    5  H   UNL     1     -12.443   8.252  69.624  1.00  0.00     0.000 HD 
BRANCH   4   6
HETATM    6  C   UNL     1     -12.359   7.573  71.686  1.00  0.00    -0.333 C  
HETATM    7  C   UNL     1     -13.873   7.363  71.546  1.00  0.00    -0.483 C  
HETATM    8  C   UNL     1     -11.768   6.307  72.309  1.00  0.00    -0.344 C  
ENDBRANCH   4   6
ENDBRANCH   3   4
BRANCH   3   9
HETATM    9  C   UNL     1     -10.041   7.119  68.665  1.00  0.00    -0.173 C  
HETATM   10  H   UNL     1     -10.961   6.105  67.243  1.00  0.00     0.000 HD 
HETATM   11  O   UNL     1     -11.173   6.439  68.108  1.00  0.00    -0.312 OA 
BRANCH   9  12
HETATM   12  C   UNL     1      -9.575   8.126  67.626  1.00  0.00    -0.186 A  
HETATM   13  C   UNL     1      -8.246   8.206  67.184  1.00  0.00    -0.120 A  
HETATM   14  C   UNL     1      -7.884   9.160  66.232  1.00  0.00    -0.103 A  
HETATM   15  O   UNL     1      -6.603   9.264  65.767  1.00  0.00    -0.067 OA 
HETATM   16  C   UNL     1      -8.832  10.034  65.713  1.00  0.00    -0.150 A  
HETATM   17  H   UNL     1      -6.356   9.913  65.119  1.00  0.00     0.000 HD 
HETATM   18  C   UNL     1     -10.144   9.987  66.147  1.00  0.00    -0.317 A  
HETATM   19  O   UNL     1      -8.468  10.952  64.769  1.00  0.00    -0.347 OA 
HETATM   20  H   UNL     1      -9.115  11.550  64.414  1.00  0.00     0.000 HD 
HETATM   21  C   UNL     1     -10.513   9.043  67.107  1.00  0.00    -0.333 A  
ENDBRANCH   9  12
ENDBRANCH   3   9
ENDBRANCH   2   3
TORSDOF 5
ENDMDL
MODEL      257
REMARK 921   NORMALIZED FREE ENERGY PREDICTED BY IDOCK:   -3.35 KCAL/MOL
REMARK 922        TOTAL FREE ENERGY PREDICTED BY IDOCK:   -5.00 KCAL/MOL
REMARK 923 INTER-LIGAND FREE ENERGY PREDICTED BY IDOCK:   -4.05 KCAL/MOL
REMARK 924 INTRA-LIGAND FREE ENERGY PREDICTED BY IDOCK:   -0.95 KCAL/MOL
REMARK 927      BINDING AFFINITY PREDICTED BY RF-SCORE:    0.00 PKD
ROOT
HETATM    1  C   UNL     1      -9.837  15.089  67.832  1.00  0.00    -0.217 C  
HETATM    2  C   UNL     1      -9.959  13.924  66.857  1.00  0.00    -0.264 C  
ENDROOT
BRANCH   2   3
HETATM    3  C   UNL     1     -11.063  12.893  67.203  1.00  0.00    -0.275 C  
BRANCH   3   4
HETATM    4  N   UNL     1     -11.377  11.927  66.131  1.00  0.00    -0.339 NA 
HETATM    5  H   UNL     1     -12.227  11.366  66.168  1.00  0.00     0.000 HD 
BRANCH   4   6
HETATM    6  C   UNL     1     -10.439  11.793  65.012  1.00  0.00    -0.285 C  
HETATM    7  C   UNL     1      -9.971  10.331  64.971  1.00  0.00    -0.393 C  
HETATM    8  C   UNL     1     -11.040  12.128  63.646  1.00  0.00    -0.528 C  
ENDBRANCH   4   6
ENDBRANCH   3   4
BRANCH   3   9
HETATM    9  C   UNL     1     -10.782  12.263  68.618  1.00  0.00    -0.233 C  
HETATM   10  H   UNL     1     -11.839  11.740  70.199  1.00  0.00     0.000 HD 
HETATM   11  O   UNL     1     -12.008  12.120  69.345  1.00  0.00    -0.303 OA 
BRANCH   9  12
HETATM   12  C   UNL     1     -10.088  10.912  68.651  1.00  0.00    -0.200 A  
HETATM   13  C   UNL     1      -8.707  10.757  68.455  1.00  0.00    -0.142 A  
HETATM   14  C   UNL     1      -8.136   9.486  68.492  1.00  0.00    -0.101 A  
HETATM   15  O   UNL     1      -6.793   9.293  68.316  1.00  0.00    -0.063 OA 
HETATM   16  C   UNL     1      -8.922   8.363  68.724  1.00  0.00    -0.140 A  
HETATM   17  H   UNL     1      -6.404   8.427  68.341  1.00  0.00     0.000 HD 
HETATM   18  C   UNL     1     -10.289   8.489  68.902  1.00  0.00    -0.226 A  
HETATM   19  O   UNL     1      -8.348   7.126  68.775  1.00  0.00    -0.124 OA 
HETATM   20  H   UNL     1      -8.885   6.359  68.934  1.00  0.00     0.000 HD 
HETATM   21  C   UNL     1     -10.871   9.757  68.856  1.00  0.00    -0.220 A  
ENDBRANCH   9  12
ENDBRANCH   3   9
ENDBRANCH   2   3
TORSDOF 5
ENDMDL
MODEL      258
REMARK 921   NORMALIZED FREE ENERGY PREDICTED BY IDOCK:   -3.34 KCAL/MOL
REMARK 922        TOTAL FREE ENERGY PREDICTED BY IDOCK:   -4.99 KCAL/MOL
REMARK 923 INTER-LIGAND FREE ENERGY PREDICTED BY IDOCK:   -4.34 KCAL/MOL
REMARK 924 INTRA-LIGAND FREE ENERGY PREDICTED BY IDOCK:   -0.65 KCAL/MOL
REMARK 927      BINDING AFFINITY PREDICTED BY RF-SCORE:    0.00 PKD
ROOT
HETATM    1  C   UNL     1      -7.064  10.079  70.396  1.00  0.00    -0.131 C  
HETATM    2  C   UNL     1      -8.131   9.100  70.866  1.00  0.00    -0.201 C  
ENDROOT
BRANCH   2   3
HETATM    3  C   UNL     1      -9.242   8.794  69.831  1.00  0.00    -0.157 C  
BRANCH   3   4
HETATM    4  N   UNL     1      -9.013   7.595  68.999  1.00  0.00    -0.138 NA 
HETATM    5  H   UNL     1      -8.789   6.698  69.428  1.00  0.00     0.000 HD 
BRANCH   4   6
HETATM    6  C   UNL     1      -9.114   7.725  67.541  1.00  0.00    -0.129 C  
HETATM    7  C   UNL     1      -8.304   6.580  66.917  1.00  0.00    -0.113 C  
HETATM    8  C   UNL     1     -10.543   7.633  67.002  1.00  0.00    -0.406 C  
ENDBRANCH   4   6
ENDBRANCH   3   4
BRANCH   3   9
HETATM    9  C   UNL     1     -10.655   8.875  70.521  1.00  0.00    -0.220 C  
HETATM   10  H   UNL     1     -11.427   8.435  72.283  1.00  0.00     0.000 HD 
HETATM   11  O   UNL     1     -10.574   8.387  71.866  1.00  0.00    -0.251 OA 
BRANCH   9  12
HETATM   12  C   UNL     1     -11.318  10.241  70.587  1.00  0.00    -0.431 A  
HETATM   13  C   UNL     1     -12.112  10.653  71.669  1.00  0.00    -0.124 A  
HETATM   14  C   UNL     1     -12.697  11.919  71.662  1.00  0.00    -0.235 A  
HETATM   15  O   UNL     1     -13.468  12.362  72.701  1.00  0.00    -0.600 OA 
HETATM   16  C   UNL     1     -12.501  12.782  70.591  1.00  0.00    -0.246 A  
HETATM   17  H   UNL     1     -13.867  13.225  72.696  1.00  0.00     0.000 HD 
HETATM   18  C   UNL     1     -11.739  12.391  69.504  1.00  0.00    -0.388 A  
HETATM   19  O   UNL     1     -13.067  14.025  70.604  1.00  0.00    -0.260 OA 
HETATM   20  H   UNL     1     -12.933  14.616  69.872  1.00  0.00     0.000 HD 
HETATM   21  C   UNL     1     -11.157  11.122  69.498  1.00  0.00    -0.311 A  
ENDBRANCH   9  12
ENDBRANCH   3   9
ENDBRANCH   2   3
TORSDOF 5
ENDMDL
MODEL      259
REMARK 921   NORMALIZED FREE ENERGY PREDICTED BY IDOCK:   -3.34 KCAL/MOL
REMARK 922        TOTAL FREE ENERGY PREDICTED BY IDOCK:   -4.99 KCAL/MOL
REMARK 923 INTER-LIGAND FREE ENERGY PREDICTED BY IDOCK:   -4.19 KCAL/MOL
REMARK 924 INTRA-LIGAND FREE ENERGY PREDICTED BY IDOCK:   -0.79 KCAL/MOL
REMARK 927      BINDING AFFINITY PREDICTED BY RF-SCORE:    0.00 PKD
ROOT
HETATM    1  C   UNL     1      -9.622   8.486  67.997  1.00  0.00    -0.168 C  
HETATM    2  C   UNL     1     -10.600   9.649  67.890  1.00  0.00    -0.308 C  
ENDROOT
BRANCH   2   3
HETATM    3  C   UNL     1      -9.951  11.031  67.627  1.00  0.00    -0.173 C  
BRANCH   3   4
HETATM    4  N   UNL     1      -8.833  11.026  66.662  1.00  0.00    -0.159 NA 
HETATM    5  H   UNL     1      -8.977  10.723  65.699  1.00  0.00     0.000 HD 
BRANCH   4   6
HETATM    6  C   UNL     1      -7.512  11.468  67.118  1.00  0.00    -0.142 C  
HETATM    7  C   UNL     1      -7.558  11.562  68.650  1.00  0.00    -0.134 C  
HETATM    8  C   UNL     1      -6.370  10.521  66.744  1.00  0.00    -0.079 C  
ENDBRANCH   4   6
ENDBRANCH   3   4
BRANCH   3   9
HETATM    9  C   UNL     1     -11.070  12.105  67.359  1.00  0.00    -0.276 C  
HETATM   10  H   UNL     1     -13.034  12.127  67.177  1.00  0.00     0.000 HD 
HETATM   11  O   UNL     1     -12.359  11.479  67.339  1.00  0.00    -0.120 OA 
BRANCH   9  12
HETATM   12  C   UNL     1     -11.160  13.271  68.329  1.00  0.00    -0.294 A  
HETATM   13  C   UNL     1     -11.825  13.189  69.563  1.00  0.00    -0.383 A  
HETATM   14  C   UNL     1     -11.875  14.300  70.403  1.00  0.00    -0.305 A  
HETATM   15  O   UNL     1     -12.503  14.258  71.617  1.00  0.00    -0.338 OA 
HETATM   16  C   UNL     1     -11.270  15.495  70.032  1.00  0.00    -0.315 A  
HETATM   17  H   UNL     1     -12.538  15.016  72.190  1.00  0.00     0.000 HD 
HETATM   18  C   UNL     1     -10.625  15.606  68.813  1.00  0.00    -0.238 A  
HETATM   19  O   UNL     1     -11.312  16.571  70.872  1.00  0.00    -0.522 OA 
HETATM   20  H   UNL     1     -10.898  17.388  70.619  1.00  0.00     0.000 HD 
HETATM   21  C   UNL     1     -10.578  14.502  67.960  1.00  0.00    -0.237 A  
ENDBRANCH   9  12
ENDBRANCH   3   9
ENDBRANCH   2   3
TORSDOF 5
ENDMDL
MODEL      260
REMARK 921   NORMALIZED FREE ENERGY PREDICTED BY IDOCK:   -3.33 KCAL/MOL
REMARK 922        TOTAL FREE ENERGY PREDICTED BY IDOCK:   -4.98 KCAL/MOL
REMARK 923 INTER-LIGAND FREE ENERGY PREDICTED BY IDOCK:   -4.35 KCAL/MOL
REMARK 924 INTRA-LIGAND FREE ENERGY PREDICTED BY IDOCK:   -0.64 KCAL/MOL
REMARK 927      BINDING AFFINITY PREDICTED BY RF-SCORE:    0.00 PKD
ROOT
HETATM    1  C   UNL     1      -6.419   4.223  71.097  1.00  0.00    -0.029 C  
HETATM    2  C   UNL     1      -7.309   4.708  69.960  1.00  0.00    -0.054 C  
ENDROOT
BRANCH   2   3
HETATM    3  C   UNL     1      -8.088   6.016  70.249  1.00  0.00    -0.111 C  
BRANCH   3   4
HETATM    4  N   UNL     1      -7.458   7.249  69.737  1.00  0.00    -0.091 NA 
HETATM    5  H   UNL     1      -6.700   7.699  70.249  1.00  0.00     0.000 HD 
BRANCH   4   6
HETATM    6  C   UNL     1      -7.947   7.813  68.475  1.00  0.00    -0.122 C  
HETATM    7  C   UNL     1      -8.552   9.190  68.785  1.00  0.00    -0.131 C  
HETATM    8  C   UNL     1      -6.863   8.009  67.414  1.00  0.00    -0.070 C  
ENDBRANCH   4   6
ENDBRANCH   3   4
BRANCH   3   9
HETATM    9  C   UNL     1      -9.606   5.828  69.874  1.00  0.00    -0.159 C  
HETATM   10  H   UNL     1     -10.877   4.328  69.713  1.00  0.00     0.000 HD 
HETATM   11  O   UNL     1      -9.961   4.441  69.939  1.00  0.00    -0.222 OA 
BRANCH   9  12
HETATM   12  C   UNL     1     -10.626   6.585  70.708  1.00  0.00    -0.278 A  
HETATM   13  C   UNL     1     -12.007   6.529  70.461  1.00  0.00    -0.322 A  
HETATM   14  C   UNL     1     -12.888   7.255  71.262  1.00  0.00    -0.346 A  
HETATM   15  O   UNL     1     -14.240   7.219  71.061  1.00  0.00    -0.575 OA 
HETATM   16  C   UNL     1     -12.412   8.035  72.309  1.00  0.00    -0.261 A  
HETATM   17  H   UNL     1     -14.841   7.714  71.606  1.00  0.00     0.000 HD 
HETATM   18  C   UNL     1     -11.055   8.121  72.560  1.00  0.00    -0.446 A  
HETATM   19  O   UNL     1     -13.288   8.728  73.096  1.00  0.00    -0.918 OA 
HETATM   20  H   UNL     1     -12.963   9.261  73.811  1.00  0.00     0.000 HD 
HETATM   21  C   UNL     1     -10.164   7.406  71.757  1.00  0.00    -0.212 A  
ENDBRANCH   9  12
ENDBRANCH   3   9
ENDBRANCH   2   3
TORSDOF 5
ENDMDL
MODEL      261
REMARK 921   NORMALIZED FREE ENERGY PREDICTED BY IDOCK:   -3.33 KCAL/MOL
REMARK 922        TOTAL FREE ENERGY PREDICTED BY IDOCK:   -4.98 KCAL/MOL
REMARK 923 INTER-LIGAND FREE ENERGY PREDICTED BY IDOCK:   -4.20 KCAL/MOL
REMARK 924 INTRA-LIGAND FREE ENERGY PREDICTED BY IDOCK:   -0.78 KCAL/MOL
REMARK 927      BINDING AFFINITY PREDICTED BY RF-SCORE:    0.00 PKD
ROOT
HETATM    1  C   UNL     1     -12.253  14.787  64.568  1.00  0.00    -0.443 C  
HETATM    2  C   UNL     1     -11.363  13.589  64.262  1.00  0.00    -0.402 C  
ENDROOT
BRANCH   2   3
HETATM    3  C   UNL     1     -11.003  12.710  65.486  1.00  0.00    -0.279 C  
BRANCH   3   4
HETATM    4  N   UNL     1     -11.854  12.911  66.676  1.00  0.00    -0.392 NA 
HETATM    5  H   UNL     1     -12.870  12.878  66.602  1.00  0.00     0.000 HD 
BRANCH   4   6
HETATM    6  C   UNL     1     -11.204  13.161  67.967  1.00  0.00    -0.277 C  
HETATM    7  C   UNL     1     -10.042  14.134  67.721  1.00  0.00    -0.239 C  
HETATM    8  C   UNL     1     -12.121  13.788  69.019  1.00  0.00    -0.359 C  
ENDBRANCH   4   6
ENDBRANCH   3   4
BRANCH   3   9
HETATM    9  C   UNL     1     -10.818  11.213  65.035  1.00  0.00    -0.173 C  
HETATM   10  H   UNL     1     -10.556  10.240  63.339  1.00  0.00     0.000 HD 
HETATM   11  O   UNL     1     -10.667  11.143  63.611  1.00  0.00    -0.377 OA 
BRANCH   9  12
HETATM   12  C   UNL     1      -9.656  10.444  65.640  1.00  0.00    -0.281 A  
HETATM   13  C   UNL     1      -9.642   9.044  65.751  1.00  0.00    -0.287 A  
HETATM   14  C   UNL     1      -8.545   8.401  66.323  1.00  0.00    -0.135 A  
HETATM   15  O   UNL     1      -8.488   7.040  66.441  1.00  0.00    -0.118 OA 
HETATM   16  C   UNL     1      -7.458   9.134  66.786  1.00  0.00    -0.087 A  
HETATM   17  H   UNL     1      -7.740   6.602  66.831  1.00  0.00     0.000 HD 
HETATM   18  C   UNL     1      -7.457  10.515  66.705  1.00  0.00    -0.120 A  
HETATM   19  O   UNL     1      -6.383   8.491  67.330  1.00  0.00    -0.055 OA 
HETATM   20  H   UNL     1      -5.640   8.991  67.646  1.00  0.00     0.000 HD 
HETATM   21  C   UNL     1      -8.555  11.169  66.143  1.00  0.00    -0.172 A  
ENDBRANCH   9  12
ENDBRANCH   3   9
ENDBRANCH   2   3
TORSDOF 5
ENDMDL
MODEL      262
REMARK 921   NORMALIZED FREE ENERGY PREDICTED BY IDOCK:   -3.33 KCAL/MOL
REMARK 922        TOTAL FREE ENERGY PREDICTED BY IDOCK:   -4.98 KCAL/MOL
REMARK 923 INTER-LIGAND FREE ENERGY PREDICTED BY IDOCK:   -5.07 KCAL/MOL
REMARK 924 INTRA-LIGAND FREE ENERGY PREDICTED BY IDOCK:    0.09 KCAL/MOL
REMARK 927      BINDING AFFINITY PREDICTED BY RF-SCORE:    0.00 PKD
ROOT
HETATM    1  C   UNL     1     -11.311   5.771  71.989  1.00  0.00    -0.289 C  
HETATM    2  C   UNL     1     -11.903   6.422  70.745  1.00  0.00    -0.319 C  
ENDROOT
BRANCH   2   3
HETATM    3  C   UNL     1     -10.866   6.927  69.712  1.00  0.00    -0.259 C  
BRANCH   3   4
HETATM    4  N   UNL     1     -11.344   6.979  68.315  1.00  0.00    -0.468 NA 
HETATM    5  H   UNL     1     -12.005   7.696  68.016  1.00  0.00     0.000 HD 
BRANCH   4   6
HETATM    6  C   UNL     1     -10.848   5.976  67.367  1.00  0.00    -0.303 C  
HETATM    7  C   UNL     1      -9.869   6.680  66.417  1.00  0.00    -0.101 C  
HETATM    8  C   UNL     1     -10.105   4.810  68.022  1.00  0.00    -0.112 C  
ENDBRANCH   4   6
ENDBRANCH   3   4
BRANCH   3   9
HETATM    9  C   UNL     1     -10.182   8.243  70.240  1.00  0.00    -0.196 C  
HETATM   10  H   UNL     1      -8.930   9.599  69.542  1.00  0.00     0.000 HD 
HETATM   11  O   UNL     1      -9.343   8.804  69.223  1.00  0.00    -0.148 OA 
BRANCH   9  12
HETATM   12  C   UNL     1     -11.098   9.357  70.720  1.00  0.00    -0.365 A  
HETATM   13  C   UNL     1     -11.077  10.651  70.176  1.00  0.00    -0.341 A  
HETATM   14  C   UNL     1     -11.941  11.628  70.669  1.00  0.00    -0.257 A  
HETATM   15  O   UNL     1     -11.959  12.897  70.160  1.00  0.00    -0.380 OA 
HETATM   16  C   UNL     1     -12.829  11.334  71.696  1.00  0.00    -0.405 A  
HETATM   17  H   UNL     1     -12.548  13.564  70.495  1.00  0.00     0.000 HD 
HETATM   18  C   UNL     1     -12.856  10.071  72.261  1.00  0.00    -0.306 A  
HETATM   19  O   UNL     1     -13.682  12.295  72.158  1.00  0.00    -0.381 OA 
HETATM   20  H   UNL     1     -14.289  12.094  72.860  1.00  0.00     0.000 HD 
HETATM   21  C   UNL     1     -11.987   9.089  71.781  1.00  0.00    -0.438 A  
ENDBRANCH   9  12
ENDBRANCH   3   9
ENDBRANCH   2   3
TORSDOF 5
ENDMDL
MODEL      263
REMARK 921   NORMALIZED FREE ENERGY PREDICTED BY IDOCK:   -3.32 KCAL/MOL
REMARK 922        TOTAL FREE ENERGY PREDICTED BY IDOCK:   -4.97 KCAL/MOL
REMARK 923 INTER-LIGAND FREE ENERGY PREDICTED BY IDOCK:   -4.78 KCAL/MOL
REMARK 924 INTRA-LIGAND FREE ENERGY PREDICTED BY IDOCK:   -0.19 KCAL/MOL
REMARK 927      BINDING AFFINITY PREDICTED BY RF-SCORE:    0.00 PKD
ROOT
HETATM    1  C   UNL     1      -9.704   9.637  65.463  1.00  0.00    -0.372 C  
HETATM    2  C   UNL     1     -10.169  11.084  65.565  1.00  0.00    -0.327 C  
ENDROOT
BRANCH   2   3
HETATM    3  C   UNL     1     -10.154  11.679  66.996  1.00  0.00    -0.209 C  
BRANCH   3   4
HETATM    4  N   UNL     1     -10.730  10.810  68.043  1.00  0.00    -0.209 NA 
HETATM    5  H   UNL     1     -11.001   9.850  67.833  1.00  0.00     0.000 HD 
BRANCH   4   6
HETATM    6  C   UNL     1     -10.903  11.361  69.391  1.00  0.00    -0.162 C  
HETATM    7  C   UNL     1     -11.635  12.703  69.254  1.00  0.00    -0.376 C  
HETATM    8  C   UNL     1     -11.727  10.475  70.328  1.00  0.00    -0.420 C  
ENDBRANCH   4   6
ENDBRANCH   3   4
BRANCH   3   9
HETATM    9  C   UNL     1      -8.730  12.267  67.316  1.00  0.00    -0.188 C  
HETATM   10  H   UNL     1      -6.864  11.893  66.795  1.00  0.00     0.000 HD 
HETATM   11  O   UNL     1      -7.724  11.538  66.601  1.00  0.00    -0.151 OA 
BRANCH   9  12
HETATM   12  C   UNL     1      -8.504  13.740  67.018  1.00  0.00    -0.150 A  
HETATM   13  C   UNL     1      -9.417  14.521  66.292  1.00  0.00    -0.310 A  
HETATM   14  C   UNL     1      -9.143  15.867  66.049  1.00  0.00    -0.328 A  
HETATM   15  O   UNL     1     -10.011  16.664  65.355  1.00  0.00    -0.565 OA 
HETATM   16  C   UNL     1      -7.972  16.447  66.521  1.00  0.00    -0.307 A  
HETATM   17  H   UNL     1      -9.825  17.581  65.189  1.00  0.00     0.000 HD 
HETATM   18  C   UNL     1      -7.048  15.693  67.223  1.00  0.00    -0.242 A  
HETATM   19  O   UNL     1      -7.725  17.770  66.290  1.00  0.00    -0.257 OA 
HETATM   20  H   UNL     1      -6.924  18.167  66.613  1.00  0.00     0.000 HD 
HETATM   21  C   UNL     1      -7.308  14.342  67.462  1.00  0.00    -0.208 A  
ENDBRANCH   9  12
ENDBRANCH   3   9
ENDBRANCH   2   3
TORSDOF 5
ENDMDL
MODEL      264
REMARK 921   NORMALIZED FREE ENERGY PREDICTED BY IDOCK:   -3.32 KCAL/MOL
REMARK 922        TOTAL FREE ENERGY PREDICTED BY IDOCK:   -4.96 KCAL/MOL
REMARK 923 INTER-LIGAND FREE ENERGY PREDICTED BY IDOCK:   -6.01 KCAL/MOL
REMARK 924 INTRA-LIGAND FREE ENERGY PREDICTED BY IDOCK:    1.04 KCAL/MOL
REMARK 927      BINDING AFFINITY PREDICTED BY RF-SCORE:    0.00 PKD
ROOT
HETATM    1  C   UNL     1     -11.416  15.738  70.094  1.00  0.00    -0.366 C  
HETATM    2  C   UNL     1      -9.954  15.670  69.672  1.00  0.00    -0.290 C  
ENDROOT
BRANCH   2   3
HETATM    3  C   UNL     1      -9.705  15.800  68.148  1.00  0.00    -0.211 C  
BRANCH   3   4
HETATM    4  N   UNL     1      -8.740  16.848  67.757  1.00  0.00    -0.210 NA 
HETATM    5  H   UNL     1      -9.019  17.608  67.136  1.00  0.00     0.000 HD 
BRANCH   4   6
HETATM    6  C   UNL     1      -7.373  16.772  68.280  1.00  0.00    -0.183 C  
HETATM    7  C   UNL     1      -7.350  15.681  69.360  1.00  0.00    -0.216 C  
HETATM    8  C   UNL     1      -6.319  16.412  67.231  1.00  0.00    -0.215 C  
ENDBRANCH   4   6
ENDBRANCH   3   4
BRANCH   3   9
HETATM    9  C   UNL     1      -9.445  14.378  67.525  1.00  0.00    -0.207 C  
HETATM   10  H   UNL     1      -9.288  12.523  68.179  1.00  0.00     0.000 HD 
HETATM   11  O   UNL     1      -9.445  13.382  68.555  1.00  0.00    -0.200 OA 
BRANCH   9  12
HETATM   12  C   UNL     1     -10.410  13.903  66.451  1.00  0.00    -0.289 A  
HETATM   13  C   UNL     1     -11.019  14.773  65.533  1.00  0.00    -0.350 A  
HETATM   14  C   UNL     1     -11.900  14.271  64.577  1.00  0.00    -0.442 A  
HETATM   15  O   UNL     1     -12.506  15.083  63.658  1.00  0.00    -1.036 OA 
HETATM   16  C   UNL     1     -12.183  12.911  64.520  1.00  0.00    -0.426 A  
HETATM   17  H   UNL     1     -13.107  14.742  63.006  1.00  0.00     0.000 HD 
HETATM   18  C   UNL     1     -11.609  12.037  65.425  1.00  0.00    -0.343 A  
HETATM   19  O   UNL     1     -13.035  12.431  63.567  1.00  0.00    -0.750 OA 
HETATM   20  H   UNL     1     -13.228  11.501  63.528  1.00  0.00     0.000 HD 
HETATM   21  C   UNL     1     -10.733  12.532  66.394  1.00  0.00    -0.275 A  
ENDBRANCH   9  12
ENDBRANCH   3   9
ENDBRANCH   2   3
TORSDOF 5
ENDMDL
MODEL      265
REMARK 921   NORMALIZED FREE ENERGY PREDICTED BY IDOCK:   -3.32 KCAL/MOL
REMARK 922        TOTAL FREE ENERGY PREDICTED BY IDOCK:   -4.96 KCAL/MOL
REMARK 923 INTER-LIGAND FREE ENERGY PREDICTED BY IDOCK:   -4.37 KCAL/MOL
REMARK 924 INTRA-LIGAND FREE ENERGY PREDICTED BY IDOCK:   -0.59 KCAL/MOL
REMARK 927      BINDING AFFINITY PREDICTED BY RF-SCORE:    0.00 PKD
ROOT
HETATM    1  C   UNL     1      -7.321   8.529  71.315  1.00  0.00    -0.095 C  
HETATM    2  C   UNL     1      -8.727   9.079  71.110  1.00  0.00    -0.266 C  
ENDROOT
BRANCH   2   3
HETATM    3  C   UNL     1      -9.153   9.256  69.631  1.00  0.00    -0.167 C  
BRANCH   3   4
HETATM    4  N   UNL     1      -8.919   8.082  68.765  1.00  0.00    -0.141 NA 
HETATM    5  H   UNL     1      -8.333   7.310  69.081  1.00  0.00     0.000 HD 
BRANCH   4   6
HETATM    6  C   UNL     1      -9.550   8.051  67.442  1.00  0.00    -0.153 C  
HETATM    7  C   UNL     1      -8.441   7.826  66.404  1.00  0.00    -0.136 C  
HETATM    8  C   UNL     1     -10.585   6.939  67.267  1.00  0.00    -0.393 C  
ENDBRANCH   4   6
ENDBRANCH   3   4
BRANCH   3   9
HETATM    9  C   UNL     1     -10.601   9.868  69.560  1.00  0.00    -0.242 C  
HETATM   10  H   UNL     1     -12.007  10.398  70.839  1.00  0.00     0.000 HD 
HETATM   11  O   UNL     1     -11.132  10.029  70.881  1.00  0.00    -0.328 OA 
BRANCH   9  12
HETATM   12  C   UNL     1     -10.757  11.205  68.856  1.00  0.00    -0.246 A  
HETATM   13  C   UNL     1      -9.856  11.665  67.882  1.00  0.00    -0.189 A  
HETATM   14  C   UNL     1     -10.055  12.906  67.279  1.00  0.00    -0.231 A  
HETATM   15  O   UNL     1      -9.207  13.386  66.319  1.00  0.00    -0.441 OA 
HETATM   16  C   UNL     1     -11.142  13.698  67.631  1.00  0.00    -0.273 A  
HETATM   17  H   UNL     1      -9.342  14.232  65.908  1.00  0.00     0.000 HD 
HETATM   18  C   UNL     1     -12.033  13.275  68.602  1.00  0.00    -0.345 A  
HETATM   19  O   UNL     1     -11.334  14.904  67.021  1.00  0.00    -0.343 OA 
HETATM   20  H   UNL     1     -12.077  15.445  67.261  1.00  0.00     0.000 HD 
HETATM   21  C   UNL     1     -11.836  12.038  69.219  1.00  0.00    -0.377 A  
ENDBRANCH   9  12
ENDBRANCH   3   9
ENDBRANCH   2   3
TORSDOF 5
ENDMDL
MODEL      266
REMARK 921   NORMALIZED FREE ENERGY PREDICTED BY IDOCK:   -3.30 KCAL/MOL
REMARK 922        TOTAL FREE ENERGY PREDICTED BY IDOCK:   -4.94 KCAL/MOL
REMARK 923 INTER-LIGAND FREE ENERGY PREDICTED BY IDOCK:   -4.02 KCAL/MOL
REMARK 924 INTRA-LIGAND FREE ENERGY PREDICTED BY IDOCK:   -0.92 KCAL/MOL
REMARK 927      BINDING AFFINITY PREDICTED BY RF-SCORE:    0.00 PKD
ROOT
HETATM    1  C   UNL     1      -7.091   8.428  70.564  1.00  0.00    -0.038 C  
HETATM    2  C   UNL     1      -7.612   8.961  69.236  1.00  0.00    -0.082 C  
ENDROOT
BRANCH   2   3
HETATM    3  C   UNL     1      -8.752  10.004  69.349  1.00  0.00    -0.186 C  
BRANCH   3   4
HETATM    4  N   UNL     1      -8.354  11.401  69.080  1.00  0.00    -0.377 NA 
HETATM    5  H   UNL     1      -8.965  12.175  69.338  1.00  0.00     0.000 HD 
BRANCH   4   6
HETATM    6  C   UNL     1      -7.061  11.648  68.434  1.00  0.00    -0.083 C  
HETATM    7  C   UNL     1      -7.326  12.480  67.171  1.00  0.00    -0.066 C  
HETATM    8  C   UNL     1      -6.066  12.421  69.301  1.00  0.00    -0.095 C  
ENDBRANCH   4   6
ENDBRANCH   3   4
BRANCH   3   9
HETATM    9  C   UNL     1     -10.019   9.500  68.562  1.00  0.00    -0.167 C  
HETATM   10  H   UNL     1     -11.959   9.357  68.891  1.00  0.00     0.000 HD 
HETATM   11  O   UNL     1     -11.194   9.661  69.366  1.00  0.00    -0.187 OA 
BRANCH   9  12
HETATM   12  C   UNL     1     -10.308  10.151  67.220  1.00  0.00    -0.291 A  
HETATM   13  C   UNL     1     -11.224  11.204  67.064  1.00  0.00    -0.291 A  
HETATM   14  C   UNL     1     -11.446  11.753  65.802  1.00  0.00    -0.194 A  
HETATM   15  O   UNL     1     -12.321  12.785  65.608  1.00  0.00    -0.525 OA 
HETATM   16  C   UNL     1     -10.766  11.268  64.690  1.00  0.00    -0.303 A  
HETATM   17  H   UNL     1     -12.473  13.159  64.748  1.00  0.00     0.000 HD 
HETATM   18  C   UNL     1      -9.873  10.219  64.816  1.00  0.00    -0.403 A  
HETATM   19  O   UNL     1     -10.981  11.825  63.462  1.00  0.00    -0.421 OA 
HETATM   20  H   UNL     1     -10.516  11.495  62.703  1.00  0.00     0.000 HD 
HETATM   21  C   UNL     1      -9.651   9.656  66.075  1.00  0.00    -0.305 A  
ENDBRANCH   9  12
ENDBRANCH   3   9
ENDBRANCH   2   3
TORSDOF 5
ENDMDL
MODEL      267
REMARK 921   NORMALIZED FREE ENERGY PREDICTED BY IDOCK:   -3.29 KCAL/MOL
REMARK 922        TOTAL FREE ENERGY PREDICTED BY IDOCK:   -4.92 KCAL/MOL
REMARK 923 INTER-LIGAND FREE ENERGY PREDICTED BY IDOCK:   -4.24 KCAL/MOL
REMARK 924 INTRA-LIGAND FREE ENERGY PREDICTED BY IDOCK:   -0.68 KCAL/MOL
REMARK 927      BINDING AFFINITY PREDICTED BY RF-SCORE:    0.00 PKD
ROOT
HETATM    1  C   UNL     1      -7.490   7.513  70.497  1.00  0.00    -0.080 C  
HETATM    2  C   UNL     1      -8.707   8.343  70.109  1.00  0.00    -0.136 C  
ENDROOT
BRANCH   2   3
HETATM    3  C   UNL     1      -9.971   7.523  69.745  1.00  0.00    -0.186 C  
BRANCH   3   4
HETATM    4  N   UNL     1     -11.169   7.824  70.554  1.00  0.00    -0.266 NA 
HETATM    5  H   UNL     1     -12.088   7.484  70.272  1.00  0.00     0.000 HD 
BRANCH   4   6
HETATM    6  C   UNL     1     -11.008   8.624  71.773  1.00  0.00    -0.326 C  
HETATM    7  C   UNL     1     -12.071   9.731  71.745  1.00  0.00    -0.425 C  
HETATM    8  C   UNL     1     -11.193   7.834  73.070  1.00  0.00    -0.380 C  
ENDBRANCH   4   6
ENDBRANCH   3   4
BRANCH   3   9
HETATM    9  C   UNL     1     -10.188   7.540  68.186  1.00  0.00    -0.189 C  
HETATM   10  H   UNL     1      -9.400   8.461  66.629  1.00  0.00     0.000 HD 
HETATM   11  O   UNL     1      -9.269   8.451  67.571  1.00  0.00    -0.138 OA 
BRANCH   9  12
HETATM   12  C   UNL     1     -10.055   6.216  67.452  1.00  0.00    -0.190 A  
HETATM   13  C   UNL     1     -10.875   5.857  66.371  1.00  0.00    -0.110 A  
HETATM   14  C   UNL     1     -10.703   4.622  65.746  1.00  0.00    -0.149 A  
HETATM   15  O   UNL     1     -11.473   4.238  64.683  1.00  0.00    -0.921 OA 
HETATM   16  C   UNL     1      -9.723   3.738  66.183  1.00  0.00    -0.122 A  
HETATM   17  H   UNL     1     -11.357   3.397  64.257  1.00  0.00     0.000 HD 
HETATM   18  C   UNL     1      -8.915   4.062  67.259  1.00  0.00    -0.148 A  
HETATM   19  O   UNL     1      -9.554   2.539  65.552  1.00  0.00    -0.356 OA 
HETATM   20  H   UNL     1      -8.884   1.936  65.850  1.00  0.00     0.000 HD 
HETATM   21  C   UNL     1      -9.087   5.292  67.897  1.00  0.00    -0.117 A  
ENDBRANCH   9  12
ENDBRANCH   3   9
ENDBRANCH   2   3
TORSDOF 5
ENDMDL
MODEL      268
REMARK 921   NORMALIZED FREE ENERGY PREDICTED BY IDOCK:   -3.27 KCAL/MOL
REMARK 922        TOTAL FREE ENERGY PREDICTED BY IDOCK:   -4.89 KCAL/MOL
REMARK 923 INTER-LIGAND FREE ENERGY PREDICTED BY IDOCK:   -4.09 KCAL/MOL
REMARK 924 INTRA-LIGAND FREE ENERGY PREDICTED BY IDOCK:   -0.81 KCAL/MOL
REMARK 927      BINDING AFFINITY PREDICTED BY RF-SCORE:    0.00 PKD
ROOT
HETATM    1  C   UNL     1     -10.299   7.234  73.056  1.00  0.00    -0.334 C  
HETATM    2  C   UNL     1     -10.275   8.544  72.279  1.00  0.00    -0.395 C  
ENDROOT
BRANCH   2   3
HETATM    3  C   UNL     1      -9.965   8.404  70.767  1.00  0.00    -0.189 C  
BRANCH   3   4
HETATM    4  N   UNL     1      -9.400   7.102  70.360  1.00  0.00    -0.159 NA 
HETATM    5  H   UNL     1      -9.983   6.266  70.334  1.00  0.00     0.000 HD 
BRANCH   4   6
HETATM    6  C   UNL     1      -7.982   7.038  69.993  1.00  0.00    -0.115 C  
HETATM    7  C   UNL     1      -7.866   6.158  68.741  1.00  0.00    -0.101 C  
HETATM    8  C   UNL     1      -7.357   8.396  69.668  1.00  0.00    -0.072 C  
ENDBRANCH   4   6
ENDBRANCH   3   4
BRANCH   3   9
HETATM    9  C   UNL     1     -11.196   8.900  69.920  1.00  0.00    -0.065 C  
HETATM   10  H   UNL     1     -12.746  10.090  70.189  1.00  0.00     0.000 HD 
HETATM   11  O   UNL     1     -12.003   9.791  70.700  1.00  0.00    -0.277 OA 
BRANCH   9  12
HETATM   12  C   UNL     1     -10.897   9.607  68.609  1.00  0.00    -0.203 A  
HETATM   13  C   UNL     1     -10.336   8.955  67.500  1.00  0.00    -0.328 A  
HETATM   14  C   UNL     1     -10.081   9.666  66.328  1.00  0.00    -0.252 A  
HETATM   15  O   UNL     1      -9.545   9.066  65.223  1.00  0.00    -0.457 OA 
HETATM   16  C   UNL     1     -10.380  11.021  66.244  1.00  0.00    -0.251 A  
HETATM   17  H   UNL     1      -9.371   9.550  64.424  1.00  0.00     0.000 HD 
HETATM   18  C   UNL     1     -10.917  11.690  67.330  1.00  0.00    -0.318 A  
HETATM   19  O   UNL     1     -10.141  11.702  65.085  1.00  0.00    -0.243 OA 
HETATM   20  H   UNL     1     -10.346  12.628  65.027  1.00  0.00     0.000 HD 
HETATM   21  C   UNL     1     -11.166  10.988  68.511  1.00  0.00    -0.329 A  
ENDBRANCH   9  12
ENDBRANCH   3   9
ENDBRANCH   2   3
TORSDOF 5
ENDMDL
MODEL      269
REMARK 921   NORMALIZED FREE ENERGY PREDICTED BY IDOCK:   -3.26 KCAL/MOL
REMARK 922        TOTAL FREE ENERGY PREDICTED BY IDOCK:   -4.88 KCAL/MOL
REMARK 923 INTER-LIGAND FREE ENERGY PREDICTED BY IDOCK:   -3.95 KCAL/MOL
REMARK 924 INTRA-LIGAND FREE ENERGY PREDICTED BY IDOCK:   -0.93 KCAL/MOL
REMARK 927      BINDING AFFINITY PREDICTED BY RF-SCORE:    0.00 PKD
ROOT
HETATM    1  C   UNL     1      -7.201   8.967  70.394  1.00  0.00    -0.069 C  
HETATM    2  C   UNL     1      -7.826   8.873  69.008  1.00  0.00    -0.091 C  
ENDROOT
BRANCH   2   3
HETATM    3  C   UNL     1      -9.360   9.083  68.965  1.00  0.00    -0.140 C  
BRANCH   3   4
HETATM    4  N   UNL     1     -10.110   8.080  68.181  1.00  0.00    -0.190 NA 
HETATM    5  H   UNL     1     -11.058   8.272  67.860  1.00  0.00     0.000 HD 
BRANCH   4   6
HETATM    6  C   UNL     1      -9.459   6.802  67.874  1.00  0.00    -0.118 C  
HETATM    7  C   UNL     1     -10.399   5.680  68.336  1.00  0.00    -0.258 C  
HETATM    8  C   UNL     1      -9.171   6.587  66.387  1.00  0.00    -0.178 C  
ENDBRANCH   4   6
ENDBRANCH   3   4
BRANCH   3   9
HETATM    9  C   UNL     1      -9.905   9.348  70.418  1.00  0.00    -0.259 C  
HETATM   10  H   UNL     1     -11.121  10.634  71.290  1.00  0.00     0.000 HD 
HETATM   11  O   UNL     1     -10.792  10.473  70.413  1.00  0.00    -0.263 OA 
BRANCH   9  12
HETATM   12  C   UNL     1     -10.641   8.208  71.102  1.00  0.00    -0.242 A  
HETATM   13  C   UNL     1     -12.040   8.163  71.219  1.00  0.00    -0.313 A  
HETATM   14  C   UNL     1     -12.651   7.090  71.866  1.00  0.00    -0.295 A  
HETATM   15  O   UNL     1     -14.009   7.003  71.992  1.00  0.00    -0.552 OA 
HETATM   16  C   UNL     1     -11.887   6.057  72.397  1.00  0.00    -0.231 A  
HETATM   17  H   UNL     1     -14.426   6.271  72.433  1.00  0.00     0.000 HD 
HETATM   18  C   UNL     1     -10.507   6.088  72.310  1.00  0.00    -0.241 A  
HETATM   19  O   UNL     1     -12.499   5.003  73.013  1.00  0.00    -0.342 OA 
HETATM   20  H   UNL     1     -11.978   4.297  73.376  1.00  0.00     0.000 HD 
HETATM   21  C   UNL     1      -9.885   7.164  71.674  1.00  0.00    -0.170 A  
ENDBRANCH   9  12
ENDBRANCH   3   9
ENDBRANCH   2   3
TORSDOF 5
ENDMDL
MODEL      270
REMARK 921   NORMALIZED FREE ENERGY PREDICTED BY IDOCK:   -3.26 KCAL/MOL
REMARK 922        TOTAL FREE ENERGY PREDICTED BY IDOCK:   -4.88 KCAL/MOL
REMARK 923 INTER-LIGAND FREE ENERGY PREDICTED BY IDOCK:   -4.07 KCAL/MOL
REMARK 924 INTRA-LIGAND FREE ENERGY PREDICTED BY IDOCK:   -0.81 KCAL/MOL
REMARK 927      BINDING AFFINITY PREDICTED BY RF-SCORE:    0.00 PKD
ROOT
HETATM    1  C   UNL     1      -8.757   5.865  70.116  1.00  0.00    -0.141 C  
HETATM    2  C   UNL     1      -9.261   6.182  68.714  1.00  0.00    -0.124 C  
ENDROOT
BRANCH   2   3
HETATM    3  C   UNL     1      -8.977   7.625  68.225  1.00  0.00    -0.127 C  
BRANCH   3   4
HETATM    4  N   UNL     1      -7.552   8.014  68.209  1.00  0.00    -0.106 NA 
HETATM    5  H   UNL     1      -6.897   7.568  67.567  1.00  0.00     0.000 HD 
BRANCH   4   6
HETATM    6  C   UNL     1      -7.100   9.056  69.136  1.00  0.00    -0.063 C  
HETATM    7  C   UNL     1      -8.318   9.509  69.953  1.00  0.00    -0.180 C  
HETATM    8  C   UNL     1      -6.024   8.594  70.121  1.00  0.00    -0.030 C  
ENDBRANCH   4   6
ENDBRANCH   3   4
BRANCH   3   9
HETATM    9  C   UNL     1      -9.768   7.903  66.893  1.00  0.00    -0.219 C  
HETATM   10  H   UNL     1     -11.478   7.341  66.085  1.00  0.00     0.000 HD 
HETATM   11  O   UNL     1     -11.000   7.173  66.889  1.00  0.00    -0.363 OA 
BRANCH   9  12
HETATM   12  C   UNL     1     -10.111   9.350  66.579  1.00  0.00    -0.332 A  
HETATM   13  C   UNL     1      -9.698   9.995  65.402  1.00  0.00    -0.368 A  
HETATM   14  C   UNL     1     -10.043  11.327  65.180  1.00  0.00    -0.275 A  
HETATM   15  O   UNL     1      -9.669  11.989  64.043  1.00  0.00    -0.478 OA 
HETATM   16  C   UNL     1     -10.797  12.028  66.114  1.00  0.00    -0.286 A  
HETATM   17  H   UNL     1      -9.903  12.897  63.891  1.00  0.00     0.000 HD 
HETATM   18  C   UNL     1     -11.200  11.420  67.289  1.00  0.00    -0.370 A  
HETATM   19  O   UNL     1     -11.142  13.328  65.876  1.00  0.00    -0.284 OA 
HETATM   20  H   UNL     1     -11.658  13.806  66.513  1.00  0.00     0.000 HD 
HETATM   21  C   UNL     1     -10.851  10.089  67.525  1.00  0.00    -0.326 A  
ENDBRANCH   9  12
ENDBRANCH   3   9
ENDBRANCH   2   3
TORSDOF 5
ENDMDL
MODEL      271
REMARK 921   NORMALIZED FREE ENERGY PREDICTED BY IDOCK:   -3.25 KCAL/MOL
REMARK 922        TOTAL FREE ENERGY PREDICTED BY IDOCK:   -4.87 KCAL/MOL
REMARK 923 INTER-LIGAND FREE ENERGY PREDICTED BY IDOCK:   -4.40 KCAL/MOL
REMARK 924 INTRA-LIGAND FREE ENERGY PREDICTED BY IDOCK:   -0.48 KCAL/MOL
REMARK 927      BINDING AFFINITY PREDICTED BY RF-SCORE:    0.00 PKD
ROOT
HETATM    1  C   UNL     1     -10.951   9.231  71.542  1.00  0.00    -0.446 C  
HETATM    2  C   UNL     1     -10.742   9.225  70.033  1.00  0.00    -0.259 C  
ENDROOT
BRANCH   2   3
HETATM    3  C   UNL     1      -9.718  10.263  69.509  1.00  0.00    -0.211 C  
BRANCH   3   4
HETATM    4  N   UNL     1      -8.467  10.361  70.288  1.00  0.00    -0.293 NA 
HETATM    5  H   UNL     1      -8.380  11.031  71.052  1.00  0.00     0.000 HD 
BRANCH   4   6
HETATM    6  C   UNL     1      -7.354   9.472  69.940  1.00  0.00    -0.103 C  
HETATM    7  C   UNL     1      -6.134   9.913  70.761  1.00  0.00    -0.095 C  
HETATM    8  C   UNL     1      -7.612   7.995  70.245  1.00  0.00    -0.081 C  
ENDBRANCH   4   6
ENDBRANCH   3   4
BRANCH   3   9
HETATM    9  C   UNL     1      -9.533  10.093  67.955  1.00  0.00    -0.141 C  
HETATM   10  H   UNL     1     -10.273   8.947  66.530  1.00  0.00     0.000 HD 
HETATM   11  O   UNL     1     -10.385   9.050  67.468  1.00  0.00    -0.231 OA 
BRANCH   9  12
HETATM   12  C   UNL     1      -9.789  11.314  67.087  1.00  0.00    -0.213 A  
HETATM   13  C   UNL     1      -9.031  12.492  67.182  1.00  0.00    -0.200 A  
HETATM   14  C   UNL     1      -9.324  13.578  66.359  1.00  0.00    -0.176 A  
HETATM   15  O   UNL     1      -8.603  14.739  66.413  1.00  0.00    -0.451 OA 
HETATM   16  C   UNL     1     -10.365  13.508  65.440  1.00  0.00    -0.319 A  
HETATM   17  H   UNL     1      -8.803  15.480  65.852  1.00  0.00     0.000 HD 
HETATM   18  C   UNL     1     -11.138  12.366  65.341  1.00  0.00    -0.344 A  
HETATM   19  O   UNL     1     -10.631  14.574  64.628  1.00  0.00    -0.554 OA 
HETATM   20  H   UNL     1     -11.342  14.526  64.000  1.00  0.00     0.000 HD 
HETATM   21  C   UNL     1     -10.858  11.276  66.168  1.00  0.00    -0.281 A  
ENDBRANCH   9  12
ENDBRANCH   3   9
ENDBRANCH   2   3
TORSDOF 5
ENDMDL
MODEL      272
REMARK 921   NORMALIZED FREE ENERGY PREDICTED BY IDOCK:   -3.25 KCAL/MOL
REMARK 922        TOTAL FREE ENERGY PREDICTED BY IDOCK:   -4.87 KCAL/MOL
REMARK 923 INTER-LIGAND FREE ENERGY PREDICTED BY IDOCK:   -4.08 KCAL/MOL
REMARK 924 INTRA-LIGAND FREE ENERGY PREDICTED BY IDOCK:   -0.79 KCAL/MOL
REMARK 927      BINDING AFFINITY PREDICTED BY RF-SCORE:    0.00 PKD
ROOT
HETATM    1  C   UNL     1      -9.371   6.397  68.574  1.00  0.00    -0.122 C  
HETATM    2  C   UNL     1     -10.038   7.767  68.537  1.00  0.00    -0.216 C  
ENDROOT
BRANCH   2   3
HETATM    3  C   UNL     1      -9.096   8.945  68.182  1.00  0.00    -0.140 C  
BRANCH   3   4
HETATM    4  N   UNL     1      -7.678   8.579  67.986  1.00  0.00    -0.101 NA 
HETATM    5  H   UNL     1      -7.387   8.037  67.173  1.00  0.00     0.000 HD 
BRANCH   4   6
HETATM    6  C   UNL     1      -6.699   9.013  68.988  1.00  0.00    -0.051 C  
HETATM    7  C   UNL     1      -7.389  10.042  69.895  1.00  0.00    -0.163 C  
HETATM    8  C   UNL     1      -6.173   7.886  69.878  1.00  0.00    -0.026 C  
ENDBRANCH   4   6
ENDBRANCH   3   4
BRANCH   3   9
HETATM    9  C   UNL     1      -9.734   9.811  67.032  1.00  0.00    -0.183 C  
HETATM   10  H   UNL     1     -11.033   9.539  65.572  1.00  0.00     0.000 HD 
HETATM   11  O   UNL     1     -10.648   9.017  66.266  1.00  0.00    -0.083 OA 
BRANCH   9  12
HETATM   12  C   UNL     1     -10.480  11.070  67.443  1.00  0.00    -0.255 A  
HETATM   13  C   UNL     1     -10.812  11.360  68.776  1.00  0.00    -0.251 A  
HETATM   14  C   UNL     1     -11.504  12.531  69.082  1.00  0.00    -0.305 A  
HETATM   15  O   UNL     1     -11.837  12.855  70.368  1.00  0.00    -0.510 OA 
HETATM   16  C   UNL     1     -11.868  13.421  68.078  1.00  0.00    -0.357 A  
HETATM   17  H   UNL     1     -12.308  13.653  70.578  1.00  0.00     0.000 HD 
HETATM   18  C   UNL     1     -11.568  13.147  66.756  1.00  0.00    -0.414 A  
HETATM   19  O   UNL     1     -12.531  14.572  68.394  1.00  0.00    -0.592 OA 
HETATM   20  H   UNL     1     -12.780  15.180  67.709  1.00  0.00     0.000 HD 
HETATM   21  C   UNL     1     -10.885  11.972  66.438  1.00  0.00    -0.314 A  
ENDBRANCH   9  12
ENDBRANCH   3   9
ENDBRANCH   2   3
TORSDOF 5
ENDMDL
MODEL      273
REMARK 921   NORMALIZED FREE ENERGY PREDICTED BY IDOCK:   -3.24 KCAL/MOL
REMARK 922        TOTAL FREE ENERGY PREDICTED BY IDOCK:   -4.86 KCAL/MOL
REMARK 923 INTER-LIGAND FREE ENERGY PREDICTED BY IDOCK:   -4.31 KCAL/MOL
REMARK 924 INTRA-LIGAND FREE ENERGY PREDICTED BY IDOCK:   -0.55 KCAL/MOL
REMARK 927      BINDING AFFINITY PREDICTED BY RF-SCORE:    0.00 PKD
ROOT
HETATM    1  C   UNL     1     -10.648  11.463  64.246  1.00  0.00    -0.416 C  
HETATM    2  C   UNL     1     -10.218  10.657  65.465  1.00  0.00    -0.329 C  
ENDROOT
BRANCH   2   3
HETATM    3  C   UNL     1      -9.643  11.493  66.635  1.00  0.00    -0.197 C  
BRANCH   3   4
HETATM    4  N   UNL     1      -9.489  12.936  66.360  1.00  0.00    -0.319 NA 
HETATM    5  H   UNL     1      -8.831  13.265  65.654  1.00  0.00     0.000 HD 
BRANCH   4   6
HETATM    6  C   UNL     1     -10.304  13.886  67.125  1.00  0.00    -0.265 C  
HETATM    7  C   UNL     1      -9.476  15.166  67.307  1.00  0.00    -0.214 C  
HETATM    8  C   UNL     1     -11.618  14.274  66.445  1.00  0.00    -0.381 C  
ENDBRANCH   4   6
ENDBRANCH   3   4
BRANCH   3   9
HETATM    9  C   UNL     1     -10.401  11.139  67.969  1.00  0.00    -0.185 C  
HETATM   10  H   UNL     1     -12.260  10.779  68.520  1.00  0.00     0.000 HD 
HETATM   11  O   UNL     1     -11.803  10.993  67.715  1.00  0.00    -0.605 OA 
BRANCH   9  12
HETATM   12  C   UNL     1      -9.954   9.890  68.710  1.00  0.00    -0.183 A  
HETATM   13  C   UNL     1      -8.986   9.910  69.727  1.00  0.00    -0.242 A  
HETATM   14  C   UNL     1      -8.617   8.725  70.362  1.00  0.00    -0.163 A  
HETATM   15  O   UNL     1      -7.686   8.704  71.364  1.00  0.00    -0.105 OA 
HETATM   16  C   UNL     1      -9.202   7.517  70.000  1.00  0.00    -0.151 A  
HETATM   17  H   UNL     1      -7.435   7.896  71.797  1.00  0.00     0.000 HD 
HETATM   18  C   UNL     1     -10.144   7.469  68.989  1.00  0.00    -0.192 A  
HETATM   19  O   UNL     1      -8.844   6.366  70.642  1.00  0.00    -0.142 OA 
HETATM   20  H   UNL     1      -9.243   5.541  70.395  1.00  0.00     0.000 HD 
HETATM   21  C   UNL     1     -10.512   8.649  68.339  1.00  0.00    -0.220 A  
ENDBRANCH   9  12
ENDBRANCH   3   9
ENDBRANCH   2   3
TORSDOF 5
ENDMDL
MODEL      274
REMARK 921   NORMALIZED FREE ENERGY PREDICTED BY IDOCK:   -3.23 KCAL/MOL
REMARK 922        TOTAL FREE ENERGY PREDICTED BY IDOCK:   -4.85 KCAL/MOL
REMARK 923 INTER-LIGAND FREE ENERGY PREDICTED BY IDOCK:   -4.04 KCAL/MOL
REMARK 924 INTRA-LIGAND FREE ENERGY PREDICTED BY IDOCK:   -0.81 KCAL/MOL
REMARK 927      BINDING AFFINITY PREDICTED BY RF-SCORE:    0.00 PKD
ROOT
HETATM    1  C   UNL     1      -6.931   5.961  69.669  1.00  0.00    -0.067 C  
HETATM    2  C   UNL     1      -8.180   6.829  69.753  1.00  0.00    -0.127 C  
ENDROOT
BRANCH   2   3
HETATM    3  C   UNL     1      -9.480   6.073  70.127  1.00  0.00    -0.158 C  
BRANCH   3   4
HETATM    4  N   UNL     1      -9.747   5.961  71.575  1.00  0.00    -0.160 NA 
HETATM    5  H   UNL     1     -10.138   5.105  71.968  1.00  0.00     0.000 HD 
BRANCH   4   6
HETATM    6  C   UNL     1      -9.437   7.107  72.435  1.00  0.00    -0.145 C  
HETATM    7  C   UNL     1     -10.746   7.555  73.101  1.00  0.00    -0.452 C  
HETATM    8  C   UNL     1      -8.430   6.804  73.546  1.00  0.00    -0.136 C  
ENDBRANCH   4   6
ENDBRANCH   3   4
BRANCH   3   9
HETATM    9  C   UNL     1     -10.679   6.611  69.260  1.00  0.00    -0.265 C  
HETATM   10  H   UNL     1     -12.635   6.784  69.452  1.00  0.00     0.000 HD 
HETATM   11  O   UNL     1     -11.910   6.460  69.976  1.00  0.00    -0.404 OA 
BRANCH   9  12
HETATM   12  C   UNL     1     -10.609   8.057  68.798  1.00  0.00    -0.145 A  
HETATM   13  C   UNL     1     -10.778   9.145  69.669  1.00  0.00    -0.236 A  
HETATM   14  C   UNL     1     -10.709  10.448  69.178  1.00  0.00    -0.234 A  
HETATM   15  O   UNL     1     -10.858  11.535  69.994  1.00  0.00    -0.431 OA 
HETATM   16  C   UNL     1     -10.471  10.683  67.829  1.00  0.00    -0.221 A  
HETATM   17  H   UNL     1     -10.810  12.423  69.660  1.00  0.00     0.000 HD 
HETATM   18  C   UNL     1     -10.319   9.627  66.948  1.00  0.00    -0.307 A  
HETATM   19  O   UNL     1     -10.388  11.965  67.364  1.00  0.00    -0.203 OA 
HETATM   20  H   UNL     1     -10.225  12.126  66.442  1.00  0.00     0.000 HD 
HETATM   21  C   UNL     1     -10.398   8.319  67.429  1.00  0.00    -0.350 A  
ENDBRANCH   9  12
ENDBRANCH   3   9
ENDBRANCH   2   3
TORSDOF 5
ENDMDL
MODEL      275
REMARK 921   NORMALIZED FREE ENERGY PREDICTED BY IDOCK:   -3.22 KCAL/MOL
REMARK 922        TOTAL FREE ENERGY PREDICTED BY IDOCK:   -4.84 KCAL/MOL
REMARK 923 INTER-LIGAND FREE ENERGY PREDICTED BY IDOCK:   -4.28 KCAL/MOL
REMARK 924 INTRA-LIGAND FREE ENERGY PREDICTED BY IDOCK:   -0.56 KCAL/MOL
REMARK 927      BINDING AFFINITY PREDICTED BY RF-SCORE:    0.00 PKD
ROOT
HETATM    1  C   UNL     1      -6.757   6.931  69.752  1.00  0.00    -0.049 C  
HETATM    2  C   UNL     1      -8.122   7.583  69.934  1.00  0.00    -0.129 C  
ENDROOT
BRANCH   2   3
HETATM    3  C   UNL     1      -9.312   6.596  70.040  1.00  0.00    -0.158 C  
BRANCH   3   4
HETATM    4  N   UNL     1     -10.096   6.689  71.289  1.00  0.00    -0.188 NA 
HETATM    5  H   UNL     1     -10.682   5.914  71.595  1.00  0.00     0.000 HD 
BRANCH   4   6
HETATM    6  C   UNL     1     -10.012   7.923  72.077  1.00  0.00    -0.193 C  
HETATM    7  C   UNL     1     -11.441   8.313  72.481  1.00  0.00    -0.454 C  
HETATM    8  C   UNL     1      -9.185   7.794  73.357  1.00  0.00    -0.344 C  
ENDBRANCH   4   6
ENDBRANCH   3   4
BRANCH   3   9
HETATM    9  C   UNL     1     -10.154   6.627  68.711  1.00  0.00    -0.158 C  
HETATM   10  H   UNL     1     -12.011   6.240  68.170  1.00  0.00     0.000 HD 
HETATM   11  O   UNL     1     -11.503   6.221  68.973  1.00  0.00    -0.363 OA 
BRANCH   9  12
HETATM   12  C   UNL     1     -10.228   7.950  67.967  1.00  0.00    -0.256 A  
HETATM   13  C   UNL     1      -9.861   8.089  66.619  1.00  0.00    -0.322 A  
HETATM   14  C   UNL     1      -9.947   9.335  65.998  1.00  0.00    -0.255 A  
HETATM   15  O   UNL     1      -9.609   9.511  64.685  1.00  0.00    -0.435 OA 
HETATM   16  C   UNL     1     -10.396  10.446  66.702  1.00  0.00    -0.231 A  
HETATM   17  H   UNL     1      -9.668  10.360  64.262  1.00  0.00     0.000 HD 
HETATM   18  C   UNL     1     -10.746  10.338  68.036  1.00  0.00    -0.299 A  
HETATM   19  O   UNL     1     -10.492  11.657  66.078  1.00  0.00    -0.236 OA 
HETATM   20  H   UNL     1     -10.799  12.416  66.558  1.00  0.00     0.000 HD 
HETATM   21  C   UNL     1     -10.653   9.096  68.669  1.00  0.00    -0.207 A  
ENDBRANCH   9  12
ENDBRANCH   3   9
ENDBRANCH   2   3
TORSDOF 5
ENDMDL
MODEL      276
REMARK 921   NORMALIZED FREE ENERGY PREDICTED BY IDOCK:   -3.21 KCAL/MOL
REMARK 922        TOTAL FREE ENERGY PREDICTED BY IDOCK:   -4.83 KCAL/MOL
REMARK 923 INTER-LIGAND FREE ENERGY PREDICTED BY IDOCK:   -4.07 KCAL/MOL
REMARK 924 INTRA-LIGAND FREE ENERGY PREDICTED BY IDOCK:   -0.76 KCAL/MOL
REMARK 927      BINDING AFFINITY PREDICTED BY RF-SCORE:    0.00 PKD
ROOT
HETATM    1  C   UNL     1      -6.827   9.032  70.268  1.00  0.00    -0.049 C  
HETATM    2  C   UNL     1      -8.164   8.896  69.551  1.00  0.00    -0.107 C  
ENDROOT
BRANCH   2   3
HETATM    3  C   UNL     1      -8.311   9.755  68.270  1.00  0.00    -0.106 C  
BRANCH   3   4
HETATM    4  N   UNL     1      -7.080   9.905  67.468  1.00  0.00    -0.087 NA 
HETATM    5  H   UNL     1      -6.445  10.687  67.629  1.00  0.00     0.000 HD 
BRANCH   4   6
HETATM    6  C   UNL     1      -6.790   8.904  66.436  1.00  0.00    -0.075 C  
HETATM    7  C   UNL     1      -6.234   9.647  65.213  1.00  0.00    -0.079 C  
HETATM    8  C   UNL     1      -5.757   7.856  66.854  1.00  0.00    -0.033 C  
ENDBRANCH   4   6
ENDBRANCH   3   4
BRANCH   3   9
HETATM    9  C   UNL     1      -9.588   9.303  67.467  1.00  0.00    -0.149 C  
HETATM   10  H   UNL     1     -11.403   8.655  67.888  1.00  0.00     0.000 HD 
HETATM   11  O   UNL     1     -10.632   8.928  68.373  1.00  0.00    -0.206 OA 
BRANCH   9  12
HETATM   12  C   UNL     1     -10.186  10.305  66.493  1.00  0.00    -0.289 A  
HETATM   13  C   UNL     1     -10.104  10.157  65.099  1.00  0.00    -0.329 A  
HETATM   14  C   UNL     1     -10.670  11.117  64.262  1.00  0.00    -0.333 A  
HETATM   15  O   UNL     1     -10.621  11.006  62.900  1.00  0.00    -0.777 OA 
HETATM   16  C   UNL     1     -11.320  12.225  64.794  1.00  0.00    -0.323 A  
HETATM   17  H   UNL     1     -11.006  11.660  62.329  1.00  0.00     0.000 HD 
HETATM   18  C   UNL     1     -11.397  12.402  66.164  1.00  0.00    -0.398 A  
HETATM   19  O   UNL     1     -11.885  13.150  63.963  1.00  0.00    -0.399 OA 
HETATM   20  H   UNL     1     -12.329  13.906  64.326  1.00  0.00     0.000 HD 
HETATM   21  C   UNL     1     -10.825  11.451  67.010  1.00  0.00    -0.331 A  
ENDBRANCH   9  12
ENDBRANCH   3   9
ENDBRANCH   2   3
TORSDOF 5
ENDMDL
MODEL      277
REMARK 921   NORMALIZED FREE ENERGY PREDICTED BY IDOCK:   -3.21 KCAL/MOL
REMARK 922        TOTAL FREE ENERGY PREDICTED BY IDOCK:   -4.82 KCAL/MOL
REMARK 923 INTER-LIGAND FREE ENERGY PREDICTED BY IDOCK:   -3.95 KCAL/MOL
REMARK 924 INTRA-LIGAND FREE ENERGY PREDICTED BY IDOCK:   -0.87 KCAL/MOL
REMARK 927      BINDING AFFINITY PREDICTED BY RF-SCORE:    0.00 PKD
ROOT
HETATM    1  C   UNL     1      -6.800  12.181  68.940  1.00  0.00    -0.100 C  
HETATM    2  C   UNL     1      -7.283  12.281  67.499  1.00  0.00    -0.139 C  
ENDROOT
BRANCH   2   3
HETATM    3  C   UNL     1      -8.801  12.043  67.298  1.00  0.00    -0.183 C  
BRANCH   3   4
HETATM    4  N   UNL     1      -9.552  13.197  66.762  1.00  0.00    -0.243 NA 
HETATM    5  H   UNL     1      -9.142  13.802  66.051  1.00  0.00     0.000 HD 
BRANCH   4   6
HETATM    6  C   UNL     1     -10.901  13.455  67.277  1.00  0.00    -0.269 C  
HETATM    7  C   UNL     1     -11.892  12.705  66.376  1.00  0.00    -0.466 C  
HETATM    8  C   UNL     1     -11.124  12.978  68.714  1.00  0.00    -0.311 C  
ENDBRANCH   4   6
ENDBRANCH   3   4
BRANCH   3   9
HETATM    9  C   UNL     1      -9.034  10.680  66.546  1.00  0.00    -0.156 C  
HETATM   10  H   UNL     1      -7.945   9.394  65.519  1.00  0.00     0.000 HD 
HETATM   11  O   UNL     1      -7.805  10.217  65.973  1.00  0.00    -0.121 OA 
BRANCH   9  12
HETATM   12  C   UNL     1      -9.604   9.528  67.357  1.00  0.00    -0.178 A  
HETATM   13  C   UNL     1      -9.598   9.506  68.761  1.00  0.00    -0.159 A  
HETATM   14  C   UNL     1     -10.132   8.414  69.443  1.00  0.00    -0.198 A  
HETATM   15  O   UNL     1     -10.155   8.358  70.809  1.00  0.00    -0.187 OA 
HETATM   16  C   UNL     1     -10.676   7.342  68.746  1.00  0.00    -0.139 A  
HETATM   17  H   UNL     1     -10.519   7.614  71.275  1.00  0.00     0.000 HD 
HETATM   18  C   UNL     1     -10.677   7.332  67.362  1.00  0.00    -0.358 A  
HETATM   19  O   UNL     1     -11.211   6.286  69.426  1.00  0.00    -0.382 OA 
HETATM   20  H   UNL     1     -11.583   5.553  68.950  1.00  0.00     0.000 HD 
HETATM   21  C   UNL     1     -10.134   8.417  66.670  1.00  0.00    -0.358 A  
ENDBRANCH   9  12
ENDBRANCH   3   9
ENDBRANCH   2   3
TORSDOF 5
ENDMDL
MODEL      278
REMARK 921   NORMALIZED FREE ENERGY PREDICTED BY IDOCK:   -3.20 KCAL/MOL
REMARK 922        TOTAL FREE ENERGY PREDICTED BY IDOCK:   -4.81 KCAL/MOL
REMARK 923 INTER-LIGAND FREE ENERGY PREDICTED BY IDOCK:   -4.03 KCAL/MOL
REMARK 924 INTRA-LIGAND FREE ENERGY PREDICTED BY IDOCK:   -0.78 KCAL/MOL
REMARK 927      BINDING AFFINITY PREDICTED BY RF-SCORE:    0.00 PKD
ROOT
HETATM    1  C   UNL     1     -11.536   5.716  72.782  1.00  0.00    -0.328 C  
HETATM    2  C   UNL     1     -10.982   5.917  71.377  1.00  0.00    -0.327 C  
ENDROOT
BRANCH   2   3
HETATM    3  C   UNL     1      -9.439   6.023  71.289  1.00  0.00    -0.163 C  
BRANCH   3   4
HETATM    4  N   UNL     1      -8.815   5.221  70.217  1.00  0.00    -0.123 NA 
HETATM    5  H   UNL     1      -8.725   5.593  69.272  1.00  0.00     0.000 HD 
BRANCH   4   6
HETATM    6  C   UNL     1      -8.326   3.877  70.542  1.00  0.00    -0.061 C  
HETATM    7  C   UNL     1      -7.841   3.900  71.999  1.00  0.00    -0.075 C  
HETATM    8  C   UNL     1      -9.385   2.779  70.421  1.00  0.00    -0.217 C  
ENDBRANCH   4   6
ENDBRANCH   3   4
BRANCH   3   9
HETATM    9  C   UNL     1      -9.002   7.534  71.342  1.00  0.00    -0.133 C  
HETATM   10  H   UNL     1      -7.377   8.581  70.948  1.00  0.00     0.000 HD 
HETATM   11  O   UNL     1      -7.641   7.669  70.916  1.00  0.00    -0.077 OA 
BRANCH   9  12
HETATM   12  C   UNL     1      -9.820   8.522  70.527  1.00  0.00    -0.206 A  
HETATM   13  C   UNL     1      -9.736   8.612  69.128  1.00  0.00    -0.173 A  
HETATM   14  C   UNL     1     -10.511   9.547  68.442  1.00  0.00    -0.224 A  
HETATM   15  O   UNL     1     -10.467   9.660  67.080  1.00  0.00    -0.247 OA 
HETATM   16  C   UNL     1     -11.371  10.394  69.131  1.00  0.00    -0.226 A  
HETATM   17  H   UNL     1     -10.994  10.297  66.612  1.00  0.00     0.000 HD 
HETATM   18  C   UNL     1     -11.457  10.337  70.511  1.00  0.00    -0.427 A  
HETATM   19  O   UNL     1     -12.137  11.294  68.446  1.00  0.00    -0.598 OA 
HETATM   20  H   UNL     1     -12.725  11.873  68.916  1.00  0.00     0.000 HD 
HETATM   21  C   UNL     1     -10.678   9.411  71.207  1.00  0.00    -0.421 A  
ENDBRANCH   9  12
ENDBRANCH   3   9
ENDBRANCH   2   3
TORSDOF 5
ENDMDL
MODEL      279
REMARK 921   NORMALIZED FREE ENERGY PREDICTED BY IDOCK:   -3.20 KCAL/MOL
REMARK 922        TOTAL FREE ENERGY PREDICTED BY IDOCK:   -4.81 KCAL/MOL
REMARK 923 INTER-LIGAND FREE ENERGY PREDICTED BY IDOCK:   -4.11 KCAL/MOL
REMARK 924 INTRA-LIGAND FREE ENERGY PREDICTED BY IDOCK:   -0.70 KCAL/MOL
REMARK 927      BINDING AFFINITY PREDICTED BY RF-SCORE:    0.00 PKD
ROOT
HETATM    1  C   UNL     1      -9.957  18.708  68.811  1.00  0.00    -0.427 C  
HETATM    2  C   UNL     1     -10.498  17.369  68.327  1.00  0.00    -0.385 C  
ENDROOT
BRANCH   2   3
HETATM    3  C   UNL     1      -9.806  16.123  68.934  1.00  0.00    -0.239 C  
BRANCH   3   4
HETATM    4  N   UNL     1     -10.378  15.646  70.210  1.00  0.00    -0.306 NA 
HETATM    5  H   UNL     1      -9.772  15.373  70.983  1.00  0.00     0.000 HD 
BRANCH   4   6
HETATM    6  C   UNL     1     -11.837  15.573  70.338  1.00  0.00    -0.351 C  
HETATM    7  C   UNL     1     -12.250  14.111  70.117  1.00  0.00    -0.415 C  
HETATM    8  C   UNL     1     -12.368  16.005  71.706  1.00  0.00    -0.496 C  
ENDBRANCH   4   6
ENDBRANCH   3   4
BRANCH   3   9
HETATM    9  C   UNL     1      -9.618  15.022  67.825  1.00  0.00    -0.203 C  
HETATM   10  H   UNL     1      -8.904  14.932  65.988  1.00  0.00     0.000 HD 
HETATM   11  O   UNL     1      -9.018  15.596  66.658  1.00  0.00    -0.234 OA 
BRANCH   9  12
HETATM   12  C   UNL     1      -8.790  13.801  68.192  1.00  0.00    -0.185 A  
HETATM   13  C   UNL     1      -9.298  12.493  68.149  1.00  0.00    -0.210 A  
HETATM   14  C   UNL     1      -8.484  11.418  68.505  1.00  0.00    -0.152 A  
HETATM   15  O   UNL     1      -8.937  10.128  68.467  1.00  0.00    -0.120 OA 
HETATM   16  C   UNL     1      -7.169  11.627  68.902  1.00  0.00    -0.113 A  
HETATM   17  H   UNL     1      -8.383   9.395  68.710  1.00  0.00     0.000 HD 
HETATM   18  C   UNL     1      -6.652  12.909  68.970  1.00  0.00    -0.102 A  
HETATM   19  O   UNL     1      -6.378  10.564  69.232  1.00  0.00    -0.045 OA 
HETATM   20  H   UNL     1      -5.479  10.707  69.503  1.00  0.00     0.000 HD 
HETATM   21  C   UNL     1      -7.461  13.993  68.625  1.00  0.00    -0.125 A  
ENDBRANCH   9  12
ENDBRANCH   3   9
ENDBRANCH   2   3
TORSDOF 5
ENDMDL
MODEL      280
REMARK 921   NORMALIZED FREE ENERGY PREDICTED BY IDOCK:   -3.17 KCAL/MOL
REMARK 922        TOTAL FREE ENERGY PREDICTED BY IDOCK:   -4.77 KCAL/MOL
REMARK 923 INTER-LIGAND FREE ENERGY PREDICTED BY IDOCK:   -4.07 KCAL/MOL
REMARK 924 INTRA-LIGAND FREE ENERGY PREDICTED BY IDOCK:   -0.71 KCAL/MOL
REMARK 927      BINDING AFFINITY PREDICTED BY RF-SCORE:    0.00 PKD
ROOT
HETATM    1  C   UNL     1      -6.920   9.382  70.067  1.00  0.00    -0.071 C  
HETATM    2  C   UNL     1      -7.777   8.696  69.010  1.00  0.00    -0.095 C  
ENDROOT
BRANCH   2   3
HETATM    3  C   UNL     1      -9.296   8.983  69.110  1.00  0.00    -0.148 C  
BRANCH   3   4
HETATM    4  N   UNL     1      -9.769  10.146  68.332  1.00  0.00    -0.144 NA 
HETATM    5  H   UNL     1      -9.730  10.142  67.313  1.00  0.00     0.000 HD 
BRANCH   4   6
HETATM    6  C   UNL     1     -10.294  11.307  69.058  1.00  0.00    -0.166 C  
HETATM    7  C   UNL     1     -10.918  12.256  68.025  1.00  0.00    -0.265 C  
HETATM    8  C   UNL     1     -11.372  10.967  70.088  1.00  0.00    -0.367 C  
ENDBRANCH   4   6
ENDBRANCH   3   4
BRANCH   3   9
HETATM    9  C   UNL     1     -10.107   7.652  68.892  1.00  0.00    -0.197 C  
HETATM   10  H   UNL     1      -9.792   5.889  68.064  1.00  0.00     0.000 HD 
HETATM   11  O   UNL     1      -9.302   6.693  68.195  1.00  0.00    -0.118 OA 
BRANCH   9  12
HETATM   12  C   UNL     1     -10.648   6.957  70.131  1.00  0.00    -0.249 A  
HETATM   13  C   UNL     1     -11.936   7.192  70.637  1.00  0.00    -0.312 A  
HETATM   14  C   UNL     1     -12.367   6.525  71.783  1.00  0.00    -0.287 A  
HETATM   15  O   UNL     1     -13.617   6.717  72.303  1.00  0.00    -0.539 OA 
HETATM   16  C   UNL     1     -11.531   5.623  72.433  1.00  0.00    -0.251 A  
HETATM   17  H   UNL     1     -13.911   6.263  73.084  1.00  0.00     0.000 HD 
HETATM   18  C   UNL     1     -10.251   5.389  71.964  1.00  0.00    -0.256 A  
HETATM   19  O   UNL     1     -11.972   4.964  73.545  1.00  0.00    -0.381 OA 
HETATM   20  H   UNL     1     -11.402   4.347  73.988  1.00  0.00     0.000 HD 
HETATM   21  C   UNL     1      -9.807   6.060  70.823  1.00  0.00    -0.221 A  
ENDBRANCH   9  12
ENDBRANCH   3   9
ENDBRANCH   2   3
TORSDOF 5
ENDMDL
MODEL      281
REMARK 921   NORMALIZED FREE ENERGY PREDICTED BY IDOCK:   -3.16 KCAL/MOL
REMARK 922        TOTAL FREE ENERGY PREDICTED BY IDOCK:   -4.76 KCAL/MOL
REMARK 923 INTER-LIGAND FREE ENERGY PREDICTED BY IDOCK:   -4.20 KCAL/MOL
REMARK 924 INTRA-LIGAND FREE ENERGY PREDICTED BY IDOCK:   -0.56 KCAL/MOL
REMARK 927      BINDING AFFINITY PREDICTED BY RF-SCORE:    0.00 PKD
ROOT
HETATM    1  C   UNL     1      -6.663  11.433  68.295  1.00  0.00    -0.059 C  
HETATM    2  C   UNL     1      -7.531  11.387  67.044  1.00  0.00    -0.147 C  
ENDROOT
BRANCH   2   3
HETATM    3  C   UNL     1      -7.904   9.965  66.556  1.00  0.00    -0.110 C  
BRANCH   3   4
HETATM    4  N   UNL     1      -7.877   8.916  67.596  1.00  0.00    -0.101 NA 
HETATM    5  H   UNL     1      -8.529   8.942  68.379  1.00  0.00     0.000 HD 
BRANCH   4   6
HETATM    6  C   UNL     1      -6.891   7.837  67.477  1.00  0.00    -0.069 C  
HETATM    7  C   UNL     1      -7.637   6.506  67.642  1.00  0.00    -0.105 C  
HETATM    8  C   UNL     1      -6.163   7.799  66.132  1.00  0.00    -0.045 C  
ENDBRANCH   4   6
ENDBRANCH   3   4
BRANCH   3   9
HETATM    9  C   UNL     1      -9.218  10.024  65.691  1.00  0.00    -0.186 C  
HETATM   10  H   UNL     1     -10.809   8.893  65.406  1.00  0.00     0.000 HD 
HETATM   11  O   UNL     1     -10.016   8.857  65.928  1.00  0.00    -0.245 OA 
BRANCH   9  12
HETATM   12  C   UNL     1     -10.125  11.227  65.888  1.00  0.00    -0.291 A  
HETATM   13  C   UNL     1     -10.219  12.273  64.956  1.00  0.00    -0.312 A  
HETATM   14  C   UNL     1     -11.068  13.351  65.202  1.00  0.00    -0.301 A  
HETATM   15  O   UNL     1     -11.196  14.384  64.315  1.00  0.00    -0.596 OA 
HETATM   16  C   UNL     1     -11.828  13.402  66.365  1.00  0.00    -0.396 A  
HETATM   17  H   UNL     1     -11.775  15.120  64.482  1.00  0.00     0.000 HD 
HETATM   18  C   UNL     1     -11.738  12.393  67.307  1.00  0.00    -0.419 A  
HETATM   19  O   UNL     1     -12.668  14.456  66.586  1.00  0.00    -0.485 OA 
HETATM   20  H   UNL     1     -13.187  14.491  67.380  1.00  0.00     0.000 HD 
HETATM   21  C   UNL     1     -10.883  11.314  67.074  1.00  0.00    -0.332 A  
ENDBRANCH   9  12
ENDBRANCH   3   9
ENDBRANCH   2   3
TORSDOF 5
ENDMDL
MODEL      282
REMARK 921   NORMALIZED FREE ENERGY PREDICTED BY IDOCK:   -3.12 KCAL/MOL
REMARK 922        TOTAL FREE ENERGY PREDICTED BY IDOCK:   -4.71 KCAL/MOL
REMARK 923 INTER-LIGAND FREE ENERGY PREDICTED BY IDOCK:   -4.41 KCAL/MOL
REMARK 924 INTRA-LIGAND FREE ENERGY PREDICTED BY IDOCK:   -0.30 KCAL/MOL
REMARK 927      BINDING AFFINITY PREDICTED BY RF-SCORE:    0.00 PKD
ROOT
HETATM    1  C   UNL     1     -10.251   8.317  70.652  1.00  0.00    -0.214 C  
HETATM    2  C   UNL     1     -10.386   9.819  70.437  1.00  0.00    -0.354 C  
ENDROOT
BRANCH   2   3
HETATM    3  C   UNL     1     -10.346  10.277  68.958  1.00  0.00    -0.211 C  
BRANCH   3   4
HETATM    4  N   UNL     1      -9.802  11.632  68.734  1.00  0.00    -0.361 NA 
HETATM    5  H   UNL     1      -8.798  11.804  68.776  1.00  0.00     0.000 HD 
BRANCH   4   6
HETATM    6  C   UNL     1     -10.739  12.724  68.450  1.00  0.00    -0.250 C  
HETATM    7  C   UNL     1     -11.696  12.240  67.351  1.00  0.00    -0.405 C  
HETATM    8  C   UNL     1     -11.585  13.152  69.650  1.00  0.00    -0.321 C  
ENDBRANCH   4   6
ENDBRANCH   3   4
BRANCH   3   9
HETATM    9  C   UNL     1      -9.720   9.143  68.064  1.00  0.00    -0.154 C  
HETATM   10  H   UNL     1     -10.334   7.472  67.213  1.00  0.00     0.000 HD 
HETATM   11  O   UNL     1     -10.712   8.157  67.753  1.00  0.00    -0.194 OA 
BRANCH   9  12
HETATM   12  C   UNL     1      -9.089   9.565  66.747  1.00  0.00    -0.173 A  
HETATM   13  C   UNL     1      -9.834   9.774  65.576  1.00  0.00    -0.378 A  
HETATM   14  C   UNL     1      -9.189  10.155  64.399  1.00  0.00    -0.258 A  
HETATM   15  O   UNL     1      -9.879  10.378  63.240  1.00  0.00    -0.432 OA 
HETATM   16  C   UNL     1      -7.811  10.332  64.373  1.00  0.00    -0.117 A  
HETATM   17  H   UNL     1      -9.441  10.637  62.438  1.00  0.00     0.000 HD 
HETATM   18  C   UNL     1      -7.054  10.113  65.510  1.00  0.00    -0.138 A  
HETATM   19  O   UNL     1      -7.195  10.721  63.218  1.00  0.00    -0.349 OA 
HETATM   20  H   UNL     1      -6.253  10.843  63.200  1.00  0.00     0.000 HD 
HETATM   21  C   UNL     1      -7.689   9.722  66.691  1.00  0.00    -0.102 A  
ENDBRANCH   9  12
ENDBRANCH   3   9
ENDBRANCH   2   3
TORSDOF 5
ENDMDL
MODEL      283
REMARK 921   NORMALIZED FREE ENERGY PREDICTED BY IDOCK:   -3.10 KCAL/MOL
REMARK 922        TOTAL FREE ENERGY PREDICTED BY IDOCK:   -4.69 KCAL/MOL
REMARK 923 INTER-LIGAND FREE ENERGY PREDICTED BY IDOCK:   -4.05 KCAL/MOL
REMARK 924 INTRA-LIGAND FREE ENERGY PREDICTED BY IDOCK:   -0.64 KCAL/MOL
REMARK 927      BINDING AFFINITY PREDICTED BY RF-SCORE:    0.00 PKD
ROOT
HETATM    1  C   UNL     1      -6.663   8.604  69.794  1.00  0.00    -0.042 C  
HETATM    2  C   UNL     1      -8.184   8.638  69.718  1.00  0.00    -0.121 C  
ENDROOT
BRANCH   2   3
HETATM    3  C   UNL     1      -8.787   9.979  69.232  1.00  0.00    -0.178 C  
BRANCH   3   4
HETATM    4  N   UNL     1      -8.028  10.658  68.162  1.00  0.00    -0.109 NA 
HETATM    5  H   UNL     1      -7.898  10.214  67.253  1.00  0.00     0.000 HD 
BRANCH   4   6
HETATM    6  C   UNL     1      -7.466  11.985  68.436  1.00  0.00    -0.110 C  
HETATM    7  C   UNL     1      -6.234  12.161  67.537  1.00  0.00    -0.130 C  
HETATM    8  C   UNL     1      -8.424  13.142  68.147  1.00  0.00    -0.173 C  
ENDBRANCH   4   6
ENDBRANCH   3   4
BRANCH   3   9
HETATM    9  C   UNL     1     -10.328   9.805  68.960  1.00  0.00    -0.208 C  
HETATM   10  H   UNL     1     -11.646   8.338  69.013  1.00  0.00     0.000 HD 
HETATM   11  O   UNL     1     -10.716   8.443  69.177  1.00  0.00    -0.200 OA 
BRANCH   9  12
HETATM   12  C   UNL     1     -11.278  10.670  69.772  1.00  0.00    -0.363 A  
HETATM   13  C   UNL     1     -11.574  12.001  69.437  1.00  0.00    -0.393 A  
HETATM   14  C   UNL     1     -12.451  12.740  70.230  1.00  0.00    -0.105 A  
HETATM   15  O   UNL     1     -12.774  14.035  69.934  1.00  0.00    -0.381 OA 
HETATM   16  C   UNL     1     -13.041  12.170  71.353  1.00  0.00    -0.187 A  
HETATM   17  H   UNL     1     -13.371  14.540  70.474  1.00  0.00     0.000 HD 
HETATM   18  C   UNL     1     -12.750  10.867  71.713  1.00  0.00    -0.435 A  
HETATM   19  O   UNL     1     -13.911  12.900  72.112  1.00  0.00    -0.442 OA 
HETATM   20  H   UNL     1     -14.314  12.511  72.878  1.00  0.00     0.000 HD 
HETATM   21  C   UNL     1     -11.865  10.122  70.931  1.00  0.00    -0.468 A  
ENDBRANCH   9  12
ENDBRANCH   3   9
ENDBRANCH   2   3
TORSDOF 5
ENDMDL
MODEL      284
REMARK 921   NORMALIZED FREE ENERGY PREDICTED BY IDOCK:   -3.10 KCAL/MOL
REMARK 922        TOTAL FREE ENERGY PREDICTED BY IDOCK:   -4.68 KCAL/MOL
REMARK 923 INTER-LIGAND FREE ENERGY PREDICTED BY IDOCK:   -4.06 KCAL/MOL
REMARK 924 INTRA-LIGAND FREE ENERGY PREDICTED BY IDOCK:   -0.62 KCAL/MOL
REMARK 927      BINDING AFFINITY PREDICTED BY RF-SCORE:    0.00 PKD
ROOT
HETATM    1  C   UNL     1      -7.203   8.709  70.337  1.00  0.00    -0.045 C  
HETATM    2  C   UNL     1      -7.892   7.876  71.410  1.00  0.00    -0.092 C  
ENDROOT
BRANCH   2   3
HETATM    3  C   UNL     1      -9.137   7.089  70.930  1.00  0.00    -0.153 C  
BRANCH   3   4
HETATM    4  N   UNL     1      -9.305   5.751  71.534  1.00  0.00    -0.146 NA 
HETATM    5  H   UNL     1      -9.151   4.907  70.983  1.00  0.00     0.000 HD 
BRANCH   4   6
HETATM    6  C   UNL     1      -9.699   5.664  72.944  1.00  0.00    -0.155 C  
HETATM    7  C   UNL     1     -11.053   4.943  73.003  1.00  0.00    -0.368 C  
HETATM    8  C   UNL     1      -8.717   4.885  73.821  1.00  0.00    -0.105 C  
ENDBRANCH   4   6
ENDBRANCH   3   4
BRANCH   3   9
HETATM    9  C   UNL     1     -10.408   8.016  70.981  1.00  0.00    -0.201 C  
HETATM   10  H   UNL     1     -11.114   9.433  72.158  1.00  0.00     0.000 HD 
HETATM   11  O   UNL     1     -10.347   8.873  72.127  1.00  0.00    -0.333 OA 
BRANCH   9  12
HETATM   12  C   UNL     1     -10.667   8.906  69.777  1.00  0.00    -0.230 A  
HETATM   13  C   UNL     1     -10.384   8.510  68.460  1.00  0.00    -0.230 A  
HETATM   14  C   UNL     1     -10.640   9.380  67.400  1.00  0.00    -0.258 A  
HETATM   15  O   UNL     1     -10.389   9.029  66.103  1.00  0.00    -0.304 OA 
HETATM   16  C   UNL     1     -11.177  10.641  67.634  1.00  0.00    -0.290 A  
HETATM   17  H   UNL     1     -10.564   9.622  65.381  1.00  0.00     0.000 HD 
HETATM   18  C   UNL     1     -11.446  11.060  68.925  1.00  0.00    -0.364 A  
HETATM   19  O   UNL     1     -11.439  11.477  66.587  1.00  0.00    -0.423 OA 
HETATM   20  H   UNL     1     -11.806  12.338  66.746  1.00  0.00     0.000 HD 
HETATM   21  C   UNL     1     -11.183  10.200  69.993  1.00  0.00    -0.361 A  
ENDBRANCH   9  12
ENDBRANCH   3   9
ENDBRANCH   2   3
TORSDOF 5
ENDMDL
MODEL      285
REMARK 921   NORMALIZED FREE ENERGY PREDICTED BY IDOCK:   -3.10 KCAL/MOL
REMARK 922        TOTAL FREE ENERGY PREDICTED BY IDOCK:   -4.68 KCAL/MOL
REMARK 923 INTER-LIGAND FREE ENERGY PREDICTED BY IDOCK:   -3.84 KCAL/MOL
REMARK 924 INTRA-LIGAND FREE ENERGY PREDICTED BY IDOCK:   -0.84 KCAL/MOL
REMARK 927      BINDING AFFINITY PREDICTED BY RF-SCORE:    0.00 PKD
ROOT
HETATM    1  C   UNL     1     -12.578  11.529  70.872  1.00  0.00    -0.438 C  
HETATM    2  C   UNL     1     -12.610  10.006  70.849  1.00  0.00    -0.424 C  
ENDROOT
BRANCH   2   3
HETATM    3  C   UNL     1     -11.223   9.320  70.905  1.00  0.00    -0.306 C  
BRANCH   3   4
HETATM    4  N   UNL     1     -10.098  10.133  70.398  1.00  0.00    -0.401 NA 
HETATM    5  H   UNL     1      -9.700  10.882  70.964  1.00  0.00     0.000 HD 
BRANCH   4   6
HETATM    6  C   UNL     1      -9.568   9.839  69.063  1.00  0.00    -0.177 C  
HETATM    7  C   UNL     1      -9.649   8.320  68.856  1.00  0.00    -0.153 C  
HETATM    8  C   UNL     1     -10.338  10.507  67.922  1.00  0.00    -0.226 C  
ENDBRANCH   4   6
ENDBRANCH   3   4
BRANCH   3   9
HETATM    9  C   UNL     1     -11.002   8.674  72.324  1.00  0.00    -0.322 C  
HETATM   10  H   UNL     1     -11.963   7.416  73.502  1.00  0.00     0.000 HD 
HETATM   11  O   UNL     1     -12.096   7.806  72.645  1.00  0.00    -0.258 OA 
BRANCH   9  12
HETATM   12  C   UNL     1      -9.727   7.875  72.533  1.00  0.00    -0.290 A  
HETATM   13  C   UNL     1      -8.555   8.433  73.068  1.00  0.00    -0.217 A  
HETATM   14  C   UNL     1      -7.417   7.643  73.228  1.00  0.00    -0.103 A  
HETATM   15  O   UNL     1      -6.259   8.145  73.755  1.00  0.00    -0.090 OA 
HETATM   16  C   UNL     1      -7.430   6.302  72.863  1.00  0.00    -0.096 A  
HETATM   17  H   UNL     1      -5.483   7.608  73.863  1.00  0.00     0.000 HD 
HETATM   18  C   UNL     1      -8.567   5.735  72.316  1.00  0.00    -0.125 A  
HETATM   19  O   UNL     1      -6.314   5.536  73.039  1.00  0.00    -0.056 OA 
HETATM   20  H   UNL     1      -6.322   4.620  72.790  1.00  0.00     0.000 HD 
HETATM   21  C   UNL     1      -9.708   6.520  72.143  1.00  0.00    -0.157 A  
ENDBRANCH   9  12
ENDBRANCH   3   9
ENDBRANCH   2   3
TORSDOF 5
ENDMDL
MODEL      286
REMARK 921   NORMALIZED FREE ENERGY PREDICTED BY IDOCK:   -3.08 KCAL/MOL
REMARK 922        TOTAL FREE ENERGY PREDICTED BY IDOCK:   -4.65 KCAL/MOL
REMARK 923 INTER-LIGAND FREE ENERGY PREDICTED BY IDOCK:   -4.01 KCAL/MOL
REMARK 924 INTRA-LIGAND FREE ENERGY PREDICTED BY IDOCK:   -0.64 KCAL/MOL
REMARK 927      BINDING AFFINITY PREDICTED BY RF-SCORE:    0.00 PKD
ROOT
HETATM    1  C   UNL     1      -7.557  11.534  68.464  1.00  0.00    -0.130 C  
HETATM    2  C   UNL     1      -8.454  12.239  67.454  1.00  0.00    -0.176 C  
ENDROOT
BRANCH   2   3
HETATM    3  C   UNL     1      -9.860  12.623  67.981  1.00  0.00    -0.218 C  
BRANCH   3   4
HETATM    4  N   UNL     1     -10.317  13.980  67.619  1.00  0.00    -0.240 NA 
HETATM    5  H   UNL     1     -10.878  14.135  66.782  1.00  0.00     0.000 HD 
BRANCH   4   6
HETATM    6  C   UNL     1      -9.946  15.099  68.491  1.00  0.00    -0.223 C  
HETATM    7  C   UNL     1      -9.059  16.049  67.674  1.00  0.00    -0.200 C  
HETATM    8  C   UNL     1     -11.135  15.907  69.014  1.00  0.00    -0.294 C  
ENDBRANCH   4   6
ENDBRANCH   3   4
BRANCH   3   9
HETATM    9  C   UNL     1     -10.880  11.463  67.676  1.00  0.00    -0.237 C  
HETATM   10  H   UNL     1     -11.314  10.287  66.153  1.00  0.00     0.000 HD 
HETATM   11  O   UNL     1     -10.698  10.987  66.337  1.00  0.00    -0.262 OA 
BRANCH   9  12
HETATM   12  C   UNL     1     -10.842  10.247  68.587  1.00  0.00    -0.272 A  
HETATM   13  C   UNL     1     -10.566   8.952  68.121  1.00  0.00    -0.211 A  
HETATM   14  C   UNL     1     -10.553   7.879  69.011  1.00  0.00    -0.162 A  
HETATM   15  O   UNL     1     -10.279   6.604  68.599  1.00  0.00    -0.154 OA 
HETATM   16  C   UNL     1     -10.811   8.078  70.362  1.00  0.00    -0.247 A  
HETATM   17  H   UNL     1     -10.270   5.873  69.205  1.00  0.00     0.000 HD 
HETATM   18  C   UNL     1     -11.104   9.342  70.842  1.00  0.00    -0.389 A  
HETATM   19  O   UNL     1     -10.779   7.021  71.226  1.00  0.00    -0.219 OA 
HETATM   20  H   UNL     1     -10.954   7.157  72.150  1.00  0.00     0.000 HD 
HETATM   21  C   UNL     1     -11.129  10.422  69.957  1.00  0.00    -0.379 A  
ENDBRANCH   9  12
ENDBRANCH   3   9
ENDBRANCH   2   3
TORSDOF 5
ENDMDL
MODEL      287
REMARK 921   NORMALIZED FREE ENERGY PREDICTED BY IDOCK:   -3.04 KCAL/MOL
REMARK 922        TOTAL FREE ENERGY PREDICTED BY IDOCK:   -4.61 KCAL/MOL
REMARK 923 INTER-LIGAND FREE ENERGY PREDICTED BY IDOCK:   -4.00 KCAL/MOL
REMARK 924 INTRA-LIGAND FREE ENERGY PREDICTED BY IDOCK:   -0.61 KCAL/MOL
REMARK 927      BINDING AFFINITY PREDICTED BY RF-SCORE:    0.00 PKD
ROOT
HETATM    1  C   UNL     1      -7.957  10.619  68.669  1.00  0.00    -0.128 C  
HETATM    2  C   UNL     1      -8.960  10.628  67.522  1.00  0.00    -0.136 C  
ENDROOT
BRANCH   2   3
HETATM    3  C   UNL     1     -10.325   9.968  67.838  1.00  0.00    -0.207 C  
BRANCH   3   4
HETATM    4  N   UNL     1     -11.510  10.783  67.500  1.00  0.00    -0.491 NA 
HETATM    5  H   UNL     1     -12.430  10.352  67.410  1.00  0.00     0.000 HD 
BRANCH   4   6
HETATM    6  C   UNL     1     -11.333  12.224  67.295  1.00  0.00    -0.328 C  
HETATM    7  C   UNL     1     -11.876  12.564  65.900  1.00  0.00    -0.489 C  
HETATM    8  C   UNL     1     -12.076  13.096  68.309  1.00  0.00    -0.217 C  
ENDBRANCH   4   6
ENDBRANCH   3   4
BRANCH   3   9
HETATM    9  C   UNL     1     -10.344   8.491  67.294  1.00  0.00    -0.302 C  
HETATM   10  H   UNL     1      -9.463   7.474  65.852  1.00  0.00     0.000 HD 
HETATM   11  O   UNL     1      -9.452   8.365  66.180  1.00  0.00    -0.214 OA 
BRANCH   9  12
HETATM   12  C   UNL     1      -9.986   7.386  68.274  1.00  0.00    -0.182 A  
HETATM   13  C   UNL     1      -8.667   7.112  68.667  1.00  0.00    -0.127 A  
HETATM   14  C   UNL     1      -8.408   6.077  69.566  1.00  0.00    -0.115 A  
HETATM   15  O   UNL     1      -7.139   5.785  69.982  1.00  0.00    -0.063 OA 
HETATM   16  C   UNL     1      -9.448   5.312  70.081  1.00  0.00    -0.160 A  
HETATM   17  H   UNL     1      -6.962   5.080  70.595  1.00  0.00     0.000 HD 
HETATM   18  C   UNL     1     -10.754   5.551  69.694  1.00  0.00    -0.349 A  
HETATM   19  O   UNL     1      -9.182   4.312  70.973  1.00  0.00    -0.122 OA 
HETATM   20  H   UNL     1      -9.892   3.789  71.325  1.00  0.00     0.000 HD 
HETATM   21  C   UNL     1     -11.022   6.578  68.786  1.00  0.00    -0.371 A  
ENDBRANCH   9  12
ENDBRANCH   3   9
ENDBRANCH   2   3
TORSDOF 5
ENDMDL
MODEL      288
REMARK 921   NORMALIZED FREE ENERGY PREDICTED BY IDOCK:   -3.04 KCAL/MOL
REMARK 922        TOTAL FREE ENERGY PREDICTED BY IDOCK:   -4.61 KCAL/MOL
REMARK 923 INTER-LIGAND FREE ENERGY PREDICTED BY IDOCK:   -3.65 KCAL/MOL
REMARK 924 INTRA-LIGAND FREE ENERGY PREDICTED BY IDOCK:   -0.95 KCAL/MOL
REMARK 927      BINDING AFFINITY PREDICTED BY RF-SCORE:    0.00 PKD
ROOT
HETATM    1  C   UNL     1     -10.664   6.885  67.682  1.00  0.00    -0.344 C  
HETATM    2  C   UNL     1     -10.478   8.115  68.561  1.00  0.00    -0.199 C  
ENDROOT
BRANCH   2   3
HETATM    3  C   UNL     1      -9.963   9.377  67.824  1.00  0.00    -0.184 C  
BRANCH   3   4
HETATM    4  N   UNL     1     -10.596   9.642  66.516  1.00  0.00    -0.130 NA 
HETATM    5  H   UNL     1     -11.574   9.923  66.458  1.00  0.00     0.000 HD 
BRANCH   4   6
HETATM    6  C   UNL     1      -9.785   9.492  65.303  1.00  0.00    -0.198 C  
HETATM    7  C   UNL     1      -9.622  10.885  64.680  1.00  0.00    -0.305 C  
HETATM    8  C   UNL     1      -8.386   8.925  65.551  1.00  0.00    -0.142 C  
ENDBRANCH   4   6
ENDBRANCH   3   4
BRANCH   3   9
HETATM    9  C   UNL     1      -9.928  10.598  68.817  1.00  0.00    -0.193 C  
HETATM   10  H   UNL     1      -9.140  11.002  70.580  1.00  0.00     0.000 HD 
HETATM   11  O   UNL     1      -9.161  10.265  69.981  1.00  0.00    -0.100 OA 
BRANCH   9  12
HETATM   12  C   UNL     1      -9.375  11.910  68.284  1.00  0.00    -0.193 A  
HETATM   13  C   UNL     1      -8.016  12.102  67.989  1.00  0.00    -0.152 A  
HETATM   14  C   UNL     1      -7.574  13.334  67.509  1.00  0.00    -0.164 A  
HETATM   15  O   UNL     1      -6.261  13.559  67.199  1.00  0.00    -0.442 OA 
HETATM   16  C   UNL     1      -8.470  14.380  67.316  1.00  0.00    -0.212 A  
HETATM   17  H   UNL     1      -5.960  14.398  66.872  1.00  0.00     0.000 HD 
HETATM   18  C   UNL     1      -9.810  14.221  67.618  1.00  0.00    -0.224 A  
HETATM   19  O   UNL     1      -8.027  15.576  66.830  1.00  0.00    -0.233 OA 
HETATM   20  H   UNL     1      -8.638  16.291  66.698  1.00  0.00     0.000 HD 
HETATM   21  C   UNL     1     -10.260  12.993  68.109  1.00  0.00    -0.239 A  
ENDBRANCH   9  12
ENDBRANCH   3   9
ENDBRANCH   2   3
TORSDOF 5
ENDMDL
MODEL      289
REMARK 921   NORMALIZED FREE ENERGY PREDICTED BY IDOCK:   -3.03 KCAL/MOL
REMARK 922        TOTAL FREE ENERGY PREDICTED BY IDOCK:   -4.59 KCAL/MOL
REMARK 923 INTER-LIGAND FREE ENERGY PREDICTED BY IDOCK:   -4.20 KCAL/MOL
REMARK 924 INTRA-LIGAND FREE ENERGY PREDICTED BY IDOCK:   -0.39 KCAL/MOL
REMARK 927      BINDING AFFINITY PREDICTED BY RF-SCORE:    0.00 PKD
ROOT
HETATM    1  C   UNL     1      -8.566  11.497  68.923  1.00  0.00     0.024 C  
HETATM    2  C   UNL     1      -9.043  10.051  68.968  1.00  0.00    -0.172 C  
ENDROOT
BRANCH   2   3
HETATM    3  C   UNL     1     -10.582   9.868  68.967  1.00  0.00    -0.220 C  
BRANCH   3   4
HETATM    4  N   UNL     1     -11.315  10.711  69.933  1.00  0.00    -0.290 NA 
HETATM    5  H   UNL     1     -11.147  11.716  69.981  1.00  0.00     0.000 HD 
BRANCH   4   6
HETATM    6  C   UNL     1     -12.291  10.072  70.821  1.00  0.00    -0.303 C  
HETATM    7  C   UNL     1     -11.524   9.105  71.733  1.00  0.00    -0.452 C  
HETATM    8  C   UNL     1     -13.057  11.048  71.716  1.00  0.00    -0.554 C  
ENDBRANCH   4   6
ENDBRANCH   3   4
BRANCH   3   9
HETATM    9  C   UNL     1     -11.124   9.905  67.490  1.00  0.00    -0.071 C  
HETATM   10  H   UNL     1     -11.875  11.255  66.263  1.00  0.00     0.000 HD 
HETATM   11  O   UNL     1     -11.548  11.233  67.155  1.00  0.00    -0.513 OA 
BRANCH   9  12
HETATM   12  C   UNL     1     -10.178   9.452  66.391  1.00  0.00    -0.300 A  
HETATM   13  C   UNL     1      -9.843  10.259  65.291  1.00  0.00    -0.372 A  
HETATM   14  C   UNL     1      -8.972   9.778  64.314  1.00  0.00    -0.237 A  
HETATM   15  O   UNL     1      -8.613  10.535  63.234  1.00  0.00    -0.172 OA 
HETATM   16  C   UNL     1      -8.428   8.503  64.417  1.00  0.00    -0.071 A  
HETATM   17  H   UNL     1      -8.020  10.208  62.568  1.00  0.00     0.000 HD 
HETATM   18  C   UNL     1      -8.758   7.683  65.482  1.00  0.00    -0.079 A  
HETATM   19  O   UNL     1      -7.563   8.051  63.462  1.00  0.00    -0.117 OA 
HETATM   20  H   UNL     1      -7.191   7.180  63.532  1.00  0.00     0.000 HD 
HETATM   21  C   UNL     1      -9.637   8.152  66.460  1.00  0.00    -0.303 A  
ENDBRANCH   9  12
ENDBRANCH   3   9
ENDBRANCH   2   3
TORSDOF 5
ENDMDL
MODEL      290
REMARK 921   NORMALIZED FREE ENERGY PREDICTED BY IDOCK:   -3.02 KCAL/MOL
REMARK 922        TOTAL FREE ENERGY PREDICTED BY IDOCK:   -4.58 KCAL/MOL
REMARK 923 INTER-LIGAND FREE ENERGY PREDICTED BY IDOCK:   -3.88 KCAL/MOL
REMARK 924 INTRA-LIGAND FREE ENERGY PREDICTED BY IDOCK:   -0.70 KCAL/MOL
REMARK 927      BINDING AFFINITY PREDICTED BY RF-SCORE:    0.00 PKD
ROOT
HETATM    1  C   UNL     1      -7.838   9.200  70.483  1.00  0.00    -0.155 C  
HETATM    2  C   UNL     1      -7.833  10.396  69.540  1.00  0.00    -0.161 C  
ENDROOT
BRANCH   2   3
HETATM    3  C   UNL     1      -9.095  10.537  68.653  1.00  0.00    -0.158 C  
BRANCH   3   4
HETATM    4  N   UNL     1      -9.718  11.876  68.655  1.00  0.00    -0.347 NA 
HETATM    5  H   UNL     1      -9.154  12.714  68.792  1.00  0.00     0.000 HD 
BRANCH   4   6
HETATM    6  C   UNL     1     -11.168  11.974  68.454  1.00  0.00    -0.262 C  
HETATM    7  C   UNL     1     -11.664  13.195  69.242  1.00  0.00    -0.376 C  
HETATM    8  C   UNL     1     -11.588  12.159  66.995  1.00  0.00    -0.406 C  
ENDBRANCH   4   6
ENDBRANCH   3   4
BRANCH   3   9
HETATM    9  C   UNL     1      -8.819   9.924  67.229  1.00  0.00    -0.132 C  
HETATM   10  H   UNL     1      -7.253   9.623  66.067  1.00  0.00     0.000 HD 
HETATM   11  O   UNL     1      -7.420   9.993  66.926  1.00  0.00    -0.094 OA 
BRANCH   9  12
HETATM   12  C   UNL     1      -9.250   8.485  66.997  1.00  0.00    -0.187 A  
HETATM   13  C   UNL     1      -8.364   7.480  66.581  1.00  0.00    -0.127 A  
HETATM   14  C   UNL     1      -8.828   6.180  66.380  1.00  0.00    -0.141 A  
HETATM   15  O   UNL     1      -7.995   5.170  65.985  1.00  0.00    -0.105 OA 
HETATM   16  C   UNL     1     -10.166   5.867  66.591  1.00  0.00    -0.205 A  
HETATM   17  H   UNL     1      -8.311   4.285  65.848  1.00  0.00     0.000 HD 
HETATM   18  C   UNL     1     -11.062   6.845  66.984  1.00  0.00    -0.315 A  
HETATM   19  O   UNL     1     -10.604   4.587  66.407  1.00  0.00    -0.359 OA 
HETATM   20  H   UNL     1     -11.518   4.372  66.551  1.00  0.00     0.000 HD 
HETATM   21  C   UNL     1     -10.609   8.151  67.177  1.00  0.00    -0.355 A  
ENDBRANCH   9  12
ENDBRANCH   3   9
ENDBRANCH   2   3
TORSDOF 5
ENDMDL
MODEL      291
REMARK 921   NORMALIZED FREE ENERGY PREDICTED BY IDOCK:   -3.02 KCAL/MOL
REMARK 922        TOTAL FREE ENERGY PREDICTED BY IDOCK:   -4.57 KCAL/MOL
REMARK 923 INTER-LIGAND FREE ENERGY PREDICTED BY IDOCK:   -4.01 KCAL/MOL
REMARK 924 INTRA-LIGAND FREE ENERGY PREDICTED BY IDOCK:   -0.56 KCAL/MOL
REMARK 927      BINDING AFFINITY PREDICTED BY RF-SCORE:    0.00 PKD
ROOT
HETATM    1  C   UNL     1     -11.997  12.312  69.784  1.00  0.00    -0.365 C  
HETATM    2  C   UNL     1     -11.207  11.484  68.779  1.00  0.00    -0.309 C  
ENDROOT
BRANCH   2   3
HETATM    3  C   UNL     1     -10.705  12.263  67.538  1.00  0.00    -0.225 C  
BRANCH   3   4
HETATM    4  N   UNL     1      -9.666  13.278  67.811  1.00  0.00    -0.211 NA 
HETATM    5  H   UNL     1      -8.739  13.001  68.133  1.00  0.00     0.000 HD 
BRANCH   4   6
HETATM    6  C   UNL     1      -9.998  14.692  67.609  1.00  0.00    -0.227 C  
HETATM    7  C   UNL     1      -9.053  15.241  66.530  1.00  0.00    -0.334 C  
HETATM    8  C   UNL     1     -11.433  14.937  67.139  1.00  0.00    -0.344 C  
ENDBRANCH   4   6
ENDBRANCH   3   4
BRANCH   3   9
HETATM    9  C   UNL     1     -10.376  11.258  66.372  1.00  0.00    -0.245 C  
HETATM   10  H   UNL     1      -9.093  11.153  64.876  1.00  0.00     0.000 HD 
HETATM   11  O   UNL     1      -9.292  11.760  65.580  1.00  0.00    -0.221 OA 
BRANCH   9  12
HETATM   12  C   UNL     1     -10.015   9.835  66.763  1.00  0.00    -0.278 A  
HETATM   13  C   UNL     1     -10.959   8.797  66.824  1.00  0.00     0.353 A  
HETATM   14  C   UNL     1     -10.561   7.514  67.197  1.00  0.00    -0.345 A  
HETATM   15  O   UNL     1     -11.447   6.474  67.258  1.00  0.00    -0.754 OA 
HETATM   16  C   UNL     1      -9.233   7.248  67.509  1.00  0.00    -0.130 A  
HETATM   17  H   UNL     1     -11.176   5.599  67.512  1.00  0.00     0.000 HD 
HETATM   18  C   UNL     1      -8.288   8.258  67.474  1.00  0.00    -0.130 A  
HETATM   19  O   UNL     1      -8.854   5.983  67.857  1.00  0.00    -0.112 OA 
HETATM   20  H   UNL     1      -7.946   5.801  68.070  1.00  0.00     0.000 HD 
HETATM   21  C   UNL     1      -8.679   9.549  67.112  1.00  0.00    -0.137 A  
ENDBRANCH   9  12
ENDBRANCH   3   9
ENDBRANCH   2   3
TORSDOF 5
ENDMDL
MODEL      292
REMARK 921   NORMALIZED FREE ENERGY PREDICTED BY IDOCK:   -2.97 KCAL/MOL
REMARK 922        TOTAL FREE ENERGY PREDICTED BY IDOCK:   -4.51 KCAL/MOL
REMARK 923 INTER-LIGAND FREE ENERGY PREDICTED BY IDOCK:   -3.88 KCAL/MOL
REMARK 924 INTRA-LIGAND FREE ENERGY PREDICTED BY IDOCK:   -0.63 KCAL/MOL
REMARK 927      BINDING AFFINITY PREDICTED BY RF-SCORE:    0.00 PKD
ROOT
HETATM    1  C   UNL     1      -6.504   7.420  69.040  1.00  0.00    -0.040 C  
HETATM    2  C   UNL     1      -7.169   8.481  68.174  1.00  0.00    -0.087 C  
ENDROOT
BRANCH   2   3
HETATM    3  C   UNL     1      -8.597   8.888  68.616  1.00  0.00    -0.133 C  
BRANCH   3   4
HETATM    4  N   UNL     1      -9.291   7.909  69.477  1.00  0.00    -0.156 NA 
HETATM    5  H   UNL     1      -8.765   7.214  70.006  1.00  0.00     0.000 HD 
BRANCH   4   6
HETATM    6  C   UNL     1     -10.755   7.960  69.555  1.00  0.00    -0.192 C  
HETATM    7  C   UNL     1     -11.273   6.517  69.477  1.00  0.00    -0.434 C  
HETATM    8  C   UNL     1     -11.293   8.580  70.846  1.00  0.00    -0.304 C  
ENDBRANCH   4   6
ENDBRANCH   3   4
BRANCH   3   9
HETATM    9  C   UNL     1      -8.590  10.370  69.148  1.00  0.00    -0.164 C  
HETATM   10  H   UNL     1      -7.240  11.694  69.711  1.00  0.00     0.000 HD 
HETATM   11  O   UNL     1      -7.244  10.800  69.389  1.00  0.00    -0.108 OA 
BRANCH   9  12
HETATM   12  C   UNL     1      -9.241  11.426  68.272  1.00  0.00    -0.183 A  
HETATM   13  C   UNL     1     -10.482  11.238  67.643  1.00  0.00    -0.225 A  
HETATM   14  C   UNL     1     -11.020  12.248  66.846  1.00  0.00    -0.267 A  
HETATM   15  O   UNL     1     -12.231  12.109  66.225  1.00  0.00    -0.604 OA 
HETATM   16  C   UNL     1     -10.338  13.446  66.667  1.00  0.00    -0.269 A  
HETATM   17  H   UNL     1     -12.597  12.796  65.682  1.00  0.00     0.000 HD 
HETATM   18  C   UNL     1      -9.105  13.647  67.260  1.00  0.00    -0.228 A  
HETATM   19  O   UNL     1     -10.884  14.433  65.897  1.00  0.00    -0.292 OA 
HETATM   20  H   UNL     1     -10.419  15.252  65.774  1.00  0.00     0.000 HD 
HETATM   21  C   UNL     1      -8.553  12.638  68.052  1.00  0.00    -0.189 A  
ENDBRANCH   9  12
ENDBRANCH   3   9
ENDBRANCH   2   3
TORSDOF 5
ENDMDL
MODEL      293
REMARK 921   NORMALIZED FREE ENERGY PREDICTED BY IDOCK:   -2.95 KCAL/MOL
REMARK 922        TOTAL FREE ENERGY PREDICTED BY IDOCK:   -4.49 KCAL/MOL
REMARK 923 INTER-LIGAND FREE ENERGY PREDICTED BY IDOCK:   -3.77 KCAL/MOL
REMARK 924 INTRA-LIGAND FREE ENERGY PREDICTED BY IDOCK:   -0.72 KCAL/MOL
REMARK 927      BINDING AFFINITY PREDICTED BY RF-SCORE:    0.00 PKD
ROOT
HETATM    1  C   UNL     1      -6.087   7.123  69.248  1.00  0.00    -0.030 C  
HETATM    2  C   UNL     1      -7.079   7.775  70.202  1.00  0.00    -0.054 C  
ENDROOT
BRANCH   2   3
HETATM    3  C   UNL     1      -8.524   7.906  69.658  1.00  0.00    -0.132 C  
BRANCH   3   4
HETATM    4  N   UNL     1      -9.289   9.058  70.177  1.00  0.00    -0.178 NA 
HETATM    5  H   UNL     1      -8.880   9.992  70.190  1.00  0.00     0.000 HD 
BRANCH   4   6
HETATM    6  C   UNL     1     -10.650   8.828  70.673  1.00  0.00    -0.215 C  
HETATM    7  C   UNL     1     -10.547   8.489  72.167  1.00  0.00    -0.419 C  
HETATM    8  C   UNL     1     -11.580  10.034  70.531  1.00  0.00    -0.403 C  
ENDBRANCH   4   6
ENDBRANCH   3   4
BRANCH   3   9
HETATM    9  C   UNL     1      -8.521   7.749  68.091  1.00  0.00    -0.124 C  
HETATM   10  H   UNL     1      -9.525   6.715  66.743  1.00  0.00     0.000 HD 
HETATM   11  O   UNL     1      -9.526   6.810  67.689  1.00  0.00    -0.120 OA 
BRANCH   9  12
HETATM   12  C   UNL     1      -8.735   9.007  67.267  1.00  0.00    -0.122 A  
HETATM   13  C   UNL     1      -7.841  10.088  67.277  1.00  0.00    -0.102 A  
HETATM   14  C   UNL     1      -8.102  11.216  66.500  1.00  0.00    -0.163 A  
HETATM   15  O   UNL     1      -7.251  12.287  66.474  1.00  0.00    -0.353 OA 
HETATM   16  C   UNL     1      -9.243  11.282  65.710  1.00  0.00    -0.219 A  
HETATM   17  H   UNL     1      -7.429  13.056  65.945  1.00  0.00     0.000 HD 
HETATM   18  C   UNL     1     -10.149  10.237  65.697  1.00  0.00    -0.341 A  
HETATM   19  O   UNL     1      -9.479  12.386  64.941  1.00  0.00    -0.456 OA 
HETATM   20  H   UNL     1     -10.259  12.431  64.401  1.00  0.00     0.000 HD 
HETATM   21  C   UNL     1      -9.902   9.107  66.480  1.00  0.00    -0.333 A  
ENDBRANCH   9  12
ENDBRANCH   3   9
ENDBRANCH   2   3
TORSDOF 5
ENDMDL
MODEL      294
REMARK 921   NORMALIZED FREE ENERGY PREDICTED BY IDOCK:   -2.95 KCAL/MOL
REMARK 922        TOTAL FREE ENERGY PREDICTED BY IDOCK:   -4.49 KCAL/MOL
REMARK 923 INTER-LIGAND FREE ENERGY PREDICTED BY IDOCK:   -3.82 KCAL/MOL
REMARK 924 INTRA-LIGAND FREE ENERGY PREDICTED BY IDOCK:   -0.67 KCAL/MOL
REMARK 927      BINDING AFFINITY PREDICTED BY RF-SCORE:    0.00 PKD
ROOT
HETATM    1  C   UNL     1      -6.722   7.464  67.815  1.00  0.00    -0.062 C  
HETATM    2  C   UNL     1      -7.882   8.393  67.479  1.00  0.00    -0.099 C  
ENDROOT
BRANCH   2   3
HETATM    3  C   UNL     1      -9.134   8.229  68.376  1.00  0.00    -0.136 C  
BRANCH   3   4
HETATM    4  N   UNL     1      -9.088   7.092  69.318  1.00  0.00    -0.138 NA 
HETATM    5  H   UNL     1      -8.382   7.051  70.052  1.00  0.00     0.000 HD 
BRANCH   4   6
HETATM    6  C   UNL     1     -10.081   6.022  69.173  1.00  0.00    -0.181 C  
HETATM    7  C   UNL     1     -11.045   6.433  68.050  1.00  0.00    -0.365 C  
HETATM    8  C   UNL     1      -9.487   4.662  68.803  1.00  0.00    -0.214 C  
ENDBRANCH   4   6
ENDBRANCH   3   4
BRANCH   3   9
HETATM    9  C   UNL     1      -9.522   9.616  69.012  1.00  0.00    -0.168 C  
HETATM   10  H   UNL     1      -8.842  10.785  70.448  1.00  0.00     0.000 HD 
HETATM   11  O   UNL     1      -8.608   9.948  70.064  1.00  0.00    -0.203 OA 
BRANCH   9  12
HETATM   12  C   UNL     1      -9.578  10.815  68.080  1.00  0.00    -0.167 A  
HETATM   13  C   UNL     1      -8.546  11.763  67.992  1.00  0.00    -0.158 A  
HETATM   14  C   UNL     1      -8.666  12.844  67.120  1.00  0.00    -0.205 A  
HETATM   15  O   UNL     1      -7.679  13.783  66.997  1.00  0.00    -0.366 OA 
HETATM   16  C   UNL     1      -9.800  12.995  66.332  1.00  0.00    -0.270 A  
HETATM   17  H   UNL     1      -7.760  14.521  66.403  1.00  0.00     0.000 HD 
HETATM   18  C   UNL     1     -10.839  12.084  66.415  1.00  0.00    -0.314 A  
HETATM   19  O   UNL     1      -9.897  14.050  65.470  1.00  0.00    -0.461 OA 
HETATM   20  H   UNL     1     -10.672  14.153  64.930  1.00  0.00     0.000 HD 
HETATM   21  C   UNL     1     -10.733  11.004  67.292  1.00  0.00    -0.312 A  
ENDBRANCH   9  12
ENDBRANCH   3   9
ENDBRANCH   2   3
TORSDOF 5
ENDMDL
MODEL      295
REMARK 921   NORMALIZED FREE ENERGY PREDICTED BY IDOCK:   -2.94 KCAL/MOL
REMARK 922        TOTAL FREE ENERGY PREDICTED BY IDOCK:   -4.48 KCAL/MOL
REMARK 923 INTER-LIGAND FREE ENERGY PREDICTED BY IDOCK:   -3.74 KCAL/MOL
REMARK 924 INTRA-LIGAND FREE ENERGY PREDICTED BY IDOCK:   -0.74 KCAL/MOL
REMARK 927      BINDING AFFINITY PREDICTED BY RF-SCORE:    0.00 PKD
ROOT
HETATM    1  C   UNL     1      -9.772   5.396  70.686  1.00  0.00    -0.241 C  
HETATM    2  C   UNL     1      -9.582   6.588  69.757  1.00  0.00    -0.161 C  
ENDROOT
BRANCH   2   3
HETATM    3  C   UNL     1      -9.781   7.974  70.419  1.00  0.00    -0.178 C  
BRANCH   3   4
HETATM    4  N   UNL     1      -8.622   8.885  70.332  1.00  0.00    -0.162 NA 
HETATM    5  H   UNL     1      -8.442   9.420  69.483  1.00  0.00     0.000 HD 
BRANCH   4   6
HETATM    6  C   UNL     1      -7.735   9.002  71.494  1.00  0.00     0.015 C  
HETATM    7  C   UNL     1      -8.529   8.558  72.730  1.00  0.00    -0.157 C  
HETATM    8  C   UNL     1      -6.478   8.134  71.412  1.00  0.00    -0.042 C  
ENDBRANCH   4   6
ENDBRANCH   3   4
BRANCH   3   9
HETATM    9  C   UNL     1     -11.158   8.590  69.967  1.00  0.00    -0.151 C  
HETATM   10  H   UNL     1     -12.853   9.121  70.826  1.00  0.00     0.000 HD 
HETATM   11  O   UNL     1     -12.022   8.749  71.099  1.00  0.00    -0.290 OA 
BRANCH   9  12
HETATM   12  C   UNL     1     -11.118   9.929  69.249  1.00  0.00    -0.220 A  
HETATM   13  C   UNL     1     -11.199  11.158  69.922  1.00  0.00    -0.293 A  
HETATM   14  C   UNL     1     -11.163  12.351  69.201  1.00  0.00    -0.236 A  
HETATM   15  O   UNL     1     -11.229  13.569  69.819  1.00  0.00    -0.453 OA 
HETATM   16  C   UNL     1     -11.044  12.337  67.816  1.00  0.00    -0.255 A  
HETATM   17  H   UNL     1     -11.204  14.382  69.328  1.00  0.00     0.000 HD 
HETATM   18  C   UNL     1     -10.980  11.137  67.129  1.00  0.00    -0.350 A  
HETATM   19  O   UNL     1     -10.992  13.513  67.123  1.00  0.00    -0.284 OA 
HETATM   20  H   UNL     1     -10.910  13.503  66.177  1.00  0.00     0.000 HD 
HETATM   21  C   UNL     1     -11.027   9.938  67.842  1.00  0.00    -0.281 A  
ENDBRANCH   9  12
ENDBRANCH   3   9
ENDBRANCH   2   3
TORSDOF 5
ENDMDL
MODEL      296
REMARK 921   NORMALIZED FREE ENERGY PREDICTED BY IDOCK:   -2.94 KCAL/MOL
REMARK 922        TOTAL FREE ENERGY PREDICTED BY IDOCK:   -4.47 KCAL/MOL
REMARK 923 INTER-LIGAND FREE ENERGY PREDICTED BY IDOCK:   -3.89 KCAL/MOL
REMARK 924 INTRA-LIGAND FREE ENERGY PREDICTED BY IDOCK:   -0.59 KCAL/MOL
REMARK 927      BINDING AFFINITY PREDICTED BY RF-SCORE:    0.00 PKD
ROOT
HETATM    1  C   UNL     1      -6.834   7.440  67.850  1.00  0.00    -0.074 C  
HETATM    2  C   UNL     1      -7.807   8.607  67.741  1.00  0.00    -0.103 C  
ENDROOT
BRANCH   2   3
HETATM    3  C   UNL     1      -9.164   8.399  68.458  1.00  0.00    -0.135 C  
BRANCH   3   4
HETATM    4  N   UNL     1      -9.442   7.013  68.887  1.00  0.00    -0.138 NA 
HETATM    5  H   UNL     1      -9.504   6.258  68.204  1.00  0.00     0.000 HD 
BRANCH   4   6
HETATM    6  C   UNL     1      -9.625   6.747  70.318  1.00  0.00    -0.165 C  
HETATM    7  C   UNL     1     -10.553   5.531  70.448  1.00  0.00    -0.350 C  
HETATM    8  C   UNL     1      -8.330   6.426  71.066  1.00  0.00    -0.123 C  
ENDBRANCH   4   6
ENDBRANCH   3   4
BRANCH   3   9
HETATM    9  C   UNL     1      -9.358   9.500  69.566  1.00  0.00    -0.190 C  
HETATM   10  H   UNL     1      -8.202  10.600  70.725  1.00  0.00     0.000 HD 
HETATM   11  O   UNL     1      -8.085   9.935  70.056  1.00  0.00    -0.173 OA 
BRANCH   9  12
HETATM   12  C   UNL     1     -10.132  10.748  69.176  1.00  0.00    -0.224 A  
HETATM   13  C   UNL     1      -9.746  11.587  68.118  1.00  0.00    -0.192 A  
HETATM   14  C   UNL     1     -10.499  12.721  67.818  1.00  0.00    -0.223 A  
HETATM   15  O   UNL     1     -10.163  13.558  66.790  1.00  0.00    -0.256 OA 
HETATM   16  C   UNL     1     -11.634  13.033  68.557  1.00  0.00    -0.328 A  
HETATM   17  H   UNL     1     -10.675  14.331  66.585  1.00  0.00     0.000 HD 
HETATM   18  C   UNL     1     -12.024  12.232  69.616  1.00  0.00    -0.347 A  
HETATM   19  O   UNL     1     -12.371  14.138  68.242  1.00  0.00    -0.574 OA 
HETATM   20  H   UNL     1     -13.147  14.351  68.746  1.00  0.00     0.000 HD 
HETATM   21  C   UNL     1     -11.271  11.099  69.931  1.00  0.00    -0.293 A  
ENDBRANCH   9  12
ENDBRANCH   3   9
ENDBRANCH   2   3
TORSDOF 5
ENDMDL
MODEL      297
REMARK 921   NORMALIZED FREE ENERGY PREDICTED BY IDOCK:   -2.94 KCAL/MOL
REMARK 922        TOTAL FREE ENERGY PREDICTED BY IDOCK:   -4.47 KCAL/MOL
REMARK 923 INTER-LIGAND FREE ENERGY PREDICTED BY IDOCK:   -3.75 KCAL/MOL
REMARK 924 INTRA-LIGAND FREE ENERGY PREDICTED BY IDOCK:   -0.72 KCAL/MOL
REMARK 927      BINDING AFFINITY PREDICTED BY RF-SCORE:    0.00 PKD
ROOT
HETATM    1  C   UNL     1      -7.423   7.428  68.890  1.00  0.00    -0.101 C  
HETATM    2  C   UNL     1      -8.090   8.762  68.580  1.00  0.00    -0.116 C  
ENDROOT
BRANCH   2   3
HETATM    3  C   UNL     1      -9.229   8.697  67.531  1.00  0.00    -0.133 C  
BRANCH   3   4
HETATM    4  N   UNL     1     -10.570   8.408  68.078  1.00  0.00    -0.403 NA 
HETATM    5  H   UNL     1     -11.083   9.116  68.603  1.00  0.00     0.000 HD 
BRANCH   4   6
HETATM    6  C   UNL     1     -11.148   7.080  67.848  1.00  0.00    -0.060 C  
HETATM    7  C   UNL     1     -10.432   6.466  66.637  1.00  0.00    -0.240 C  
HETATM    8  C   UNL     1     -10.987   6.115  69.024  1.00  0.00    -0.436 C  
ENDBRANCH   4   6
ENDBRANCH   3   4
BRANCH   3   9
HETATM    9  C   UNL     1      -9.145   9.944  66.573  1.00  0.00    -0.152 C  
HETATM   10  H   UNL     1      -9.850  10.452  64.802  1.00  0.00     0.000 HD 
HETATM   11  O   UNL     1      -9.900   9.700  65.380  1.00  0.00    -0.315 OA 
BRANCH   9  12
HETATM   12  C   UNL     1      -9.613  11.279  67.127  1.00  0.00    -0.194 A  
HETATM   13  C   UNL     1     -10.936  11.734  67.008  1.00  0.00    -0.333 A  
HETATM   14  C   UNL     1     -11.298  12.973  67.534  1.00  0.00    -0.305 A  
HETATM   15  O   UNL     1     -12.577  13.448  67.448  1.00  0.00    -0.132 OA 
HETATM   16  C   UNL     1     -10.358  13.767  68.182  1.00  0.00    -0.252 A  
HETATM   17  H   UNL     1     -12.824  14.292  67.806  1.00  0.00     0.000 HD 
HETATM   18  C   UNL     1      -9.044  13.349  68.296  1.00  0.00    -0.181 A  
HETATM   19  O   UNL     1     -10.729  14.972  68.708  1.00  0.00    -0.227 OA 
HETATM   20  H   UNL     1     -10.088  15.514  69.150  1.00  0.00     0.000 HD 
HETATM   21  C   UNL     1      -8.671  12.114  67.762  1.00  0.00    -0.171 A  
ENDBRANCH   9  12
ENDBRANCH   3   9
ENDBRANCH   2   3
TORSDOF 5
ENDMDL
MODEL      298
REMARK 921   NORMALIZED FREE ENERGY PREDICTED BY IDOCK:   -2.92 KCAL/MOL
REMARK 922        TOTAL FREE ENERGY PREDICTED BY IDOCK:   -4.45 KCAL/MOL
REMARK 923 INTER-LIGAND FREE ENERGY PREDICTED BY IDOCK:   -3.77 KCAL/MOL
REMARK 924 INTRA-LIGAND FREE ENERGY PREDICTED BY IDOCK:   -0.68 KCAL/MOL
REMARK 927      BINDING AFFINITY PREDICTED BY RF-SCORE:    0.00 PKD
ROOT
HETATM    1  C   UNL     1      -6.136   4.005  70.150  1.00  0.00    -0.019 C  
HETATM    2  C   UNL     1      -7.357   3.901  69.245  1.00  0.00    -0.053 C  
ENDROOT
BRANCH   2   3
HETATM    3  C   UNL     1      -8.185   5.203  69.107  1.00  0.00    -0.084 C  
BRANCH   3   4
HETATM    4  N   UNL     1      -7.897   6.006  67.901  1.00  0.00    -0.104 NA 
HETATM    5  H   UNL     1      -7.083   6.619  67.865  1.00  0.00     0.000 HD 
BRANCH   4   6
HETATM    6  C   UNL     1      -8.809   5.902  66.757  1.00  0.00    -0.118 C  
HETATM    7  C   UNL     1      -9.254   7.325  66.388  1.00  0.00    -0.201 C  
HETATM    8  C   UNL     1      -8.183   5.273  65.512  1.00  0.00    -0.124 C  
ENDBRANCH   4   6
ENDBRANCH   3   4
BRANCH   3   9
HETATM    9  C   UNL     1      -9.707   4.899  69.367  1.00  0.00    -0.191 C  
HETATM   10  H   UNL     1     -10.785   3.376  70.009  1.00  0.00     0.000 HD 
HETATM   11  O   UNL     1      -9.866   3.560  69.851  1.00  0.00    -0.130 OA 
BRANCH   9  12
HETATM   12  C   UNL     1     -10.441   5.810  70.338  1.00  0.00    -0.342 A  
HETATM   13  C   UNL     1     -10.077   5.940  71.687  1.00  0.00    -0.233 A  
HETATM   14  C   UNL     1     -10.798   6.789  72.525  1.00  0.00    -0.239 A  
HETATM   15  O   UNL     1     -10.470   6.952  73.843  1.00  0.00    -0.366 OA 
HETATM   16  C   UNL     1     -11.879   7.514  72.037  1.00  0.00    -0.294 A  
HETATM   17  H   UNL     1     -10.961   7.530  74.414  1.00  0.00     0.000 HD 
HETATM   18  C   UNL     1     -12.268   7.389  70.715  1.00  0.00    -0.204 A  
HETATM   19  O   UNL     1     -12.567   8.355  72.864  1.00  0.00    -0.636 OA 
HETATM   20  H   UNL     1     -13.305   8.851  72.530  1.00  0.00     0.000 HD 
HETATM   21  C   UNL     1     -11.559   6.533  69.871  1.00  0.00    -0.433 A  
ENDBRANCH   9  12
ENDBRANCH   3   9
ENDBRANCH   2   3
TORSDOF 5
ENDMDL
MODEL      299
REMARK 921   NORMALIZED FREE ENERGY PREDICTED BY IDOCK:   -2.92 KCAL/MOL
REMARK 922        TOTAL FREE ENERGY PREDICTED BY IDOCK:   -4.45 KCAL/MOL
REMARK 923 INTER-LIGAND FREE ENERGY PREDICTED BY IDOCK:   -3.90 KCAL/MOL
REMARK 924 INTRA-LIGAND FREE ENERGY PREDICTED BY IDOCK:   -0.54 KCAL/MOL
REMARK 927      BINDING AFFINITY PREDICTED BY RF-SCORE:    0.00 PKD
ROOT
HETATM    1  C   UNL     1      -7.191   6.811  67.924  1.00  0.00    -0.091 C  
HETATM    2  C   UNL     1      -8.524   7.151  68.578  1.00  0.00    -0.125 C  
ENDROOT
BRANCH   2   3
HETATM    3  C   UNL     1      -8.777   6.468  69.945  1.00  0.00    -0.140 C  
BRANCH   3   4
HETATM    4  N   UNL     1      -7.953   5.271  70.212  1.00  0.00    -0.082 NA 
HETATM    5  H   UNL     1      -7.206   5.000  69.573  1.00  0.00     0.000 HD 
BRANCH   4   6
HETATM    6  C   UNL     1      -8.233   4.482  71.416  1.00  0.00    -0.100 C  
HETATM    7  C   UNL     1      -9.629   3.865  71.251  1.00  0.00    -0.241 C  
HETATM    8  C   UNL     1      -7.245   3.341  71.661  1.00  0.00    -0.039 C  
ENDBRANCH   4   6
ENDBRANCH   3   4
BRANCH   3   9
HETATM    9  C   UNL     1      -8.787   7.549  71.089  1.00  0.00    -0.141 C  
HETATM   10  H   UNL     1      -7.677   9.087  71.630  1.00  0.00     0.000 HD 
HETATM   11  O   UNL     1      -7.671   8.435  70.940  1.00  0.00    -0.074 OA 
BRANCH   9  12
HETATM   12  C   UNL     1     -10.028   8.418  71.214  1.00  0.00    -0.261 A  
HETATM   13  C   UNL     1     -10.167   9.649  70.554  1.00  0.00    -0.351 A  
HETATM   14  C   UNL     1     -11.331  10.399  70.717  1.00  0.00    -0.284 A  
HETATM   15  O   UNL     1     -11.510  11.598  70.084  1.00  0.00    -0.462 OA 
HETATM   16  C   UNL     1     -12.361   9.939  71.528  1.00  0.00    -0.412 A  
HETATM   17  H   UNL     1     -12.303  12.110  70.195  1.00  0.00     0.000 HD 
HETATM   18  C   UNL     1     -12.240   8.737  72.203  1.00  0.00    -0.448 A  
HETATM   19  O   UNL     1     -13.503  10.676  71.666  1.00  0.00    -0.300 OA 
HETATM   20  H   UNL     1     -14.207  10.361  72.220  1.00  0.00     0.000 HD 
HETATM   21  C   UNL     1     -11.074   7.984  72.054  1.00  0.00    -0.353 A  
ENDBRANCH   9  12
ENDBRANCH   3   9
ENDBRANCH   2   3
TORSDOF 5
ENDMDL
MODEL      300
REMARK 921   NORMALIZED FREE ENERGY PREDICTED BY IDOCK:   -2.89 KCAL/MOL
REMARK 922        TOTAL FREE ENERGY PREDICTED BY IDOCK:   -4.41 KCAL/MOL
REMARK 923 INTER-LIGAND FREE ENERGY PREDICTED BY IDOCK:   -3.70 KCAL/MOL
REMARK 924 INTRA-LIGAND FREE ENERGY PREDICTED BY IDOCK:   -0.71 KCAL/MOL
REMARK 927      BINDING AFFINITY PREDICTED BY RF-SCORE:    0.00 PKD
ROOT
HETATM    1  C   UNL     1     -11.691  12.866  67.493  1.00  0.00    -0.422 C  
HETATM    2  C   UNL     1     -10.853  12.571  68.730  1.00  0.00    -0.276 C  
ENDROOT
BRANCH   2   3
HETATM    3  C   UNL     1      -9.441  12.001  68.444  1.00  0.00    -0.181 C  
BRANCH   3   4
HETATM    4  N   UNL     1      -8.319  12.894  68.800  1.00  0.00    -0.357 NA 
HETATM    5  H   UNL     1      -8.484  13.876  69.016  1.00  0.00     0.000 HD 
BRANCH   4   6
HETATM    6  C   UNL     1      -6.963  12.336  68.833  1.00  0.00    -0.098 C  
HETATM    7  C   UNL     1      -6.249  12.775  67.548  1.00  0.00    -0.159 C  
HETATM    8  C   UNL     1      -6.121  12.807  70.020  1.00  0.00    -0.112 C  
ENDBRANCH   4   6
ENDBRANCH   3   4
BRANCH   3   9
HETATM    9  C   UNL     1      -9.335  10.531  69.000  1.00  0.00    -0.196 C  
HETATM   10  H   UNL     1     -10.411   9.341  70.147  1.00  0.00     0.000 HD 
HETATM   11  O   UNL     1     -10.475  10.228  69.812  1.00  0.00    -0.241 OA 
BRANCH   9  12
HETATM   12  C   UNL     1      -9.208   9.411  67.981  1.00  0.00    -0.137 A  
HETATM   13  C   UNL     1      -9.180   9.639  66.595  1.00  0.00    -0.187 A  
HETATM   14  C   UNL     1      -9.068   8.563  65.715  1.00  0.00    -0.167 A  
HETATM   15  O   UNL     1      -9.027   8.742  64.360  1.00  0.00    -0.427 OA 
HETATM   16  C   UNL     1      -8.981   7.262  66.196  1.00  0.00    -0.149 A  
HETATM   17  H   UNL     1      -8.951   8.010  63.759  1.00  0.00     0.000 HD 
HETATM   18  C   UNL     1      -9.025   7.011  67.555  1.00  0.00    -0.117 A  
HETATM   19  O   UNL     1      -8.855   6.219  65.323  1.00  0.00    -0.339 OA 
HETATM   20  H   UNL     1      -8.795   5.330  65.651  1.00  0.00     0.000 HD 
HETATM   21  C   UNL     1      -9.148   8.081  68.445  1.00  0.00    -0.136 A  
ENDBRANCH   9  12
ENDBRANCH   3   9
ENDBRANCH   2   3
TORSDOF 5
ENDMDL
MODEL      301
REMARK 921   NORMALIZED FREE ENERGY PREDICTED BY IDOCK:   -2.87 KCAL/MOL
REMARK 922        TOTAL FREE ENERGY PREDICTED BY IDOCK:   -4.38 KCAL/MOL
REMARK 923 INTER-LIGAND FREE ENERGY PREDICTED BY IDOCK:   -3.68 KCAL/MOL
REMARK 924 INTRA-LIGAND FREE ENERGY PREDICTED BY IDOCK:   -0.71 KCAL/MOL
REMARK 927      BINDING AFFINITY PREDICTED BY RF-SCORE:    0.00 PKD
ROOT
HETATM    1  C   UNL     1      -7.437   8.816  71.458  1.00  0.00    -0.116 C  
HETATM    2  C   UNL     1      -8.734   8.123  71.857  1.00  0.00    -0.206 C  
ENDROOT
BRANCH   2   3
HETATM    3  C   UNL     1      -8.726   6.580  71.710  1.00  0.00    -0.131 C  
BRANCH   3   4
HETATM    4  N   UNL     1     -10.023   5.919  71.955  1.00  0.00    -0.174 NA 
HETATM    5  H   UNL     1     -10.755   5.926  71.245  1.00  0.00     0.000 HD 
BRANCH   4   6
HETATM    6  C   UNL     1     -10.236   5.251  73.243  1.00  0.00    -0.189 C  
HETATM    7  C   UNL     1     -11.623   4.596  73.202  1.00  0.00    -0.261 C  
HETATM    8  C   UNL     1      -9.213   4.158  73.559  1.00  0.00    -0.107 C  
ENDBRANCH   4   6
ENDBRANCH   3   4
BRANCH   3   9
HETATM    9  C   UNL     1      -8.005   6.175  70.370  1.00  0.00    -0.108 C  
HETATM   10  H   UNL     1      -6.786   4.748  69.762  1.00  0.00     0.000 HD 
HETATM   11  O   UNL     1      -7.222   4.992  70.571  1.00  0.00    -0.051 OA 
BRANCH   9  12
HETATM   12  C   UNL     1      -8.884   5.923  69.157  1.00  0.00    -0.117 A  
HETATM   13  C   UNL     1      -9.630   6.934  68.530  1.00  0.00    -0.131 A  
HETATM   14  C   UNL     1     -10.422   6.631  67.423  1.00  0.00    -0.260 A  
HETATM   15  O   UNL     1     -11.155   7.588  66.778  1.00  0.00    -0.469 OA 
HETATM   16  C   UNL     1     -10.481   5.333  66.930  1.00  0.00    -0.254 A  
HETATM   17  H   UNL     1     -11.695   7.383  66.024  1.00  0.00     0.000 HD 
HETATM   18  C   UNL     1      -9.770   4.316  67.542  1.00  0.00    -0.198 A  
HETATM   19  O   UNL     1     -11.248   5.053  65.835  1.00  0.00    -0.762 OA 
HETATM   20  H   UNL     1     -11.288   4.167  65.497  1.00  0.00     0.000 HD 
HETATM   21  C   UNL     1      -8.982   4.607  68.657  1.00  0.00    -0.142 A  
ENDBRANCH   9  12
ENDBRANCH   3   9
ENDBRANCH   2   3
TORSDOF 5
ENDMDL
MODEL      302
REMARK 921   NORMALIZED FREE ENERGY PREDICTED BY IDOCK:   -2.87 KCAL/MOL
REMARK 922        TOTAL FREE ENERGY PREDICTED BY IDOCK:   -4.38 KCAL/MOL
REMARK 923 INTER-LIGAND FREE ENERGY PREDICTED BY IDOCK:   -3.60 KCAL/MOL
REMARK 924 INTRA-LIGAND FREE ENERGY PREDICTED BY IDOCK:   -0.77 KCAL/MOL
REMARK 927      BINDING AFFINITY PREDICTED BY RF-SCORE:    0.00 PKD
ROOT
HETATM    1  C   UNL     1      -5.539   2.569  70.361  1.00  0.00    -0.016 C  
HETATM    2  C   UNL     1      -6.803   3.210  69.802  1.00  0.00    -0.034 C  
ENDROOT
BRANCH   2   3
HETATM    3  C   UNL     1      -7.504   4.214  70.751  1.00  0.00    -0.047 C  
BRANCH   3   4
HETATM    4  N   UNL     1      -7.179   5.635  70.513  1.00  0.00    -0.072 NA 
HETATM    5  H   UNL     1      -7.419   6.347  71.202  1.00  0.00     0.000 HD 
BRANCH   4   6
HETATM    6  C   UNL     1      -6.504   5.999  69.263  1.00  0.00    -0.043 C  
HETATM    7  C   UNL     1      -7.482   6.845  68.437  1.00  0.00    -0.098 C  
HETATM    8  C   UNL     1      -5.227   6.818  69.457  1.00  0.00    -0.014 C  
ENDBRANCH   4   6
ENDBRANCH   3   4
BRANCH   3   9
HETATM    9  C   UNL     1      -9.040   3.879  70.845  1.00  0.00    -0.111 C  
HETATM   10  H   UNL     1     -10.223   2.859  72.049  1.00  0.00     0.000 HD 
HETATM   11  O   UNL     1      -9.296   3.061  71.992  1.00  0.00    -0.106 OA 
BRANCH   9  12
HETATM   12  C   UNL     1     -10.003   5.053  70.914  1.00  0.00    -0.286 A  
HETATM   13  C   UNL     1     -10.335   5.697  72.116  1.00  0.00    -0.256 A  
HETATM   14  C   UNL     1     -11.232   6.765  72.109  1.00  0.00    -0.259 A  
HETATM   15  O   UNL     1     -11.575   7.426  73.256  1.00  0.00    -0.584 OA 
HETATM   16  C   UNL     1     -11.803   7.202  70.919  1.00  0.00    -0.339 A  
HETATM   17  H   UNL     1     -12.186   8.154  73.252  1.00  0.00     0.000 HD 
HETATM   18  C   UNL     1     -11.505   6.570  69.725  1.00  0.00    -0.443 A  
HETATM   19  O   UNL     1     -12.667   8.259  70.924  1.00  0.00    -0.508 OA 
HETATM   20  H   UNL     1     -13.057   8.558  70.111  1.00  0.00     0.000 HD 
HETATM   21  C   UNL     1     -10.616   5.493  69.723  1.00  0.00    -0.388 A  
ENDBRANCH   9  12
ENDBRANCH   3   9
ENDBRANCH   2   3
TORSDOF 5
ENDMDL
MODEL      303
REMARK 921   NORMALIZED FREE ENERGY PREDICTED BY IDOCK:   -2.86 KCAL/MOL
REMARK 922        TOTAL FREE ENERGY PREDICTED BY IDOCK:   -4.37 KCAL/MOL
REMARK 923 INTER-LIGAND FREE ENERGY PREDICTED BY IDOCK:   -3.65 KCAL/MOL
REMARK 924 INTRA-LIGAND FREE ENERGY PREDICTED BY IDOCK:   -0.72 KCAL/MOL
REMARK 927      BINDING AFFINITY PREDICTED BY RF-SCORE:    0.00 PKD
ROOT
HETATM    1  C   UNL     1      -8.383  13.353  68.321  1.00  0.00    -0.160 C  
HETATM    2  C   UNL     1      -8.683  12.028  67.631  1.00  0.00    -0.166 C  
ENDROOT
BRANCH   2   3
HETATM    3  C   UNL     1     -10.181  11.635  67.590  1.00  0.00    -0.188 C  
BRANCH   3   4
HETATM    4  N   UNL     1     -10.562  10.727  66.489  1.00  0.00    -0.240 NA 
HETATM    5  H   UNL     1     -11.500  10.332  66.440  1.00  0.00     0.000 HD 
BRANCH   4   6
HETATM    6  C   UNL     1      -9.559  10.407  65.467  1.00  0.00    -0.234 C  
HETATM    7  C   UNL     1      -9.110   8.957  65.697  1.00  0.00    -0.269 C  
HETATM    8  C   UNL     1     -10.074  10.512  64.031  1.00  0.00    -0.321 C  
ENDBRANCH   4   6
ENDBRANCH   3   4
BRANCH   3   9
HETATM    9  C   UNL     1     -10.658  11.194  69.024  1.00  0.00    -0.218 C  
HETATM   10  H   UNL     1     -12.377  10.923  69.952  1.00  0.00     0.000 HD 
HETATM   11  O   UNL     1     -12.089  11.189  69.087  1.00  0.00    -0.348 OA 
BRANCH   9  12
HETATM   12  C   UNL     1     -10.189   9.838  69.525  1.00  0.00    -0.238 A  
HETATM   13  C   UNL     1     -10.879   8.645  69.259  1.00  0.00    -0.082 A  
HETATM   14  C   UNL     1     -10.396   7.434  69.755  1.00  0.00    -0.222 A  
HETATM   15  O   UNL     1     -11.033   6.249  69.510  1.00  0.00    -0.302 OA 
HETATM   16  C   UNL     1      -9.232   7.395  70.513  1.00  0.00    -0.157 A  
HETATM   17  H   UNL     1     -10.704   5.424  69.848  1.00  0.00     0.000 HD 
HETATM   18  C   UNL     1      -8.545   8.560  70.805  1.00  0.00    -0.175 A  
HETATM   19  O   UNL     1      -8.761   6.201  70.980  1.00  0.00    -0.130 OA 
HETATM   20  H   UNL     1      -7.965   6.174  71.497  1.00  0.00     0.000 HD 
HETATM   21  C   UNL     1      -9.026   9.778  70.321  1.00  0.00    -0.198 A  
ENDBRANCH   9  12
ENDBRANCH   3   9
ENDBRANCH   2   3
TORSDOF 5
ENDMDL
MODEL      304
REMARK 921   NORMALIZED FREE ENERGY PREDICTED BY IDOCK:   -2.85 KCAL/MOL
REMARK 922        TOTAL FREE ENERGY PREDICTED BY IDOCK:   -4.36 KCAL/MOL
REMARK 923 INTER-LIGAND FREE ENERGY PREDICTED BY IDOCK:   -3.66 KCAL/MOL
REMARK 924 INTRA-LIGAND FREE ENERGY PREDICTED BY IDOCK:   -0.70 KCAL/MOL
REMARK 927      BINDING AFFINITY PREDICTED BY RF-SCORE:    0.00 PKD
ROOT
HETATM    1  C   UNL     1      -7.617   8.309  72.548  1.00  0.00    -0.159 C  
HETATM    2  C   UNL     1      -8.933   8.320  71.781  1.00  0.00    -0.241 C  
ENDROOT
BRANCH   2   3
HETATM    3  C   UNL     1      -9.144   7.121  70.824  1.00  0.00    -0.153 C  
BRANCH   3   4
HETATM    4  N   UNL     1     -10.400   6.370  71.025  1.00  0.00    -0.202 NA 
HETATM    5  H   UNL     1     -11.303   6.802  70.827  1.00  0.00     0.000 HD 
BRANCH   4   6
HETATM    6  C   UNL     1     -10.321   4.991  71.517  1.00  0.00    -0.182 C  
HETATM    7  C   UNL     1      -9.011   4.387  70.993  1.00  0.00    -0.164 C  
HETATM    8  C   UNL     1     -10.314   4.869  73.042  1.00  0.00    -0.234 C  
ENDBRANCH   4   6
ENDBRANCH   3   4
BRANCH   3   9
HETATM    9  C   UNL     1      -8.852   7.561  69.341  1.00  0.00    -0.136 C  
HETATM   10  H   UNL     1      -9.310   6.926  67.530  1.00  0.00     0.000 HD 
HETATM   11  O   UNL     1      -9.487   6.661  68.426  1.00  0.00    -0.127 OA 
BRANCH   9  12
HETATM   12  C   UNL     1      -9.268   8.966  68.939  1.00  0.00    -0.140 A  
HETATM   13  C   UNL     1     -10.607   9.339  68.743  1.00  0.00    -0.220 A  
HETATM   14  C   UNL     1     -10.919  10.646  68.368  1.00  0.00    -0.251 A  
HETATM   15  O   UNL     1     -12.210  11.052  68.178  1.00  0.00    -0.765 OA 
HETATM   16  C   UNL     1      -9.913  11.589  68.187  1.00  0.00    -0.192 A  
HETATM   17  H   UNL     1     -12.423  11.942  67.922  1.00  0.00     0.000 HD 
HETATM   18  C   UNL     1      -8.585  11.240  68.356  1.00  0.00    -0.155 A  
HETATM   19  O   UNL     1     -10.234  12.869  67.836  1.00  0.00    -0.221 OA 
HETATM   20  H   UNL     1      -9.547  13.513  67.712  1.00  0.00     0.000 HD 
HETATM   21  C   UNL     1      -8.263   9.931  68.721  1.00  0.00    -0.114 A  
ENDBRANCH   9  12
ENDBRANCH   3   9
ENDBRANCH   2   3
TORSDOF 5
ENDMDL
MODEL      305
REMARK 921   NORMALIZED FREE ENERGY PREDICTED BY IDOCK:   -2.84 KCAL/MOL
REMARK 922        TOTAL FREE ENERGY PREDICTED BY IDOCK:   -4.35 KCAL/MOL
REMARK 923 INTER-LIGAND FREE ENERGY PREDICTED BY IDOCK:   -4.11 KCAL/MOL
REMARK 924 INTRA-LIGAND FREE ENERGY PREDICTED BY IDOCK:   -0.24 KCAL/MOL
REMARK 927      BINDING AFFINITY PREDICTED BY RF-SCORE:    0.00 PKD
ROOT
HETATM    1  C   UNL     1      -8.619   2.284  71.814  1.00  0.00    -0.087 C  
HETATM    2  C   UNL     1      -9.354   3.163  70.811  1.00  0.00    -0.223 C  
ENDROOT
BRANCH   2   3
HETATM    3  C   UNL     1      -9.484   4.653  71.216  1.00  0.00    -0.158 C  
BRANCH   3   4
HETATM    4  N   UNL     1      -8.925   4.995  72.540  1.00  0.00    -0.129 NA 
HETATM    5  H   UNL     1      -7.919   4.982  72.700  1.00  0.00     0.000 HD 
BRANCH   4   6
HETATM    6  C   UNL     1      -9.851   5.353  73.619  1.00  0.00    -0.163 C  
HETATM    7  C   UNL     1     -10.441   6.731  73.286  1.00  0.00    -0.321 C  
HETATM    8  C   UNL     1     -11.016   4.377  73.795  1.00  0.00    -0.357 C  
ENDBRANCH   4   6
ENDBRANCH   3   4
BRANCH   3   9
HETATM    9  C   UNL     1      -9.016   5.573  70.028  1.00  0.00    -0.131 C  
HETATM   10  H   UNL     1      -7.308   6.072  69.176  1.00  0.00     0.000 HD 
HETATM   11  O   UNL     1      -7.591   5.517  69.893  1.00  0.00    -0.071 OA 
BRANCH   9  12
HETATM   12  C   UNL     1      -9.602   5.287  68.655  1.00  0.00    -0.183 A  
HETATM   13  C   UNL     1      -9.238   4.169  67.888  1.00  0.00    -0.191 A  
HETATM   14  C   UNL     1      -9.810   3.970  66.632  1.00  0.00    -0.143 A  
HETATM   15  O   UNL     1      -9.490   2.889  65.857  1.00  0.00    -0.334 OA 
HETATM   16  C   UNL     1     -10.743   4.869  66.129  1.00  0.00    -0.184 A  
HETATM   17  H   UNL     1      -9.879   2.753  65.002  1.00  0.00     0.000 HD 
HETATM   18  C   UNL     1     -11.103   5.988  66.859  1.00  0.00    -0.253 A  
HETATM   19  O   UNL     1     -11.308   4.653  64.905  1.00  0.00    -0.894 OA 
HETATM   20  H   UNL     1     -11.945   5.267  64.561  1.00  0.00     0.000 HD 
HETATM   21  C   UNL     1     -10.528   6.202  68.113  1.00  0.00    -0.284 A  
ENDBRANCH   9  12
ENDBRANCH   3   9
ENDBRANCH   2   3
TORSDOF 5
ENDMDL
MODEL      306
REMARK 921   NORMALIZED FREE ENERGY PREDICTED BY IDOCK:   -2.84 KCAL/MOL
REMARK 922        TOTAL FREE ENERGY PREDICTED BY IDOCK:   -4.34 KCAL/MOL
REMARK 923 INTER-LIGAND FREE ENERGY PREDICTED BY IDOCK:   -3.53 KCAL/MOL
REMARK 924 INTRA-LIGAND FREE ENERGY PREDICTED BY IDOCK:   -0.82 KCAL/MOL
REMARK 927      BINDING AFFINITY PREDICTED BY RF-SCORE:    0.00 PKD
ROOT
HETATM    1  C   UNL     1      -5.357   8.629  70.091  1.00  0.00    -0.024 C  
HETATM    2  C   UNL     1      -6.652   8.249  70.799  1.00  0.00    -0.038 C  
ENDROOT
BRANCH   2   3
HETATM    3  C   UNL     1      -7.787   7.752  69.869  1.00  0.00    -0.105 C  
BRANCH   3   4
HETATM    4  N   UNL     1      -9.126   7.693  70.488  1.00  0.00    -0.151 NA 
HETATM    5  H   UNL     1      -9.572   8.537  70.848  1.00  0.00     0.000 HD 
BRANCH   4   6
HETATM    6  C   UNL     1      -9.801   6.394  70.574  1.00  0.00    -0.183 C  
HETATM    7  C   UNL     1     -10.626   6.385  71.869  1.00  0.00    -0.247 C  
HETATM    8  C   UNL     1     -10.754   6.105  69.413  1.00  0.00    -0.385 C  
ENDBRANCH   4   6
ENDBRANCH   3   4
BRANCH   3   9
HETATM    9  C   UNL     1      -7.715   8.505  68.488  1.00  0.00    -0.103 C  
HETATM   10  H   UNL     1      -7.624   8.013  66.580  1.00  0.00     0.000 HD 
HETATM   11  O   UNL     1      -7.668   7.559  67.413  1.00  0.00    -0.112 OA 
BRANCH   9  12
HETATM   12  C   UNL     1      -8.836   9.481  68.170  1.00  0.00    -0.124 A  
HETATM   13  C   UNL     1      -8.919  10.761  68.740  1.00  0.00    -0.171 A  
HETATM   14  C   UNL     1      -9.979  11.604  68.408  1.00  0.00    -0.201 A  
HETATM   15  O   UNL     1     -10.092  12.861  68.934  1.00  0.00    -0.418 OA 
HETATM   16  C   UNL     1     -10.958  11.190  67.513  1.00  0.00    -0.275 A  
HETATM   17  H   UNL     1     -10.814  13.436  68.708  1.00  0.00     0.000 HD 
HETATM   18  C   UNL     1     -10.908   9.926  66.952  1.00  0.00    -0.137 A  
HETATM   19  O   UNL     1     -11.982  12.031  67.184  1.00  0.00    -0.601 OA 
HETATM   20  H   UNL     1     -12.651  11.749  66.572  1.00  0.00     0.000 HD 
HETATM   21  C   UNL     1      -9.856   9.071  67.286  1.00  0.00    -0.252 A  
ENDBRANCH   9  12
ENDBRANCH   3   9
ENDBRANCH   2   3
TORSDOF 5
ENDMDL
MODEL      307
REMARK 921   NORMALIZED FREE ENERGY PREDICTED BY IDOCK:   -2.82 KCAL/MOL
REMARK 922        TOTAL FREE ENERGY PREDICTED BY IDOCK:   -4.32 KCAL/MOL
REMARK 923 INTER-LIGAND FREE ENERGY PREDICTED BY IDOCK:   -3.61 KCAL/MOL
REMARK 924 INTRA-LIGAND FREE ENERGY PREDICTED BY IDOCK:   -0.72 KCAL/MOL
REMARK 927      BINDING AFFINITY PREDICTED BY RF-SCORE:    0.00 PKD
ROOT
HETATM    1  C   UNL     1      -6.380   5.731  69.838  1.00  0.00    -0.031 C  
HETATM    2  C   UNL     1      -7.451   6.597  70.490  1.00  0.00    -0.087 C  
ENDROOT
BRANCH   2   3
HETATM    3  C   UNL     1      -8.326   5.875  71.544  1.00  0.00    -0.127 C  
BRANCH   3   4
HETATM    4  N   UNL     1      -8.076   6.268  72.946  1.00  0.00    -0.108 NA 
HETATM    5  H   UNL     1      -8.354   5.661  73.715  1.00  0.00     0.000 HD 
BRANCH   4   6
HETATM    6  C   UNL     1      -7.418   7.553  73.205  1.00  0.00    -0.088 C  
HETATM    7  C   UNL     1      -8.451   8.479  73.863  1.00  0.00     0.010 C  
HETATM    8  C   UNL     1      -6.211   7.462  74.140  1.00  0.00    -0.077 C  
ENDBRANCH   4   6
ENDBRANCH   3   4
BRANCH   3   9
HETATM    9  C   UNL     1      -9.835   5.902  71.095  1.00  0.00    -0.181 C  
HETATM   10  H   UNL     1     -11.502   4.963  71.580  1.00  0.00     0.000 HD 
HETATM   11  O   UNL     1     -10.591   4.947  71.851  1.00  0.00    -0.191 OA 
BRANCH   9  12
HETATM   12  C   UNL     1     -10.568   7.229  71.202  1.00  0.00    -0.236 A  
HETATM   13  C   UNL     1     -10.203   8.364  70.461  1.00  0.00    -0.216 A  
HETATM   14  C   UNL     1     -10.915   9.554  70.612  1.00  0.00    -0.306 A  
HETATM   15  O   UNL     1     -10.598  10.679  69.902  1.00  0.00    -0.380 OA 
HETATM   16  C   UNL     1     -11.989   9.628  71.492  1.00  0.00    -0.406 A  
HETATM   17  H   UNL     1     -11.083  11.489  70.005  1.00  0.00     0.000 HD 
HETATM   18  C   UNL     1     -12.356   8.528  72.246  1.00  0.00    -0.450 A  
HETATM   19  O   UNL     1     -12.689  10.794  71.618  1.00  0.00    -0.411 OA 
HETATM   20  H   UNL     1     -13.423  10.845  72.218  1.00  0.00     0.000 HD 
HETATM   21  C   UNL     1     -11.642   7.335  72.109  1.00  0.00    -0.324 A  
ENDBRANCH   9  12
ENDBRANCH   3   9
ENDBRANCH   2   3
TORSDOF 5
ENDMDL
MODEL      308
REMARK 921   NORMALIZED FREE ENERGY PREDICTED BY IDOCK:   -2.81 KCAL/MOL
REMARK 922        TOTAL FREE ENERGY PREDICTED BY IDOCK:   -4.31 KCAL/MOL
REMARK 923 INTER-LIGAND FREE ENERGY PREDICTED BY IDOCK:   -3.45 KCAL/MOL
REMARK 924 INTRA-LIGAND FREE ENERGY PREDICTED BY IDOCK:   -0.85 KCAL/MOL
REMARK 927      BINDING AFFINITY PREDICTED BY RF-SCORE:    0.00 PKD
ROOT
HETATM    1  C   UNL     1      -5.969   7.575  68.662  1.00  0.00    -0.027 C  
HETATM    2  C   UNL     1      -7.254   7.260  69.417  1.00  0.00    -0.084 C  
ENDROOT
BRANCH   2   3
HETATM    3  C   UNL     1      -8.541   7.270  68.555  1.00  0.00    -0.124 C  
BRANCH   3   4
HETATM    4  N   UNL     1      -9.803   7.404  69.311  1.00  0.00    -0.166 NA 
HETATM    5  H   UNL     1     -10.690   7.530  68.826  1.00  0.00     0.000 HD 
BRANCH   4   6
HETATM    6  C   UNL     1      -9.750   7.352  70.776  1.00  0.00    -0.171 C  
HETATM    7  C   UNL     1     -10.168   8.731  71.304  1.00  0.00    -0.332 C  
HETATM    8  C   UNL     1     -10.683   6.312  71.399  1.00  0.00    -0.297 C  
ENDBRANCH   4   6
ENDBRANCH   3   4
BRANCH   3   9
HETATM    9  C   UNL     1      -8.369   8.266  67.348  1.00  0.00    -0.125 C  
HETATM   10  H   UNL     1      -8.827   8.300  65.429  1.00  0.00     0.000 HD 
HETATM   11  O   UNL     1      -8.931   7.699  66.158  1.00  0.00    -0.166 OA 
BRANCH   9  12
HETATM   12  C   UNL     1      -8.968   9.654  67.502  1.00  0.00    -0.136 A  
HETATM   13  C   UNL     1     -10.268   9.976  67.079  1.00  0.00    -0.295 A  
HETATM   14  C   UNL     1     -10.753  11.272  67.245  1.00  0.00    -0.251 A  
HETATM   15  O   UNL     1     -12.016  11.624  66.855  1.00  0.00    -0.567 OA 
HETATM   16  C   UNL     1      -9.962  12.254  67.829  1.00  0.00    -0.200 A  
HETATM   17  H   UNL     1     -12.347  12.508  66.968  1.00  0.00     0.000 HD 
HETATM   18  C   UNL     1      -8.672  11.966  68.237  1.00  0.00    -0.170 A  
HETATM   19  O   UNL     1     -10.456  13.516  68.001  1.00  0.00    -0.231 OA 
HETATM   20  H   UNL     1      -9.916  14.187  68.400  1.00  0.00     0.000 HD 
HETATM   21  C   UNL     1      -8.173  10.673  68.066  1.00  0.00    -0.113 A  
ENDBRANCH   9  12
ENDBRANCH   3   9
ENDBRANCH   2   3
TORSDOF 5
ENDMDL
MODEL      309
REMARK 921   NORMALIZED FREE ENERGY PREDICTED BY IDOCK:   -2.81 KCAL/MOL
REMARK 922        TOTAL FREE ENERGY PREDICTED BY IDOCK:   -4.30 KCAL/MOL
REMARK 923 INTER-LIGAND FREE ENERGY PREDICTED BY IDOCK:   -3.51 KCAL/MOL
REMARK 924 INTRA-LIGAND FREE ENERGY PREDICTED BY IDOCK:   -0.79 KCAL/MOL
REMARK 927      BINDING AFFINITY PREDICTED BY RF-SCORE:    0.00 PKD
ROOT
HETATM    1  C   UNL     1      -7.401   9.377  70.581  1.00  0.00    -0.140 C  
HETATM    2  C   UNL     1      -8.773   8.857  70.990  1.00  0.00    -0.276 C  
ENDROOT
BRANCH   2   3
HETATM    3  C   UNL     1      -9.105   7.426  70.498  1.00  0.00    -0.157 C  
BRANCH   3   4
HETATM    4  N   UNL     1     -10.465   7.250  69.947  1.00  0.00    -0.220 NA 
HETATM    5  H   UNL     1     -10.764   7.768  69.122  1.00  0.00     0.000 HD 
BRANCH   4   6
HETATM    6  C   UNL     1     -11.375   6.313  70.614  1.00  0.00    -0.343 C  
HETATM    7  C   UNL     1     -10.544   5.487  71.606  1.00  0.00    -0.294 C  
HETATM    8  C   UNL     1     -12.503   6.987  71.398  1.00  0.00    -0.426 C  
ENDBRANCH   4   6
ENDBRANCH   3   4
BRANCH   3   9
HETATM    9  C   UNL     1      -7.936   6.887  69.592  1.00  0.00    -0.125 C  
HETATM   10  H   UNL     1      -6.584   5.453  69.684  1.00  0.00     0.000 HD 
HETATM   11  O   UNL     1      -7.290   5.778  70.230  1.00  0.00    -0.072 OA 
BRANCH   9  12
HETATM   12  C   UNL     1      -8.297   6.438  68.186  1.00  0.00    -0.116 A  
HETATM   13  C   UNL     1      -8.312   7.311  67.086  1.00  0.00    -0.118 A  
HETATM   14  C   UNL     1      -8.659   6.834  65.823  1.00  0.00    -0.137 A  
HETATM   15  O   UNL     1      -8.676   7.648  64.724  1.00  0.00    -0.374 OA 
HETATM   16  C   UNL     1      -8.990   5.496  65.638  1.00  0.00    -0.146 A  
HETATM   17  H   UNL     1      -8.912   7.324  63.863  1.00  0.00     0.000 HD 
HETATM   18  C   UNL     1      -9.000   4.621  66.710  1.00  0.00    -0.112 A  
HETATM   19  O   UNL     1      -9.311   5.039  64.392  1.00  0.00    -0.352 OA 
HETATM   20  H   UNL     1      -9.537   4.125  64.266  1.00  0.00     0.000 HD 
HETATM   21  C   UNL     1      -8.664   5.092  67.981  1.00  0.00    -0.105 A  
ENDBRANCH   9  12
ENDBRANCH   3   9
ENDBRANCH   2   3
TORSDOF 5
ENDMDL
MODEL      310
REMARK 921   NORMALIZED FREE ENERGY PREDICTED BY IDOCK:   -2.80 KCAL/MOL
REMARK 922        TOTAL FREE ENERGY PREDICTED BY IDOCK:   -4.30 KCAL/MOL
REMARK 923 INTER-LIGAND FREE ENERGY PREDICTED BY IDOCK:   -3.62 KCAL/MOL
REMARK 924 INTRA-LIGAND FREE ENERGY PREDICTED BY IDOCK:   -0.67 KCAL/MOL
REMARK 927      BINDING AFFINITY PREDICTED BY RF-SCORE:    0.00 PKD
ROOT
HETATM    1  C   UNL     1     -10.600  11.650  69.151  1.00  0.00    -0.147 C  
HETATM    2  C   UNL     1     -11.256  10.278  69.232  1.00  0.00    -0.281 C  
ENDROOT
BRANCH   2   3
HETATM    3  C   UNL     1     -10.355   9.093  68.804  1.00  0.00    -0.214 C  
BRANCH   3   4
HETATM    4  N   UNL     1     -10.358   7.937  69.723  1.00  0.00    -0.214 NA 
HETATM    5  H   UNL     1     -11.120   7.260  69.706  1.00  0.00     0.000 HD 
BRANCH   4   6
HETATM    6  C   UNL     1      -9.241   7.785  70.661  1.00  0.00    -0.161 C  
HETATM    7  C   UNL     1      -7.966   8.250  69.943  1.00  0.00    -0.108 C  
HETATM    8  C   UNL     1      -9.381   8.609  71.942  1.00  0.00    -0.357 C  
ENDBRANCH   4   6
ENDBRANCH   3   4
BRANCH   3   9
HETATM    9  C   UNL     1     -10.605   8.750  67.288  1.00  0.00    -0.233 C  
HETATM   10  H   UNL     1     -10.149   9.536  65.537  1.00  0.00     0.000 HD 
HETATM   11  O   UNL     1      -9.997   9.742  66.452  1.00  0.00    -0.217 OA 
BRANCH   9  12
HETATM   12  C   UNL     1     -10.121   7.398  66.792  1.00  0.00    -0.305 A  
HETATM   13  C   UNL     1      -8.841   7.197  66.251  1.00  0.00    -0.166 A  
HETATM   14  C   UNL     1      -8.463   5.929  65.809  1.00  0.00    -0.148 A  
HETATM   15  O   UNL     1      -7.223   5.689  65.286  1.00  0.00    -0.064 OA 
HETATM   16  C   UNL     1      -9.342   4.857  65.900  1.00  0.00    -0.159 A  
HETATM   17  H   UNL     1      -6.964   4.826  64.984  1.00  0.00     0.000 HD 
HETATM   18  C   UNL     1     -10.615   5.035  66.413  1.00  0.00    -0.317 A  
HETATM   19  O   UNL     1      -8.953   3.617  65.479  1.00  0.00    -0.126 OA 
HETATM   20  H   UNL     1      -9.554   2.884  65.542  1.00  0.00     0.000 HD 
HETATM   21  C   UNL     1     -11.007   6.302  66.848  1.00  0.00    -0.404 A  
ENDBRANCH   9  12
ENDBRANCH   3   9
ENDBRANCH   2   3
TORSDOF 5
ENDMDL
MODEL      311
REMARK 921   NORMALIZED FREE ENERGY PREDICTED BY IDOCK:   -2.80 KCAL/MOL
REMARK 922        TOTAL FREE ENERGY PREDICTED BY IDOCK:   -4.29 KCAL/MOL
REMARK 923 INTER-LIGAND FREE ENERGY PREDICTED BY IDOCK:   -3.49 KCAL/MOL
REMARK 924 INTRA-LIGAND FREE ENERGY PREDICTED BY IDOCK:   -0.80 KCAL/MOL
REMARK 927      BINDING AFFINITY PREDICTED BY RF-SCORE:    0.00 PKD
ROOT
HETATM    1  C   UNL     1      -9.346   7.688  72.240  1.00  0.00    -0.199 C  
HETATM    2  C   UNL     1     -10.079   8.735  71.412  1.00  0.00    -0.354 C  
ENDROOT
BRANCH   2   3
HETATM    3  C   UNL     1      -9.345   9.183  70.123  1.00  0.00    -0.209 C  
BRANCH   3   4
HETATM    4  N   UNL     1      -8.221   8.320  69.708  1.00  0.00    -0.118 NA 
HETATM    5  H   UNL     1      -8.389   7.378  69.356  1.00  0.00     0.000 HD 
BRANCH   4   6
HETATM    6  C   UNL     1      -6.856   8.848  69.813  1.00  0.00    -0.046 C  
HETATM    7  C   UNL     1      -6.961  10.365  70.019  1.00  0.00    -0.159 C  
HETATM    8  C   UNL     1      -6.051   8.274  70.981  1.00  0.00    -0.034 C  
ENDBRANCH   4   6
ENDBRANCH   3   4
BRANCH   3   9
HETATM    9  C   UNL     1     -10.394   9.512  68.997  1.00  0.00    -0.206 C  
HETATM   10  H   UNL     1     -12.301  10.008  68.902  1.00  0.00     0.000 HD 
HETATM   11  O   UNL     1     -11.668   9.810  69.582  1.00  0.00    -0.067 OA 
BRANCH   9  12
HETATM   12  C   UNL     1     -10.064  10.655  68.052  1.00  0.00    -0.181 A  
HETATM   13  C   UNL     1      -9.453  10.461  66.803  1.00  0.00    -0.198 A  
HETATM   14  C   UNL     1      -9.172  11.557  65.987  1.00  0.00    -0.217 A  
HETATM   15  O   UNL     1      -8.588  11.410  64.760  1.00  0.00    -0.360 OA 
HETATM   16  C   UNL     1      -9.493  12.845  66.398  1.00  0.00    -0.226 A  
HETATM   17  H   UNL     1      -8.396  12.156  64.203  1.00  0.00     0.000 HD 
HETATM   18  C   UNL     1     -10.078  13.063  67.633  1.00  0.00    -0.217 A  
HETATM   19  O   UNL     1      -9.227  13.908  65.582  1.00  0.00    -0.468 OA 
HETATM   20  H   UNL     1      -9.446  14.788  65.862  1.00  0.00     0.000 HD 
HETATM   21  C   UNL     1     -10.354  11.973  68.461  1.00  0.00    -0.228 A  
ENDBRANCH   9  12
ENDBRANCH   3   9
ENDBRANCH   2   3
TORSDOF 5
ENDMDL
MODEL      312
REMARK 921   NORMALIZED FREE ENERGY PREDICTED BY IDOCK:   -2.80 KCAL/MOL
REMARK 922        TOTAL FREE ENERGY PREDICTED BY IDOCK:   -4.29 KCAL/MOL
REMARK 923 INTER-LIGAND FREE ENERGY PREDICTED BY IDOCK:   -3.76 KCAL/MOL
REMARK 924 INTRA-LIGAND FREE ENERGY PREDICTED BY IDOCK:   -0.53 KCAL/MOL
REMARK 927      BINDING AFFINITY PREDICTED BY RF-SCORE:    0.00 PKD
ROOT
HETATM    1  C   UNL     1     -10.568   7.009  66.825  1.00  0.00    -0.297 C  
HETATM    2  C   UNL     1      -9.176   7.036  66.207  1.00  0.00    -0.166 C  
ENDROOT
BRANCH   2   3
HETATM    3  C   UNL     1      -8.665   8.441  65.802  1.00  0.00    -0.169 C  
BRANCH   3   4
HETATM    4  N   UNL     1      -9.328   9.035  64.622  1.00  0.00    -0.381 NA 
HETATM    5  H   UNL     1     -10.285   9.380  64.681  1.00  0.00     0.000 HD 
BRANCH   4   6
HETATM    6  C   UNL     1      -8.577   9.117  63.365  1.00  0.00    -0.169 C  
HETATM    7  C   UNL     1      -7.450  10.140  63.564  1.00  0.00    -0.132 C  
HETATM    8  C   UNL     1      -7.938   7.797  62.930  1.00  0.00    -0.130 C  
ENDBRANCH   4   6
ENDBRANCH   3   4
BRANCH   3   9
HETATM    9  C   UNL     1      -8.589   9.369  67.071  1.00  0.00    -0.128 C  
HETATM   10  H   UNL     1      -7.228  10.483  67.965  1.00  0.00     0.000 HD 
HETATM   11  O   UNL     1      -7.274   9.922  67.199  1.00  0.00    -0.085 OA 
BRANCH   9  12
HETATM   12  C   UNL     1      -9.566  10.531  67.141  1.00  0.00    -0.194 A  
HETATM   13  C   UNL     1     -10.689  10.535  67.984  1.00  0.00    -0.287 A  
HETATM   14  C   UNL     1     -11.549  11.633  67.994  1.00  0.00    -0.313 A  
HETATM   15  O   UNL     1     -12.647  11.681  68.808  1.00  0.00    -0.113 OA 
HETATM   16  C   UNL     1     -11.304  12.730  67.177  1.00  0.00    -0.314 A  
HETATM   17  H   UNL     1     -13.233  12.428  68.815  1.00  0.00     0.000 HD 
HETATM   18  C   UNL     1     -10.215  12.742  66.324  1.00  0.00    -0.264 A  
HETATM   19  O   UNL     1     -12.145  13.806  67.209  1.00  0.00    -0.389 OA 
HETATM   20  H   UNL     1     -11.978  14.556  66.651  1.00  0.00     0.000 HD 
HETATM   21  C   UNL     1      -9.354  11.643  66.299  1.00  0.00    -0.228 A  
ENDBRANCH   9  12
ENDBRANCH   3   9
ENDBRANCH   2   3
TORSDOF 5
ENDMDL
MODEL      313
REMARK 921   NORMALIZED FREE ENERGY PREDICTED BY IDOCK:   -2.79 KCAL/MOL
REMARK 922        TOTAL FREE ENERGY PREDICTED BY IDOCK:   -4.29 KCAL/MOL
REMARK 923 INTER-LIGAND FREE ENERGY PREDICTED BY IDOCK:   -3.56 KCAL/MOL
REMARK 924 INTRA-LIGAND FREE ENERGY PREDICTED BY IDOCK:   -0.73 KCAL/MOL
REMARK 927      BINDING AFFINITY PREDICTED BY RF-SCORE:    0.00 PKD
ROOT
HETATM    1  C   UNL     1      -5.838   9.656  71.110  1.00  0.00    -0.077 C  
HETATM    2  C   UNL     1      -6.049   9.809  69.609  1.00  0.00    -0.044 C  
ENDROOT
BRANCH   2   3
HETATM    3  C   UNL     1      -7.421  10.400  69.197  1.00  0.00    -0.112 C  
BRANCH   3   4
HETATM    4  N   UNL     1      -7.365  11.458  68.168  1.00  0.00    -0.087 NA 
HETATM    5  H   UNL     1      -6.976  11.269  67.246  1.00  0.00     0.000 HD 
BRANCH   4   6
HETATM    6  C   UNL     1      -7.884  12.788  68.504  1.00  0.00    -0.099 C  
HETATM    7  C   UNL     1      -7.164  13.806  67.608  1.00  0.00    -0.183 C  
HETATM    8  C   UNL     1      -9.388  12.950  68.277  1.00  0.00    -0.194 C  
ENDBRANCH   4   6
ENDBRANCH   3   4
BRANCH   3   9
HETATM    9  C   UNL     1      -8.441   9.235  68.912  1.00  0.00    -0.129 C  
HETATM   10  H   UNL     1      -8.352   7.343  68.360  1.00  0.00     0.000 HD 
HETATM   11  O   UNL     1      -7.737   8.046  68.533  1.00  0.00    -0.102 OA 
BRANCH   9  12
HETATM   12  C   UNL     1      -9.386   8.849  70.038  1.00  0.00    -0.184 A  
HETATM   13  C   UNL     1      -9.320   7.612  70.700  1.00  0.00    -0.163 A  
HETATM   14  C   UNL     1     -10.223   7.320  71.721  1.00  0.00    -0.194 A  
HETATM   15  O   UNL     1     -10.186   6.132  72.397  1.00  0.00    -0.185 OA 
HETATM   16  C   UNL     1     -11.193   8.244  72.094  1.00  0.00    -0.345 A  
HETATM   17  H   UNL     1     -10.802   5.932  73.093  1.00  0.00     0.000 HD 
HETATM   18  C   UNL     1     -11.289   9.461  71.443  1.00  0.00    -0.451 A  
HETATM   19  O   UNL     1     -12.061   7.951  73.107  1.00  0.00    -0.655 OA 
HETATM   20  H   UNL     1     -12.723   8.582  73.362  1.00  0.00     0.000 HD 
HETATM   21  C   UNL     1     -10.396   9.759  70.413  1.00  0.00    -0.354 A  
ENDBRANCH   9  12
ENDBRANCH   3   9
ENDBRANCH   2   3
TORSDOF 5
ENDMDL
MODEL      314
REMARK 921   NORMALIZED FREE ENERGY PREDICTED BY IDOCK:   -2.79 KCAL/MOL
REMARK 922        TOTAL FREE ENERGY PREDICTED BY IDOCK:   -4.28 KCAL/MOL
REMARK 923 INTER-LIGAND FREE ENERGY PREDICTED BY IDOCK:   -3.46 KCAL/MOL
REMARK 924 INTRA-LIGAND FREE ENERGY PREDICTED BY IDOCK:   -0.82 KCAL/MOL
REMARK 927      BINDING AFFINITY PREDICTED BY RF-SCORE:    0.00 PKD
ROOT
HETATM    1  C   UNL     1      -7.781   9.712  70.052  1.00  0.00    -0.162 C  
HETATM    2  C   UNL     1      -9.063   9.275  70.748  1.00  0.00    -0.306 C  
ENDROOT
BRANCH   2   3
HETATM    3  C   UNL     1      -9.962   8.317  69.927  1.00  0.00    -0.190 C  
BRANCH   3   4
HETATM    4  N   UNL     1      -9.437   7.950  68.595  1.00  0.00    -0.149 NA 
HETATM    5  H   UNL     1      -8.469   7.654  68.480  1.00  0.00     0.000 HD 
BRANCH   4   6
HETATM    6  C   UNL     1     -10.341   8.023  67.443  1.00  0.00    -0.284 C  
HETATM    7  C   UNL     1      -9.516   8.488  66.234  1.00  0.00    -0.299 C  
HETATM    8  C   UNL     1     -10.996   6.690  67.075  1.00  0.00    -0.463 C  
ENDBRANCH   4   6
ENDBRANCH   3   4
BRANCH   3   9
HETATM    9  C   UNL     1     -10.419   7.109  70.827  1.00  0.00    -0.212 C  
HETATM   10  H   UNL     1     -12.030   5.987  71.027  1.00  0.00     0.000 HD 
HETATM   11  O   UNL     1     -11.753   6.716  70.484  1.00  0.00    -0.369 OA 
BRANCH   9  12
HETATM   12  C   UNL     1      -9.565   5.852  70.789  1.00  0.00    -0.203 A  
HETATM   13  C   UNL     1     -10.011   4.643  70.232  1.00  0.00    -0.309 A  
HETATM   14  C   UNL     1      -9.177   3.525  70.237  1.00  0.00    -0.155 A  
HETATM   15  O   UNL     1      -9.569   2.332  69.695  1.00  0.00    -0.082 OA 
HETATM   16  C   UNL     1      -7.903   3.595  70.787  1.00  0.00    -0.050 A  
HETATM   17  H   UNL     1      -9.001   1.570  69.698  1.00  0.00     0.000 HD 
HETATM   18  C   UNL     1      -7.449   4.771  71.359  1.00  0.00    -0.077 A  
HETATM   19  O   UNL     1      -7.090   2.498  70.770  1.00  0.00    -0.033 OA 
HETATM   20  H   UNL     1      -6.220   2.545  71.146  1.00  0.00     0.000 HD 
HETATM   21  C   UNL     1      -8.280   5.892  71.368  1.00  0.00    -0.123 A  
ENDBRANCH   9  12
ENDBRANCH   3   9
ENDBRANCH   2   3
TORSDOF 5
ENDMDL
MODEL      315
REMARK 921   NORMALIZED FREE ENERGY PREDICTED BY IDOCK:   -2.79 KCAL/MOL
REMARK 922        TOTAL FREE ENERGY PREDICTED BY IDOCK:   -4.27 KCAL/MOL
REMARK 923 INTER-LIGAND FREE ENERGY PREDICTED BY IDOCK:   -3.54 KCAL/MOL
REMARK 924 INTRA-LIGAND FREE ENERGY PREDICTED BY IDOCK:   -0.73 KCAL/MOL
REMARK 927      BINDING AFFINITY PREDICTED BY RF-SCORE:    0.00 PKD
ROOT
HETATM    1  C   UNL     1      -7.013   4.905  73.151  1.00  0.00    -0.074 C  
HETATM    2  C   UNL     1      -7.849   4.697  71.894  1.00  0.00    -0.098 C  
ENDROOT
BRANCH   2   3
HETATM    3  C   UNL     1      -8.472   5.985  71.300  1.00  0.00    -0.128 C  
BRANCH   3   4
HETATM    4  N   UNL     1      -7.611   6.718  70.348  1.00  0.00    -0.093 NA 
HETATM    5  H   UNL     1      -6.885   6.233  69.823  1.00  0.00     0.000 HD 
BRANCH   4   6
HETATM    6  C   UNL     1      -7.825   8.158  70.177  1.00  0.00    -0.098 C  
HETATM    7  C   UNL     1      -6.705   8.886  70.934  1.00  0.00    -0.068 C  
HETATM    8  C   UNL     1      -7.787   8.629  68.722  1.00  0.00    -0.106 C  
ENDBRANCH   4   6
ENDBRANCH   3   4
BRANCH   3   9
HETATM    9  C   UNL     1      -9.934   5.690  70.798  1.00  0.00    -0.195 C  
HETATM   10  H   UNL     1     -11.675   6.618  70.800  1.00  0.00     0.000 HD 
HETATM   11  O   UNL     1     -10.792   6.796  71.103  1.00  0.00    -0.228 OA 
BRANCH   9  12
HETATM   12  C   UNL     1     -10.113   5.388  69.319  1.00  0.00    -0.301 A  
HETATM   13  C   UNL     1      -9.686   4.188  68.728  1.00  0.00    -0.166 A  
HETATM   14  C   UNL     1      -9.876   3.978  67.363  1.00  0.00    -0.072 A  
HETATM   15  O   UNL     1      -9.485   2.819  66.751  1.00  0.00    -0.373 OA 
HETATM   16  C   UNL     1     -10.487   4.947  66.576  1.00  0.00    -0.252 A  
HETATM   17  H   UNL     1      -9.613   2.675  65.820  1.00  0.00     0.000 HD 
HETATM   18  C   UNL     1     -10.899   6.145  67.132  1.00  0.00    -0.442 A  
HETATM   19  O   UNL     1     -10.682   4.721  65.243  1.00  0.00    -0.502 OA 
HETATM   20  H   UNL     1     -11.100   5.383  64.706  1.00  0.00     0.000 HD 
HETATM   21  C   UNL     1     -10.704   6.369  68.497  1.00  0.00    -0.347 A  
ENDBRANCH   9  12
ENDBRANCH   3   9
ENDBRANCH   2   3
TORSDOF 5
ENDMDL
MODEL      316
REMARK 921   NORMALIZED FREE ENERGY PREDICTED BY IDOCK:   -2.77 KCAL/MOL
REMARK 922        TOTAL FREE ENERGY PREDICTED BY IDOCK:   -4.26 KCAL/MOL
REMARK 923 INTER-LIGAND FREE ENERGY PREDICTED BY IDOCK:   -3.45 KCAL/MOL
REMARK 924 INTRA-LIGAND FREE ENERGY PREDICTED BY IDOCK:   -0.81 KCAL/MOL
REMARK 927      BINDING AFFINITY PREDICTED BY RF-SCORE:    0.00 PKD
ROOT
HETATM    1  C   UNL     1      -7.205   5.964  65.777  1.00  0.00    -0.075 C  
HETATM    2  C   UNL     1      -8.513   5.733  66.523  1.00  0.00    -0.116 C  
ENDROOT
BRANCH   2   3
HETATM    3  C   UNL     1      -8.670   6.538  67.837  1.00  0.00    -0.116 C  
BRANCH   3   4
HETATM    4  N   UNL     1      -9.311   7.861  67.691  1.00  0.00    -0.142 NA 
HETATM    5  H   UNL     1     -10.299   7.938  67.455  1.00  0.00     0.000 HD 
BRANCH   4   6
HETATM    6  C   UNL     1      -8.493   9.061  67.893  1.00  0.00    -0.121 C  
HETATM    7  C   UNL     1      -7.283   8.659  68.749  1.00  0.00    -0.075 C  
HETATM    8  C   UNL     1      -7.962   9.682  66.600  1.00  0.00    -0.109 C  
ENDBRANCH   4   6
ENDBRANCH   3   4
BRANCH   3   9
HETATM    9  C   UNL     1      -9.275   5.615  68.960  1.00  0.00    -0.122 C  
HETATM   10  H   UNL     1      -8.589   4.384  70.340  1.00  0.00     0.000 HD 
HETATM   11  O   UNL     1      -8.224   4.941  69.662  1.00  0.00    -0.078 OA 
BRANCH   9  12
HETATM   12  C   UNL     1     -10.151   6.281  70.009  1.00  0.00    -0.217 A  
HETATM   13  C   UNL     1      -9.642   6.808  71.206  1.00  0.00    -0.172 A  
HETATM   14  C   UNL     1     -10.503   7.401  72.129  1.00  0.00    -0.209 A  
HETATM   15  O   UNL     1     -10.046   7.935  73.302  1.00  0.00    -0.313 OA 
HETATM   16  C   UNL     1     -11.868   7.477  71.874  1.00  0.00    -0.296 A  
HETATM   17  H   UNL     1     -10.633   8.338  73.930  1.00  0.00     0.000 HD 
HETATM   18  C   UNL     1     -12.395   6.948  70.709  1.00  0.00    -0.314 A  
HETATM   19  O   UNL     1     -12.698   8.075  72.778  1.00  0.00    -0.578 OA 
HETATM   20  H   UNL     1     -13.630   8.128  72.605  1.00  0.00     0.000 HD 
HETATM   21  C   UNL     1     -11.542   6.344  69.784  1.00  0.00    -0.397 A  
ENDBRANCH   9  12
ENDBRANCH   3   9
ENDBRANCH   2   3
TORSDOF 5
ENDMDL
MODEL      317
REMARK 921   NORMALIZED FREE ENERGY PREDICTED BY IDOCK:   -2.77 KCAL/MOL
REMARK 922        TOTAL FREE ENERGY PREDICTED BY IDOCK:   -4.26 KCAL/MOL
REMARK 923 INTER-LIGAND FREE ENERGY PREDICTED BY IDOCK:   -3.82 KCAL/MOL
REMARK 924 INTRA-LIGAND FREE ENERGY PREDICTED BY IDOCK:   -0.44 KCAL/MOL
REMARK 927      BINDING AFFINITY PREDICTED BY RF-SCORE:    0.00 PKD
ROOT
HETATM    1  C   UNL     1      -5.964   7.426  69.644  1.00  0.00    -0.024 C  
HETATM    2  C   UNL     1      -7.475   7.235  69.673  1.00  0.00    -0.094 C  
ENDROOT
BRANCH   2   3
HETATM    3  C   UNL     1      -8.248   7.951  68.537  1.00  0.00    -0.127 C  
BRANCH   3   4
HETATM    4  N   UNL     1      -9.114   7.077  67.720  1.00  0.00    -0.127 NA 
HETATM    5  H   UNL     1      -9.934   6.628  68.126  1.00  0.00     0.000 HD 
BRANCH   4   6
HETATM    6  C   UNL     1      -8.768   6.870  66.309  1.00  0.00    -0.142 C  
HETATM    7  C   UNL     1      -7.542   7.741  66.001  1.00  0.00    -0.087 C  
HETATM    8  C   UNL     1      -8.415   5.425  65.957  1.00  0.00    -0.123 C  
ENDBRANCH   4   6
ENDBRANCH   3   4
BRANCH   3   9
HETATM    9  C   UNL     1      -8.937   9.251  69.097  1.00  0.00    -0.144 C  
HETATM   10  H   UNL     1      -9.912  10.799  68.358  1.00  0.00     0.000 HD 
HETATM   11  O   UNL     1      -9.496  10.014  68.020  1.00  0.00    -0.137 OA 
BRANCH   9  12
HETATM   12  C   UNL     1     -10.040   9.065  70.125  1.00  0.00    -0.220 A  
HETATM   13  C   UNL     1     -11.393   9.314  69.847  1.00  0.00    -0.083 A  
HETATM   14  C   UNL     1     -12.354   9.128  70.841  1.00  0.00    -0.142 A  
HETATM   15  O   UNL     1     -13.683   9.349  70.608  1.00  0.00    -0.548 OA 
HETATM   16  C   UNL     1     -11.986   8.696  72.109  1.00  0.00    -0.379 A  
HETATM   17  H   UNL     1     -14.339   9.223  71.285  1.00  0.00     0.000 HD 
HETATM   18  C   UNL     1     -10.656   8.463  72.413  1.00  0.00    -0.405 A  
HETATM   19  O   UNL     1     -12.939   8.503  73.068  1.00  0.00    -0.719 OA 
HETATM   20  H   UNL     1     -12.687   8.208  73.935  1.00  0.00     0.000 HD 
HETATM   21  C   UNL     1      -9.685   8.656  71.428  1.00  0.00    -0.314 A  
ENDBRANCH   9  12
ENDBRANCH   3   9
ENDBRANCH   2   3
TORSDOF 5
ENDMDL
MODEL      318
REMARK 921   NORMALIZED FREE ENERGY PREDICTED BY IDOCK:   -2.77 KCAL/MOL
REMARK 922        TOTAL FREE ENERGY PREDICTED BY IDOCK:   -4.25 KCAL/MOL
REMARK 923 INTER-LIGAND FREE ENERGY PREDICTED BY IDOCK:   -3.41 KCAL/MOL
REMARK 924 INTRA-LIGAND FREE ENERGY PREDICTED BY IDOCK:   -0.84 KCAL/MOL
REMARK 927      BINDING AFFINITY PREDICTED BY RF-SCORE:    0.00 PKD
ROOT
HETATM    1  C   UNL     1      -8.646   2.270  71.863  1.00  0.00    -0.084 C  
HETATM    2  C   UNL     1      -9.562   3.313  71.235  1.00  0.00    -0.229 C  
ENDROOT
BRANCH   2   3
HETATM    3  C   UNL     1      -9.317   4.769  71.704  1.00  0.00    -0.145 C  
BRANCH   3   4
HETATM    4  N   UNL     1      -8.480   4.907  72.913  1.00  0.00    -0.108 NA 
HETATM    5  H   UNL     1      -7.472   4.760  72.869  1.00  0.00     0.000 HD 
BRANCH   4   6
HETATM    6  C   UNL     1      -9.131   5.259  74.180  1.00  0.00    -0.118 C  
HETATM    7  C   UNL     1      -8.821   6.735  74.466  1.00  0.00    -0.212 C  
HETATM    8  C   UNL     1     -10.652   5.096  74.168  1.00  0.00    -0.322 C  
ENDBRANCH   4   6
ENDBRANCH   3   4
BRANCH   3   9
HETATM    9  C   UNL     1      -8.887   5.661  70.481  1.00  0.00    -0.138 C  
HETATM   10  H   UNL     1      -8.624   5.418  68.540  1.00  0.00     0.000 HD 
HETATM   11  O   UNL     1      -8.884   4.880  69.279  1.00  0.00    -0.086 OA 
BRANCH   9  12
HETATM   12  C   UNL     1      -9.718   6.901  70.199  1.00  0.00    -0.175 A  
HETATM   13  C   UNL     1      -9.858   7.451  68.915  1.00  0.00    -0.157 A  
HETATM   14  C   UNL     1     -10.631   8.596  68.727  1.00  0.00    -0.140 A  
HETATM   15  O   UNL     1     -10.802   9.157  67.492  1.00  0.00    -0.434 OA 
HETATM   16  C   UNL     1     -11.270   9.202  69.803  1.00  0.00    -0.056 A  
HETATM   17  H   UNL     1     -11.328   9.937  67.364  1.00  0.00     0.000 HD 
HETATM   18  C   UNL     1     -11.131   8.690  71.081  1.00  0.00    -0.324 A  
HETATM   19  O   UNL     1     -12.038  10.313  69.603  1.00  0.00    -0.483 OA 
HETATM   20  H   UNL     1     -12.474  10.727  70.338  1.00  0.00     0.000 HD 
HETATM   21  C   UNL     1     -10.351   7.549  71.280  1.00  0.00    -0.203 A  
ENDBRANCH   9  12
ENDBRANCH   3   9
ENDBRANCH   2   3
TORSDOF 5
ENDMDL
MODEL      319
REMARK 921   NORMALIZED FREE ENERGY PREDICTED BY IDOCK:   -2.77 KCAL/MOL
REMARK 922        TOTAL FREE ENERGY PREDICTED BY IDOCK:   -4.25 KCAL/MOL
REMARK 923 INTER-LIGAND FREE ENERGY PREDICTED BY IDOCK:   -3.64 KCAL/MOL
REMARK 924 INTRA-LIGAND FREE ENERGY PREDICTED BY IDOCK:   -0.61 KCAL/MOL
REMARK 927      BINDING AFFINITY PREDICTED BY RF-SCORE:    0.00 PKD
ROOT
HETATM    1  C   UNL     1      -7.037   5.049  73.346  1.00  0.00    -0.077 C  
HETATM    2  C   UNL     1      -8.266   5.314  72.486  1.00  0.00    -0.114 C  
ENDROOT
BRANCH   2   3
HETATM    3  C   UNL     1      -8.572   6.809  72.222  1.00  0.00    -0.120 C  
BRANCH   3   4
HETATM    4  N   UNL     1      -7.714   7.457  71.209  1.00  0.00    -0.086 NA 
HETATM    5  H   UNL     1      -7.513   6.994  70.323  1.00  0.00     0.000 HD 
BRANCH   4   6
HETATM    6  C   UNL     1      -7.158   8.781  71.505  1.00  0.00    -0.083 C  
HETATM    7  C   UNL     1      -5.646   8.614  71.709  1.00  0.00    -0.046 C  
HETATM    8  C   UNL     1      -7.368   9.812  70.394  1.00  0.00    -0.151 C  
ENDBRANCH   4   6
ENDBRANCH   3   4
BRANCH   3   9
HETATM    9  C   UNL     1     -10.121   7.011  72.023  1.00  0.00    -0.185 C  
HETATM   10  H   UNL     1     -11.676   7.449  73.155  1.00  0.00     0.000 HD 
HETATM   11  O   UNL     1     -10.741   7.327  73.275  1.00  0.00    -0.334 OA 
BRANCH   9  12
HETATM   12  C   UNL     1     -10.561   8.075  71.031  1.00  0.00    -0.239 A  
HETATM   13  C   UNL     1     -10.479   7.903  69.640  1.00  0.00    -0.226 A  
HETATM   14  C   UNL     1     -10.895   8.924  68.786  1.00  0.00    -0.002 A  
HETATM   15  O   UNL     1     -10.841   8.793  67.426  1.00  0.00    -0.449 OA 
HETATM   16  C   UNL     1     -11.393  10.116  69.299  1.00  0.00    -0.156 A  
HETATM   17  H   UNL     1     -11.124   9.488  66.844  1.00  0.00     0.000 HD 
HETATM   18  C   UNL     1     -11.466  10.316  70.666  1.00  0.00    -0.435 A  
HETATM   19  O   UNL     1     -11.813  11.101  68.451  1.00  0.00    -0.495 OA 
HETATM   20  H   UNL     1     -12.154  11.916  68.801  1.00  0.00     0.000 HD 
HETATM   21  C   UNL     1     -11.042   9.304  71.529  1.00  0.00    -0.443 A  
ENDBRANCH   9  12
ENDBRANCH   3   9
ENDBRANCH   2   3
TORSDOF 5
ENDMDL
MODEL      320
REMARK 921   NORMALIZED FREE ENERGY PREDICTED BY IDOCK:   -2.76 KCAL/MOL
REMARK 922        TOTAL FREE ENERGY PREDICTED BY IDOCK:   -4.25 KCAL/MOL
REMARK 923 INTER-LIGAND FREE ENERGY PREDICTED BY IDOCK:   -3.99 KCAL/MOL
REMARK 924 INTRA-LIGAND FREE ENERGY PREDICTED BY IDOCK:   -0.26 KCAL/MOL
REMARK 927      BINDING AFFINITY PREDICTED BY RF-SCORE:    0.00 PKD
ROOT
HETATM    1  C   UNL     1      -8.950   5.696  70.843  1.00  0.00    -0.151 C  
HETATM    2  C   UNL     1     -10.228   5.937  70.049  1.00  0.00    -0.286 C  
ENDROOT
BRANCH   2   3
HETATM    3  C   UNL     1     -10.218   7.204  69.158  1.00  0.00    -0.194 C  
BRANCH   3   4
HETATM    4  N   UNL     1     -11.208   8.238  69.525  1.00  0.00    -0.439 NA 
HETATM    5  H   UNL     1     -12.048   8.377  68.964  1.00  0.00     0.000 HD 
BRANCH   4   6
HETATM    6  C   UNL     1     -10.956   9.058  70.714  1.00  0.00    -0.258 C  
HETATM    7  C   UNL     1     -11.426  10.486  70.400  1.00  0.00    -0.427 C  
HETATM    8  C   UNL     1     -11.696   8.589  71.968  1.00  0.00    -0.431 C  
ENDBRANCH   4   6
ENDBRANCH   3   4
BRANCH   3   9
HETATM    9  C   UNL     1      -8.742   7.720  68.977  1.00  0.00    -0.135 C  
HETATM   10  H   UNL     1      -7.129   7.158  67.990  1.00  0.00     0.000 HD 
HETATM   11  O   UNL     1      -8.020   6.847  68.100  1.00  0.00    -0.112 OA 
BRANCH   9  12
HETATM   12  C   UNL     1      -8.559   9.131  68.445  1.00  0.00    -0.129 A  
HETATM   13  C   UNL     1      -8.121  10.198  69.246  1.00  0.00    -0.149 A  
HETATM   14  C   UNL     1      -7.981  11.471  68.694  1.00  0.00    -0.135 A  
HETATM   15  O   UNL     1      -7.548  12.535  69.437  1.00  0.00    -0.306 OA 
HETATM   16  C   UNL     1      -8.269  11.697  67.353  1.00  0.00    -0.153 A  
HETATM   17  H   UNL     1      -7.452  13.402  69.062  1.00  0.00     0.000 HD 
HETATM   18  C   UNL     1      -8.720  10.665  66.549  1.00  0.00    -0.151 A  
HETATM   19  O   UNL     1      -8.112  12.945  66.822  1.00  0.00    -0.396 OA 
HETATM   20  H   UNL     1      -8.309  13.099  65.906  1.00  0.00     0.000 HD 
HETATM   21  C   UNL     1      -8.874   9.389  67.095  1.00  0.00    -0.138 A  
ENDBRANCH   9  12
ENDBRANCH   3   9
ENDBRANCH   2   3
TORSDOF 5
ENDMDL
MODEL      321
REMARK 921   NORMALIZED FREE ENERGY PREDICTED BY IDOCK:   -2.76 KCAL/MOL
REMARK 922        TOTAL FREE ENERGY PREDICTED BY IDOCK:   -4.24 KCAL/MOL
REMARK 923 INTER-LIGAND FREE ENERGY PREDICTED BY IDOCK:   -4.86 KCAL/MOL
REMARK 924 INTRA-LIGAND FREE ENERGY PREDICTED BY IDOCK:    0.62 KCAL/MOL
REMARK 927      BINDING AFFINITY PREDICTED BY RF-SCORE:    0.00 PKD
ROOT
HETATM    1  C   UNL     1      -7.335   9.354  70.656  1.00  0.00    -0.140 C  
HETATM    2  C   UNL     1      -7.788  10.160  69.446  1.00  0.00    -0.150 C  
ENDROOT
BRANCH   2   3
HETATM    3  C   UNL     1      -9.293  10.528  69.429  1.00  0.00    -0.117 C  
BRANCH   3   4
HETATM    4  N   UNL     1      -9.612  11.841  68.833  1.00  0.00    -0.412 NA 
HETATM    5  H   UNL     1      -9.823  12.644  69.424  1.00  0.00     0.000 HD 
BRANCH   4   6
HETATM    6  C   UNL     1      -9.619  11.964  67.372  1.00  0.00    -0.174 C  
HETATM    7  C   UNL     1      -8.270  11.442  66.857  1.00  0.00    -0.157 C  
HETATM    8  C   UNL     1     -10.723  11.162  66.681  1.00  0.00    -0.322 C  
ENDBRANCH   4   6
ENDBRANCH   3   4
BRANCH   3   9
HETATM    9  C   UNL     1     -10.134   9.316  68.879  1.00  0.00    -0.195 C  
HETATM   10  H   UNL     1      -9.803   7.711  67.779  1.00  0.00     0.000 HD 
HETATM   11  O   UNL     1      -9.296   8.443  68.111  1.00  0.00    -0.134 OA 
BRANCH   9  12
HETATM   12  C   UNL     1     -10.855   8.450  69.900  1.00  0.00    -0.207 A  
HETATM   13  C   UNL     1     -11.581   8.984  70.976  1.00  0.00    -0.360 A  
HETATM   14  C   UNL     1     -12.214   8.132  71.880  1.00  0.00    -0.331 A  
HETATM   15  O   UNL     1     -12.940   8.611  72.935  1.00  0.00    -0.661 OA 
HETATM   16  C   UNL     1     -12.135   6.753  71.726  1.00  0.00    -0.350 A  
HETATM   17  H   UNL     1     -13.371   8.031  73.552  1.00  0.00     0.000 HD 
HETATM   18  C   UNL     1     -11.409   6.203  70.684  1.00  0.00    -0.368 A  
HETATM   19  O   UNL     1     -12.773   5.930  72.609  1.00  0.00    -0.514 OA 
HETATM   20  H   UNL     1     -12.720   4.987  72.505  1.00  0.00     0.000 HD 
HETATM   21  C   UNL     1     -10.763   7.048  69.780  1.00  0.00    -0.265 A  
ENDBRANCH   9  12
ENDBRANCH   3   9
ENDBRANCH   2   3
TORSDOF 5
ENDMDL
MODEL      322
REMARK 921   NORMALIZED FREE ENERGY PREDICTED BY IDOCK:   -2.71 KCAL/MOL
REMARK 922        TOTAL FREE ENERGY PREDICTED BY IDOCK:   -4.18 KCAL/MOL
REMARK 923 INTER-LIGAND FREE ENERGY PREDICTED BY IDOCK:   -3.32 KCAL/MOL
REMARK 924 INTRA-LIGAND FREE ENERGY PREDICTED BY IDOCK:   -0.85 KCAL/MOL
REMARK 927      BINDING AFFINITY PREDICTED BY RF-SCORE:    0.00 PKD
ROOT
HETATM    1  C   UNL     1      -9.562  10.483  63.377  1.00  0.00    -0.376 C  
HETATM    2  C   UNL     1     -10.413  11.063  64.500  1.00  0.00    -0.411 C  
ENDROOT
BRANCH   2   3
HETATM    3  C   UNL     1      -9.741  11.068  65.896  1.00  0.00    -0.224 C  
BRANCH   3   4
HETATM    4  N   UNL     1     -10.648  10.799  67.030  1.00  0.00    -0.248 NA 
HETATM    5  H   UNL     1     -11.368  10.080  66.964  1.00  0.00     0.000 HD 
BRANCH   4   6
HETATM    6  C   UNL     1     -10.490  11.590  68.255  1.00  0.00    -0.197 C  
HETATM    7  C   UNL     1      -9.843  12.926  67.864  1.00  0.00    -0.227 C  
HETATM    8  C   UNL     1     -11.804  11.902  68.973  1.00  0.00    -0.368 C  
ENDBRANCH   4   6
ENDBRANCH   3   4
BRANCH   3   9
HETATM    9  C   UNL     1      -8.429  10.198  65.861  1.00  0.00    -0.141 C  
HETATM   10  H   UNL     1      -6.535  10.424  66.365  1.00  0.00     0.000 HD 
HETATM   11  O   UNL     1      -7.327  10.949  66.386  1.00  0.00    -0.135 OA 
BRANCH   9  12
HETATM   12  C   UNL     1      -8.454   8.873  66.604  1.00  0.00    -0.122 A  
HETATM   13  C   UNL     1      -7.923   8.710  67.893  1.00  0.00    -0.107 A  
HETATM   14  C   UNL     1      -7.973   7.463  68.515  1.00  0.00    -0.124 A  
HETATM   15  O   UNL     1      -7.476   7.264  69.774  1.00  0.00    -0.088 OA 
HETATM   16  C   UNL     1      -8.548   6.374  67.870  1.00  0.00    -0.116 A  
HETATM   17  H   UNL     1      -7.511   6.415  70.198  1.00  0.00     0.000 HD 
HETATM   18  C   UNL     1      -9.062   6.505  66.592  1.00  0.00    -0.159 A  
HETATM   19  O   UNL     1      -8.606   5.162  68.497  1.00  0.00    -0.095 OA 
HETATM   20  H   UNL     1      -8.999   4.418  68.058  1.00  0.00     0.000 HD 
HETATM   21  C   UNL     1      -9.006   7.748  65.957  1.00  0.00    -0.185 A  
ENDBRANCH   9  12
ENDBRANCH   3   9
ENDBRANCH   2   3
TORSDOF 5
ENDMDL
MODEL      323
REMARK 921   NORMALIZED FREE ENERGY PREDICTED BY IDOCK:   -2.68 KCAL/MOL
REMARK 922        TOTAL FREE ENERGY PREDICTED BY IDOCK:   -4.14 KCAL/MOL
REMARK 923 INTER-LIGAND FREE ENERGY PREDICTED BY IDOCK:   -3.72 KCAL/MOL
REMARK 924 INTRA-LIGAND FREE ENERGY PREDICTED BY IDOCK:   -0.42 KCAL/MOL
REMARK 927      BINDING AFFINITY PREDICTED BY RF-SCORE:    0.00 PKD
ROOT
HETATM    1  C   UNL     1      -5.878   7.571  69.216  1.00  0.00    -0.027 C  
HETATM    2  C   UNL     1      -6.677   8.592  68.416  1.00  0.00    -0.064 C  
ENDROOT
BRANCH   2   3
HETATM    3  C   UNL     1      -8.131   8.814  68.902  1.00  0.00    -0.114 C  
BRANCH   3   4
HETATM    4  N   UNL     1      -8.417   8.332  70.269  1.00  0.00    -0.123 NA 
HETATM    5  H   UNL     1      -7.700   8.364  70.993  1.00  0.00     0.000 HD 
BRANCH   4   6
HETATM    6  C   UNL     1      -9.755   7.809  70.561  1.00  0.00    -0.175 C  
HETATM    7  C   UNL     1      -9.589   6.618  71.516  1.00  0.00    -0.169 C  
HETATM    8  C   UNL     1     -10.690   8.817  71.231  1.00  0.00    -0.339 C  
ENDBRANCH   4   6
ENDBRANCH   3   4
BRANCH   3   9
HETATM    9  C   UNL     1      -8.577  10.293  68.601  1.00  0.00    -0.128 C  
HETATM   10  H   UNL     1      -7.707  12.057  68.440  1.00  0.00     0.000 HD 
HETATM   11  O   UNL     1      -7.439  11.164  68.622  1.00  0.00    -0.102 OA 
BRANCH   9  12
HETATM   12  C   UNL     1      -9.303  10.547  67.290  1.00  0.00    -0.164 A  
HETATM   13  C   UNL     1     -10.360  11.463  67.168  1.00  0.00    -0.247 A  
HETATM   14  C   UNL     1     -10.988  11.643  65.936  1.00  0.00    -0.280 A  
HETATM   15  O   UNL     1     -12.014  12.532  65.773  1.00  0.00    -0.425 OA 
HETATM   16  C   UNL     1     -10.575  10.923  64.821  1.00  0.00    -0.246 A  
HETATM   17  H   UNL     1     -12.442  12.655  64.933  1.00  0.00     0.000 HD 
HETATM   18  C   UNL     1      -9.548  10.002  64.921  1.00  0.00    -0.375 A  
HETATM   19  O   UNL     1     -11.187  11.121  63.616  1.00  0.00    -0.567 OA 
HETATM   20  H   UNL     1     -10.906  10.630  62.854  1.00  0.00     0.000 HD 
HETATM   21  C   UNL     1      -8.921   9.807  66.153  1.00  0.00    -0.181 A  
ENDBRANCH   9  12
ENDBRANCH   3   9
ENDBRANCH   2   3
TORSDOF 5
ENDMDL
MODEL      324
REMARK 921   NORMALIZED FREE ENERGY PREDICTED BY IDOCK:   -2.64 KCAL/MOL
REMARK 922        TOTAL FREE ENERGY PREDICTED BY IDOCK:   -4.09 KCAL/MOL
REMARK 923 INTER-LIGAND FREE ENERGY PREDICTED BY IDOCK:   -3.63 KCAL/MOL
REMARK 924 INTRA-LIGAND FREE ENERGY PREDICTED BY IDOCK:   -0.46 KCAL/MOL
REMARK 927      BINDING AFFINITY PREDICTED BY RF-SCORE:    0.00 PKD
ROOT
HETATM    1  C   UNL     1      -7.666   7.616  70.348  1.00  0.00    -0.090 C  
HETATM    2  C   UNL     1      -8.724   8.305  69.495  1.00  0.00    -0.138 C  
ENDROOT
BRANCH   2   3
HETATM    3  C   UNL     1     -10.011   7.477  69.252  1.00  0.00    -0.179 C  
BRANCH   3   4
HETATM    4  N   UNL     1     -11.274   8.172  69.574  1.00  0.00    -0.439 NA 
HETATM    5  H   UNL     1     -12.132   7.955  69.067  1.00  0.00     0.000 HD 
BRANCH   4   6
HETATM    6  C   UNL     1     -11.267   9.181  70.638  1.00  0.00    -0.270 C  
HETATM    7  C   UNL     1     -11.960  10.437  70.091  1.00  0.00    -0.357 C  
HETATM    8  C   UNL     1     -12.006   8.757  71.908  1.00  0.00    -0.435 C  
ENDBRANCH   4   6
ENDBRANCH   3   4
BRANCH   3   9
HETATM    9  C   UNL     1      -9.954   6.804  67.830  1.00  0.00    -0.141 C  
HETATM   10  H   UNL     1     -11.246   6.213  66.461  1.00  0.00     0.000 HD 
HETATM   11  O   UNL     1     -11.280   6.619  67.320  1.00  0.00    -0.366 OA 
BRANCH   9  12
HETATM   12  C   UNL     1      -9.163   7.525  66.752  1.00  0.00    -0.192 A  
HETATM   13  C   UNL     1      -9.397   8.864  66.398  1.00  0.00    -0.262 A  
HETATM   14  C   UNL     1      -8.637   9.462  65.394  1.00  0.00    -0.156 A  
HETATM   15  O   UNL     1      -8.826  10.766  65.027  1.00  0.00    -0.195 OA 
HETATM   16  C   UNL     1      -7.644   8.746  64.736  1.00  0.00    -0.107 A  
HETATM   17  H   UNL     1      -8.309  11.174  64.343  1.00  0.00     0.000 HD 
HETATM   18  C   UNL     1      -7.407   7.420  65.054  1.00  0.00    -0.078 A  
HETATM   19  O   UNL     1      -6.896   9.349  63.766  1.00  0.00    -0.091 OA 
HETATM   20  H   UNL     1      -6.217   8.860  63.317  1.00  0.00     0.000 HD 
HETATM   21  C   UNL     1      -8.170   6.809  66.051  1.00  0.00    -0.129 A  
ENDBRANCH   9  12
ENDBRANCH   3   9
ENDBRANCH   2   3
TORSDOF 5
ENDMDL
MODEL      325
REMARK 921   NORMALIZED FREE ENERGY PREDICTED BY IDOCK:   -2.55 KCAL/MOL
REMARK 922        TOTAL FREE ENERGY PREDICTED BY IDOCK:   -3.97 KCAL/MOL
REMARK 923 INTER-LIGAND FREE ENERGY PREDICTED BY IDOCK:   -3.18 KCAL/MOL
REMARK 924 INTRA-LIGAND FREE ENERGY PREDICTED BY IDOCK:   -0.79 KCAL/MOL
REMARK 927      BINDING AFFINITY PREDICTED BY RF-SCORE:    0.00 PKD
ROOT
HETATM    1  C   UNL     1      -7.508   9.832  70.262  1.00  0.00    -0.173 C  
HETATM    2  C   UNL     1      -8.657   9.097  70.941  1.00  0.00    -0.259 C  
ENDROOT
BRANCH   2   3
HETATM    3  C   UNL     1      -9.706   8.489  69.977  1.00  0.00    -0.170 C  
BRANCH   3   4
HETATM    4  N   UNL     1      -9.557   8.876  68.560  1.00  0.00    -0.155 NA 
HETATM    5  H   UNL     1      -8.653   8.809  68.093  1.00  0.00     0.000 HD 
BRANCH   4   6
HETATM    6  C   UNL     1     -10.739   9.361  67.838  1.00  0.00    -0.210 C  
HETATM    7  C   UNL     1     -11.371  10.477  68.682  1.00  0.00    -0.315 C  
HETATM    8  C   UNL     1     -10.435   9.938  66.455  1.00  0.00    -0.197 C  
ENDBRANCH   4   6
ENDBRANCH   3   4
BRANCH   3   9
HETATM    9  C   UNL     1      -9.844   6.943  70.242  1.00  0.00    -0.178 C  
HETATM   10  H   UNL     1     -11.311   5.644  70.475  1.00  0.00     0.000 HD 
HETATM   11  O   UNL     1     -11.228   6.577  70.314  1.00  0.00    -0.312 OA 
BRANCH   9  12
HETATM   12  C   UNL     1      -9.191   6.005  69.241  1.00  0.00    -0.133 A  
HETATM   13  C   UNL     1      -9.924   5.241  68.319  1.00  0.00    -0.214 A  
HETATM   14  C   UNL     1      -9.261   4.395  67.432  1.00  0.00    -0.143 A  
HETATM   15  O   UNL     1      -9.937   3.642  66.512  1.00  0.00    -0.409 OA 
HETATM   16  C   UNL     1      -7.874   4.300  67.448  1.00  0.00    -0.092 A  
HETATM   17  H   UNL     1      -9.485   3.065  65.907  1.00  0.00     0.000 HD 
HETATM   18  C   UNL     1      -7.131   5.029  68.359  1.00  0.00    -0.062 A  
HETATM   19  O   UNL     1      -7.236   3.480  66.562  1.00  0.00    -0.065 OA 
HETATM   20  H   UNL     1      -6.288   3.415  66.572  1.00  0.00     0.000 HD 
HETATM   21  C   UNL     1      -7.787   5.872  69.259  1.00  0.00    -0.095 A  
ENDBRANCH   9  12
ENDBRANCH   3   9
ENDBRANCH   2   3
TORSDOF 5
ENDMDL
MODEL      326
REMARK 921   NORMALIZED FREE ENERGY PREDICTED BY IDOCK:   -2.54 KCAL/MOL
REMARK 922        TOTAL FREE ENERGY PREDICTED BY IDOCK:   -3.95 KCAL/MOL
REMARK 923 INTER-LIGAND FREE ENERGY PREDICTED BY IDOCK:   -3.22 KCAL/MOL
REMARK 924 INTRA-LIGAND FREE ENERGY PREDICTED BY IDOCK:   -0.73 KCAL/MOL
REMARK 927      BINDING AFFINITY PREDICTED BY RF-SCORE:    0.00 PKD
ROOT
HETATM    1  C   UNL     1     -12.321   8.744  72.090  1.00  0.00    -0.458 C  
HETATM    2  C   UNL     1     -11.464   9.514  71.094  1.00  0.00    -0.430 C  
ENDROOT
BRANCH   2   3
HETATM    3  C   UNL     1     -10.277   8.718  70.497  1.00  0.00    -0.202 C  
BRANCH   3   4
HETATM    4  N   UNL     1      -9.073   8.651  71.349  1.00  0.00    -0.207 NA 
HETATM    5  H   UNL     1      -9.100   8.183  72.255  1.00  0.00     0.000 HD 
BRANCH   4   6
HETATM    6  C   UNL     1      -7.836   9.272  70.864  1.00  0.00    -0.113 C  
HETATM    7  C   UNL     1      -6.671   8.673  71.665  1.00  0.00    -0.084 C  
HETATM    8  C   UNL     1      -7.554   9.032  69.380  1.00  0.00    -0.078 C  
ENDBRANCH   4   6
ENDBRANCH   3   4
BRANCH   3   9
HETATM    9  C   UNL     1     -10.787   7.337  69.939  1.00  0.00    -0.247 C  
HETATM   10  H   UNL     1     -10.754   6.376  68.216  1.00  0.00     0.000 HD 
HETATM   11  O   UNL     1     -10.447   7.210  68.553  1.00  0.00    -0.195 OA 
BRANCH   9  12
HETATM   12  C   UNL     1     -10.287   6.080  70.633  1.00  0.00    -0.280 A  
HETATM   13  C   UNL     1     -11.002   5.438  71.657  1.00  0.00    -0.184 A  
HETATM   14  C   UNL     1     -10.482   4.292  72.257  1.00  0.00    -0.094 A  
HETATM   15  O   UNL     1     -11.151   3.631  73.249  1.00  0.00    -0.196 OA 
HETATM   16  C   UNL     1      -9.259   3.773  71.848  1.00  0.00    -0.123 A  
HETATM   17  H   UNL     1     -10.797   2.850  73.658  1.00  0.00     0.000 HD 
HETATM   18  C   UNL     1      -8.528   4.399  70.854  1.00  0.00    -0.105 A  
HETATM   19  O   UNL     1      -8.769   2.640  72.432  1.00  0.00    -0.069 OA 
HETATM   20  H   UNL     1      -7.934   2.285  72.153  1.00  0.00     0.000 HD 
HETATM   21  C   UNL     1      -9.035   5.553  70.256  1.00  0.00    -0.155 A  
ENDBRANCH   9  12
ENDBRANCH   3   9
ENDBRANCH   2   3
TORSDOF 5
ENDMDL
MODEL      327
REMARK 921   NORMALIZED FREE ENERGY PREDICTED BY IDOCK:   -2.46 KCAL/MOL
REMARK 922        TOTAL FREE ENERGY PREDICTED BY IDOCK:   -3.85 KCAL/MOL
REMARK 923 INTER-LIGAND FREE ENERGY PREDICTED BY IDOCK:   -3.51 KCAL/MOL
REMARK 924 INTRA-LIGAND FREE ENERGY PREDICTED BY IDOCK:   -0.34 KCAL/MOL
REMARK 927      BINDING AFFINITY PREDICTED BY RF-SCORE:    0.00 PKD
ROOT
HETATM    1  C   UNL     1      -7.976   3.449  71.659  1.00  0.00    -0.058 C  
HETATM    2  C   UNL     1      -6.995   4.387  70.968  1.00  0.00    -0.036 C  
ENDROOT
BRANCH   2   3
HETATM    3  C   UNL     1      -7.493   5.844  70.793  1.00  0.00    -0.091 C  
BRANCH   3   4
HETATM    4  N   UNL     1      -8.055   6.161  69.464  1.00  0.00    -0.110 NA 
HETATM    5  H   UNL     1      -7.997   7.105  69.085  1.00  0.00     0.000 HD 
BRANCH   4   6
HETATM    6  C   UNL     1      -8.699   5.086  68.702  1.00  0.00    -0.093 C  
HETATM    7  C   UNL     1     -10.217   5.290  68.805  1.00  0.00    -0.231 C  
HETATM    8  C   UNL     1      -8.331   5.063  67.218  1.00  0.00    -0.106 C  
ENDBRANCH   4   6
ENDBRANCH   3   4
BRANCH   3   9
HETATM    9  C   UNL     1      -8.389   6.254  72.020  1.00  0.00    -0.110 C  
HETATM   10  H   UNL     1      -8.106   6.883  73.868  1.00  0.00     0.000 HD 
HETATM   11  O   UNL     1      -7.564   6.636  73.127  1.00  0.00    -0.088 OA 
BRANCH   9  12
HETATM   12  C   UNL     1      -9.389   7.378  71.805  1.00  0.00    -0.161 A  
HETATM   13  C   UNL     1      -9.149   8.459  70.942  1.00  0.00    -0.190 A  
HETATM   14  C   UNL     1     -10.107   9.461  70.797  1.00  0.00    -0.298 A  
HETATM   15  O   UNL     1      -9.917  10.525  69.959  1.00  0.00    -0.423 OA 
HETATM   16  C   UNL     1     -11.306   9.400  71.499  1.00  0.00    -0.394 A  
HETATM   17  H   UNL     1     -10.570  11.208  69.860  1.00  0.00     0.000 HD 
HETATM   18  C   UNL     1     -11.558   8.355  72.369  1.00  0.00    -0.450 A  
HETATM   19  O   UNL     1     -12.243  10.380  71.334  1.00  0.00    -0.366 OA 
HETATM   20  H   UNL     1     -13.062  10.338  71.813  1.00  0.00     0.000 HD 
HETATM   21  C   UNL     1     -10.599   7.352  72.529  1.00  0.00    -0.304 A  
ENDBRANCH   9  12
ENDBRANCH   3   9
ENDBRANCH   2   3
TORSDOF 5
ENDMDL
MODEL      328
REMARK 921   NORMALIZED FREE ENERGY PREDICTED BY IDOCK:   -2.46 KCAL/MOL
REMARK 922        TOTAL FREE ENERGY PREDICTED BY IDOCK:   -3.85 KCAL/MOL
REMARK 923 INTER-LIGAND FREE ENERGY PREDICTED BY IDOCK:   -3.02 KCAL/MOL
REMARK 924 INTRA-LIGAND FREE ENERGY PREDICTED BY IDOCK:   -0.83 KCAL/MOL
REMARK 927      BINDING AFFINITY PREDICTED BY RF-SCORE:    0.00 PKD
ROOT
HETATM    1  C   UNL     1     -12.339  10.981  69.485  1.00  0.00    -0.266 C  
HETATM    2  C   UNL     1     -11.749  12.375  69.319  1.00  0.00    -0.386 C  
ENDROOT
BRANCH   2   3
HETATM    3  C   UNL     1     -10.560  12.470  68.331  1.00  0.00    -0.242 C  
BRANCH   3   4
HETATM    4  N   UNL     1      -9.337  13.093  68.877  1.00  0.00    -0.381 NA 
HETATM    5  H   UNL     1      -8.955  12.793  69.773  1.00  0.00     0.000 HD 
BRANCH   4   6
HETATM    6  C   UNL     1      -8.685  14.154  68.101  1.00  0.00    -0.181 C  
HETATM    7  C   UNL     1      -8.546  15.378  69.016  1.00  0.00    -0.227 C  
HETATM    8  C   UNL     1      -7.289  13.790  67.593  1.00  0.00    -0.182 C  
ENDBRANCH   4   6
ENDBRANCH   3   4
BRANCH   3   9
HETATM    9  C   UNL     1     -10.348  11.084  67.614  1.00  0.00    -0.191 C  
HETATM   10  H   UNL     1     -10.217  10.425  65.759  1.00  0.00     0.000 HD 
HETATM   11  O   UNL     1     -10.345  11.261  66.192  1.00  0.00    -0.237 OA 
BRANCH   9  12
HETATM   12  C   UNL     1      -9.091  10.306  67.965  1.00  0.00    -0.132 A  
HETATM   13  C   UNL     1      -8.926   9.632  69.185  1.00  0.00    -0.154 A  
HETATM   14  C   UNL     1      -7.743   8.941  69.445  1.00  0.00    -0.093 A  
HETATM   15  O   UNL     1      -7.546   8.263  70.617  1.00  0.00    -0.065 OA 
HETATM   16  C   UNL     1      -6.720   8.910  68.504  1.00  0.00    -0.060 A  
HETATM   17  H   UNL     1      -6.740   7.793  70.795  1.00  0.00     0.000 HD 
HETATM   18  C   UNL     1      -6.852   9.583  67.302  1.00  0.00    -0.084 A  
HETATM   19  O   UNL     1      -5.573   8.216  68.765  1.00  0.00    -0.033 OA 
HETATM   20  H   UNL     1      -4.875   8.195  68.122  1.00  0.00     0.000 HD 
HETATM   21  C   UNL     1      -8.029  10.286  67.037  1.00  0.00    -0.111 A  
ENDBRANCH   9  12
ENDBRANCH   3   9
ENDBRANCH   2   3
TORSDOF 5
ENDMDL
MODEL      329
REMARK 921   NORMALIZED FREE ENERGY PREDICTED BY IDOCK:   -2.46 KCAL/MOL
REMARK 922        TOTAL FREE ENERGY PREDICTED BY IDOCK:   -3.85 KCAL/MOL
REMARK 923 INTER-LIGAND FREE ENERGY PREDICTED BY IDOCK:   -3.28 KCAL/MOL
REMARK 924 INTRA-LIGAND FREE ENERGY PREDICTED BY IDOCK:   -0.57 KCAL/MOL
REMARK 927      BINDING AFFINITY PREDICTED BY RF-SCORE:    0.00 PKD
ROOT
HETATM    1  C   UNL     1     -10.869   6.010  66.583  1.00  0.00    -0.289 C  
HETATM    2  C   UNL     1     -10.051   5.745  67.840  1.00  0.00    -0.197 C  
ENDROOT
BRANCH   2   3
HETATM    3  C   UNL     1      -8.973   6.811  68.158  1.00  0.00    -0.118 C  
BRANCH   3   4
HETATM    4  N   UNL     1      -8.486   7.579  66.994  1.00  0.00    -0.120 NA 
HETATM    5  H   UNL     1      -8.861   7.406  66.062  1.00  0.00     0.000 HD 
BRANCH   4   6
HETATM    6  C   UNL     1      -7.452   8.597  67.209  1.00  0.00    -0.089 C  
HETATM    7  C   UNL     1      -6.128   7.864  67.469  1.00  0.00    -0.050 C  
HETATM    8  C   UNL     1      -7.239   9.534  66.019  1.00  0.00    -0.093 C  
ENDBRANCH   4   6
ENDBRANCH   3   4
BRANCH   3   9
HETATM    9  C   UNL     1      -9.422   7.675  69.395  1.00  0.00    -0.152 C  
HETATM   10  H   UNL     1     -10.706   9.130  69.749  1.00  0.00     0.000 HD 
HETATM   11  O   UNL     1     -10.435   8.609  69.002  1.00  0.00    -0.216 OA 
BRANCH   9  12
HETATM   12  C   UNL     1      -9.956   6.928  70.606  1.00  0.00    -0.198 A  
HETATM   13  C   UNL     1      -9.135   6.180  71.465  1.00  0.00    -0.145 A  
HETATM   14  C   UNL     1      -9.692   5.513  72.556  1.00  0.00    -0.152 A  
HETATM   15  O   UNL     1      -8.926   4.782  73.422  1.00  0.00    -0.109 OA 
HETATM   16  C   UNL     1     -11.058   5.582  72.805  1.00  0.00    -0.291 A  
HETATM   17  H   UNL     1      -9.306   4.328  74.165  1.00  0.00     0.000 HD 
HETATM   18  C   UNL     1     -11.890   6.298  71.962  1.00  0.00    -0.370 A  
HETATM   19  O   UNL     1     -11.588   4.938  73.886  1.00  0.00    -0.343 OA 
HETATM   20  H   UNL     1     -12.521   4.985  74.056  1.00  0.00     0.000 HD 
HETATM   21  C   UNL     1     -11.343   6.960  70.861  1.00  0.00    -0.348 A  
ENDBRANCH   9  12
ENDBRANCH   3   9
ENDBRANCH   2   3
TORSDOF 5
ENDMDL
MODEL      330
REMARK 921   NORMALIZED FREE ENERGY PREDICTED BY IDOCK:   -2.43 KCAL/MOL
REMARK 922        TOTAL FREE ENERGY PREDICTED BY IDOCK:   -3.82 KCAL/MOL
REMARK 923 INTER-LIGAND FREE ENERGY PREDICTED BY IDOCK:   -3.60 KCAL/MOL
REMARK 924 INTRA-LIGAND FREE ENERGY PREDICTED BY IDOCK:   -0.22 KCAL/MOL
REMARK 927      BINDING AFFINITY PREDICTED BY RF-SCORE:    0.00 PKD
ROOT
HETATM    1  C   UNL     1      -9.673  18.814  68.474  1.00  0.00    -0.426 C  
HETATM    2  C   UNL     1      -9.837  17.686  67.464  1.00  0.00    -0.299 C  
ENDROOT
BRANCH   2   3
HETATM    3  C   UNL     1      -9.179  16.343  67.869  1.00  0.00    -0.202 C  
BRANCH   3   4
HETATM    4  N   UNL     1      -9.980  15.499  68.778  1.00  0.00    -0.206 NA 
HETATM    5  H   UNL     1      -9.585  14.654  69.189  1.00  0.00     0.000 HD 
BRANCH   4   6
HETATM    6  C   UNL     1     -11.358  15.904  69.077  1.00  0.00    -0.371 C  
HETATM    7  C   UNL     1     -12.261  15.317  67.983  1.00  0.00     0.275 C  
HETATM    8  C   UNL     1     -11.879  15.407  70.427  1.00  0.00    -0.366 C  
ENDBRANCH   4   6
ENDBRANCH   3   4
BRANCH   3   9
HETATM    9  C   UNL     1      -8.620  15.614  66.590  1.00  0.00    -0.295 C  
HETATM   10  H   UNL     1      -6.904  14.833  66.009  1.00  0.00     0.000 HD 
HETATM   11  O   UNL     1      -7.242  15.273  66.781  1.00  0.00    -0.099 OA 
BRANCH   9  12
HETATM   12  C   UNL     1      -9.331  14.347  66.146  1.00  0.00    -0.221 A  
HETATM   13  C   UNL     1     -10.575  14.358  65.494  1.00  0.00    -0.360 A  
HETATM   14  C   UNL     1     -11.175  13.156  65.120  1.00  0.00    -0.294 A  
HETATM   15  O   UNL     1     -12.381  13.124  64.474  1.00  0.00    -0.445 OA 
HETATM   16  C   UNL     1     -10.553  11.942  65.383  1.00  0.00    -0.271 A  
HETATM   17  H   UNL     1     -12.790  12.305  64.219  1.00  0.00     0.000 HD 
HETATM   18  C   UNL     1      -9.336  11.905  66.041  1.00  0.00    -0.215 A  
HETATM   19  O   UNL     1     -11.144  10.773  64.996  1.00  0.00     0.012 OA 
HETATM   20  H   UNL     1     -10.719   9.944  65.176  1.00  0.00     0.000 HD 
HETATM   21  C   UNL     1      -8.732  13.102  66.430  1.00  0.00     0.186 A  
ENDBRANCH   9  12
ENDBRANCH   3   9
ENDBRANCH   2   3
TORSDOF 5
ENDMDL
MODEL      331
REMARK 921   NORMALIZED FREE ENERGY PREDICTED BY IDOCK:   -2.35 KCAL/MOL
REMARK 922        TOTAL FREE ENERGY PREDICTED BY IDOCK:   -3.72 KCAL/MOL
REMARK 923 INTER-LIGAND FREE ENERGY PREDICTED BY IDOCK:   -2.97 KCAL/MOL
REMARK 924 INTRA-LIGAND FREE ENERGY PREDICTED BY IDOCK:   -0.75 KCAL/MOL
REMARK 927      BINDING AFFINITY PREDICTED BY RF-SCORE:    0.00 PKD
ROOT
HETATM    1  C   UNL     1      -6.272   5.426  69.794  1.00  0.00    -0.025 C  
HETATM    2  C   UNL     1      -7.421   5.978  70.628  1.00  0.00    -0.087 C  
ENDROOT
BRANCH   2   3
HETATM    3  C   UNL     1      -8.632   5.025  70.787  1.00  0.00    -0.123 C  
BRANCH   3   4
HETATM    4  N   UNL     1      -8.638   4.217  72.023  1.00  0.00    -0.106 NA 
HETATM    5  H   UNL     1      -9.174   3.352  72.078  1.00  0.00     0.000 HD 
BRANCH   4   6
HETATM    6  C   UNL     1      -7.855   4.688  73.171  1.00  0.00    -0.096 C  
HETATM    7  C   UNL     1      -8.828   4.913  74.336  1.00  0.00    -0.112 C  
HETATM    8  C   UNL     1      -6.782   3.704  73.642  1.00  0.00    -0.040 C  
ENDBRANCH   4   6
ENDBRANCH   3   4
BRANCH   3   9
HETATM    9  C   UNL     1      -9.967   5.802  70.483  1.00  0.00    -0.195 C  
HETATM   10  H   UNL     1     -11.111   7.121  71.403  1.00  0.00     0.000 HD 
HETATM   11  O   UNL     1     -10.305   6.652  71.586  1.00  0.00    -0.203 OA 
BRANCH   9  12
HETATM   12  C   UNL     1      -9.999   6.667  69.233  1.00  0.00    -0.171 A  
HETATM   13  C   UNL     1      -9.723   6.166  67.951  1.00  0.00    -0.117 A  
HETATM   14  C   UNL     1      -9.763   7.017  66.847  1.00  0.00    -0.175 A  
HETATM   15  O   UNL     1      -9.511   6.567  65.581  1.00  0.00    -0.381 OA 
HETATM   16  C   UNL     1     -10.077   8.362  67.002  1.00  0.00    -0.284 A  
HETATM   17  H   UNL     1      -9.538   7.147  64.828  1.00  0.00     0.000 HD 
HETATM   18  C   UNL     1     -10.334   8.883  68.258  1.00  0.00    -0.250 A  
HETATM   19  O   UNL     1     -10.129   9.181  65.911  1.00  0.00    -0.388 OA 
HETATM   20  H   UNL     1     -10.344  10.100  66.016  1.00  0.00     0.000 HD 
HETATM   21  C   UNL     1     -10.286   8.041  69.371  1.00  0.00    -0.217 A  
ENDBRANCH   9  12
ENDBRANCH   3   9
ENDBRANCH   2   3
TORSDOF 5
ENDMDL
MODEL      332
REMARK 921   NORMALIZED FREE ENERGY PREDICTED BY IDOCK:   -2.31 KCAL/MOL
REMARK 922        TOTAL FREE ENERGY PREDICTED BY IDOCK:   -3.66 KCAL/MOL
REMARK 923 INTER-LIGAND FREE ENERGY PREDICTED BY IDOCK:   -3.03 KCAL/MOL
REMARK 924 INTRA-LIGAND FREE ENERGY PREDICTED BY IDOCK:   -0.63 KCAL/MOL
REMARK 927      BINDING AFFINITY PREDICTED BY RF-SCORE:    0.00 PKD
ROOT
HETATM    1  C   UNL     1      -8.500  11.910  67.040  1.00  0.00    -0.177 C  
HETATM    2  C   UNL     1      -9.338  10.654  67.239  1.00  0.00    -0.166 C  
ENDROOT
BRANCH   2   3
HETATM    3  C   UNL     1      -8.774   9.645  68.270  1.00  0.00    -0.120 C  
BRANCH   3   4
HETATM    4  N   UNL     1      -7.325   9.382  68.163  1.00  0.00    -0.078 NA 
HETATM    5  H   UNL     1      -6.944   8.880  67.362  1.00  0.00     0.000 HD 
BRANCH   4   6
HETATM    6  C   UNL     1      -6.446   9.858  69.237  1.00  0.00    -0.048 C  
HETATM    7  C   UNL     1      -5.624   8.658  69.729  1.00  0.00    -0.029 C  
HETATM    8  C   UNL     1      -5.465  10.949  68.805  1.00  0.00    -0.040 C  
ENDBRANCH   4   6
ENDBRANCH   3   4
BRANCH   3   9
HETATM    9  C   UNL     1      -9.289  10.011  69.712  1.00  0.00    -0.202 C  
HETATM   10  H   UNL     1     -10.653  11.198  70.499  1.00  0.00     0.000 HD 
HETATM   11  O   UNL     1     -10.343  10.977  69.629  1.00  0.00    -0.123 OA 
BRANCH   9  12
HETATM   12  C   UNL     1      -9.802   8.871  70.576  1.00  0.00    -0.242 A  
HETATM   13  C   UNL     1     -11.163   8.685  70.866  1.00  0.00    -0.311 A  
HETATM   14  C   UNL     1     -11.565   7.621  71.672  1.00  0.00    -0.267 A  
HETATM   15  O   UNL     1     -12.881   7.399  71.970  1.00  0.00    -0.447 OA 
HETATM   16  C   UNL     1     -10.629   6.735  72.193  1.00  0.00    -0.211 A  
HETATM   17  H   UNL     1     -13.156   6.674  72.519  1.00  0.00     0.000 HD 
HETATM   18  C   UNL     1      -9.280   6.908  71.937  1.00  0.00    -0.144 A  
HETATM   19  O   UNL     1     -11.038   5.687  72.967  1.00  0.00    -0.262 OA 
HETATM   20  H   UNL     1     -10.399   5.082  73.323  1.00  0.00     0.000 HD 
HETATM   21  C   UNL     1      -8.867   7.977  71.139  1.00  0.00    -0.159 A  
ENDBRANCH   9  12
ENDBRANCH   3   9
ENDBRANCH   2   3
TORSDOF 5
ENDMDL
MODEL      333
REMARK 921   NORMALIZED FREE ENERGY PREDICTED BY IDOCK:   -2.31 KCAL/MOL
REMARK 922        TOTAL FREE ENERGY PREDICTED BY IDOCK:   -3.66 KCAL/MOL
REMARK 923 INTER-LIGAND FREE ENERGY PREDICTED BY IDOCK:   -2.84 KCAL/MOL
REMARK 924 INTRA-LIGAND FREE ENERGY PREDICTED BY IDOCK:   -0.81 KCAL/MOL
REMARK 927      BINDING AFFINITY PREDICTED BY RF-SCORE:    0.00 PKD
ROOT
HETATM    1  C   UNL     1      -5.204   4.300  69.959  1.00  0.00    -0.004 C  
HETATM    2  C   UNL     1      -6.460   5.147  70.127  1.00  0.00    -0.031 C  
ENDROOT
BRANCH   2   3
HETATM    3  C   UNL     1      -7.790   4.414  69.823  1.00  0.00    -0.057 C  
BRANCH   3   4
HETATM    4  N   UNL     1      -8.454   3.805  70.993  1.00  0.00    -0.070 NA 
HETATM    5  H   UNL     1      -9.155   3.075  70.874  1.00  0.00     0.000 HD 
BRANCH   4   6
HETATM    6  C   UNL     1      -8.081   4.273  72.332  1.00  0.00    -0.096 C  
HETATM    7  C   UNL     1      -9.337   4.875  72.979  1.00  0.00    -0.142 C  
HETATM    8  C   UNL     1      -7.561   3.173  73.259  1.00  0.00    -0.056 C  
ENDBRANCH   4   6
ENDBRANCH   3   4
BRANCH   3   9
HETATM    9  C   UNL     1      -8.709   5.325  68.926  1.00  0.00    -0.090 C  
HETATM   10  H   UNL     1     -10.225   5.071  67.689  1.00  0.00     0.000 HD 
HETATM   11  O   UNL     1      -9.671   4.521  68.231  1.00  0.00    -0.153 OA 
BRANCH   9  12
HETATM   12  C   UNL     1      -9.480   6.434  69.622  1.00  0.00    -0.154 A  
HETATM   13  C   UNL     1      -8.921   7.690  69.908  1.00  0.00    -0.144 A  
HETATM   14  C   UNL     1      -9.683   8.661  70.555  1.00  0.00    -0.180 A  
HETATM   15  O   UNL     1      -9.180   9.899  70.843  1.00  0.00    -0.321 OA 
HETATM   16  C   UNL     1     -10.999   8.399  70.921  1.00  0.00    -0.243 A  
HETATM   17  H   UNL     1      -9.699  10.561  71.284  1.00  0.00     0.000 HD 
HETATM   18  C   UNL     1     -11.566   7.163  70.667  1.00  0.00    -0.354 A  
HETATM   19  O   UNL     1     -11.740   9.365  71.540  1.00  0.00    -0.342 OA 
HETATM   20  H   UNL     1     -12.639   9.187  71.790  1.00  0.00     0.000 HD 
HETATM   21  C   UNL     1     -10.807   6.181  70.028  1.00  0.00    -0.408 A  
ENDBRANCH   9  12
ENDBRANCH   3   9
ENDBRANCH   2   3
TORSDOF 5
ENDMDL
MODEL      334
REMARK 921   NORMALIZED FREE ENERGY PREDICTED BY IDOCK:   -2.25 KCAL/MOL
REMARK 922        TOTAL FREE ENERGY PREDICTED BY IDOCK:   -3.58 KCAL/MOL
REMARK 923 INTER-LIGAND FREE ENERGY PREDICTED BY IDOCK:   -3.43 KCAL/MOL
REMARK 924 INTRA-LIGAND FREE ENERGY PREDICTED BY IDOCK:   -0.16 KCAL/MOL
REMARK 927      BINDING AFFINITY PREDICTED BY RF-SCORE:    0.00 PKD
ROOT
HETATM    1  C   UNL     1     -11.300  11.967  67.602  1.00  0.00    -0.375 C  
HETATM    2  C   UNL     1     -10.427  11.669  68.814  1.00  0.00    -0.226 C  
ENDROOT
BRANCH   2   3
HETATM    3  C   UNL     1      -8.990  11.190  68.486  1.00  0.00    -0.168 C  
BRANCH   3   4
HETATM    4  N   UNL     1      -7.985  11.455  69.535  1.00  0.00    -0.315 NA 
HETATM    5  H   UNL     1      -8.241  11.947  70.390  1.00  0.00     0.000 HD 
BRANCH   4   6
HETATM    6  C   UNL     1      -6.609  10.994  69.318  1.00  0.00    -0.091 C  
HETATM    7  C   UNL     1      -5.914  12.020  68.411  1.00  0.00    -0.050 C  
HETATM    8  C   UNL     1      -5.782  10.868  70.599  1.00  0.00    -0.123 C  
ENDBRANCH   4   6
ENDBRANCH   3   4
BRANCH   3   9
HETATM    9  C   UNL     1      -9.030   9.710  67.949  1.00  0.00    -0.118 C  
HETATM   10  H   UNL     1     -10.288   8.191  67.997  1.00  0.00     0.000 HD 
HETATM   11  O   UNL     1     -10.264   9.084  68.322  1.00  0.00    -0.189 OA 
BRANCH   9  12
HETATM   12  C   UNL     1      -8.868   9.511  66.451  1.00  0.00    -0.164 A  
HETATM   13  C   UNL     1      -9.586  10.253  65.500  1.00  0.00    -0.299 A  
HETATM   14  C   UNL     1      -9.393  10.014  64.140  1.00  0.00    -0.280 A  
HETATM   15  O   UNL     1     -10.064  10.722  63.181  1.00  0.00    -0.452 OA 
HETATM   16  C   UNL     1      -8.492   9.046  63.713  1.00  0.00    -0.159 A  
HETATM   17  H   UNL     1      -9.933  10.560  62.254  1.00  0.00     0.000 HD 
HETATM   18  C   UNL     1      -7.788   8.288  64.631  1.00  0.00    -0.132 A  
HETATM   19  O   UNL     1      -8.301   8.833  62.377  1.00  0.00    -0.179 OA 
HETATM   20  H   UNL     1      -7.685   8.172  62.085  1.00  0.00     0.000 HD 
HETATM   21  C   UNL     1      -7.981   8.513  65.996  1.00  0.00    -0.107 A  
ENDBRANCH   9  12
ENDBRANCH   3   9
ENDBRANCH   2   3
TORSDOF 5
ENDMDL
MODEL      335
REMARK 921   NORMALIZED FREE ENERGY PREDICTED BY IDOCK:   -2.25 KCAL/MOL
REMARK 922        TOTAL FREE ENERGY PREDICTED BY IDOCK:   -3.58 KCAL/MOL
REMARK 923 INTER-LIGAND FREE ENERGY PREDICTED BY IDOCK:   -2.76 KCAL/MOL
REMARK 924 INTRA-LIGAND FREE ENERGY PREDICTED BY IDOCK:   -0.83 KCAL/MOL
REMARK 927      BINDING AFFINITY PREDICTED BY RF-SCORE:    0.00 PKD
ROOT
HETATM    1  C   UNL     1      -9.240   1.994  72.376  1.00  0.00    -0.121 C  
HETATM    2  C   UNL     1      -9.774   2.773  71.181  1.00  0.00    -0.184 C  
ENDROOT
BRANCH   2   3
HETATM    3  C   UNL     1      -9.080   4.133  70.921  1.00  0.00    -0.117 C  
BRANCH   3   4
HETATM    4  N   UNL     1      -8.321   4.680  72.065  1.00  0.00    -0.115 NA 
HETATM    5  H   UNL     1      -7.454   4.241  72.373  1.00  0.00     0.000 HD 
BRANCH   4   6
HETATM    6  C   UNL     1      -8.843   5.868  72.747  1.00  0.00    -0.124 C  
HETATM    7  C   UNL     1      -7.968   7.061  72.337  1.00  0.00    -0.097 C  
HETATM    8  C   UNL     1     -10.291   6.209  72.392  1.00  0.00    -0.219 C  
ENDBRANCH   4   6
ENDBRANCH   3   4
BRANCH   3   9
HETATM    9  C   UNL     1      -8.298   4.082  69.556  1.00  0.00    -0.057 C  
HETATM   10  H   UNL     1      -8.040   2.789  68.088  1.00  0.00     0.000 HD 
HETATM   11  O   UNL     1      -8.512   2.820  68.913  1.00  0.00    -0.062 OA 
BRANCH   9  12
HETATM   12  C   UNL     1      -8.617   5.159  68.532  1.00  0.00    -0.094 A  
HETATM   13  C   UNL     1      -9.698   6.044  68.667  1.00  0.00    -0.149 A  
HETATM   14  C   UNL     1      -9.938   7.005  67.686  1.00  0.00    -0.154 A  
HETATM   15  O   UNL     1     -10.974   7.893  67.784  1.00  0.00    -0.491 OA 
HETATM   16  C   UNL     1      -9.114   7.099  66.571  1.00  0.00    -0.154 A  
HETATM   17  H   UNL     1     -11.138   8.548  67.116  1.00  0.00     0.000 HD 
HETATM   18  C   UNL     1      -8.054   6.226  66.406  1.00  0.00    -0.112 A  
HETATM   19  O   UNL     1      -9.350   8.056  65.625  1.00  0.00    -0.408 OA 
HETATM   20  H   UNL     1      -8.787   8.120  64.864  1.00  0.00     0.000 HD 
HETATM   21  C   UNL     1      -7.811   5.253  67.378  1.00  0.00    -0.100 A  
ENDBRANCH   9  12
ENDBRANCH   3   9
ENDBRANCH   2   3
TORSDOF 5
ENDMDL
MODEL      336
REMARK 921   NORMALIZED FREE ENERGY PREDICTED BY IDOCK:   -2.22 KCAL/MOL
REMARK 922        TOTAL FREE ENERGY PREDICTED BY IDOCK:   -3.54 KCAL/MOL
REMARK 923 INTER-LIGAND FREE ENERGY PREDICTED BY IDOCK:   -3.08 KCAL/MOL
REMARK 924 INTRA-LIGAND FREE ENERGY PREDICTED BY IDOCK:   -0.45 KCAL/MOL
REMARK 927      BINDING AFFINITY PREDICTED BY RF-SCORE:    0.00 PKD
ROOT
HETATM    1  C   UNL     1     -12.384  10.777  69.638  1.00  0.00    -0.262 C  
HETATM    2  C   UNL     1     -10.935  11.206  69.826  1.00  0.00    -0.216 C  
ENDROOT
BRANCH   2   3
HETATM    3  C   UNL     1      -9.990  10.860  68.648  1.00  0.00    -0.189 C  
BRANCH   3   4
HETATM    4  N   UNL     1      -8.649  10.378  69.039  1.00  0.00    -0.148 NA 
HETATM    5  H   UNL     1      -8.527   9.787  69.861  1.00  0.00     0.000 HD 
BRANCH   4   6
HETATM    6  C   UNL     1      -7.498  10.770  68.219  1.00  0.00    -0.092 C  
HETATM    7  C   UNL     1      -6.724  11.848  68.991  1.00  0.00    -0.099 C  
HETATM    8  C   UNL     1      -6.528   9.628  67.915  1.00  0.00    -0.061 C  
ENDBRANCH   4   6
ENDBRANCH   3   4
BRANCH   3   9
HETATM    9  C   UNL     1     -10.749   9.964  67.599  1.00  0.00    -0.281 C  
HETATM   10  H   UNL     1     -10.785   9.756  65.638  1.00  0.00     0.000 HD 
HETATM   11  O   UNL     1     -10.327  10.297  66.271  1.00  0.00    -0.230 OA 
BRANCH   9  12
HETATM   12  C   UNL     1     -10.609   8.457  67.742  1.00  0.00    -0.238 A  
HETATM   13  C   UNL     1     -10.860   7.778  68.945  1.00  0.00    -0.022 A  
HETATM   14  C   UNL     1     -10.706   6.394  69.009  1.00  0.00    -0.286 A  
HETATM   15  O   UNL     1     -10.950   5.693  70.158  1.00  0.00    -0.313 OA 
HETATM   16  C   UNL     1     -10.307   5.674  67.888  1.00  0.00    -0.205 A  
HETATM   17  H   UNL     1     -10.846   4.750  70.201  1.00  0.00     0.000 HD 
HETATM   18  C   UNL     1     -10.036   6.324  66.697  1.00  0.00    -0.214 A  
HETATM   19  O   UNL     1     -10.177   4.317  67.960  1.00  0.00     0.046 OA 
HETATM   20  H   UNL     1      -9.904   3.825  67.194  1.00  0.00     0.000 HD 
HETATM   21  C   UNL     1     -10.177   7.711  66.626  1.00  0.00    -0.272 A  
ENDBRANCH   9  12
ENDBRANCH   3   9
ENDBRANCH   2   3
TORSDOF 5
ENDMDL
MODEL      337
REMARK 921   NORMALIZED FREE ENERGY PREDICTED BY IDOCK:   -2.14 KCAL/MOL
REMARK 922        TOTAL FREE ENERGY PREDICTED BY IDOCK:   -3.45 KCAL/MOL
REMARK 923 INTER-LIGAND FREE ENERGY PREDICTED BY IDOCK:   -3.07 KCAL/MOL
REMARK 924 INTRA-LIGAND FREE ENERGY PREDICTED BY IDOCK:   -0.37 KCAL/MOL
REMARK 927      BINDING AFFINITY PREDICTED BY RF-SCORE:    0.00 PKD
ROOT
HETATM    1  C   UNL     1      -7.967   2.272  71.725  1.00  0.00    -0.048 C  
HETATM    2  C   UNL     1      -8.714   3.420  71.058  1.00  0.00    -0.123 C  
ENDROOT
BRANCH   2   3
HETATM    3  C   UNL     1      -8.957   4.656  71.959  1.00  0.00    -0.126 C  
BRANCH   3   4
HETATM    4  N   UNL     1      -8.619   4.470  73.385  1.00  0.00    -0.101 NA 
HETATM    5  H   UNL     1      -7.652   4.342  73.679  1.00  0.00     0.000 HD 
BRANCH   4   6
HETATM    6  C   UNL     1      -9.707   4.474  74.369  1.00  0.00    -0.145 C  
HETATM    7  C   UNL     1     -10.223   5.915  74.484  1.00  0.00    -0.293 C  
HETATM    8  C   UNL     1     -10.893   3.583  73.995  1.00  0.00    -0.269 C  
ENDBRANCH   4   6
ENDBRANCH   3   4
BRANCH   3   9
HETATM    9  C   UNL     1      -8.347   5.940  71.284  1.00  0.00    -0.124 C  
HETATM   10  H   UNL     1      -6.602   6.491  70.546  1.00  0.00     0.000 HD 
HETATM   11  O   UNL     1      -6.971   5.716  70.953  1.00  0.00    -0.057 OA 
BRANCH   9  12
HETATM   12  C   UNL     1      -9.026   6.451  70.024  1.00  0.00    -0.146 A  
HETATM   13  C   UNL     1      -8.550   7.552  69.293  1.00  0.00    -0.136 A  
HETATM   14  C   UNL     1      -9.226   7.973  68.149  1.00  0.00    -0.133 A  
HETATM   15  O   UNL     1      -8.791   9.034  67.404  1.00  0.00    -0.119 OA 
HETATM   16  C   UNL     1     -10.370   7.310  67.719  1.00  0.00    -0.209 A  
HETATM   17  H   UNL     1      -9.251   9.321  66.623  1.00  0.00     0.000 HD 
HETATM   18  C   UNL     1     -10.868   6.235  68.433  1.00  0.00    -0.394 A  
HETATM   19  O   UNL     1     -11.013   7.723  66.587  1.00  0.00    -0.348 OA 
HETATM   20  H   UNL     1     -11.794   7.270  66.293  1.00  0.00     0.000 HD 
HETATM   21  C   UNL     1     -10.204   5.813  69.586  1.00  0.00    -0.299 A  
ENDBRANCH   9  12
ENDBRANCH   3   9
ENDBRANCH   2   3
TORSDOF 5
ENDMDL
MODEL      338
REMARK 921   NORMALIZED FREE ENERGY PREDICTED BY IDOCK:   -2.07 KCAL/MOL
REMARK 922        TOTAL FREE ENERGY PREDICTED BY IDOCK:   -3.34 KCAL/MOL
REMARK 923 INTER-LIGAND FREE ENERGY PREDICTED BY IDOCK:   -3.56 KCAL/MOL
REMARK 924 INTRA-LIGAND FREE ENERGY PREDICTED BY IDOCK:    0.22 KCAL/MOL
REMARK 927      BINDING AFFINITY PREDICTED BY RF-SCORE:    0.00 PKD
ROOT
HETATM    1  C   UNL     1      -8.050   3.705  71.906  1.00  0.00    -0.067 C  
HETATM    2  C   UNL     1      -8.033   4.851  70.902  1.00  0.00    -0.084 C  
ENDROOT
BRANCH   2   3
HETATM    3  C   UNL     1      -9.299   4.967  70.017  1.00  0.00    -0.144 C  
BRANCH   3   4
HETATM    4  N   UNL     1      -9.533   3.829  69.104  1.00  0.00    -0.176 NA 
HETATM    5  H   UNL     1      -9.308   2.877  69.390  1.00  0.00     0.000 HD 
BRANCH   4   6
HETATM    6  C   UNL     1     -10.096   4.101  67.777  1.00  0.00     0.144 C  
HETATM    7  C   UNL     1      -9.811   5.572  67.445  1.00  0.00    -0.167 C  
HETATM    8  C   UNL     1      -9.500   3.246  66.657  1.00  0.00    -0.118 C  
ENDBRANCH   4   6
ENDBRANCH   3   4
BRANCH   3   9
HETATM    9  C   UNL     1     -10.532   5.388  70.899  1.00  0.00    -0.237 C  
HETATM   10  H   UNL     1     -11.062   5.256  72.795  1.00  0.00     0.000 HD 
HETATM   11  O   UNL     1     -10.318   5.001  72.262  1.00  0.00    -0.197 OA 
BRANCH   9  12
HETATM   12  C   UNL     1     -10.906   6.861  70.912  1.00  0.00    -0.277 A  
HETATM   13  C   UNL     1     -12.223   7.313  71.088  1.00  0.00    -0.376 A  
HETATM   14  C   UNL     1     -12.497   8.680  71.083  1.00  0.00    -0.182 A  
HETATM   15  O   UNL     1     -13.765   9.162  71.262  1.00  0.00    -0.515 OA 
HETATM   16  C   UNL     1     -11.476   9.606  70.906  1.00  0.00    -0.353 A  
HETATM   17  H   UNL     1     -13.952  10.094  71.258  1.00  0.00     0.000 HD 
HETATM   18  C   UNL     1     -10.173   9.184  70.711  1.00  0.00    -0.325 A  
HETATM   19  O   UNL     1     -11.756  10.942  70.919  1.00  0.00    -0.306 OA 
HETATM   20  H   UNL     1     -11.058  11.575  70.798  1.00  0.00     0.000 HD 
HETATM   21  C   UNL     1      -9.890   7.817  70.704  1.00  0.00    -0.182 A  
ENDBRANCH   9  12
ENDBRANCH   3   9
ENDBRANCH   2   3
TORSDOF 5
ENDMDL
MODEL      339
REMARK 921   NORMALIZED FREE ENERGY PREDICTED BY IDOCK:   -1.93 KCAL/MOL
REMARK 922        TOTAL FREE ENERGY PREDICTED BY IDOCK:   -3.17 KCAL/MOL
REMARK 923 INTER-LIGAND FREE ENERGY PREDICTED BY IDOCK:   -4.43 KCAL/MOL
REMARK 924 INTRA-LIGAND FREE ENERGY PREDICTED BY IDOCK:    1.26 KCAL/MOL
REMARK 927      BINDING AFFINITY PREDICTED BY RF-SCORE:    0.00 PKD
ROOT
HETATM    1  C   UNL     1      -6.716  12.477  68.310  1.00  0.00    -0.079 C  
HETATM    2  C   UNL     1      -8.215  12.274  68.486  1.00  0.00    -0.096 C  
ENDROOT
BRANCH   2   3
HETATM    3  C   UNL     1      -8.985  11.914  67.191  1.00  0.00    -0.178 C  
BRANCH   3   4
HETATM    4  N   UNL     1      -8.922  10.491  66.798  1.00  0.00    -0.137 NA 
HETATM    5  H   UNL     1      -8.940  10.220  65.816  1.00  0.00     0.000 HD 
BRANCH   4   6
HETATM    6  C   UNL     1      -8.832   9.477  67.854  1.00  0.00    -0.119 C  
HETATM    7  C   UNL     1      -7.543   8.677  67.620  1.00  0.00    -0.098 C  
HETATM    8  C   UNL     1      -8.775  10.050  69.271  1.00  0.00    -0.182 C  
ENDBRANCH   4   6
ENDBRANCH   3   4
BRANCH   3   9
HETATM    9  C   UNL     1     -10.430  12.537  67.236  1.00  0.00    -0.220 C  
HETATM   10  H   UNL     1     -12.113  12.353  66.223  1.00  0.00     0.000 HD 
HETATM   11  O   UNL     1     -11.241  11.976  66.196  1.00  0.00    -0.316 OA 
BRANCH   9  12
HETATM   12  C   UNL     1     -11.209  12.391  68.532  1.00  0.00    -0.321 A  
HETATM   13  C   UNL     1     -11.813  11.187  68.929  1.00  0.00    -0.406 A  
HETATM   14  C   UNL     1     -12.520  11.124  70.129  1.00  0.00    -0.241 A  
HETATM   15  O   UNL     1     -13.114   9.969  70.556  1.00  0.00    -0.583 OA 
HETATM   16  C   UNL     1     -12.633  12.246  70.943  1.00  0.00    -0.241 A  
HETATM   17  H   UNL     1     -13.595   9.926  71.374  1.00  0.00     0.000 HD 
HETATM   18  C   UNL     1     -12.063  13.448  70.564  1.00  0.00    -0.399 A  
HETATM   19  O   UNL     1     -13.314  12.166  72.123  1.00  0.00    -0.522 OA 
HETATM   20  H   UNL     1     -13.391  12.932  72.680  1.00  0.00     0.000 HD 
HETATM   21  C   UNL     1     -11.362  13.524  69.359  1.00  0.00    -0.293 A  
ENDBRANCH   9  12
ENDBRANCH   3   9
ENDBRANCH   2   3
TORSDOF 5
ENDMDL
MODEL      340
REMARK 921   NORMALIZED FREE ENERGY PREDICTED BY IDOCK:   -1.72 KCAL/MOL
REMARK 922        TOTAL FREE ENERGY PREDICTED BY IDOCK:   -2.89 KCAL/MOL
REMARK 923 INTER-LIGAND FREE ENERGY PREDICTED BY IDOCK:   -2.16 KCAL/MOL
REMARK 924 INTRA-LIGAND FREE ENERGY PREDICTED BY IDOCK:   -0.73 KCAL/MOL
REMARK 927      BINDING AFFINITY PREDICTED BY RF-SCORE:    0.00 PKD
ROOT
HETATM    1  C   UNL     1      -6.642   5.899  65.590  1.00  0.00    -0.044 C  
HETATM    2  C   UNL     1      -8.016   5.732  66.225  1.00  0.00    -0.102 C  
ENDROOT
BRANCH   2   3
HETATM    3  C   UNL     1      -8.149   6.300  67.661  1.00  0.00    -0.117 C  
BRANCH   3   4
HETATM    4  N   UNL     1      -9.528   6.608  68.090  1.00  0.00    -0.117 NA 
HETATM    5  H   UNL     1     -10.180   5.860  68.324  1.00  0.00     0.000 HD 
BRANCH   4   6
HETATM    6  C   UNL     1      -9.939   8.013  68.171  1.00  0.00    -0.185 C  
HETATM    7  C   UNL     1      -8.871   8.762  68.981  1.00  0.00    -0.137 C  
HETATM    8  C   UNL     1     -10.068   8.708  66.815  1.00  0.00    -0.366 C  
ENDBRANCH   4   6
ENDBRANCH   3   4
BRANCH   3   9
HETATM    9  C   UNL     1      -7.310   5.422  68.663  1.00  0.00    -0.075 C  
HETATM   10  H   UNL     1      -5.637   5.608  69.692  1.00  0.00     0.000 HD 
HETATM   11  O   UNL     1      -6.143   6.138  69.087  1.00  0.00    -0.026 OA 
BRANCH   9  12
HETATM   12  C   UNL     1      -8.014   4.941  69.921  1.00  0.00    -0.069 A  
HETATM   13  C   UNL     1      -8.057   5.691  71.107  1.00  0.00    -0.116 A  
HETATM   14  C   UNL     1      -8.716   5.186  72.227  1.00  0.00    -0.125 A  
HETATM   15  O   UNL     1      -8.789   5.889  73.398  1.00  0.00    -0.127 OA 
HETATM   16  C   UNL     1      -9.335   3.942  72.183  1.00  0.00    -0.125 A  
HETATM   17  H   UNL     1      -9.238   5.545  74.162  1.00  0.00     0.000 HD 
HETATM   18  C   UNL     1      -9.291   3.177  71.031  1.00  0.00    -0.214 A  
HETATM   19  O   UNL     1      -9.991   3.467  73.282  1.00  0.00    -0.110 OA 
HETATM   20  H   UNL     1     -10.415   2.617  73.252  1.00  0.00     0.000 HD 
HETATM   21  C   UNL     1      -8.625   3.669  69.907  1.00  0.00    -0.105 A  
ENDBRANCH   9  12
ENDBRANCH   3   9
ENDBRANCH   2   3
TORSDOF 5
ENDMDL
MODEL      341
REMARK 921   NORMALIZED FREE ENERGY PREDICTED BY IDOCK:   -1.60 KCAL/MOL
REMARK 922        TOTAL FREE ENERGY PREDICTED BY IDOCK:   -2.74 KCAL/MOL
REMARK 923 INTER-LIGAND FREE ENERGY PREDICTED BY IDOCK:   -3.59 KCAL/MOL
REMARK 924 INTRA-LIGAND FREE ENERGY PREDICTED BY IDOCK:    0.84 KCAL/MOL
REMARK 927      BINDING AFFINITY PREDICTED BY RF-SCORE:    0.00 PKD
ROOT
HETATM    1  C   UNL     1      -6.836  11.453  68.970  1.00  0.00    -0.102 C  
HETATM    2  C   UNL     1      -8.265  11.221  68.496  1.00  0.00    -0.150 C  
ENDROOT
BRANCH   2   3
HETATM    3  C   UNL     1      -8.431  11.062  66.964  1.00  0.00    -0.141 C  
BRANCH   3   4
HETATM    4  N   UNL     1      -8.456   9.668  66.476  1.00  0.00    -0.123 NA 
HETATM    5  H   UNL     1      -8.216   9.449  65.510  1.00  0.00     0.000 HD 
BRANCH   4   6
HETATM    6  C   UNL     1      -8.833   8.605  67.414  1.00  0.00    -0.134 C  
HETATM    7  C   UNL     1      -7.541   8.052  68.032  1.00  0.00    -0.112 C  
HETATM    8  C   UNL     1      -9.735   9.069  68.558  1.00  0.00    -0.171 C  
ENDBRANCH   4   6
ENDBRANCH   3   4
BRANCH   3   9
HETATM    9  C   UNL     1      -9.608  11.975  66.455  1.00  0.00    -0.224 C  
HETATM   10  H   UNL     1     -11.469  11.727  65.852  1.00  0.00     0.000 HD 
HETATM   11  O   UNL     1     -10.759  11.176  66.159  1.00  0.00    -0.263 OA 
BRANCH   9  12
HETATM   12  C   UNL     1     -10.070  13.091  67.378  1.00  0.00    -0.231 A  
HETATM   13  C   UNL     1     -11.079  12.918  68.339  1.00  0.00    -0.293 A  
HETATM   14  C   UNL     1     -11.460  13.986  69.150  1.00  0.00    -0.296 A  
HETATM   15  O   UNL     1     -12.430  13.857  70.104  1.00  0.00    -0.333 OA 
HETATM   16  C   UNL     1     -10.847  15.227  69.018  1.00  0.00    -0.244 A  
HETATM   17  H   UNL     1     -12.690  14.585  70.657  1.00  0.00     0.000 HD 
HETATM   18  C   UNL     1      -9.863  15.427  68.066  1.00  0.00    -0.216 A  
HETATM   19  O   UNL     1     -11.217  16.261  69.830  1.00  0.00    -0.340 OA 
HETATM   20  H   UNL     1     -10.799  17.109  69.741  1.00  0.00     0.000 HD 
HETATM   21  C   UNL     1      -9.482  14.365  67.243  1.00  0.00    -0.215 A  
ENDBRANCH   9  12
ENDBRANCH   3   9
ENDBRANCH   2   3
TORSDOF 5
ENDMDL
