MODEL        1
REMARK 921   NORMALIZED FREE ENERGY PREDICTED BY IDOCK:   -4.09 KCAL/MOL
REMARK 922        TOTAL FREE ENERGY PREDICTED BY IDOCK:   -5.28 KCAL/MOL
REMARK 923 INTER-LIGAND FREE ENERGY PREDICTED BY IDOCK:   -5.05 KCAL/MOL
REMARK 924 INTRA-LIGAND FREE ENERGY PREDICTED BY IDOCK:   -0.24 KCAL/MOL
REMARK 927      BINDING AFFINITY PREDICTED BY RF-SCORE:    0.00 PKD
ROOT
HETATM    1  C   UNL     1     -11.898  15.552  69.403  1.00  0.00    -0.374 C  
HETATM    2  N   UNL     1     -12.937  15.816  70.392  1.00  0.00    -0.714 NA 
HETATM    3  H   UNL     1     -13.852  15.546  70.033  1.00  0.00     0.000 HD 
ENDROOT
BRANCH   2   4
HETATM    4  C   UNL     1     -12.682  15.182  71.700  1.00  0.00    -0.356 C  
HETATM    5  C   UNL     1     -12.272  16.212  72.759  1.00  0.00    -0.628 C  
BRANCH   4   6
HETATM    6  C   UNL     1     -13.964  14.422  72.115  1.00  0.00    -0.607 C  
BRANCH   6   7
HETATM    7  C   UNL     1     -13.730  12.922  72.322  1.00  0.00    -0.553 C  
BRANCH   7   8
HETATM    8  C   UNL     1     -12.745  12.342  71.344  1.00  0.00    -0.346 C  
HETATM    9  C   UNL     1     -12.484  11.037  71.138  1.00  0.00    -0.502 C  
HETATM   10  C   UNL     1     -13.071   9.911  71.942  1.00  0.00    -0.559 C  
HETATM   11  C   UNL     1     -11.542  10.603  70.047  1.00  0.00    -0.406 C  
ENDBRANCH   7   8
ENDBRANCH   6   7
ENDBRANCH   4   6
ENDBRANCH   2   4
TORSDOF 4
ENDMDL
MODEL        2
REMARK 921   NORMALIZED FREE ENERGY PREDICTED BY IDOCK:   -3.96 KCAL/MOL
REMARK 922        TOTAL FREE ENERGY PREDICTED BY IDOCK:   -5.12 KCAL/MOL
REMARK 923 INTER-LIGAND FREE ENERGY PREDICTED BY IDOCK:   -4.86 KCAL/MOL
REMARK 924 INTRA-LIGAND FREE ENERGY PREDICTED BY IDOCK:   -0.26 KCAL/MOL
REMARK 927      BINDING AFFINITY PREDICTED BY RF-SCORE:    0.00 PKD
ROOT
HETATM    1  C   UNL     1     -12.267  12.368  63.466  1.00  0.00    -0.563 C  
HETATM    2  N   UNL     1     -12.455  13.813  63.435  1.00  0.00    -1.072 NA 
HETATM    3  H   UNL     1     -13.421  14.046  63.205  1.00  0.00     0.000 HD 
ENDROOT
BRANCH   2   4
HETATM    4  C   UNL     1     -12.036  14.491  64.676  1.00  0.00    -0.473 C  
HETATM    5  C   UNL     1     -12.754  13.920  65.904  1.00  0.00    -0.466 C  
BRANCH   4   6
HETATM    6  C   UNL     1     -10.500  14.348  64.799  1.00  0.00    -0.394 C  
BRANCH   6   7
HETATM    7  C   UNL     1      -9.913  15.171  65.949  1.00  0.00    -0.355 C  
BRANCH   7   8
HETATM    8  C   UNL     1     -10.064  16.654  65.746  1.00  0.00    -0.301 C  
HETATM    9  C   UNL     1     -10.258  17.585  66.700  1.00  0.00    -0.332 C  
HETATM   10  C   UNL     1     -10.467  17.284  68.158  1.00  0.00    -0.382 C  
HETATM   11  C   UNL     1     -10.288  19.050  66.352  1.00  0.00    -0.520 C  
ENDBRANCH   7   8
ENDBRANCH   6   7
ENDBRANCH   4   6
ENDBRANCH   2   4
TORSDOF 4
ENDMDL
MODEL        3
REMARK 921   NORMALIZED FREE ENERGY PREDICTED BY IDOCK:   -3.91 KCAL/MOL
REMARK 922        TOTAL FREE ENERGY PREDICTED BY IDOCK:   -5.06 KCAL/MOL
REMARK 923 INTER-LIGAND FREE ENERGY PREDICTED BY IDOCK:   -4.72 KCAL/MOL
REMARK 924 INTRA-LIGAND FREE ENERGY PREDICTED BY IDOCK:   -0.34 KCAL/MOL
REMARK 927      BINDING AFFINITY PREDICTED BY RF-SCORE:    0.00 PKD
ROOT
HETATM    1  C   UNL     1     -11.277  10.673  67.723  1.00  0.00    -0.313 C  
HETATM    2  N   UNL     1     -12.248  11.149  68.701  1.00  0.00    -0.705 NA 
HETATM    3  H   UNL     1     -12.571  10.381  69.290  1.00  0.00     0.000 HD 
ENDROOT
BRANCH   2   4
HETATM    4  C   UNL     1     -11.756  12.268  69.527  1.00  0.00    -0.332 C  
HETATM    5  C   UNL     1     -11.972  13.619  68.838  1.00  0.00    -0.392 C  
BRANCH   4   6
HETATM    6  C   UNL     1     -12.484  12.204  70.891  1.00  0.00    -0.374 C  
BRANCH   6   7
HETATM    7  C   UNL     1     -13.383  13.418  71.147  1.00  0.00    -0.096 C  
BRANCH   7   8
HETATM    8  C   UNL     1     -13.197  14.008  72.518  1.00  0.00    -0.602 C  
HETATM    9  C   UNL     1     -12.496  15.114  72.833  1.00  0.00    -0.507 C  
HETATM   10  C   UNL     1     -11.674  15.912  71.859  1.00  0.00    -0.590 C  
HETATM   11  C   UNL     1     -12.484  15.643  74.243  1.00  0.00    -0.804 C  
ENDBRANCH   7   8
ENDBRANCH   6   7
ENDBRANCH   4   6
ENDBRANCH   2   4
TORSDOF 4
ENDMDL
MODEL        4
REMARK 921   NORMALIZED FREE ENERGY PREDICTED BY IDOCK:   -3.82 KCAL/MOL
REMARK 922        TOTAL FREE ENERGY PREDICTED BY IDOCK:   -4.95 KCAL/MOL
REMARK 923 INTER-LIGAND FREE ENERGY PREDICTED BY IDOCK:   -4.61 KCAL/MOL
REMARK 924 INTRA-LIGAND FREE ENERGY PREDICTED BY IDOCK:   -0.34 KCAL/MOL
REMARK 927      BINDING AFFINITY PREDICTED BY RF-SCORE:    0.00 PKD
ROOT
HETATM    1  C   UNL     1     -12.517  12.171  63.462  1.00  0.00    -0.555 C  
HETATM    2  N   UNL     1     -12.194  13.593  63.453  1.00  0.00    -1.020 NA 
HETATM    3  H   UNL     1     -13.039  14.153  63.350  1.00  0.00     0.000 HD 
ENDROOT
BRANCH   2   4
HETATM    4  C   UNL     1     -11.419  14.031  64.629  1.00  0.00    -0.383 C  
HETATM    5  C   UNL     1     -11.221  15.551  64.645  1.00  0.00    -0.381 C  
BRANCH   4   6
HETATM    6  C   UNL     1     -12.163  13.542  65.895  1.00  0.00    -0.507 C  
BRANCH   6   7
HETATM    7  C   UNL     1     -11.237  13.362  67.102  1.00  0.00    -0.325 C  
BRANCH   7   8
HETATM    8  C   UNL     1     -11.836  13.876  68.383  1.00  0.00    -0.409 C  
HETATM    9  C   UNL     1     -11.569  15.050  68.986  1.00  0.00    -0.342 C  
HETATM   10  C   UNL     1     -10.524  16.028  68.527  1.00  0.00    -0.258 C  
HETATM   11  C   UNL     1     -12.327  15.474  70.216  1.00  0.00    -0.431 C  
ENDBRANCH   7   8
ENDBRANCH   6   7
ENDBRANCH   4   6
ENDBRANCH   2   4
TORSDOF 4
ENDMDL
MODEL        5
REMARK 921   NORMALIZED FREE ENERGY PREDICTED BY IDOCK:   -3.82 KCAL/MOL
REMARK 922        TOTAL FREE ENERGY PREDICTED BY IDOCK:   -4.94 KCAL/MOL
REMARK 923 INTER-LIGAND FREE ENERGY PREDICTED BY IDOCK:   -4.57 KCAL/MOL
REMARK 924 INTRA-LIGAND FREE ENERGY PREDICTED BY IDOCK:   -0.38 KCAL/MOL
REMARK 927      BINDING AFFINITY PREDICTED BY RF-SCORE:    0.00 PKD
ROOT
HETATM    1  C   UNL     1     -11.871  12.552  63.498  1.00  0.00    -0.534 C  
HETATM    2  N   UNL     1     -12.345  13.924  63.361  1.00  0.00    -1.139 NA 
HETATM    3  H   UNL     1     -13.248  13.947  62.886  1.00  0.00     0.000 HD 
ENDROOT
BRANCH   2   4
HETATM    4  C   UNL     1     -12.410  14.658  64.639  1.00  0.00    -0.375 C  
HETATM    5  C   UNL     1     -12.363  13.708  65.841  1.00  0.00    -0.516 C  
BRANCH   4   6
HETATM    6  C   UNL     1     -11.237  15.666  64.666  1.00  0.00    -0.380 C  
BRANCH   6   7
HETATM    7  C   UNL     1     -10.124  15.262  65.638  1.00  0.00    -0.401 C  
BRANCH   7   8
HETATM    8  C   UNL     1      -9.578  16.425  66.421  1.00  0.00    -0.313 C  
HETATM    9  C   UNL     1      -9.955  16.817  67.653  1.00  0.00    -0.262 C  
HETATM   10  C   UNL     1     -11.084  16.209  68.436  1.00  0.00    -0.359 C  
HETATM   11  C   UNL     1      -9.242  17.944  68.354  1.00  0.00    -0.289 C  
ENDBRANCH   7   8
ENDBRANCH   6   7
ENDBRANCH   4   6
ENDBRANCH   2   4
TORSDOF 4
ENDMDL
MODEL        6
REMARK 921   NORMALIZED FREE ENERGY PREDICTED BY IDOCK:   -3.81 KCAL/MOL
REMARK 922        TOTAL FREE ENERGY PREDICTED BY IDOCK:   -4.94 KCAL/MOL
REMARK 923 INTER-LIGAND FREE ENERGY PREDICTED BY IDOCK:   -4.76 KCAL/MOL
REMARK 924 INTRA-LIGAND FREE ENERGY PREDICTED BY IDOCK:   -0.17 KCAL/MOL
REMARK 927      BINDING AFFINITY PREDICTED BY RF-SCORE:    0.00 PKD
ROOT
HETATM    1  C   UNL     1     -11.642   6.555  70.447  1.00  0.00    -0.407 C  
HETATM    2  N   UNL     1     -12.594   7.582  70.854  1.00  0.00    -0.554 NA 
HETATM    3  H   UNL     1     -13.486   7.162  71.115  1.00  0.00     0.000 HD 
ENDROOT
BRANCH   2   4
HETATM    4  C   UNL     1     -12.095   8.457  71.931  1.00  0.00    -0.342 C  
HETATM    5  C   UNL     1     -10.702   9.013  71.611  1.00  0.00    -0.441 C  
BRANCH   4   6
HETATM    6  C   UNL     1     -13.126   9.593  72.133  1.00  0.00    -0.520 C  
BRANCH   6   7
HETATM    7  C   UNL     1     -12.756  10.877  71.384  1.00  0.00    -0.539 C  
BRANCH   7   8
HETATM    8  C   UNL     1     -13.363  12.110  71.997  1.00  0.00    -0.470 C  
HETATM    9  C   UNL     1     -13.176  13.384  71.602  1.00  0.00    -0.449 C  
HETATM   10  C   UNL     1     -12.226  13.813  70.519  1.00  0.00    -0.440 C  
HETATM   11  C   UNL     1     -13.935  14.510  72.252  1.00  0.00    -0.600 C  
ENDBRANCH   7   8
ENDBRANCH   6   7
ENDBRANCH   4   6
ENDBRANCH   2   4
TORSDOF 4
ENDMDL
MODEL        7
REMARK 921   NORMALIZED FREE ENERGY PREDICTED BY IDOCK:   -3.79 KCAL/MOL
REMARK 922        TOTAL FREE ENERGY PREDICTED BY IDOCK:   -4.92 KCAL/MOL
REMARK 923 INTER-LIGAND FREE ENERGY PREDICTED BY IDOCK:   -4.73 KCAL/MOL
REMARK 924 INTRA-LIGAND FREE ENERGY PREDICTED BY IDOCK:   -0.18 KCAL/MOL
REMARK 927      BINDING AFFINITY PREDICTED BY RF-SCORE:    0.00 PKD
ROOT
HETATM    1  C   UNL     1     -12.351  12.162  63.372  1.00  0.00    -0.538 C  
HETATM    2  N   UNL     1     -12.262  13.614  63.279  1.00  0.00    -1.063 NA 
HETATM    3  H   UNL     1     -13.165  14.015  63.027  1.00  0.00     0.000 HD 
ENDROOT
BRANCH   2   4
HETATM    4  C   UNL     1     -11.728  14.253  64.496  1.00  0.00    -0.418 C  
HETATM    5  C   UNL     1     -11.461  15.747  64.283  1.00  0.00    -0.203 C  
BRANCH   4   6
HETATM    6  C   UNL     1     -12.745  14.016  65.639  1.00  0.00    -0.515 C  
BRANCH   6   7
HETATM    7  C   UNL     1     -12.097  14.029  67.027  1.00  0.00    -0.455 C  
BRANCH   7   8
HETATM    8  C   UNL     1     -11.781  12.650  67.540  1.00  0.00    -0.429 C  
HETATM    9  C   UNL     1     -11.826  12.235  68.820  1.00  0.00    -0.356 C  
HETATM   10  C   UNL     1     -12.108  13.125  69.999  1.00  0.00    -0.375 C  
HETATM   11  C   UNL     1     -11.581  10.791  69.171  1.00  0.00    -0.376 C  
ENDBRANCH   7   8
ENDBRANCH   6   7
ENDBRANCH   4   6
ENDBRANCH   2   4
TORSDOF 4
ENDMDL
MODEL        8
REMARK 921   NORMALIZED FREE ENERGY PREDICTED BY IDOCK:   -3.78 KCAL/MOL
REMARK 922        TOTAL FREE ENERGY PREDICTED BY IDOCK:   -4.90 KCAL/MOL
REMARK 923 INTER-LIGAND FREE ENERGY PREDICTED BY IDOCK:   -4.68 KCAL/MOL
REMARK 924 INTRA-LIGAND FREE ENERGY PREDICTED BY IDOCK:   -0.22 KCAL/MOL
REMARK 927      BINDING AFFINITY PREDICTED BY RF-SCORE:    0.00 PKD
ROOT
HETATM    1  C   UNL     1     -12.197  14.956  64.268  1.00  0.00    -0.344 C  
HETATM    2  N   UNL     1     -12.292  13.819  63.361  1.00  0.00    -1.100 NA 
HETATM    3  H   UNL     1     -11.620  13.908  62.600  1.00  0.00     0.000 HD 
ENDROOT
BRANCH   2   4
HETATM    4  C   UNL     1     -12.149  12.513  64.033  1.00  0.00    -0.473 C  
HETATM    5  C   UNL     1     -10.815  11.841  63.688  1.00  0.00    -0.508 C  
BRANCH   4   6
HETATM    6  C   UNL     1     -12.290  12.747  65.556  1.00  0.00    -0.495 C  
BRANCH   6   7
HETATM    7  C   UNL     1     -11.136  12.144  66.363  1.00  0.00    -0.358 C  
BRANCH   7   8
HETATM    8  C   UNL     1     -11.552  11.694  67.737  1.00  0.00    -0.359 C  
HETATM    9  C   UNL     1     -11.586  12.442  68.856  1.00  0.00    -0.364 C  
HETATM   10  C   UNL     1     -11.103  13.863  68.950  1.00  0.00    -0.296 C  
HETATM   11  C   UNL     1     -12.127  11.878  70.144  1.00  0.00    -0.382 C  
ENDBRANCH   7   8
ENDBRANCH   6   7
ENDBRANCH   4   6
ENDBRANCH   2   4
TORSDOF 4
ENDMDL
MODEL        9
REMARK 921   NORMALIZED FREE ENERGY PREDICTED BY IDOCK:   -3.74 KCAL/MOL
REMARK 922        TOTAL FREE ENERGY PREDICTED BY IDOCK:   -4.85 KCAL/MOL
REMARK 923 INTER-LIGAND FREE ENERGY PREDICTED BY IDOCK:   -4.66 KCAL/MOL
REMARK 924 INTRA-LIGAND FREE ENERGY PREDICTED BY IDOCK:   -0.19 KCAL/MOL
REMARK 927      BINDING AFFINITY PREDICTED BY RF-SCORE:    0.00 PKD
ROOT
HETATM    1  C   UNL     1     -13.831  13.258  72.189  1.00  0.00    -0.461 C  
HETATM    2  N   UNL     1     -13.384  14.260  73.149  1.00  0.00    -0.600 NA 
HETATM    3  H   UNL     1     -12.529  13.957  73.614  1.00  0.00     0.000 HD 
ENDROOT
BRANCH   2   4
HETATM    4  C   UNL     1     -13.210  15.603  72.564  1.00  0.00    -0.497 C  
HETATM    5  C   UNL     1     -11.929  16.279  73.067  1.00  0.00    -0.598 C  
BRANCH   4   6
HETATM    6  C   UNL     1     -13.206  15.452  71.024  1.00  0.00    -0.560 C  
BRANCH   6   7
HETATM    7  C   UNL     1     -11.861  15.822  70.391  1.00  0.00    -0.391 C  
BRANCH   7   8
HETATM    8  C   UNL     1     -11.809  15.536  68.915  1.00  0.00    -0.357 C  
HETATM    9  C   UNL     1     -11.756  14.325  68.328  1.00  0.00    -0.377 C  
HETATM   10  C   UNL     1     -11.632  13.021  69.067  1.00  0.00    -0.367 C  
HETATM   11  C   UNL     1     -11.813  14.192  66.829  1.00  0.00    -0.449 C  
ENDBRANCH   7   8
ENDBRANCH   6   7
ENDBRANCH   4   6
ENDBRANCH   2   4
TORSDOF 4
ENDMDL
MODEL       10
REMARK 921   NORMALIZED FREE ENERGY PREDICTED BY IDOCK:   -3.73 KCAL/MOL
REMARK 922        TOTAL FREE ENERGY PREDICTED BY IDOCK:   -4.84 KCAL/MOL
REMARK 923 INTER-LIGAND FREE ENERGY PREDICTED BY IDOCK:   -4.48 KCAL/MOL
REMARK 924 INTRA-LIGAND FREE ENERGY PREDICTED BY IDOCK:   -0.36 KCAL/MOL
REMARK 927      BINDING AFFINITY PREDICTED BY RF-SCORE:    0.00 PKD
ROOT
HETATM    1  C   UNL     1     -12.330  12.238  63.339  1.00  0.00    -0.517 C  
HETATM    2  N   UNL     1     -12.363  13.695  63.309  1.00  0.00    -1.080 NA 
HETATM    3  H   UNL     1     -13.313  14.031  63.157  1.00  0.00     0.000 HD 
ENDROOT
BRANCH   2   4
HETATM    4  C   UNL     1     -11.773  14.324  64.506  1.00  0.00    -0.418 C  
HETATM    5  C   UNL     1     -11.654  15.844  64.348  1.00  0.00    -0.234 C  
BRANCH   4   6
HETATM    6  C   UNL     1     -12.654  13.948  65.721  1.00  0.00    -0.533 C  
BRANCH   6   7
HETATM    7  C   UNL     1     -11.839  13.665  66.987  1.00  0.00    -0.448 C  
BRANCH   7   8
HETATM    8  C   UNL     1     -11.728  12.197  67.298  1.00  0.00    -0.369 C  
HETATM    9  C   UNL     1     -10.748  11.361  66.907  1.00  0.00    -0.308 C  
HETATM   10  C   UNL     1      -9.621  11.735  65.985  1.00  0.00    -0.248 C  
HETATM   11  C   UNL     1     -10.719   9.932  67.384  1.00  0.00    -0.323 C  
ENDBRANCH   7   8
ENDBRANCH   6   7
ENDBRANCH   4   6
ENDBRANCH   2   4
TORSDOF 4
ENDMDL
MODEL       11
REMARK 921   NORMALIZED FREE ENERGY PREDICTED BY IDOCK:   -3.73 KCAL/MOL
REMARK 922        TOTAL FREE ENERGY PREDICTED BY IDOCK:   -4.83 KCAL/MOL
REMARK 923 INTER-LIGAND FREE ENERGY PREDICTED BY IDOCK:   -4.66 KCAL/MOL
REMARK 924 INTRA-LIGAND FREE ENERGY PREDICTED BY IDOCK:   -0.17 KCAL/MOL
REMARK 927      BINDING AFFINITY PREDICTED BY RF-SCORE:    0.00 PKD
ROOT
HETATM    1  C   UNL     1     -11.968  13.329  66.511  1.00  0.00    -0.391 C  
HETATM    2  N   UNL     1     -12.258  14.257  67.597  1.00  0.00    -0.597 NA 
HETATM    3  H   UNL     1     -12.699  13.771  68.377  1.00  0.00     0.000 HD 
ENDROOT
BRANCH   2   4
HETATM    4  C   UNL     1     -11.080  15.018  68.055  1.00  0.00    -0.300 C  
HETATM    5  C   UNL     1     -10.619  16.037  67.006  1.00  0.00    -0.302 C  
BRANCH   4   6
HETATM    6  C   UNL     1     -11.452  15.707  69.390  1.00  0.00    -0.354 C  
BRANCH   6   7
HETATM    7  C   UNL     1     -11.758  14.711  70.512  1.00  0.00    -0.345 C  
BRANCH   7   8
HETATM    8  C   UNL     1     -11.681  15.328  71.882  1.00  0.00    -0.509 C  
HETATM    9  C   UNL     1     -12.715  15.651  72.682  1.00  0.00    -0.535 C  
HETATM   10  C   UNL     1     -14.163  15.544  72.293  1.00  0.00    -0.617 C  
HETATM   11  C   UNL     1     -12.478  16.169  74.076  1.00  0.00    -0.711 C  
ENDBRANCH   7   8
ENDBRANCH   6   7
ENDBRANCH   4   6
ENDBRANCH   2   4
TORSDOF 4
ENDMDL
MODEL       12
REMARK 921   NORMALIZED FREE ENERGY PREDICTED BY IDOCK:   -3.71 KCAL/MOL
REMARK 922        TOTAL FREE ENERGY PREDICTED BY IDOCK:   -4.81 KCAL/MOL
REMARK 923 INTER-LIGAND FREE ENERGY PREDICTED BY IDOCK:   -4.64 KCAL/MOL
REMARK 924 INTRA-LIGAND FREE ENERGY PREDICTED BY IDOCK:   -0.17 KCAL/MOL
REMARK 927      BINDING AFFINITY PREDICTED BY RF-SCORE:    0.00 PKD
ROOT
HETATM    1  C   UNL     1     -14.384  15.027  71.744  1.00  0.00    -0.580 C  
HETATM    2  N   UNL     1     -13.544  15.558  70.678  1.00  0.00    -0.849 NA 
HETATM    3  H   UNL     1     -13.367  16.552  70.820  1.00  0.00     0.000 HD 
ENDROOT
BRANCH   2   4
HETATM    4  C   UNL     1     -12.277  14.823  70.502  1.00  0.00    -0.322 C  
HETATM    5  C   UNL     1     -12.418  13.347  70.893  1.00  0.00    -0.439 C  
BRANCH   4   6
HETATM    6  C   UNL     1     -11.840  14.979  69.026  1.00  0.00    -0.330 C  
BRANCH   6   7
HETATM    7  C   UNL     1     -11.895  13.663  68.243  1.00  0.00    -0.404 C  
BRANCH   7   8
HETATM    8  C   UNL     1     -12.105  13.867  66.767  1.00  0.00    -0.476 C  
HETATM    9  C   UNL     1     -11.712  13.046  65.775  1.00  0.00    -0.427 C  
HETATM   10  C   UNL     1     -10.886  11.804  65.968  1.00  0.00    -0.343 C  
HETATM   11  C   UNL     1     -12.085  13.333  64.344  1.00  0.00    -0.471 C  
ENDBRANCH   7   8
ENDBRANCH   6   7
ENDBRANCH   4   6
ENDBRANCH   2   4
TORSDOF 4
ENDMDL
MODEL       13
REMARK 921   NORMALIZED FREE ENERGY PREDICTED BY IDOCK:   -3.68 KCAL/MOL
REMARK 922        TOTAL FREE ENERGY PREDICTED BY IDOCK:   -4.78 KCAL/MOL
REMARK 923 INTER-LIGAND FREE ENERGY PREDICTED BY IDOCK:   -4.26 KCAL/MOL
REMARK 924 INTRA-LIGAND FREE ENERGY PREDICTED BY IDOCK:   -0.52 KCAL/MOL
REMARK 927      BINDING AFFINITY PREDICTED BY RF-SCORE:    0.00 PKD
ROOT
HETATM    1  C   UNL     1     -10.069  11.451  63.566  1.00  0.00    -0.395 C  
HETATM    2  N   UNL     1     -10.380  12.875  63.531  1.00  0.00    -0.582 NA 
HETATM    3  H   UNL     1      -9.822  13.347  62.820  1.00  0.00     0.000 HD 
ENDROOT
BRANCH   2   4
HETATM    4  C   UNL     1     -11.814  13.163  63.345  1.00  0.00    -0.427 C  
HETATM    5  C   UNL     1     -12.684  11.940  63.658  1.00  0.00    -0.509 C  
BRANCH   4   6
HETATM    6  C   UNL     1     -12.177  14.364  64.251  1.00  0.00    -0.450 C  
BRANCH   6   7
HETATM    7  C   UNL     1     -12.771  13.939  65.597  1.00  0.00    -0.534 C  
BRANCH   7   8
HETATM    8  C   UNL     1     -11.803  14.087  66.739  1.00  0.00    -0.450 C  
HETATM    9  C   UNL     1     -11.137  13.099  67.366  1.00  0.00    -0.301 C  
HETATM   10  C   UNL     1     -11.328  11.632  67.095  1.00  0.00    -0.373 C  
HETATM   11  C   UNL     1     -10.117  13.411  68.429  1.00  0.00    -0.244 C  
ENDBRANCH   7   8
ENDBRANCH   6   7
ENDBRANCH   4   6
ENDBRANCH   2   4
TORSDOF 4
ENDMDL
MODEL       14
REMARK 921   NORMALIZED FREE ENERGY PREDICTED BY IDOCK:   -3.66 KCAL/MOL
REMARK 922        TOTAL FREE ENERGY PREDICTED BY IDOCK:   -4.76 KCAL/MOL
REMARK 923 INTER-LIGAND FREE ENERGY PREDICTED BY IDOCK:   -4.50 KCAL/MOL
REMARK 924 INTRA-LIGAND FREE ENERGY PREDICTED BY IDOCK:   -0.26 KCAL/MOL
REMARK 927      BINDING AFFINITY PREDICTED BY RF-SCORE:    0.00 PKD
ROOT
HETATM    1  C   UNL     1     -11.028  11.035  67.415  1.00  0.00    -0.291 C  
HETATM    2  N   UNL     1     -11.874  10.457  68.453  1.00  0.00    -0.752 NA 
HETATM    3  H   UNL     1     -11.431   9.635  68.862  1.00  0.00     0.000 HD 
ENDROOT
BRANCH   2   4
HETATM    4  C   UNL     1     -12.262  11.418  69.502  1.00  0.00    -0.235 C  
HETATM    5  C   UNL     1     -12.056  10.839  70.906  1.00  0.00    -0.475 C  
BRANCH   4   6
HETATM    6  C   UNL     1     -11.432  12.708  69.293  1.00  0.00    -0.354 C  
BRANCH   6   7
HETATM    7  C   UNL     1     -12.277  13.983  69.373  1.00  0.00    -0.336 C  
BRANCH   7   8
HETATM    8  C   UNL     1     -11.912  14.856  70.542  1.00  0.00    -0.365 C  
HETATM    9  C   UNL     1     -12.753  15.375  71.457  1.00  0.00    -0.480 C  
HETATM   10  C   UNL     1     -14.250  15.253  71.408  1.00  0.00    -0.589 C  
HETATM   11  C   UNL     1     -12.226  16.150  72.636  1.00  0.00    -0.625 C  
ENDBRANCH   7   8
ENDBRANCH   6   7
ENDBRANCH   4   6
ENDBRANCH   2   4
TORSDOF 4
ENDMDL
MODEL       15
REMARK 921   NORMALIZED FREE ENERGY PREDICTED BY IDOCK:   -3.63 KCAL/MOL
REMARK 922        TOTAL FREE ENERGY PREDICTED BY IDOCK:   -4.72 KCAL/MOL
REMARK 923 INTER-LIGAND FREE ENERGY PREDICTED BY IDOCK:   -4.49 KCAL/MOL
REMARK 924 INTRA-LIGAND FREE ENERGY PREDICTED BY IDOCK:   -0.23 KCAL/MOL
REMARK 927      BINDING AFFINITY PREDICTED BY RF-SCORE:    0.00 PKD
ROOT
HETATM    1  C   UNL     1     -12.570  12.006  63.229  1.00  0.00    -0.385 C  
HETATM    2  N   UNL     1     -13.002  12.499  64.531  1.00  0.00    -0.823 NA 
HETATM    3  H   UNL     1     -13.642  11.839  64.972  1.00  0.00     0.000 HD 
ENDROOT
BRANCH   2   4
HETATM    4  C   UNL     1     -11.886  12.827  65.439  1.00  0.00    -0.415 C  
HETATM    5  C   UNL     1     -10.584  13.079  64.670  1.00  0.00    -0.397 C  
BRANCH   4   6
HETATM    6  C   UNL     1     -12.302  14.063  66.273  1.00  0.00    -0.482 C  
BRANCH   6   7
HETATM    7  C   UNL     1     -11.685  14.073  67.675  1.00  0.00    -0.412 C  
BRANCH   7   8
HETATM    8  C   UNL     1     -11.661  12.712  68.315  1.00  0.00    -0.377 C  
HETATM    9  C   UNL     1     -11.995  12.410  69.584  1.00  0.00    -0.341 C  
HETATM   10  C   UNL     1     -12.361  13.421  70.635  1.00  0.00    -0.423 C  
HETATM   11  C   UNL     1     -12.019  10.980  70.055  1.00  0.00    -0.430 C  
ENDBRANCH   7   8
ENDBRANCH   6   7
ENDBRANCH   4   6
ENDBRANCH   2   4
TORSDOF 4
ENDMDL
MODEL       16
REMARK 921   NORMALIZED FREE ENERGY PREDICTED BY IDOCK:   -3.63 KCAL/MOL
REMARK 922        TOTAL FREE ENERGY PREDICTED BY IDOCK:   -4.71 KCAL/MOL
REMARK 923 INTER-LIGAND FREE ENERGY PREDICTED BY IDOCK:   -4.27 KCAL/MOL
REMARK 924 INTRA-LIGAND FREE ENERGY PREDICTED BY IDOCK:   -0.44 KCAL/MOL
REMARK 927      BINDING AFFINITY PREDICTED BY RF-SCORE:    0.00 PKD
ROOT
HETATM    1  C   UNL     1     -10.970   5.986  69.907  1.00  0.00    -0.388 C  
HETATM    2  N   UNL     1     -12.131   6.829  70.162  1.00  0.00    -0.633 NA 
HETATM    3  H   UNL     1     -12.914   6.552  69.569  1.00  0.00     0.000 HD 
ENDROOT
BRANCH   2   4
HETATM    4  C   UNL     1     -12.538   6.863  71.579  1.00  0.00    -0.367 C  
HETATM    5  C   UNL     1     -11.344   7.117  72.506  1.00  0.00    -0.318 C  
BRANCH   4   6
HETATM    6  C   UNL     1     -13.620   7.958  71.735  1.00  0.00    -0.396 C  
BRANCH   6   7
HETATM    7  C   UNL     1     -13.044   9.313  72.158  1.00  0.00    -0.520 C  
BRANCH   7   8
HETATM    8  C   UNL     1     -12.932  10.285  71.015  1.00  0.00    -0.488 C  
HETATM    9  C   UNL     1     -11.840  10.531  70.267  1.00  0.00    -0.418 C  
HETATM   10  C   UNL     1     -10.482   9.936  70.516  1.00  0.00    -0.330 C  
HETATM   11  C   UNL     1     -11.909  11.462  69.085  1.00  0.00    -0.413 C  
ENDBRANCH   7   8
ENDBRANCH   6   7
ENDBRANCH   4   6
ENDBRANCH   2   4
TORSDOF 4
ENDMDL
MODEL       17
REMARK 921   NORMALIZED FREE ENERGY PREDICTED BY IDOCK:   -3.61 KCAL/MOL
REMARK 922        TOTAL FREE ENERGY PREDICTED BY IDOCK:   -4.69 KCAL/MOL
REMARK 923 INTER-LIGAND FREE ENERGY PREDICTED BY IDOCK:   -4.50 KCAL/MOL
REMARK 924 INTRA-LIGAND FREE ENERGY PREDICTED BY IDOCK:   -0.19 KCAL/MOL
REMARK 927      BINDING AFFINITY PREDICTED BY RF-SCORE:    0.00 PKD
ROOT
HETATM    1  C   UNL     1     -14.383  15.135  72.069  1.00  0.00    -0.586 C  
HETATM    2  N   UNL     1     -13.932  15.558  70.748  1.00  0.00    -0.851 NA 
HETATM    3  H   UNL     1     -14.379  16.435  70.479  1.00  0.00     0.000 HD 
ENDROOT
BRANCH   2   4
HETATM    4  C   UNL     1     -12.466  15.661  70.628  1.00  0.00    -0.417 C  
HETATM    5  C   UNL     1     -11.804  15.937  71.983  1.00  0.00    -0.609 C  
BRANCH   4   6
HETATM    6  C   UNL     1     -11.948  14.345  70.001  1.00  0.00    -0.394 C  
BRANCH   6   7
HETATM    7  C   UNL     1     -11.898  14.391  68.471  1.00  0.00    -0.369 C  
BRANCH   7   8
HETATM    8  C   UNL     1     -10.956  15.440  67.946  1.00  0.00    -0.310 C  
HETATM    9  C   UNL     1     -10.383  15.475  66.728  1.00  0.00    -0.288 C  
HETATM   10  C   UNL     1     -10.508  14.391  65.693  1.00  0.00    -0.347 C  
HETATM   11  C   UNL     1      -9.539  16.648  66.307  1.00  0.00    -0.325 C  
ENDBRANCH   7   8
ENDBRANCH   6   7
ENDBRANCH   4   6
ENDBRANCH   2   4
TORSDOF 4
ENDMDL
MODEL       18
REMARK 921   NORMALIZED FREE ENERGY PREDICTED BY IDOCK:   -3.59 KCAL/MOL
REMARK 922        TOTAL FREE ENERGY PREDICTED BY IDOCK:   -4.66 KCAL/MOL
REMARK 923 INTER-LIGAND FREE ENERGY PREDICTED BY IDOCK:   -4.48 KCAL/MOL
REMARK 924 INTRA-LIGAND FREE ENERGY PREDICTED BY IDOCK:   -0.18 KCAL/MOL
REMARK 927      BINDING AFFINITY PREDICTED BY RF-SCORE:    0.00 PKD
ROOT
HETATM    1  C   UNL     1      -8.743  13.003  67.579  1.00  0.00    -0.197 C  
HETATM    2  N   UNL     1      -9.287  13.628  68.779  1.00  0.00    -0.397 NA 
HETATM    3  H   UNL     1      -8.535  13.964  69.382  1.00  0.00     0.000 HD 
ENDROOT
BRANCH   2   4
HETATM    4  C   UNL     1     -10.252  14.708  68.498  1.00  0.00    -0.240 C  
HETATM    5  C   UNL     1     -11.639  14.153  68.154  1.00  0.00    -0.365 C  
BRANCH   4   6
HETATM    6  C   UNL     1     -10.301  15.632  69.738  1.00  0.00    -0.309 C  
BRANCH   6   7
HETATM    7  C   UNL     1     -11.699  15.725  70.359  1.00  0.00    -0.390 C  
BRANCH   7   8
HETATM    8  C   UNL     1     -11.667  15.872  71.856  1.00  0.00    -0.590 C  
HETATM    9  C   UNL     1     -12.696  15.696  72.706  1.00  0.00    -0.538 C  
HETATM   10  C   UNL     1     -14.113  15.417  72.289  1.00  0.00    -0.660 C  
HETATM   11  C   UNL     1     -12.487  15.777  74.196  1.00  0.00    -0.793 C  
ENDBRANCH   7   8
ENDBRANCH   6   7
ENDBRANCH   4   6
ENDBRANCH   2   4
TORSDOF 4
ENDMDL
MODEL       19
REMARK 921   NORMALIZED FREE ENERGY PREDICTED BY IDOCK:   -3.59 KCAL/MOL
REMARK 922        TOTAL FREE ENERGY PREDICTED BY IDOCK:   -4.66 KCAL/MOL
REMARK 923 INTER-LIGAND FREE ENERGY PREDICTED BY IDOCK:   -4.39 KCAL/MOL
REMARK 924 INTRA-LIGAND FREE ENERGY PREDICTED BY IDOCK:   -0.28 KCAL/MOL
REMARK 927      BINDING AFFINITY PREDICTED BY RF-SCORE:    0.00 PKD
ROOT
HETATM    1  C   UNL     1     -10.756  10.762  67.136  1.00  0.00    -0.272 C  
HETATM    2  N   UNL     1     -11.864  11.672  67.399  1.00  0.00    -0.630 NA 
HETATM    3  H   UNL     1     -12.083  11.694  68.395  1.00  0.00     0.000 HD 
ENDROOT
BRANCH   2   4
HETATM    4  C   UNL     1     -11.644  13.037  66.884  1.00  0.00    -0.366 C  
HETATM    5  C   UNL     1     -12.379  13.269  65.559  1.00  0.00    -0.533 C  
BRANCH   4   6
HETATM    6  C   UNL     1     -12.108  14.034  67.973  1.00  0.00    -0.312 C  
BRANCH   6   7
HETATM    7  C   UNL     1     -11.440  13.792  69.330  1.00  0.00    -0.344 C  
BRANCH   7   8
HETATM    8  C   UNL     1     -12.399  13.901  70.484  1.00  0.00    -0.439 C  
HETATM    9  C   UNL     1     -12.880  12.891  71.233  1.00  0.00    -0.361 C  
HETATM   10  C   UNL     1     -12.616  11.433  70.974  1.00  0.00    -0.487 C  
HETATM   11  C   UNL     1     -13.757  13.166  72.426  1.00  0.00    -0.640 C  
ENDBRANCH   7   8
ENDBRANCH   6   7
ENDBRANCH   4   6
ENDBRANCH   2   4
TORSDOF 4
ENDMDL
MODEL       20
REMARK 921   NORMALIZED FREE ENERGY PREDICTED BY IDOCK:   -3.59 KCAL/MOL
REMARK 922        TOTAL FREE ENERGY PREDICTED BY IDOCK:   -4.66 KCAL/MOL
REMARK 923 INTER-LIGAND FREE ENERGY PREDICTED BY IDOCK:   -4.44 KCAL/MOL
REMARK 924 INTRA-LIGAND FREE ENERGY PREDICTED BY IDOCK:   -0.22 KCAL/MOL
REMARK 927      BINDING AFFINITY PREDICTED BY RF-SCORE:    0.00 PKD
ROOT
HETATM    1  C   UNL     1     -12.202  12.807  63.512  1.00  0.00    -0.525 C  
HETATM    2  N   UNL     1     -12.868  12.602  64.793  1.00  0.00    -0.830 NA 
HETATM    3  H   UNL     1     -13.426  11.748  64.776  1.00  0.00     0.000 HD 
ENDROOT
BRANCH   2   4
HETATM    4  C   UNL     1     -11.946  12.599  65.944  1.00  0.00    -0.438 C  
HETATM    5  C   UNL     1     -10.842  11.547  65.785  1.00  0.00    -0.319 C  
BRANCH   4   6
HETATM    6  C   UNL     1     -11.357  14.023  66.082  1.00  0.00    -0.322 C  
BRANCH   6   7
HETATM    7  C   UNL     1     -11.765  14.715  67.387  1.00  0.00    -0.413 C  
BRANCH   7   8
HETATM    8  C   UNL     1     -11.980  13.750  68.520  1.00  0.00    -0.402 C  
HETATM    9  C   UNL     1     -12.167  14.057  69.818  1.00  0.00    -0.396 C  
HETATM   10  C   UNL     1     -12.087  15.445  70.389  1.00  0.00    -0.408 C  
HETATM   11  C   UNL     1     -12.474  12.982  70.827  1.00  0.00    -0.384 C  
ENDBRANCH   7   8
ENDBRANCH   6   7
ENDBRANCH   4   6
ENDBRANCH   2   4
TORSDOF 4
ENDMDL
MODEL       21
REMARK 921   NORMALIZED FREE ENERGY PREDICTED BY IDOCK:   -3.58 KCAL/MOL
REMARK 922        TOTAL FREE ENERGY PREDICTED BY IDOCK:   -4.66 KCAL/MOL
REMARK 923 INTER-LIGAND FREE ENERGY PREDICTED BY IDOCK:   -4.51 KCAL/MOL
REMARK 924 INTRA-LIGAND FREE ENERGY PREDICTED BY IDOCK:   -0.14 KCAL/MOL
REMARK 927      BINDING AFFINITY PREDICTED BY RF-SCORE:    0.00 PKD
ROOT
HETATM    1  C   UNL     1     -12.303  12.942  65.260  1.00  0.00    -0.490 C  
HETATM    2  N   UNL     1     -12.048  12.265  66.526  1.00  0.00    -0.599 NA 
HETATM    3  H   UNL     1     -11.694  11.322  66.365  1.00  0.00     0.000 HD 
ENDROOT
BRANCH   2   4
HETATM    4  C   UNL     1     -11.149  13.012  67.426  1.00  0.00    -0.272 C  
HETATM    5  C   UNL     1     -10.121  13.837  66.644  1.00  0.00    -0.277 C  
BRANCH   4   6
HETATM    6  C   UNL     1     -12.027  13.910  68.332  1.00  0.00    -0.391 C  
BRANCH   6   7
HETATM    7  C   UNL     1     -11.997  13.485  69.803  1.00  0.00    -0.405 C  
BRANCH   7   8
HETATM    8  C   UNL     1     -11.920  14.652  70.750  1.00  0.00    -0.380 C  
HETATM    9  C   UNL     1     -12.520  14.759  71.950  1.00  0.00    -0.410 C  
HETATM   10  C   UNL     1     -13.477  13.750  72.521  1.00  0.00    -0.682 C  
HETATM   11  C   UNL     1     -12.266  15.951  72.835  1.00  0.00    -0.605 C  
ENDBRANCH   7   8
ENDBRANCH   6   7
ENDBRANCH   4   6
ENDBRANCH   2   4
TORSDOF 4
ENDMDL
MODEL       22
REMARK 921   NORMALIZED FREE ENERGY PREDICTED BY IDOCK:   -3.57 KCAL/MOL
REMARK 922        TOTAL FREE ENERGY PREDICTED BY IDOCK:   -4.64 KCAL/MOL
REMARK 923 INTER-LIGAND FREE ENERGY PREDICTED BY IDOCK:   -4.40 KCAL/MOL
REMARK 924 INTRA-LIGAND FREE ENERGY PREDICTED BY IDOCK:   -0.24 KCAL/MOL
REMARK 927      BINDING AFFINITY PREDICTED BY RF-SCORE:    0.00 PKD
ROOT
HETATM    1  C   UNL     1     -10.448  11.991  63.807  1.00  0.00    -0.429 C  
HETATM    2  N   UNL     1      -9.915  13.336  63.990  1.00  0.00    -0.750 NA 
HETATM    3  H   UNL     1      -9.717  13.770  63.089  1.00  0.00     0.000 HD 
ENDROOT
BRANCH   2   4
HETATM    4  C   UNL     1     -10.777  14.207  64.811  1.00  0.00    -0.419 C  
HETATM    5  C   UNL     1     -12.259  14.028  64.463  1.00  0.00    -0.463 C  
BRANCH   4   6
HETATM    6  C   UNL     1     -10.500  13.883  66.298  1.00  0.00    -0.287 C  
BRANCH   6   7
HETATM    7  C   UNL     1     -11.780  13.733  67.126  1.00  0.00    -0.417 C  
BRANCH   7   8
HETATM    8  C   UNL     1     -11.719  12.586  68.098  1.00  0.00    -0.400 C  
HETATM    9  C   UNL     1     -11.903  12.645  69.430  1.00  0.00    -0.356 C  
HETATM   10  C   UNL     1     -12.102  13.915  70.210  1.00  0.00    -0.423 C  
HETATM   11  C   UNL     1     -11.914  11.391  70.263  1.00  0.00    -0.460 C  
ENDBRANCH   7   8
ENDBRANCH   6   7
ENDBRANCH   4   6
ENDBRANCH   2   4
TORSDOF 4
ENDMDL
MODEL       23
REMARK 921   NORMALIZED FREE ENERGY PREDICTED BY IDOCK:   -3.56 KCAL/MOL
REMARK 922        TOTAL FREE ENERGY PREDICTED BY IDOCK:   -4.63 KCAL/MOL
REMARK 923 INTER-LIGAND FREE ENERGY PREDICTED BY IDOCK:   -4.32 KCAL/MOL
REMARK 924 INTRA-LIGAND FREE ENERGY PREDICTED BY IDOCK:   -0.32 KCAL/MOL
REMARK 927      BINDING AFFINITY PREDICTED BY RF-SCORE:    0.00 PKD
ROOT
HETATM    1  C   UNL     1     -12.530  13.819  65.228  1.00  0.00    -0.480 C  
HETATM    2  N   UNL     1     -12.340  12.489  65.794  1.00  0.00    -0.626 NA 
HETATM    3  H   UNL     1     -11.838  11.888  65.140  1.00  0.00     0.000 HD 
ENDROOT
BRANCH   2   4
HETATM    4  C   UNL     1     -11.678  12.495  67.111  1.00  0.00    -0.355 C  
HETATM    5  C   UNL     1     -10.171  12.241  66.990  1.00  0.00    -0.230 C  
BRANCH   4   6
HETATM    6  C   UNL     1     -11.971  13.859  67.782  1.00  0.00    -0.390 C  
BRANCH   6   7
HETATM    7  C   UNL     1     -11.253  14.033  69.124  1.00  0.00    -0.308 C  
BRANCH   7   8
HETATM    8  C   UNL     1     -12.195  14.046  70.296  1.00  0.00    -0.430 C  
HETATM    9  C   UNL     1     -12.655  12.978  70.975  1.00  0.00    -0.386 C  
HETATM   10  C   UNL     1     -12.382  11.547  70.605  1.00  0.00    -0.457 C  
HETATM   11  C   UNL     1     -13.517  13.155  72.197  1.00  0.00    -0.653 C  
ENDBRANCH   7   8
ENDBRANCH   6   7
ENDBRANCH   4   6
ENDBRANCH   2   4
TORSDOF 4
ENDMDL
MODEL       24
REMARK 921   NORMALIZED FREE ENERGY PREDICTED BY IDOCK:   -3.56 KCAL/MOL
REMARK 922        TOTAL FREE ENERGY PREDICTED BY IDOCK:   -4.62 KCAL/MOL
REMARK 923 INTER-LIGAND FREE ENERGY PREDICTED BY IDOCK:   -4.51 KCAL/MOL
REMARK 924 INTRA-LIGAND FREE ENERGY PREDICTED BY IDOCK:   -0.11 KCAL/MOL
REMARK 927      BINDING AFFINITY PREDICTED BY RF-SCORE:    0.00 PKD
ROOT
HETATM    1  C   UNL     1     -10.524  18.884  66.343  1.00  0.00    -0.439 C  
HETATM    2  N   UNL     1     -10.667  18.361  67.697  1.00  0.00    -0.409 NA 
HETATM    3  H   UNL     1     -11.504  18.737  68.141  1.00  0.00     0.000 HD 
ENDROOT
BRANCH   2   4
HETATM    4  C   UNL     1     -10.656  16.888  67.767  1.00  0.00    -0.340 C  
HETATM    5  C   UNL     1      -9.525  16.288  66.924  1.00  0.00    -0.245 C  
BRANCH   4   6
HETATM    6  C   UNL     1     -10.529  16.486  69.255  1.00  0.00    -0.326 C  
BRANCH   6   7
HETATM    7  C   UNL     1     -11.836  15.943  69.842  1.00  0.00    -0.309 C  
BRANCH   7   8
HETATM    8  C   UNL     1     -11.896  16.051  71.341  1.00  0.00    -0.531 C  
HETATM    9  C   UNL     1     -12.902  15.649  72.141  1.00  0.00    -0.517 C  
HETATM   10  C   UNL     1     -14.216  15.104  71.653  1.00  0.00    -0.664 C  
HETATM   11  C   UNL     1     -12.775  15.729  73.639  1.00  0.00    -0.729 C  
ENDBRANCH   7   8
ENDBRANCH   6   7
ENDBRANCH   4   6
ENDBRANCH   2   4
TORSDOF 4
ENDMDL
MODEL       25
REMARK 921   NORMALIZED FREE ENERGY PREDICTED BY IDOCK:   -3.55 KCAL/MOL
REMARK 922        TOTAL FREE ENERGY PREDICTED BY IDOCK:   -4.62 KCAL/MOL
REMARK 923 INTER-LIGAND FREE ENERGY PREDICTED BY IDOCK:   -4.38 KCAL/MOL
REMARK 924 INTRA-LIGAND FREE ENERGY PREDICTED BY IDOCK:   -0.24 KCAL/MOL
REMARK 927      BINDING AFFINITY PREDICTED BY RF-SCORE:    0.00 PKD
ROOT
HETATM    1  C   UNL     1      -9.384  10.452  63.547  1.00  0.00    -0.297 C  
HETATM    2  N   UNL     1     -10.570  10.975  62.880  1.00  0.00    -0.803 NA 
HETATM    3  H   UNL     1     -11.300  10.264  62.831  1.00  0.00     0.000 HD 
ENDROOT
BRANCH   2   4
HETATM    4  C   UNL     1     -11.091  12.215  63.486  1.00  0.00    -0.452 C  
HETATM    5  C   UNL     1     -12.616  12.309  63.364  1.00  0.00    -0.545 C  
BRANCH   4   6
HETATM    6  C   UNL     1     -10.637  12.246  64.965  1.00  0.00    -0.322 C  
BRANCH   6   7
HETATM    7  C   UNL     1     -11.809  12.309  65.949  1.00  0.00    -0.420 C  
BRANCH   7   8
HETATM    8  C   UNL     1     -11.769  13.527  66.831  1.00  0.00    -0.424 C  
HETATM    9  C   UNL     1     -11.678  13.549  68.175  1.00  0.00    -0.396 C  
HETATM   10  C   UNL     1     -11.706  12.329  69.053  1.00  0.00    -0.376 C  
HETATM   11  C   UNL     1     -11.545  14.852  68.917  1.00  0.00    -0.339 C  
ENDBRANCH   7   8
ENDBRANCH   6   7
ENDBRANCH   4   6
ENDBRANCH   2   4
TORSDOF 4
ENDMDL
MODEL       26
REMARK 921   NORMALIZED FREE ENERGY PREDICTED BY IDOCK:   -3.53 KCAL/MOL
REMARK 922        TOTAL FREE ENERGY PREDICTED BY IDOCK:   -4.58 KCAL/MOL
REMARK 923 INTER-LIGAND FREE ENERGY PREDICTED BY IDOCK:   -4.44 KCAL/MOL
REMARK 924 INTRA-LIGAND FREE ENERGY PREDICTED BY IDOCK:   -0.15 KCAL/MOL
REMARK 927      BINDING AFFINITY PREDICTED BY RF-SCORE:    0.00 PKD
ROOT
HETATM    1  C   UNL     1     -13.917  15.280  71.970  1.00  0.00    -0.543 C  
HETATM    2  N   UNL     1     -12.786  16.027  71.433  1.00  0.00    -0.532 NA 
HETATM    3  H   UNL     1     -12.272  16.491  72.183  1.00  0.00     0.000 HD 
ENDROOT
BRANCH   2   4
HETATM    4  C   UNL     1     -11.877  15.212  70.605  1.00  0.00    -0.325 C  
HETATM    5  C   UNL     1     -12.287  13.735  70.599  1.00  0.00    -0.445 C  
BRANCH   4   6
HETATM    6  C   UNL     1     -11.878  15.807  69.176  1.00  0.00    -0.367 C  
BRANCH   6   7
HETATM    7  C   UNL     1     -10.554  16.486  68.811  1.00  0.00    -0.322 C  
BRANCH   7   8
HETATM    8  C   UNL     1     -10.705  17.521  67.730  1.00  0.00    -0.333 C  
HETATM    9  C   UNL     1     -10.408  18.832  67.820  1.00  0.00    -0.467 C  
HETATM   10  C   UNL     1      -9.961  19.523  69.078  1.00  0.00    -0.490 C  
HETATM   11  C   UNL     1     -10.515  19.730  66.616  1.00  0.00    -0.615 C  
ENDBRANCH   7   8
ENDBRANCH   6   7
ENDBRANCH   4   6
ENDBRANCH   2   4
TORSDOF 4
ENDMDL
MODEL       27
REMARK 921   NORMALIZED FREE ENERGY PREDICTED BY IDOCK:   -3.52 KCAL/MOL
REMARK 922        TOTAL FREE ENERGY PREDICTED BY IDOCK:   -4.58 KCAL/MOL
REMARK 923 INTER-LIGAND FREE ENERGY PREDICTED BY IDOCK:   -4.44 KCAL/MOL
REMARK 924 INTRA-LIGAND FREE ENERGY PREDICTED BY IDOCK:   -0.14 KCAL/MOL
REMARK 927      BINDING AFFINITY PREDICTED BY RF-SCORE:    0.00 PKD
ROOT
HETATM    1  C   UNL     1     -13.788  15.638  72.383  1.00  0.00    -0.527 C  
HETATM    2  N   UNL     1     -13.710  15.377  70.951  1.00  0.00    -0.814 NA 
HETATM    3  H   UNL     1     -14.276  16.048  70.431  1.00  0.00     0.000 HD 
ENDROOT
BRANCH   2   4
HETATM    4  C   UNL     1     -12.330  15.345  70.429  1.00  0.00    -0.402 C  
HETATM    5  C   UNL     1     -11.300  15.600  71.535  1.00  0.00    -0.454 C  
BRANCH   4   6
HETATM    6  C   UNL     1     -12.111  13.969  69.755  1.00  0.00    -0.405 C  
BRANCH   6   7
HETATM    7  C   UNL     1     -12.427  12.792  70.683  1.00  0.00    -0.328 C  
BRANCH   7   8
HETATM    8  C   UNL     1     -11.801  11.502  70.228  1.00  0.00    -0.431 C  
HETATM    9  C   UNL     1     -11.992  10.279  70.760  1.00  0.00    -0.456 C  
HETATM   10  C   UNL     1     -12.804  10.001  71.994  1.00  0.00    -0.484 C  
HETATM   11  C   UNL     1     -11.373   9.060  70.129  1.00  0.00    -0.139 C  
ENDBRANCH   7   8
ENDBRANCH   6   7
ENDBRANCH   4   6
ENDBRANCH   2   4
TORSDOF 4
ENDMDL
MODEL       28
REMARK 921   NORMALIZED FREE ENERGY PREDICTED BY IDOCK:   -3.52 KCAL/MOL
REMARK 922        TOTAL FREE ENERGY PREDICTED BY IDOCK:   -4.57 KCAL/MOL
REMARK 923 INTER-LIGAND FREE ENERGY PREDICTED BY IDOCK:   -4.34 KCAL/MOL
REMARK 924 INTRA-LIGAND FREE ENERGY PREDICTED BY IDOCK:   -0.23 KCAL/MOL
REMARK 927      BINDING AFFINITY PREDICTED BY RF-SCORE:    0.00 PKD
ROOT
HETATM    1  C   UNL     1     -12.134  13.754  67.040  1.00  0.00    -0.397 C  
HETATM    2  N   UNL     1     -12.319  14.463  68.300  1.00  0.00    -0.597 NA 
HETATM    3  H   UNL     1     -13.310  14.610  68.488  1.00  0.00     0.000 HD 
ENDROOT
BRANCH   2   4
HETATM    4  C   UNL     1     -11.661  13.810  69.448  1.00  0.00    -0.325 C  
HETATM    5  C   UNL     1     -12.432  14.046  70.752  1.00  0.00    -0.442 C  
BRANCH   4   6
HETATM    6  C   UNL     1     -11.537  12.301  69.127  1.00  0.00    -0.373 C  
BRANCH   6   7
HETATM    7  C   UNL     1     -12.386  11.422  70.049  1.00  0.00    -0.311 C  
BRANCH   7   8
HETATM    8  C   UNL     1     -11.578  10.380  70.774  1.00  0.00    -0.450 C  
HETATM    9  C   UNL     1     -12.039   9.462  71.645  1.00  0.00    -0.462 C  
HETATM   10  C   UNL     1     -13.458   9.384  72.134  1.00  0.00    -0.543 C  
HETATM   11  C   UNL     1     -11.122   8.412  72.215  1.00  0.00    -0.438 C  
ENDBRANCH   7   8
ENDBRANCH   6   7
ENDBRANCH   4   6
ENDBRANCH   2   4
TORSDOF 4
ENDMDL
MODEL       29
REMARK 921   NORMALIZED FREE ENERGY PREDICTED BY IDOCK:   -3.51 KCAL/MOL
REMARK 922        TOTAL FREE ENERGY PREDICTED BY IDOCK:   -4.57 KCAL/MOL
REMARK 923 INTER-LIGAND FREE ENERGY PREDICTED BY IDOCK:   -4.40 KCAL/MOL
REMARK 924 INTRA-LIGAND FREE ENERGY PREDICTED BY IDOCK:   -0.17 KCAL/MOL
REMARK 927      BINDING AFFINITY PREDICTED BY RF-SCORE:    0.00 PKD
ROOT
HETATM    1  C   UNL     1     -14.071   7.354  71.570  1.00  0.00    -0.409 C  
HETATM    2  N   UNL     1     -13.391   8.517  71.014  1.00  0.00    -0.513 NA 
HETATM    3  H   UNL     1     -14.065   9.178  70.627  1.00  0.00     0.000 HD 
ENDROOT
BRANCH   2   4
HETATM    4  C   UNL     1     -12.492   9.190  71.971  1.00  0.00    -0.382 C  
HETATM    5  C   UNL     1     -11.532   8.200  72.640  1.00  0.00    -0.454 C  
BRANCH   4   6
HETATM    6  C   UNL     1     -11.725  10.294  71.204  1.00  0.00    -0.430 C  
BRANCH   6   7
HETATM    7  C   UNL     1     -12.653  11.316  70.540  1.00  0.00    -0.331 C  
BRANCH   7   8
HETATM    8  C   UNL     1     -12.093  12.712  70.552  1.00  0.00    -0.360 C  
HETATM    9  C   UNL     1     -12.448  13.718  71.375  1.00  0.00    -0.404 C  
HETATM   10  C   UNL     1     -13.565  13.647  72.379  1.00  0.00    -0.703 C  
HETATM   11  C   UNL     1     -11.722  15.037  71.337  1.00  0.00    -0.409 C  
ENDBRANCH   7   8
ENDBRANCH   6   7
ENDBRANCH   4   6
ENDBRANCH   2   4
TORSDOF 4
ENDMDL
MODEL       30
REMARK 921   NORMALIZED FREE ENERGY PREDICTED BY IDOCK:   -3.50 KCAL/MOL
REMARK 922        TOTAL FREE ENERGY PREDICTED BY IDOCK:   -4.55 KCAL/MOL
REMARK 923 INTER-LIGAND FREE ENERGY PREDICTED BY IDOCK:   -4.37 KCAL/MOL
REMARK 924 INTRA-LIGAND FREE ENERGY PREDICTED BY IDOCK:   -0.18 KCAL/MOL
REMARK 927      BINDING AFFINITY PREDICTED BY RF-SCORE:    0.00 PKD
ROOT
HETATM    1  C   UNL     1     -12.069  12.153  63.549  1.00  0.00    -0.550 C  
HETATM    2  N   UNL     1     -12.982  12.555  64.612  1.00  0.00    -0.844 NA 
HETATM    3  H   UNL     1     -13.201  11.764  65.218  1.00  0.00     0.000 HD 
ENDROOT
BRANCH   2   4
HETATM    4  C   UNL     1     -12.498  13.700  65.406  1.00  0.00    -0.499 C  
HETATM    5  C   UNL     1     -11.986  13.261  66.782  1.00  0.00    -0.438 C  
BRANCH   4   6
HETATM    6  C   UNL     1     -11.392  14.409  64.588  1.00  0.00    -0.373 C  
BRANCH   6   7
HETATM    7  C   UNL     1     -10.903  15.705  65.242  1.00  0.00    -0.420 C  
BRANCH   7   8
HETATM    8  C   UNL     1      -9.475  15.624  65.708  1.00  0.00    -0.338 C  
HETATM    9  C   UNL     1      -8.754  16.609  66.279  1.00  0.00    -0.359 C  
HETATM   10  C   UNL     1      -9.231  18.023  66.458  1.00  0.00    -0.286 C  
HETATM   11  C   UNL     1      -7.362  16.347  66.790  1.00  0.00    -0.261 C  
ENDBRANCH   7   8
ENDBRANCH   6   7
ENDBRANCH   4   6
ENDBRANCH   2   4
TORSDOF 4
ENDMDL
MODEL       31
REMARK 921   NORMALIZED FREE ENERGY PREDICTED BY IDOCK:   -3.49 KCAL/MOL
REMARK 922        TOTAL FREE ENERGY PREDICTED BY IDOCK:   -4.54 KCAL/MOL
REMARK 923 INTER-LIGAND FREE ENERGY PREDICTED BY IDOCK:   -4.05 KCAL/MOL
REMARK 924 INTRA-LIGAND FREE ENERGY PREDICTED BY IDOCK:   -0.49 KCAL/MOL
REMARK 927      BINDING AFFINITY PREDICTED BY RF-SCORE:    0.00 PKD
ROOT
HETATM    1  C   UNL     1     -12.392  12.355  63.657  1.00  0.00    -0.548 C  
HETATM    2  N   UNL     1     -12.584  12.613  65.080  1.00  0.00    -0.665 NA 
HETATM    3  H   UNL     1     -13.493  12.268  65.388  1.00  0.00     0.000 HD 
ENDROOT
BRANCH   2   4
HETATM    4  C   UNL     1     -11.506  12.072  65.929  1.00  0.00    -0.333 C  
HETATM    5  C   UNL     1     -10.128  12.255  65.283  1.00  0.00    -0.295 C  
BRANCH   4   6
HETATM    6  C   UNL     1     -11.587  12.780  67.303  1.00  0.00    -0.420 C  
BRANCH   6   7
HETATM    7  C   UNL     1     -12.018  14.246  67.197  1.00  0.00    -0.449 C  
BRANCH   7   8
HETATM    8  C   UNL     1     -10.856  15.201  67.188  1.00  0.00    -0.320 C  
HETATM    9  C   UNL     1     -10.421  15.934  66.145  1.00  0.00    -0.336 C  
HETATM   10  C   UNL     1     -10.971  15.846  64.749  1.00  0.00    -0.392 C  
HETATM   11  C   UNL     1      -9.303  16.928  66.316  1.00  0.00    -0.292 C  
ENDBRANCH   7   8
ENDBRANCH   6   7
ENDBRANCH   4   6
ENDBRANCH   2   4
TORSDOF 4
ENDMDL
MODEL       32
REMARK 921   NORMALIZED FREE ENERGY PREDICTED BY IDOCK:   -3.47 KCAL/MOL
REMARK 922        TOTAL FREE ENERGY PREDICTED BY IDOCK:   -4.51 KCAL/MOL
REMARK 923 INTER-LIGAND FREE ENERGY PREDICTED BY IDOCK:   -4.33 KCAL/MOL
REMARK 924 INTRA-LIGAND FREE ENERGY PREDICTED BY IDOCK:   -0.18 KCAL/MOL
REMARK 927      BINDING AFFINITY PREDICTED BY RF-SCORE:    0.00 PKD
ROOT
HETATM    1  C   UNL     1      -9.532  10.296  63.840  1.00  0.00    -0.302 C  
HETATM    2  N   UNL     1     -10.630  11.050  63.247  1.00  0.00    -0.734 NA 
HETATM    3  H   UNL     1     -11.486  10.496  63.242  1.00  0.00     0.000 HD 
ENDROOT
BRANCH   2   4
HETATM    4  C   UNL     1     -10.860  12.360  63.884  1.00  0.00    -0.420 C  
HETATM    5  C   UNL     1     -12.146  13.020  63.375  1.00  0.00    -0.591 C  
BRANCH   4   6
HETATM    6  C   UNL     1     -10.903  12.140  65.416  1.00  0.00    -0.335 C  
BRANCH   6   7
HETATM    7  C   UNL     1     -11.736  13.197  66.149  1.00  0.00    -0.428 C  
BRANCH   7   8
HETATM    8  C   UNL     1     -11.884  12.911  67.618  1.00  0.00    -0.400 C  
HETATM    9  C   UNL     1     -11.737  13.787  68.630  1.00  0.00    -0.391 C  
HETATM   10  C   UNL     1     -11.287  15.212  68.469  1.00  0.00    -0.321 C  
HETATM   11  C   UNL     1     -12.019  13.377  70.051  1.00  0.00    -0.407 C  
ENDBRANCH   7   8
ENDBRANCH   6   7
ENDBRANCH   4   6
ENDBRANCH   2   4
TORSDOF 4
ENDMDL
MODEL       33
REMARK 921   NORMALIZED FREE ENERGY PREDICTED BY IDOCK:   -3.46 KCAL/MOL
REMARK 922        TOTAL FREE ENERGY PREDICTED BY IDOCK:   -4.51 KCAL/MOL
REMARK 923 INTER-LIGAND FREE ENERGY PREDICTED BY IDOCK:   -4.16 KCAL/MOL
REMARK 924 INTRA-LIGAND FREE ENERGY PREDICTED BY IDOCK:   -0.35 KCAL/MOL
REMARK 927      BINDING AFFINITY PREDICTED BY RF-SCORE:    0.00 PKD
ROOT
HETATM    1  C   UNL     1     -12.276  13.936  66.796  1.00  0.00    -0.399 C  
HETATM    2  N   UNL     1     -12.968  13.866  65.515  1.00  0.00    -0.697 NA 
HETATM    3  H   UNL     1     -13.878  14.324  65.571  1.00  0.00     0.000 HD 
ENDROOT
BRANCH   2   4
HETATM    4  C   UNL     1     -12.183  14.405  64.388  1.00  0.00    -0.458 C  
HETATM    5  C   UNL     1     -10.799  14.886  64.840  1.00  0.00    -0.431 C  
BRANCH   4   6
HETATM    6  C   UNL     1     -12.075  13.297  63.313  1.00  0.00    -0.407 C  
BRANCH   6   7
HETATM    7  C   UNL     1     -12.168  11.884  63.899  1.00  0.00    -0.497 C  
BRANCH   7   8
HETATM    8  C   UNL     1     -10.885  11.110  63.769  1.00  0.00    -0.337 C  
HETATM    9  C   UNL     1     -10.165  10.567  64.769  1.00  0.00    -0.373 C  
HETATM   10  C   UNL     1     -10.471  10.732  66.232  1.00  0.00    -0.287 C  
HETATM   11  C   UNL     1      -8.949   9.728  64.475  1.00  0.00    -0.278 C  
ENDBRANCH   7   8
ENDBRANCH   6   7
ENDBRANCH   4   6
ENDBRANCH   2   4
TORSDOF 4
ENDMDL
MODEL       34
REMARK 921   NORMALIZED FREE ENERGY PREDICTED BY IDOCK:   -3.46 KCAL/MOL
REMARK 922        TOTAL FREE ENERGY PREDICTED BY IDOCK:   -4.51 KCAL/MOL
REMARK 923 INTER-LIGAND FREE ENERGY PREDICTED BY IDOCK:   -4.34 KCAL/MOL
REMARK 924 INTRA-LIGAND FREE ENERGY PREDICTED BY IDOCK:   -0.17 KCAL/MOL
REMARK 927      BINDING AFFINITY PREDICTED BY RF-SCORE:    0.00 PKD
ROOT
HETATM    1  C   UNL     1     -11.035  10.599  67.607  1.00  0.00    -0.310 C  
HETATM    2  N   UNL     1     -11.947  11.729  67.473  1.00  0.00    -0.607 NA 
HETATM    3  H   UNL     1     -12.599  11.759  68.257  1.00  0.00     0.000 HD 
ENDROOT
BRANCH   2   4
HETATM    4  C   UNL     1     -11.263  13.026  67.313  1.00  0.00    -0.289 C  
HETATM    5  C   UNL     1     -11.360  13.545  65.874  1.00  0.00    -0.321 C  
BRANCH   4   6
HETATM    6  C   UNL     1     -11.891  14.019  68.319  1.00  0.00    -0.406 C  
BRANCH   6   7
HETATM    7  C   UNL     1     -11.564  13.682  69.777  1.00  0.00    -0.322 C  
BRANCH   7   8
HETATM    8  C   UNL     1     -12.113  14.689  70.750  1.00  0.00    -0.387 C  
HETATM    9  C   UNL     1     -12.922  14.441  71.799  1.00  0.00    -0.419 C  
HETATM   10  C   UNL     1     -13.512  13.098  72.125  1.00  0.00    -0.653 C  
HETATM   11  C   UNL     1     -13.309  15.543  72.750  1.00  0.00    -0.621 C  
ENDBRANCH   7   8
ENDBRANCH   6   7
ENDBRANCH   4   6
ENDBRANCH   2   4
TORSDOF 4
ENDMDL
MODEL       35
REMARK 921   NORMALIZED FREE ENERGY PREDICTED BY IDOCK:   -3.46 KCAL/MOL
REMARK 922        TOTAL FREE ENERGY PREDICTED BY IDOCK:   -4.51 KCAL/MOL
REMARK 923 INTER-LIGAND FREE ENERGY PREDICTED BY IDOCK:   -4.32 KCAL/MOL
REMARK 924 INTRA-LIGAND FREE ENERGY PREDICTED BY IDOCK:   -0.19 KCAL/MOL
REMARK 927      BINDING AFFINITY PREDICTED BY RF-SCORE:    0.00 PKD
ROOT
HETATM    1  C   UNL     1     -11.607  16.205  64.300  1.00  0.00    -0.062 C  
HETATM    2  N   UNL     1     -12.196  14.984  63.766  1.00  0.00    -1.008 NA 
HETATM    3  H   UNL     1     -11.978  14.882  62.775  1.00  0.00     0.000 HD 
ENDROOT
BRANCH   2   4
HETATM    4  C   UNL     1     -11.816  13.768  64.510  1.00  0.00    -0.417 C  
HETATM    5  C   UNL     1     -12.649  13.601  65.786  1.00  0.00    -0.511 C  
BRANCH   4   6
HETATM    6  C   UNL     1     -11.986  12.559  63.560  1.00  0.00    -0.629 C  
BRANCH   6   7
HETATM    7  C   UNL     1     -10.689  11.770  63.359  1.00  0.00    -0.468 C  
BRANCH   7   8
HETATM    8  C   UNL     1     -10.353  10.885  64.528  1.00  0.00    -0.417 C  
HETATM    9  C   UNL     1      -9.464   9.874  64.547  1.00  0.00    -0.328 C  
HETATM   10  C   UNL     1      -8.710   9.376  63.346  1.00  0.00    -0.219 C  
HETATM   11  C   UNL     1      -9.159   9.140  65.826  1.00  0.00    -0.265 C  
ENDBRANCH   7   8
ENDBRANCH   6   7
ENDBRANCH   4   6
ENDBRANCH   2   4
TORSDOF 4
ENDMDL
MODEL       36
REMARK 921   NORMALIZED FREE ENERGY PREDICTED BY IDOCK:   -3.46 KCAL/MOL
REMARK 922        TOTAL FREE ENERGY PREDICTED BY IDOCK:   -4.51 KCAL/MOL
REMARK 923 INTER-LIGAND FREE ENERGY PREDICTED BY IDOCK:   -4.30 KCAL/MOL
REMARK 924 INTRA-LIGAND FREE ENERGY PREDICTED BY IDOCK:   -0.20 KCAL/MOL
REMARK 927      BINDING AFFINITY PREDICTED BY RF-SCORE:    0.00 PKD
ROOT
HETATM    1  C   UNL     1     -10.933  12.158  65.332  1.00  0.00    -0.302 C  
HETATM    2  N   UNL     1     -11.968  12.432  66.322  1.00  0.00    -0.607 NA 
HETATM    3  H   UNL     1     -12.674  11.697  66.318  1.00  0.00     0.000 HD 
ENDROOT
BRANCH   2   4
HETATM    4  C   UNL     1     -11.443  12.643  67.684  1.00  0.00    -0.334 C  
HETATM    5  C   UNL     1     -11.912  13.978  68.273  1.00  0.00    -0.384 C  
BRANCH   4   6
HETATM    6  C   UNL     1     -11.896  11.448  68.556  1.00  0.00    -0.364 C  
BRANCH   6   7
HETATM    7  C   UNL     1     -11.952  11.784  70.050  1.00  0.00    -0.421 C  
BRANCH   7   8
HETATM    8  C   UNL     1     -12.739  10.781  70.848  1.00  0.00    -0.478 C  
HETATM    9  C   UNL     1     -12.251   9.718  71.515  1.00  0.00    -0.493 C  
HETATM   10  C   UNL     1     -10.813   9.281  71.493  1.00  0.00    -0.442 C  
HETATM   11  C   UNL     1     -13.155   8.857  72.359  1.00  0.00    -0.476 C  
ENDBRANCH   7   8
ENDBRANCH   6   7
ENDBRANCH   4   6
ENDBRANCH   2   4
TORSDOF 4
ENDMDL
MODEL       37
REMARK 921   NORMALIZED FREE ENERGY PREDICTED BY IDOCK:   -3.45 KCAL/MOL
REMARK 922        TOTAL FREE ENERGY PREDICTED BY IDOCK:   -4.49 KCAL/MOL
REMARK 923 INTER-LIGAND FREE ENERGY PREDICTED BY IDOCK:   -4.16 KCAL/MOL
REMARK 924 INTRA-LIGAND FREE ENERGY PREDICTED BY IDOCK:   -0.32 KCAL/MOL
REMARK 927      BINDING AFFINITY PREDICTED BY RF-SCORE:    0.00 PKD
ROOT
HETATM    1  C   UNL     1     -11.654  15.129  71.410  1.00  0.00    -0.373 C  
HETATM    2  N   UNL     1     -11.365  14.040  70.484  1.00  0.00    -0.498 NA 
HETATM    3  H   UNL     1     -11.567  13.138  70.915  1.00  0.00     0.000 HD 
ENDROOT
BRANCH   2   4
HETATM    4  C   UNL     1     -12.058  14.165  69.188  1.00  0.00    -0.325 C  
HETATM    5  C   UNL     1     -11.629  15.429  68.435  1.00  0.00    -0.368 C  
BRANCH   4   6
HETATM    6  C   UNL     1     -11.761  12.887  68.367  1.00  0.00    -0.382 C  
BRANCH   6   7
HETATM    7  C   UNL     1     -10.926  13.163  67.113  1.00  0.00    -0.289 C  
BRANCH   7   8
HETATM    8  C   UNL     1     -11.431  12.430  65.900  1.00  0.00    -0.422 C  
HETATM    9  C   UNL     1     -12.081  12.962  64.847  1.00  0.00    -0.479 C  
HETATM   10  C   UNL     1     -12.518  14.398  64.748  1.00  0.00    -0.371 C  
HETATM   11  C   UNL     1     -12.436  12.116  63.653  1.00  0.00    -0.658 C  
ENDBRANCH   7   8
ENDBRANCH   6   7
ENDBRANCH   4   6
ENDBRANCH   2   4
TORSDOF 4
ENDMDL
MODEL       38
REMARK 921   NORMALIZED FREE ENERGY PREDICTED BY IDOCK:   -3.44 KCAL/MOL
REMARK 922        TOTAL FREE ENERGY PREDICTED BY IDOCK:   -4.48 KCAL/MOL
REMARK 923 INTER-LIGAND FREE ENERGY PREDICTED BY IDOCK:   -4.29 KCAL/MOL
REMARK 924 INTRA-LIGAND FREE ENERGY PREDICTED BY IDOCK:   -0.19 KCAL/MOL
REMARK 927      BINDING AFFINITY PREDICTED BY RF-SCORE:    0.00 PKD
ROOT
HETATM    1  C   UNL     1      -9.535  10.396  63.511  1.00  0.00    -0.312 C  
HETATM    2  N   UNL     1     -10.752  11.132  63.189  1.00  0.00    -0.804 NA 
HETATM    3  H   UNL     1     -11.530  10.491  63.037  1.00  0.00     0.000 HD 
ENDROOT
BRANCH   2   4
HETATM    4  C   UNL     1     -11.107  12.154  64.192  1.00  0.00    -0.364 C  
HETATM    5  C   UNL     1     -12.598  12.506  64.139  1.00  0.00    -0.474 C  
BRANCH   4   6
HETATM    6  C   UNL     1     -10.700  11.614  65.583  1.00  0.00    -0.330 C  
BRANCH   6   7
HETATM    7  C   UNL     1     -11.315  12.411  66.738  1.00  0.00    -0.391 C  
BRANCH   7   8
HETATM    8  C   UNL     1     -11.521  11.584  67.978  1.00  0.00    -0.381 C  
HETATM    9  C   UNL     1     -11.822  12.037  69.210  1.00  0.00    -0.377 C  
HETATM   10  C   UNL     1     -11.906  13.489  69.590  1.00  0.00    -0.398 C  
HETATM   11  C   UNL     1     -12.100  11.078  70.337  1.00  0.00    -0.463 C  
ENDBRANCH   7   8
ENDBRANCH   6   7
ENDBRANCH   4   6
ENDBRANCH   2   4
TORSDOF 4
ENDMDL
MODEL       39
REMARK 921   NORMALIZED FREE ENERGY PREDICTED BY IDOCK:   -3.43 KCAL/MOL
REMARK 922        TOTAL FREE ENERGY PREDICTED BY IDOCK:   -4.47 KCAL/MOL
REMARK 923 INTER-LIGAND FREE ENERGY PREDICTED BY IDOCK:   -4.27 KCAL/MOL
REMARK 924 INTRA-LIGAND FREE ENERGY PREDICTED BY IDOCK:   -0.20 KCAL/MOL
REMARK 927      BINDING AFFINITY PREDICTED BY RF-SCORE:    0.00 PKD
ROOT
HETATM    1  C   UNL     1      -8.159  19.422  68.112  1.00  0.00    -0.319 C  
HETATM    2  N   UNL     1      -8.645  18.165  68.667  1.00  0.00    -0.296 NA 
HETATM    3  H   UNL     1      -8.335  18.054  69.633  1.00  0.00     0.000 HD 
ENDROOT
BRANCH   2   4
HETATM    4  C   UNL     1     -10.107  18.000  68.567  1.00  0.00    -0.393 C  
HETATM    5  C   UNL     1     -10.716  18.952  67.531  1.00  0.00    -0.509 C  
BRANCH   4   6
HETATM    6  C   UNL     1     -10.394  16.521  68.214  1.00  0.00    -0.293 C  
BRANCH   6   7
HETATM    7  C   UNL     1     -11.535  15.919  69.040  1.00  0.00    -0.380 C  
BRANCH   7   8
HETATM    8  C   UNL     1     -11.377  16.154  70.518  1.00  0.00    -0.392 C  
HETATM    9  C   UNL     1     -12.293  15.916  71.476  1.00  0.00    -0.503 C  
HETATM   10  C   UNL     1     -13.702  15.462  71.218  1.00  0.00    -0.558 C  
HETATM   11  C   UNL     1     -11.952  16.105  72.931  1.00  0.00    -0.623 C  
ENDBRANCH   7   8
ENDBRANCH   6   7
ENDBRANCH   4   6
ENDBRANCH   2   4
TORSDOF 4
ENDMDL
MODEL       40
REMARK 921   NORMALIZED FREE ENERGY PREDICTED BY IDOCK:   -3.42 KCAL/MOL
REMARK 922        TOTAL FREE ENERGY PREDICTED BY IDOCK:   -4.45 KCAL/MOL
REMARK 923 INTER-LIGAND FREE ENERGY PREDICTED BY IDOCK:   -4.25 KCAL/MOL
REMARK 924 INTRA-LIGAND FREE ENERGY PREDICTED BY IDOCK:   -0.20 KCAL/MOL
REMARK 927      BINDING AFFINITY PREDICTED BY RF-SCORE:    0.00 PKD
ROOT
HETATM    1  C   UNL     1     -10.631  19.229  66.181  1.00  0.00    -0.459 C  
HETATM    2  N   UNL     1     -10.781  18.115  65.253  1.00  0.00    -0.542 NA 
HETATM    3  H   UNL     1     -10.351  18.334  64.355  1.00  0.00     0.000 HD 
ENDROOT
BRANCH   2   4
HETATM    4  C   UNL     1     -10.270  16.835  65.777  1.00  0.00    -0.291 C  
HETATM    5  C   UNL     1     -10.524  16.696  67.283  1.00  0.00    -0.313 C  
BRANCH   4   6
HETATM    6  C   UNL     1     -10.945  15.693  64.980  1.00  0.00    -0.445 C  
BRANCH   6   7
HETATM    7  C   UNL     1     -11.007  14.376  65.759  1.00  0.00    -0.314 C  
BRANCH   7   8
HETATM    8  C   UNL     1     -10.308  13.244  65.056  1.00  0.00    -0.355 C  
HETATM    9  C   UNL     1     -10.810  12.470  64.075  1.00  0.00    -0.446 C  
HETATM   10  C   UNL     1     -12.225  12.536  63.573  1.00  0.00    -0.652 C  
HETATM   11  C   UNL     1      -9.951  11.438  63.393  1.00  0.00    -0.435 C  
ENDBRANCH   7   8
ENDBRANCH   6   7
ENDBRANCH   4   6
ENDBRANCH   2   4
TORSDOF 4
ENDMDL
MODEL       41
REMARK 921   NORMALIZED FREE ENERGY PREDICTED BY IDOCK:   -3.41 KCAL/MOL
REMARK 922        TOTAL FREE ENERGY PREDICTED BY IDOCK:   -4.44 KCAL/MOL
REMARK 923 INTER-LIGAND FREE ENERGY PREDICTED BY IDOCK:   -4.17 KCAL/MOL
REMARK 924 INTRA-LIGAND FREE ENERGY PREDICTED BY IDOCK:   -0.27 KCAL/MOL
REMARK 927      BINDING AFFINITY PREDICTED BY RF-SCORE:    0.00 PKD
ROOT
HETATM    1  C   UNL     1     -12.329  13.218  65.885  1.00  0.00    -0.418 C  
HETATM    2  N   UNL     1     -12.490  14.220  66.932  1.00  0.00    -0.543 NA 
HETATM    3  H   UNL     1     -12.934  13.812  67.755  1.00  0.00     0.000 HD 
ENDROOT
BRANCH   2   4
HETATM    4  C   UNL     1     -11.233  14.898  67.300  1.00  0.00    -0.345 C  
HETATM    5  C   UNL     1     -10.655  15.697  66.127  1.00  0.00    -0.325 C  
BRANCH   4   6
HETATM    6  C   UNL     1     -11.526  15.808  68.517  1.00  0.00    -0.381 C  
BRANCH   6   7
HETATM    7  C   UNL     1     -10.948  15.261  69.826  1.00  0.00    -0.295 C  
BRANCH   7   8
HETATM    8  C   UNL     1     -12.005  14.956  70.852  1.00  0.00    -0.374 C  
HETATM    9  C   UNL     1     -12.553  13.754  71.114  1.00  0.00    -0.452 C  
HETATM   10  C   UNL     1     -12.271  12.498  70.337  1.00  0.00    -0.368 C  
HETATM   11  C   UNL     1     -13.532  13.584  72.245  1.00  0.00    -0.669 C  
ENDBRANCH   7   8
ENDBRANCH   6   7
ENDBRANCH   4   6
ENDBRANCH   2   4
TORSDOF 4
ENDMDL
MODEL       42
REMARK 921   NORMALIZED FREE ENERGY PREDICTED BY IDOCK:   -3.40 KCAL/MOL
REMARK 922        TOTAL FREE ENERGY PREDICTED BY IDOCK:   -4.43 KCAL/MOL
REMARK 923 INTER-LIGAND FREE ENERGY PREDICTED BY IDOCK:   -4.20 KCAL/MOL
REMARK 924 INTRA-LIGAND FREE ENERGY PREDICTED BY IDOCK:   -0.23 KCAL/MOL
REMARK 927      BINDING AFFINITY PREDICTED BY RF-SCORE:    0.00 PKD
ROOT
HETATM    1  C   UNL     1     -12.525   7.021  71.104  1.00  0.00    -0.362 C  
HETATM    2  N   UNL     1     -13.300   8.250  71.222  1.00  0.00    -0.525 NA 
HETATM    3  H   UNL     1     -14.098   8.115  71.841  1.00  0.00     0.000 HD 
ENDROOT
BRANCH   2   4
HETATM    4  C   UNL     1     -12.500   9.414  71.649  1.00  0.00    -0.378 C  
HETATM    5  C   UNL     1     -11.011   9.068  71.762  1.00  0.00    -0.443 C  
BRANCH   4   6
HETATM    6  C   UNL     1     -12.743  10.554  70.632  1.00  0.00    -0.441 C  
BRANCH   6   7
HETATM    7  C   UNL     1     -11.464  10.997  69.913  1.00  0.00    -0.400 C  
BRANCH   7   8
HETATM    8  C   UNL     1     -11.698  11.367  68.474  1.00  0.00    -0.386 C  
HETATM    9  C   UNL     1     -11.762  12.610  67.960  1.00  0.00    -0.402 C  
HETATM   10  C   UNL     1     -11.713  13.874  68.771  1.00  0.00    -0.392 C  
HETATM   11  C   UNL     1     -11.900  12.823  66.475  1.00  0.00    -0.471 C  
ENDBRANCH   7   8
ENDBRANCH   6   7
ENDBRANCH   4   6
ENDBRANCH   2   4
TORSDOF 4
ENDMDL
MODEL       43
REMARK 921   NORMALIZED FREE ENERGY PREDICTED BY IDOCK:   -3.39 KCAL/MOL
REMARK 922        TOTAL FREE ENERGY PREDICTED BY IDOCK:   -4.42 KCAL/MOL
REMARK 923 INTER-LIGAND FREE ENERGY PREDICTED BY IDOCK:   -4.14 KCAL/MOL
REMARK 924 INTRA-LIGAND FREE ENERGY PREDICTED BY IDOCK:   -0.29 KCAL/MOL
REMARK 927      BINDING AFFINITY PREDICTED BY RF-SCORE:    0.00 PKD
ROOT
HETATM    1  C   UNL     1     -11.506  10.850  68.269  1.00  0.00    -0.305 C  
HETATM    2  N   UNL     1     -12.411  10.512  69.361  1.00  0.00    -0.693 NA 
HETATM    3  H   UNL     1     -12.424   9.505  69.519  1.00  0.00     0.000 HD 
ENDROOT
BRANCH   2   4
HETATM    4  C   UNL     1     -12.120  11.233  70.615  1.00  0.00    -0.383 C  
HETATM    5  C   UNL     1     -12.165  12.752  70.419  1.00  0.00    -0.371 C  
BRANCH   4   6
HETATM    6  C   UNL     1     -13.145  10.767  71.677  1.00  0.00    -0.551 C  
BRANCH   6   7
HETATM    7  C   UNL     1     -13.300   9.244  71.731  1.00  0.00    -0.477 C  
BRANCH   7   8
HETATM    8  C   UNL     1     -12.146   8.561  72.415  1.00  0.00    -0.436 C  
HETATM    9  C   UNL     1     -11.356   7.601  71.899  1.00  0.00    -0.308 C  
HETATM   10  C   UNL     1     -11.557   6.957  70.556  1.00  0.00    -0.396 C  
HETATM   11  C   UNL     1     -10.170   7.083  72.670  1.00  0.00    -0.218 C  
ENDBRANCH   7   8
ENDBRANCH   6   7
ENDBRANCH   4   6
ENDBRANCH   2   4
TORSDOF 4
ENDMDL
MODEL       44
REMARK 921   NORMALIZED FREE ENERGY PREDICTED BY IDOCK:   -3.38 KCAL/MOL
REMARK 922        TOTAL FREE ENERGY PREDICTED BY IDOCK:   -4.41 KCAL/MOL
REMARK 923 INTER-LIGAND FREE ENERGY PREDICTED BY IDOCK:   -4.23 KCAL/MOL
REMARK 924 INTRA-LIGAND FREE ENERGY PREDICTED BY IDOCK:   -0.18 KCAL/MOL
REMARK 927      BINDING AFFINITY PREDICTED BY RF-SCORE:    0.00 PKD
ROOT
HETATM    1  C   UNL     1      -9.714  11.236  63.030  1.00  0.00    -0.366 C  
HETATM    2  N   UNL     1      -9.880  12.556  63.626  1.00  0.00    -0.667 NA 
HETATM    3  H   UNL     1      -9.523  13.280  63.002  1.00  0.00     0.000 HD 
ENDROOT
BRANCH   2   4
HETATM    4  C   UNL     1     -11.267  12.853  64.030  1.00  0.00    -0.412 C  
HETATM    5  C   UNL     1     -12.260  11.852  63.428  1.00  0.00    -0.561 C  
BRANCH   4   6
HETATM    6  C   UNL     1     -11.321  12.847  65.576  1.00  0.00    -0.340 C  
BRANCH   6   7
HETATM    7  C   UNL     1     -12.234  13.936  66.147  1.00  0.00    -0.498 C  
BRANCH   7   8
HETATM    8  C   UNL     1     -11.610  14.683  67.294  1.00  0.00    -0.404 C  
HETATM    9  C   UNL     1     -10.774  15.736  67.212  1.00  0.00    -0.313 C  
HETATM   10  C   UNL     1     -10.225  16.294  65.929  1.00  0.00    -0.384 C  
HETATM   11  C   UNL     1     -10.308  16.448  68.455  1.00  0.00    -0.282 C  
ENDBRANCH   7   8
ENDBRANCH   6   7
ENDBRANCH   4   6
ENDBRANCH   2   4
TORSDOF 4
ENDMDL
MODEL       45
REMARK 921   NORMALIZED FREE ENERGY PREDICTED BY IDOCK:   -3.38 KCAL/MOL
REMARK 922        TOTAL FREE ENERGY PREDICTED BY IDOCK:   -4.41 KCAL/MOL
REMARK 923 INTER-LIGAND FREE ENERGY PREDICTED BY IDOCK:   -4.24 KCAL/MOL
REMARK 924 INTRA-LIGAND FREE ENERGY PREDICTED BY IDOCK:   -0.16 KCAL/MOL
REMARK 927      BINDING AFFINITY PREDICTED BY RF-SCORE:    0.00 PKD
ROOT
HETATM    1  C   UNL     1     -10.800  15.901  65.185  1.00  0.00    -0.421 C  
HETATM    2  N   UNL     1     -10.360  14.641  65.772  1.00  0.00    -0.313 NA 
HETATM    3  H   UNL     1      -9.529  14.782  66.347  1.00  0.00     0.000 HD 
ENDROOT
BRANCH   2   4
HETATM    4  C   UNL     1     -11.412  13.946  66.538  1.00  0.00    -0.348 C  
HETATM    5  C   UNL     1     -11.846  12.645  65.854  1.00  0.00    -0.499 C  
BRANCH   4   6
HETATM    6  C   UNL     1     -10.866  13.684  67.962  1.00  0.00    -0.261 C  
BRANCH   6   7
HETATM    7  C   UNL     1     -11.539  14.550  69.030  1.00  0.00    -0.330 C  
BRANCH   7   8
HETATM    8  C   UNL     1     -12.173  13.741  70.128  1.00  0.00    -0.425 C  
HETATM    9  C   UNL     1     -12.875  14.211  71.177  1.00  0.00    -0.431 C  
HETATM   10  C   UNL     1     -13.063  15.669  71.495  1.00  0.00    -0.561 C  
HETATM   11  C   UNL     1     -13.540  13.268  72.144  1.00  0.00    -0.655 C  
ENDBRANCH   7   8
ENDBRANCH   6   7
ENDBRANCH   4   6
ENDBRANCH   2   4
TORSDOF 4
ENDMDL
MODEL       46
REMARK 921   NORMALIZED FREE ENERGY PREDICTED BY IDOCK:   -3.37 KCAL/MOL
REMARK 922        TOTAL FREE ENERGY PREDICTED BY IDOCK:   -4.40 KCAL/MOL
REMARK 923 INTER-LIGAND FREE ENERGY PREDICTED BY IDOCK:   -4.12 KCAL/MOL
REMARK 924 INTRA-LIGAND FREE ENERGY PREDICTED BY IDOCK:   -0.28 KCAL/MOL
REMARK 927      BINDING AFFINITY PREDICTED BY RF-SCORE:    0.00 PKD
ROOT
HETATM    1  C   UNL     1     -11.552  15.157  64.368  1.00  0.00    -0.271 C  
HETATM    2  N   UNL     1     -12.138  14.123  63.525  1.00  0.00    -0.990 NA 
HETATM    3  H   UNL     1     -11.810  14.214  62.564  1.00  0.00     0.000 HD 
ENDROOT
BRANCH   2   4
HETATM    4  C   UNL     1     -11.912  12.754  64.025  1.00  0.00    -0.447 C  
HETATM    5  C   UNL     1     -12.737  11.722  63.247  1.00  0.00    -0.314 C  
BRANCH   4   6
HETATM    6  C   UNL     1     -10.396  12.458  63.928  1.00  0.00    -0.450 C  
BRANCH   6   7
HETATM    7  C   UNL     1      -9.907  11.483  65.003  1.00  0.00    -0.294 C  
BRANCH   7   8
HETATM    8  C   UNL     1     -10.673  11.598  66.293  1.00  0.00    -0.317 C  
HETATM    9  C   UNL     1     -10.827  10.642  67.229  1.00  0.00    -0.345 C  
HETATM   10  C   UNL     1     -10.334   9.228  67.097  1.00  0.00    -0.330 C  
HETATM   11  C   UNL     1     -11.538  10.939  68.523  1.00  0.00    -0.360 C  
ENDBRANCH   7   8
ENDBRANCH   6   7
ENDBRANCH   4   6
ENDBRANCH   2   4
TORSDOF 4
ENDMDL
MODEL       47
REMARK 921   NORMALIZED FREE ENERGY PREDICTED BY IDOCK:   -3.37 KCAL/MOL
REMARK 922        TOTAL FREE ENERGY PREDICTED BY IDOCK:   -4.39 KCAL/MOL
REMARK 923 INTER-LIGAND FREE ENERGY PREDICTED BY IDOCK:   -4.14 KCAL/MOL
REMARK 924 INTRA-LIGAND FREE ENERGY PREDICTED BY IDOCK:   -0.26 KCAL/MOL
REMARK 927      BINDING AFFINITY PREDICTED BY RF-SCORE:    0.00 PKD
ROOT
HETATM    1  C   UNL     1     -10.571   9.682  71.028  1.00  0.00    -0.292 C  
HETATM    2  N   UNL     1     -10.870  10.777  70.113  1.00  0.00    -0.468 NA 
HETATM    3  H   UNL     1     -10.694  10.498  69.148  1.00  0.00     0.000 HD 
ENDROOT
BRANCH   2   4
HETATM    4  C   UNL     1     -12.236  11.314  70.258  1.00  0.00    -0.345 C  
HETATM    5  C   UNL     1     -12.869  10.901  71.593  1.00  0.00    -0.554 C  
BRANCH   4   6
HETATM    6  C   UNL     1     -12.158  12.853  70.119  1.00  0.00    -0.373 C  
BRANCH   6   7
HETATM    7  C   UNL     1     -11.161  13.306  69.048  1.00  0.00    -0.320 C  
BRANCH   7   8
HETATM    8  C   UNL     1     -11.830  13.902  67.839  1.00  0.00    -0.413 C  
HETATM    9  C   UNL     1     -11.999  13.316  66.639  1.00  0.00    -0.446 C  
HETATM   10  C   UNL     1     -11.445  11.971  66.258  1.00  0.00    -0.408 C  
HETATM   11  C   UNL     1     -12.784  14.001  65.551  1.00  0.00    -0.517 C  
ENDBRANCH   7   8
ENDBRANCH   6   7
ENDBRANCH   4   6
ENDBRANCH   2   4
TORSDOF 4
ENDMDL
MODEL       48
REMARK 921   NORMALIZED FREE ENERGY PREDICTED BY IDOCK:   -3.36 KCAL/MOL
REMARK 922        TOTAL FREE ENERGY PREDICTED BY IDOCK:   -4.38 KCAL/MOL
REMARK 923 INTER-LIGAND FREE ENERGY PREDICTED BY IDOCK:   -4.20 KCAL/MOL
REMARK 924 INTRA-LIGAND FREE ENERGY PREDICTED BY IDOCK:   -0.19 KCAL/MOL
REMARK 927      BINDING AFFINITY PREDICTED BY RF-SCORE:    0.00 PKD
ROOT
HETATM    1  C   UNL     1     -11.156  12.328  63.654  1.00  0.00    -0.469 C  
HETATM    2  N   UNL     1     -10.280  13.410  64.085  1.00  0.00    -0.757 NA 
HETATM    3  H   UNL     1     -10.191  14.115  63.353  1.00  0.00     0.000 HD 
ENDROOT
BRANCH   2   4
HETATM    4  C   UNL     1     -10.690  14.031  65.359  1.00  0.00    -0.337 C  
HETATM    5  C   UNL     1      -9.726  13.679  66.498  1.00  0.00    -0.298 C  
BRANCH   4   6
HETATM    6  C   UNL     1     -10.770  15.560  65.135  1.00  0.00    -0.460 C  
BRANCH   6   7
HETATM    7  C   UNL     1      -9.660  16.329  65.859  1.00  0.00    -0.336 C  
BRANCH   7   8
HETATM    8  C   UNL     1     -10.189  17.381  66.796  1.00  0.00    -0.318 C  
HETATM    9  C   UNL     1      -9.672  18.605  67.011  1.00  0.00    -0.328 C  
HETATM   10  C   UNL     1      -8.386  19.107  66.415  1.00  0.00    -0.326 C  
HETATM   11  C   UNL     1     -10.374  19.591  67.907  1.00  0.00    -0.567 C  
ENDBRANCH   7   8
ENDBRANCH   6   7
ENDBRANCH   4   6
ENDBRANCH   2   4
TORSDOF 4
ENDMDL
MODEL       49
REMARK 921   NORMALIZED FREE ENERGY PREDICTED BY IDOCK:   -3.36 KCAL/MOL
REMARK 922        TOTAL FREE ENERGY PREDICTED BY IDOCK:   -4.38 KCAL/MOL
REMARK 923 INTER-LIGAND FREE ENERGY PREDICTED BY IDOCK:   -4.06 KCAL/MOL
REMARK 924 INTRA-LIGAND FREE ENERGY PREDICTED BY IDOCK:   -0.32 KCAL/MOL
REMARK 927      BINDING AFFINITY PREDICTED BY RF-SCORE:    0.00 PKD
ROOT
HETATM    1  C   UNL     1     -10.046  13.760  68.265  1.00  0.00    -0.239 C  
HETATM    2  N   UNL     1     -10.859  12.912  69.128  1.00  0.00    -0.430 NA 
HETATM    3  H   UNL     1     -11.375  13.476  69.803  1.00  0.00     0.000 HD 
ENDROOT
BRANCH   2   4
HETATM    4  C   UNL     1     -11.770  12.017  68.390  1.00  0.00    -0.332 C  
HETATM    5  C   UNL     1     -11.821  12.365  66.898  1.00  0.00    -0.377 C  
BRANCH   4   6
HETATM    6  C   UNL     1     -11.293  10.563  68.618  1.00  0.00    -0.315 C  
BRANCH   6   7
HETATM    7  C   UNL     1     -10.799  10.313  70.046  1.00  0.00    -0.364 C  
BRANCH   7   8
HETATM    8  C   UNL     1     -11.772   9.517  70.872  1.00  0.00    -0.391 C  
HETATM    9  C   UNL     1     -12.794  10.000  71.605  1.00  0.00    -0.543 C  
HETATM   10  C   UNL     1     -13.083  11.461  71.811  1.00  0.00    -0.523 C  
HETATM   11  C   UNL     1     -13.751   9.068  72.300  1.00  0.00    -0.550 C  
ENDBRANCH   7   8
ENDBRANCH   6   7
ENDBRANCH   4   6
ENDBRANCH   2   4
TORSDOF 4
ENDMDL
MODEL       50
REMARK 921   NORMALIZED FREE ENERGY PREDICTED BY IDOCK:   -3.35 KCAL/MOL
REMARK 922        TOTAL FREE ENERGY PREDICTED BY IDOCK:   -4.36 KCAL/MOL
REMARK 923 INTER-LIGAND FREE ENERGY PREDICTED BY IDOCK:   -4.20 KCAL/MOL
REMARK 924 INTRA-LIGAND FREE ENERGY PREDICTED BY IDOCK:   -0.16 KCAL/MOL
REMARK 927      BINDING AFFINITY PREDICTED BY RF-SCORE:    0.00 PKD
ROOT
HETATM    1  C   UNL     1     -10.621   9.264  69.453  1.00  0.00    -0.223 C  
HETATM    2  N   UNL     1     -11.327   9.967  68.389  1.00  0.00    -0.521 NA 
HETATM    3  H   UNL     1     -12.046   9.372  67.978  1.00  0.00     0.000 HD 
ENDROOT
BRANCH   2   4
HETATM    4  C   UNL     1     -11.900  11.259  68.812  1.00  0.00    -0.329 C  
HETATM    5  C   UNL     1     -11.994  11.365  70.338  1.00  0.00    -0.465 C  
BRANCH   4   6
HETATM    6  C   UNL     1     -11.020  12.385  68.218  1.00  0.00    -0.269 C  
BRANCH   6   7
HETATM    7  C   UNL     1     -11.764  13.250  67.196  1.00  0.00    -0.425 C  
BRANCH   7   8
HETATM    8  C   UNL     1     -12.134  12.495  65.948  1.00  0.00    -0.420 C  
HETATM    9  C   UNL     1     -12.328  13.012  64.720  1.00  0.00    -0.490 C  
HETATM   10  C   UNL     1     -12.308  14.480  64.396  1.00  0.00    -0.437 C  
HETATM   11  C   UNL     1     -12.595  12.115  63.540  1.00  0.00    -0.621 C  
ENDBRANCH   7   8
ENDBRANCH   6   7
ENDBRANCH   4   6
ENDBRANCH   2   4
TORSDOF 4
ENDMDL
MODEL       51
REMARK 921   NORMALIZED FREE ENERGY PREDICTED BY IDOCK:   -3.32 KCAL/MOL
REMARK 922        TOTAL FREE ENERGY PREDICTED BY IDOCK:   -4.33 KCAL/MOL
REMARK 923 INTER-LIGAND FREE ENERGY PREDICTED BY IDOCK:   -4.14 KCAL/MOL
REMARK 924 INTRA-LIGAND FREE ENERGY PREDICTED BY IDOCK:   -0.19 KCAL/MOL
REMARK 927      BINDING AFFINITY PREDICTED BY RF-SCORE:    0.00 PKD
ROOT
HETATM    1  C   UNL     1     -10.542  18.528  67.615  1.00  0.00    -0.414 C  
HETATM    2  N   UNL     1     -10.454  18.054  68.991  1.00  0.00    -0.414 NA 
HETATM    3  H   UNL     1     -11.219  18.430  69.551  1.00  0.00     0.000 HD 
ENDROOT
BRANCH   2   4
HETATM    4  C   UNL     1     -10.396  16.585  69.107  1.00  0.00    -0.316 C  
HETATM    5  C   UNL     1      -8.955  16.066  69.027  1.00  0.00    -0.244 C  
BRANCH   4   6
HETATM    6  C   UNL     1     -11.067  16.189  70.444  1.00  0.00    -0.362 C  
BRANCH   6   7
HETATM    7  C   UNL     1     -12.383  15.429  70.251  1.00  0.00    -0.425 C  
BRANCH   7   8
HETATM    8  C   UNL     1     -12.238  13.945  70.449  1.00  0.00    -0.438 C  
HETATM    9  C   UNL     1     -12.879  13.185  71.358  1.00  0.00    -0.401 C  
HETATM   10  C   UNL     1     -13.794  13.718  72.425  1.00  0.00    -0.681 C  
HETATM   11  C   UNL     1     -12.708  11.689  71.370  1.00  0.00    -0.445 C  
ENDBRANCH   7   8
ENDBRANCH   6   7
ENDBRANCH   4   6
ENDBRANCH   2   4
TORSDOF 4
ENDMDL
MODEL       52
REMARK 921   NORMALIZED FREE ENERGY PREDICTED BY IDOCK:   -3.29 KCAL/MOL
REMARK 922        TOTAL FREE ENERGY PREDICTED BY IDOCK:   -4.29 KCAL/MOL
REMARK 923 INTER-LIGAND FREE ENERGY PREDICTED BY IDOCK:   -4.07 KCAL/MOL
REMARK 924 INTRA-LIGAND FREE ENERGY PREDICTED BY IDOCK:   -0.22 KCAL/MOL
REMARK 927      BINDING AFFINITY PREDICTED BY RF-SCORE:    0.00 PKD
ROOT
HETATM    1  C   UNL     1     -11.107  15.258  65.251  1.00  0.00    -0.376 C  
HETATM    2  N   UNL     1     -11.334  14.704  66.581  1.00  0.00    -0.350 NA 
HETATM    3  H   UNL     1     -11.660  15.428  67.221  1.00  0.00     0.000 HD 
ENDROOT
BRANCH   2   4
HETATM    4  C   UNL     1     -12.250  13.548  66.592  1.00  0.00    -0.358 C  
HETATM    5  C   UNL     1     -12.643  13.122  65.173  1.00  0.00    -0.525 C  
BRANCH   4   6
HETATM    6  C   UNL     1     -11.551  12.399  67.357  1.00  0.00    -0.433 C  
BRANCH   6   7
HETATM    7  C   UNL     1     -10.973  12.842  68.705  1.00  0.00    -0.295 C  
BRANCH   7   8
HETATM    8  C   UNL     1     -11.970  12.756  69.828  1.00  0.00    -0.362 C  
HETATM    9  C   UNL     1     -12.175  11.707  70.647  1.00  0.00    -0.461 C  
HETATM   10  C   UNL     1     -11.498  10.372  70.513  1.00  0.00    -0.431 C  
HETATM   11  C   UNL     1     -13.143  11.806  71.797  1.00  0.00    -0.480 C  
ENDBRANCH   7   8
ENDBRANCH   6   7
ENDBRANCH   4   6
ENDBRANCH   2   4
TORSDOF 4
ENDMDL
MODEL       53
REMARK 921   NORMALIZED FREE ENERGY PREDICTED BY IDOCK:   -3.28 KCAL/MOL
REMARK 922        TOTAL FREE ENERGY PREDICTED BY IDOCK:   -4.28 KCAL/MOL
REMARK 923 INTER-LIGAND FREE ENERGY PREDICTED BY IDOCK:   -4.15 KCAL/MOL
REMARK 924 INTRA-LIGAND FREE ENERGY PREDICTED BY IDOCK:   -0.13 KCAL/MOL
REMARK 927      BINDING AFFINITY PREDICTED BY RF-SCORE:    0.00 PKD
ROOT
HETATM    1  C   UNL     1     -13.766  13.318  72.224  1.00  0.00    -0.589 C  
HETATM    2  N   UNL     1     -12.669  13.239  71.267  1.00  0.00    -0.358 NA 
HETATM    3  H   UNL     1     -12.635  12.316  70.835  1.00  0.00     0.000 HD 
ENDROOT
BRANCH   2   4
HETATM    4  C   UNL     1     -12.704  14.295  70.239  1.00  0.00    -0.249 C  
HETATM    5  C   UNL     1     -12.416  15.678  70.835  1.00  0.00    -0.497 C  
BRANCH   4   6
HETATM    6  C   UNL     1     -11.674  13.925  69.144  1.00  0.00    -0.382 C  
BRANCH   6   7
HETATM    7  C   UNL     1     -12.013  14.524  67.776  1.00  0.00    -0.345 C  
BRANCH   7   8
HETATM    8  C   UNL     1     -12.359  13.482  66.748  1.00  0.00    -0.326 C  
HETATM    9  C   UNL     1     -12.247  13.598  65.411  1.00  0.00    -0.474 C  
HETATM   10  C   UNL     1     -11.845  14.855  64.692  1.00  0.00    -0.412 C  
HETATM   11  C   UNL     1     -12.536  12.426  64.510  1.00  0.00    -0.519 C  
ENDBRANCH   7   8
ENDBRANCH   6   7
ENDBRANCH   4   6
ENDBRANCH   2   4
TORSDOF 4
ENDMDL
MODEL       54
REMARK 921   NORMALIZED FREE ENERGY PREDICTED BY IDOCK:   -3.28 KCAL/MOL
REMARK 922        TOTAL FREE ENERGY PREDICTED BY IDOCK:   -4.28 KCAL/MOL
REMARK 923 INTER-LIGAND FREE ENERGY PREDICTED BY IDOCK:   -4.10 KCAL/MOL
REMARK 924 INTRA-LIGAND FREE ENERGY PREDICTED BY IDOCK:   -0.19 KCAL/MOL
REMARK 927      BINDING AFFINITY PREDICTED BY RF-SCORE:    0.00 PKD
ROOT
HETATM    1  C   UNL     1     -10.317   7.366  73.636  1.00  0.00    -0.316 C  
HETATM    2  N   UNL     1     -11.637   7.654  73.089  1.00  0.00    -0.636 NA 
HETATM    3  H   UNL     1     -12.192   8.194  73.753  1.00  0.00     0.000 HD 
ENDROOT
BRANCH   2   4
HETATM    4  C   UNL     1     -11.600   8.324  71.775  1.00  0.00    -0.299 C  
HETATM    5  C   UNL     1     -11.385   7.323  70.634  1.00  0.00    -0.311 C  
BRANCH   4   6
HETATM    6  C   UNL     1     -12.925   9.104  71.604  1.00  0.00    -0.431 C  
BRANCH   6   7
HETATM    7  C   UNL     1     -12.718  10.618  71.490  1.00  0.00    -0.549 C  
BRANCH   7   8
HETATM    8  C   UNL     1     -12.212  11.040  70.137  1.00  0.00    -0.424 C  
HETATM    9  C   UNL     1     -11.977  12.298  69.720  1.00  0.00    -0.365 C  
HETATM   10  C   UNL     1     -12.284  13.535  70.517  1.00  0.00    -0.433 C  
HETATM   11  C   UNL     1     -11.370  12.560  68.366  1.00  0.00    -0.333 C  
ENDBRANCH   7   8
ENDBRANCH   6   7
ENDBRANCH   4   6
ENDBRANCH   2   4
TORSDOF 4
ENDMDL
MODEL       55
REMARK 921   NORMALIZED FREE ENERGY PREDICTED BY IDOCK:   -3.27 KCAL/MOL
REMARK 922        TOTAL FREE ENERGY PREDICTED BY IDOCK:   -4.27 KCAL/MOL
REMARK 923 INTER-LIGAND FREE ENERGY PREDICTED BY IDOCK:   -4.05 KCAL/MOL
REMARK 924 INTRA-LIGAND FREE ENERGY PREDICTED BY IDOCK:   -0.23 KCAL/MOL
REMARK 927      BINDING AFFINITY PREDICTED BY RF-SCORE:    0.00 PKD
ROOT
HETATM    1  C   UNL     1     -12.682  14.535  70.735  1.00  0.00    -0.360 C  
HETATM    2  N   UNL     1     -11.563  13.789  70.173  1.00  0.00    -0.480 NA 
HETATM    3  H   UNL     1     -11.807  12.806  70.057  1.00  0.00     0.000 HD 
ENDROOT
BRANCH   2   4
HETATM    4  C   UNL     1     -11.051  14.352  68.909  1.00  0.00    -0.259 C  
HETATM    5  C   UNL     1     -11.770  13.760  67.692  1.00  0.00    -0.402 C  
BRANCH   4   6
HETATM    6  C   UNL     1     -11.218  15.889  68.974  1.00  0.00    -0.327 C  
BRANCH   6   7
HETATM    7  C   UNL     1      -9.998  16.646  68.440  1.00  0.00    -0.255 C  
BRANCH   7   8
HETATM    8  C   UNL     1     -10.330  17.553  67.285  1.00  0.00    -0.337 C  
HETATM    9  C   UNL     1     -10.358  18.899  67.298  1.00  0.00    -0.486 C  
HETATM   10  C   UNL     1     -10.158  19.747  68.523  1.00  0.00    -0.555 C  
HETATM   11  C   UNL     1     -10.608  19.676  66.032  1.00  0.00    -0.584 C  
ENDBRANCH   7   8
ENDBRANCH   6   7
ENDBRANCH   4   6
ENDBRANCH   2   4
TORSDOF 4
ENDMDL
MODEL       56
REMARK 921   NORMALIZED FREE ENERGY PREDICTED BY IDOCK:   -3.27 KCAL/MOL
REMARK 922        TOTAL FREE ENERGY PREDICTED BY IDOCK:   -4.27 KCAL/MOL
REMARK 923 INTER-LIGAND FREE ENERGY PREDICTED BY IDOCK:   -4.10 KCAL/MOL
REMARK 924 INTRA-LIGAND FREE ENERGY PREDICTED BY IDOCK:   -0.17 KCAL/MOL
REMARK 927      BINDING AFFINITY PREDICTED BY RF-SCORE:    0.00 PKD
ROOT
HETATM    1  C   UNL     1     -10.382  19.519  66.361  1.00  0.00    -0.496 C  
HETATM    2  N   UNL     1      -9.733  18.305  65.881  1.00  0.00    -0.507 NA 
HETATM    3  H   UNL     1      -8.741  18.309  66.118  1.00  0.00     0.000 HD 
ENDROOT
BRANCH   2   4
HETATM    4  C   UNL     1     -10.375  17.064  66.354  1.00  0.00    -0.303 C  
HETATM    5  C   UNL     1      -9.466  15.845  66.162  1.00  0.00    -0.375 C  
BRANCH   4   6
HETATM    6  C   UNL     1     -10.751  17.263  67.842  1.00  0.00    -0.351 C  
BRANCH   6   7
HETATM    7  C   UNL     1     -11.021  15.943  68.572  1.00  0.00    -0.324 C  
BRANCH   7   8
HETATM    8  C   UNL     1     -11.213  16.121  70.054  1.00  0.00    -0.359 C  
HETATM    9  C   UNL     1     -11.664  15.200  70.926  1.00  0.00    -0.378 C  
HETATM   10  C   UNL     1     -12.165  13.835  70.545  1.00  0.00    -0.440 C  
HETATM   11  C   UNL     1     -11.706  15.493  72.403  1.00  0.00    -0.570 C  
ENDBRANCH   7   8
ENDBRANCH   6   7
ENDBRANCH   4   6
ENDBRANCH   2   4
TORSDOF 4
ENDMDL
MODEL       57
REMARK 921   NORMALIZED FREE ENERGY PREDICTED BY IDOCK:   -3.27 KCAL/MOL
REMARK 922        TOTAL FREE ENERGY PREDICTED BY IDOCK:   -4.26 KCAL/MOL
REMARK 923 INTER-LIGAND FREE ENERGY PREDICTED BY IDOCK:   -4.09 KCAL/MOL
REMARK 924 INTRA-LIGAND FREE ENERGY PREDICTED BY IDOCK:   -0.17 KCAL/MOL
REMARK 927      BINDING AFFINITY PREDICTED BY RF-SCORE:    0.00 PKD
ROOT
HETATM    1  C   UNL     1     -10.591  19.436  66.594  1.00  0.00    -0.467 C  
HETATM    2  N   UNL     1     -10.100  18.063  66.581  1.00  0.00    -0.353 NA 
HETATM    3  H   UNL     1      -9.402  17.937  65.848  1.00  0.00     0.000 HD 
ENDROOT
BRANCH   2   4
HETATM    4  C   UNL     1      -9.575  17.610  67.883  1.00  0.00    -0.282 C  
HETATM    5  C   UNL     1      -8.667  18.663  68.526  1.00  0.00    -0.362 C  
BRANCH   4   6
HETATM    6  C   UNL     1     -10.784  17.273  68.789  1.00  0.00    -0.247 C  
BRANCH   6   7
HETATM    7  C   UNL     1     -10.698  15.873  69.405  1.00  0.00    -0.272 C  
BRANCH   7   8
HETATM    8  C   UNL     1     -12.022  15.375  69.916  1.00  0.00    -0.384 C  
HETATM    9  C   UNL     1     -12.542  15.575  71.142  1.00  0.00    -0.509 C  
HETATM   10  C   UNL     1     -11.826  16.260  72.273  1.00  0.00    -0.601 C  
HETATM   11  C   UNL     1     -13.931  15.100  71.477  1.00  0.00    -0.614 C  
ENDBRANCH   7   8
ENDBRANCH   6   7
ENDBRANCH   4   6
ENDBRANCH   2   4
TORSDOF 4
ENDMDL
MODEL       58
REMARK 921   NORMALIZED FREE ENERGY PREDICTED BY IDOCK:   -3.26 KCAL/MOL
REMARK 922        TOTAL FREE ENERGY PREDICTED BY IDOCK:   -4.26 KCAL/MOL
REMARK 923 INTER-LIGAND FREE ENERGY PREDICTED BY IDOCK:   -3.95 KCAL/MOL
REMARK 924 INTRA-LIGAND FREE ENERGY PREDICTED BY IDOCK:   -0.31 KCAL/MOL
REMARK 927      BINDING AFFINITY PREDICTED BY RF-SCORE:    0.00 PKD
ROOT
HETATM    1  C   UNL     1     -12.496  10.105  71.397  1.00  0.00    -0.423 C  
HETATM    2  N   UNL     1     -12.609  10.362  69.966  1.00  0.00    -0.538 NA 
HETATM    3  H   UNL     1     -13.365  11.020  69.778  1.00  0.00     0.000 HD 
ENDROOT
BRANCH   2   4
HETATM    4  C   UNL     1     -11.352  10.821  69.346  1.00  0.00    -0.285 C  
HETATM    5  C   UNL     1     -10.770   9.767  68.397  1.00  0.00    -0.262 C  
BRANCH   4   6
HETATM    6  C   UNL     1     -11.646  12.149  68.608  1.00  0.00    -0.372 C  
BRANCH   6   7
HETATM    7  C   UNL     1     -10.721  12.384  67.409  1.00  0.00    -0.257 C  
BRANCH   7   8
HETATM    8  C   UNL     1     -11.470  12.706  66.145  1.00  0.00    -0.413 C  
HETATM    9  C   UNL     1     -11.357  12.080  64.958  1.00  0.00    -0.365 C  
HETATM   10  C   UNL     1     -10.363  10.993  64.655  1.00  0.00    -0.410 C  
HETATM   11  C   UNL     1     -12.252  12.450  63.804  1.00  0.00    -0.626 C  
ENDBRANCH   7   8
ENDBRANCH   6   7
ENDBRANCH   4   6
ENDBRANCH   2   4
TORSDOF 4
ENDMDL
MODEL       59
REMARK 921   NORMALIZED FREE ENERGY PREDICTED BY IDOCK:   -3.26 KCAL/MOL
REMARK 922        TOTAL FREE ENERGY PREDICTED BY IDOCK:   -4.26 KCAL/MOL
REMARK 923 INTER-LIGAND FREE ENERGY PREDICTED BY IDOCK:   -4.10 KCAL/MOL
REMARK 924 INTRA-LIGAND FREE ENERGY PREDICTED BY IDOCK:   -0.16 KCAL/MOL
REMARK 927      BINDING AFFINITY PREDICTED BY RF-SCORE:    0.00 PKD
ROOT
HETATM    1  C   UNL     1      -9.682  11.671  65.674  1.00  0.00    -0.236 C  
HETATM    2  N   UNL     1      -9.974  13.100  65.703  1.00  0.00    -0.391 NA 
HETATM    3  H   UNL     1     -10.120  13.456  64.759  1.00  0.00     0.000 HD 
ENDROOT
BRANCH   2   4
HETATM    4  C   UNL     1     -11.109  13.453  66.576  1.00  0.00    -0.297 C  
HETATM    5  C   UNL     1     -12.372  13.765  65.766  1.00  0.00    -0.523 C  
BRANCH   4   6
HETATM    6  C   UNL     1     -11.339  12.276  67.554  1.00  0.00    -0.388 C  
BRANCH   6   7
HETATM    7  C   UNL     1     -11.553  12.733  69.001  1.00  0.00    -0.366 C  
BRANCH   7   8
HETATM    8  C   UNL     1     -11.902  11.601  69.928  1.00  0.00    -0.434 C  
HETATM    9  C   UNL     1     -12.593  11.685  71.081  1.00  0.00    -0.439 C  
HETATM   10  C   UNL     1     -13.059  12.970  71.707  1.00  0.00    -0.469 C  
HETATM   11  C   UNL     1     -12.955  10.444  71.854  1.00  0.00    -0.555 C  
ENDBRANCH   7   8
ENDBRANCH   6   7
ENDBRANCH   4   6
ENDBRANCH   2   4
TORSDOF 4
ENDMDL
MODEL       60
REMARK 921   NORMALIZED FREE ENERGY PREDICTED BY IDOCK:   -3.26 KCAL/MOL
REMARK 922        TOTAL FREE ENERGY PREDICTED BY IDOCK:   -4.25 KCAL/MOL
REMARK 923 INTER-LIGAND FREE ENERGY PREDICTED BY IDOCK:   -3.92 KCAL/MOL
REMARK 924 INTRA-LIGAND FREE ENERGY PREDICTED BY IDOCK:   -0.33 KCAL/MOL
REMARK 927      BINDING AFFINITY PREDICTED BY RF-SCORE:    0.00 PKD
ROOT
HETATM    1  C   UNL     1     -10.724  17.047  68.167  1.00  0.00    -0.374 C  
HETATM    2  N   UNL     1     -10.519  17.893  66.998  1.00  0.00    -0.358 NA 
HETATM    3  H   UNL     1     -11.155  17.628  66.246  1.00  0.00     0.000 HD 
ENDROOT
BRANCH   2   4
HETATM    4  C   UNL     1     -10.625  19.336  67.285  1.00  0.00    -0.484 C  
HETATM    5  C   UNL     1     -10.264  19.652  68.741  1.00  0.00    -0.460 C  
BRANCH   4   6
HETATM    6  C   UNL     1      -9.701  20.085  66.296  1.00  0.00    -0.546 C  
BRANCH   6   7
HETATM    7  C   UNL     1      -8.287  19.499  66.238  1.00  0.00    -0.359 C  
BRANCH   7   8
HETATM    8  C   UNL     1      -7.265  20.365  66.925  1.00  0.00    -0.333 C  
HETATM    9  C   UNL     1      -6.589  20.076  68.053  1.00  0.00    -0.302 C  
HETATM   10  C   UNL     1      -6.819  18.853  68.898  1.00  0.00    -0.329 C  
HETATM   11  C   UNL     1      -5.518  21.000  68.567  1.00  0.00    -0.376 C  
ENDBRANCH   7   8
ENDBRANCH   6   7
ENDBRANCH   4   6
ENDBRANCH   2   4
TORSDOF 4
ENDMDL
MODEL       61
REMARK 921   NORMALIZED FREE ENERGY PREDICTED BY IDOCK:   -3.25 KCAL/MOL
REMARK 922        TOTAL FREE ENERGY PREDICTED BY IDOCK:   -4.25 KCAL/MOL
REMARK 923 INTER-LIGAND FREE ENERGY PREDICTED BY IDOCK:   -3.81 KCAL/MOL
REMARK 924 INTRA-LIGAND FREE ENERGY PREDICTED BY IDOCK:   -0.44 KCAL/MOL
REMARK 927      BINDING AFFINITY PREDICTED BY RF-SCORE:    0.00 PKD
ROOT
HETATM    1  C   UNL     1      -9.114  15.932  66.034  1.00  0.00    -0.328 C  
HETATM    2  N   UNL     1      -9.821  14.812  65.426  1.00  0.00    -0.466 NA 
HETATM    3  H   UNL     1      -9.402  13.926  65.709  1.00  0.00     0.000 HD 
ENDROOT
BRANCH   2   4
HETATM    4  C   UNL     1     -11.271  14.811  65.695  1.00  0.00    -0.343 C  
HETATM    5  C   UNL     1     -12.087  14.669  64.405  1.00  0.00    -0.481 C  
BRANCH   4   6
HETATM    6  C   UNL     1     -11.569  13.659  66.684  1.00  0.00    -0.391 C  
BRANCH   6   7
HETATM    7  C   UNL     1     -12.032  12.376  65.987  1.00  0.00    -0.419 C  
BRANCH   7   8
HETATM    8  C   UNL     1     -10.995  11.287  66.013  1.00  0.00    -0.237 C  
HETATM    9  C   UNL     1     -10.238  10.867  64.982  1.00  0.00    -0.367 C  
HETATM   10  C   UNL     1     -10.375  11.355  63.566  1.00  0.00    -0.476 C  
HETATM   11  C   UNL     1      -9.164   9.831  65.186  1.00  0.00    -0.297 C  
ENDBRANCH   7   8
ENDBRANCH   6   7
ENDBRANCH   4   6
ENDBRANCH   2   4
TORSDOF 4
ENDMDL
MODEL       62
REMARK 921   NORMALIZED FREE ENERGY PREDICTED BY IDOCK:   -3.25 KCAL/MOL
REMARK 922        TOTAL FREE ENERGY PREDICTED BY IDOCK:   -4.25 KCAL/MOL
REMARK 923 INTER-LIGAND FREE ENERGY PREDICTED BY IDOCK:   -4.03 KCAL/MOL
REMARK 924 INTRA-LIGAND FREE ENERGY PREDICTED BY IDOCK:   -0.21 KCAL/MOL
REMARK 927      BINDING AFFINITY PREDICTED BY RF-SCORE:    0.00 PKD
ROOT
HETATM    1  C   UNL     1     -10.813  15.571  70.158  1.00  0.00    -0.331 C  
HETATM    2  N   UNL     1     -10.733  14.674  69.012  1.00  0.00    -0.244 NA 
HETATM    3  H   UNL     1      -9.885  14.108  69.056  1.00  0.00     0.000 HD 
ENDROOT
BRANCH   2   4
HETATM    4  C   UNL     1     -11.923  13.819  68.845  1.00  0.00    -0.359 C  
HETATM    5  C   UNL     1     -11.730  12.790  67.726  1.00  0.00    -0.412 C  
BRANCH   4   6
HETATM    6  C   UNL     1     -12.206  13.134  70.203  1.00  0.00    -0.360 C  
BRANCH   6   7
HETATM    7  C   UNL     1     -11.848  11.644  70.208  1.00  0.00    -0.414 C  
BRANCH   7   8
HETATM    8  C   UNL     1     -12.874  10.796  70.909  1.00  0.00    -0.443 C  
HETATM    9  C   UNL     1     -12.641   9.704  71.661  1.00  0.00    -0.493 C  
HETATM   10  C   UNL     1     -11.293   9.067  71.851  1.00  0.00    -0.438 C  
HETATM   11  C   UNL     1     -13.767   9.015  72.387  1.00  0.00    -0.539 C  
ENDBRANCH   7   8
ENDBRANCH   6   7
ENDBRANCH   4   6
ENDBRANCH   2   4
TORSDOF 4
ENDMDL
MODEL       63
REMARK 921   NORMALIZED FREE ENERGY PREDICTED BY IDOCK:   -3.25 KCAL/MOL
REMARK 922        TOTAL FREE ENERGY PREDICTED BY IDOCK:   -4.24 KCAL/MOL
REMARK 923 INTER-LIGAND FREE ENERGY PREDICTED BY IDOCK:   -4.01 KCAL/MOL
REMARK 924 INTRA-LIGAND FREE ENERGY PREDICTED BY IDOCK:   -0.23 KCAL/MOL
REMARK 927      BINDING AFFINITY PREDICTED BY RF-SCORE:    0.00 PKD
ROOT
HETATM    1  C   UNL     1      -7.286  19.607  65.861  1.00  0.00    -0.300 C  
HETATM    2  N   UNL     1      -8.117  18.429  66.077  1.00  0.00    -0.498 NA 
HETATM    3  H   UNL     1      -7.583  17.691  66.535  1.00  0.00     0.000 HD 
ENDROOT
BRANCH   2   4
HETATM    4  C   UNL     1      -9.360  18.711  66.820  1.00  0.00    -0.308 C  
HETATM    5  C   UNL     1     -10.194  19.802  66.138  1.00  0.00    -0.618 C  
BRANCH   4   6
HETATM    6  C   UNL     1     -10.150  17.385  66.941  1.00  0.00    -0.314 C  
BRANCH   6   7
HETATM    7  C   UNL     1      -9.612  16.283  66.024  1.00  0.00    -0.371 C  
BRANCH   7   8
HETATM    8  C   UNL     1     -10.686  15.631  65.197  1.00  0.00    -0.463 C  
HETATM    9  C   UNL     1     -10.935  14.312  65.091  1.00  0.00    -0.369 C  
HETATM   10  C   UNL     1     -10.097  13.231  65.714  1.00  0.00    -0.293 C  
HETATM   11  C   UNL     1     -12.117  13.812  64.302  1.00  0.00    -0.481 C  
ENDBRANCH   7   8
ENDBRANCH   6   7
ENDBRANCH   4   6
ENDBRANCH   2   4
TORSDOF 4
ENDMDL
MODEL       64
REMARK 921   NORMALIZED FREE ENERGY PREDICTED BY IDOCK:   -3.24 KCAL/MOL
REMARK 922        TOTAL FREE ENERGY PREDICTED BY IDOCK:   -4.24 KCAL/MOL
REMARK 923 INTER-LIGAND FREE ENERGY PREDICTED BY IDOCK:   -3.93 KCAL/MOL
REMARK 924 INTRA-LIGAND FREE ENERGY PREDICTED BY IDOCK:   -0.31 KCAL/MOL
REMARK 927      BINDING AFFINITY PREDICTED BY RF-SCORE:    0.00 PKD
ROOT
HETATM    1  C   UNL     1      -8.421  12.777  68.119  1.00  0.00    -0.177 C  
HETATM    2  N   UNL     1      -9.757  13.084  68.616  1.00  0.00    -0.403 NA 
HETATM    3  H   UNL     1      -9.877  14.091  68.727  1.00  0.00     0.000 HD 
ENDROOT
BRANCH   2   4
HETATM    4  C   UNL     1     -10.840  12.518  67.791  1.00  0.00    -0.225 C  
HETATM    5  C   UNL     1     -11.557  11.368  68.507  1.00  0.00    -0.384 C  
BRANCH   4   6
HETATM    6  C   UNL     1     -11.817  13.665  67.440  1.00  0.00    -0.429 C  
BRANCH   6   7
HETATM    7  C   UNL     1     -12.053  13.810  65.933  1.00  0.00    -0.464 C  
BRANCH   7   8
HETATM    8  C   UNL     1     -11.020  13.094  65.106  1.00  0.00    -0.317 C  
HETATM    9  C   UNL     1     -11.241  12.347  64.008  1.00  0.00    -0.458 C  
HETATM   10  C   UNL     1     -12.601  12.006  63.465  1.00  0.00    -0.625 C  
HETATM   11  C   UNL     1     -10.091  11.775  63.222  1.00  0.00    -0.448 C  
ENDBRANCH   7   8
ENDBRANCH   6   7
ENDBRANCH   4   6
ENDBRANCH   2   4
TORSDOF 4
ENDMDL
MODEL       65
REMARK 921   NORMALIZED FREE ENERGY PREDICTED BY IDOCK:   -3.21 KCAL/MOL
REMARK 922        TOTAL FREE ENERGY PREDICTED BY IDOCK:   -4.20 KCAL/MOL
REMARK 923 INTER-LIGAND FREE ENERGY PREDICTED BY IDOCK:   -4.01 KCAL/MOL
REMARK 924 INTRA-LIGAND FREE ENERGY PREDICTED BY IDOCK:   -0.18 KCAL/MOL
REMARK 927      BINDING AFFINITY PREDICTED BY RF-SCORE:    0.00 PKD
ROOT
HETATM    1  C   UNL     1     -11.791   7.089  72.187  1.00  0.00    -0.275 C  
HETATM    2  N   UNL     1     -12.013   8.514  72.403  1.00  0.00    -0.380 NA 
HETATM    3  H   UNL     1     -11.134   9.029  72.338  1.00  0.00     0.000 HD 
ENDROOT
BRANCH   2   4
HETATM    4  C   UNL     1     -13.026   9.097  71.504  1.00  0.00    -0.346 C  
HETATM    5  C   UNL     1     -14.400   8.445  71.699  1.00  0.00    -0.536 C  
BRANCH   4   6
HETATM    6  C   UNL     1     -13.077  10.620  71.773  1.00  0.00    -0.571 C  
BRANCH   6   7
HETATM    7  C   UNL     1     -12.353  11.442  70.702  1.00  0.00    -0.466 C  
BRANCH   7   8
HETATM    8  C   UNL     1     -11.693  10.588  69.655  1.00  0.00    -0.328 C  
HETATM    9  C   UNL     1     -11.353  10.960  68.406  1.00  0.00    -0.370 C  
HETATM   10  C   UNL     1     -11.676  12.294  67.793  1.00  0.00    -0.403 C  
HETATM   11  C   UNL     1     -10.601  10.021  67.500  1.00  0.00    -0.336 C  
ENDBRANCH   7   8
ENDBRANCH   6   7
ENDBRANCH   4   6
ENDBRANCH   2   4
TORSDOF 4
ENDMDL
MODEL       66
REMARK 921   NORMALIZED FREE ENERGY PREDICTED BY IDOCK:   -3.20 KCAL/MOL
REMARK 922        TOTAL FREE ENERGY PREDICTED BY IDOCK:   -4.18 KCAL/MOL
REMARK 923 INTER-LIGAND FREE ENERGY PREDICTED BY IDOCK:   -3.91 KCAL/MOL
REMARK 924 INTRA-LIGAND FREE ENERGY PREDICTED BY IDOCK:   -0.27 KCAL/MOL
REMARK 927      BINDING AFFINITY PREDICTED BY RF-SCORE:    0.00 PKD
ROOT
HETATM    1  C   UNL     1     -13.133  11.045  71.519  1.00  0.00    -0.396 C  
HETATM    2  N   UNL     1     -13.332   9.697  71.001  1.00  0.00    -0.565 NA 
HETATM    3  H   UNL     1     -12.572   9.436  70.373  1.00  0.00     0.000 HD 
ENDROOT
BRANCH   2   4
HETATM    4  C   UNL     1     -13.511   8.679  72.053  1.00  0.00    -0.403 C  
HETATM    5  C   UNL     1     -14.343   7.490  71.558  1.00  0.00    -0.603 C  
BRANCH   4   6
HETATM    6  C   UNL     1     -12.106   8.232  72.523  1.00  0.00    -0.400 C  
BRANCH   6   7
HETATM    7  C   UNL     1     -11.109   8.083  71.369  1.00  0.00    -0.278 C  
BRANCH   7   8
HETATM    8  C   UNL     1     -10.636   6.667  71.181  1.00  0.00    -0.263 C  
HETATM    9  C   UNL     1     -10.536   5.996  70.018  1.00  0.00    -0.340 C  
HETATM   10  C   UNL     1     -10.988   6.524  68.685  1.00  0.00    -0.363 C  
HETATM   11  C   UNL     1      -9.946   4.611  69.975  1.00  0.00    -0.302 C  
ENDBRANCH   7   8
ENDBRANCH   6   7
ENDBRANCH   4   6
ENDBRANCH   2   4
TORSDOF 4
ENDMDL
MODEL       67
REMARK 921   NORMALIZED FREE ENERGY PREDICTED BY IDOCK:   -3.19 KCAL/MOL
REMARK 922        TOTAL FREE ENERGY PREDICTED BY IDOCK:   -4.18 KCAL/MOL
REMARK 923 INTER-LIGAND FREE ENERGY PREDICTED BY IDOCK:   -3.99 KCAL/MOL
REMARK 924 INTRA-LIGAND FREE ENERGY PREDICTED BY IDOCK:   -0.19 KCAL/MOL
REMARK 927      BINDING AFFINITY PREDICTED BY RF-SCORE:    0.00 PKD
ROOT
HETATM    1  C   UNL     1     -11.564  12.364  63.513  1.00  0.00    -0.497 C  
HETATM    2  N   UNL     1     -10.379  13.147  63.841  1.00  0.00    -0.677 NA 
HETATM    3  H   UNL     1     -10.102  13.729  63.050  1.00  0.00     0.000 HD 
ENDROOT
BRANCH   2   4
HETATM    4  C   UNL     1     -10.527  13.962  65.061  1.00  0.00    -0.410 C  
HETATM    5  C   UNL     1     -11.148  15.330  64.758  1.00  0.00    -0.407 C  
BRANCH   4   6
HETATM    6  C   UNL     1     -11.387  13.158  66.066  1.00  0.00    -0.337 C  
BRANCH   6   7
HETATM    7  C   UNL     1     -11.179  13.599  67.518  1.00  0.00    -0.316 C  
BRANCH   7   8
HETATM    8  C   UNL     1     -11.907  12.728  68.506  1.00  0.00    -0.345 C  
HETATM    9  C   UNL     1     -11.435  11.619  69.106  1.00  0.00    -0.364 C  
HETATM   10  C   UNL     1     -10.104  10.986  68.810  1.00  0.00    -0.214 C  
HETATM   11  C   UNL     1     -12.247  10.906  70.155  1.00  0.00    -0.423 C  
ENDBRANCH   7   8
ENDBRANCH   6   7
ENDBRANCH   4   6
ENDBRANCH   2   4
TORSDOF 4
ENDMDL
MODEL       68
REMARK 921   NORMALIZED FREE ENERGY PREDICTED BY IDOCK:   -3.19 KCAL/MOL
REMARK 922        TOTAL FREE ENERGY PREDICTED BY IDOCK:   -4.17 KCAL/MOL
REMARK 923 INTER-LIGAND FREE ENERGY PREDICTED BY IDOCK:   -3.97 KCAL/MOL
REMARK 924 INTRA-LIGAND FREE ENERGY PREDICTED BY IDOCK:   -0.19 KCAL/MOL
REMARK 927      BINDING AFFINITY PREDICTED BY RF-SCORE:    0.00 PKD
ROOT
HETATM    1  C   UNL     1     -11.973  12.857  69.712  1.00  0.00    -0.296 C  
HETATM    2  N   UNL     1     -12.009  13.660  70.929  1.00  0.00    -0.499 NA 
HETATM    3  H   UNL     1     -11.122  13.596  71.428  1.00  0.00     0.000 HD 
ENDROOT
BRANCH   2   4
HETATM    4  C   UNL     1     -12.375  15.070  70.696  1.00  0.00    -0.348 C  
HETATM    5  C   UNL     1     -11.836  15.986  71.800  1.00  0.00    -0.599 C  
BRANCH   4   6
HETATM    6  C   UNL     1     -11.832  15.477  69.305  1.00  0.00    -0.372 C  
BRANCH   6   7
HETATM    7  C   UNL     1     -10.443  16.120  69.371  1.00  0.00    -0.283 C  
BRANCH   7   8
HETATM    8  C   UNL     1     -10.393  17.476  68.720  1.00  0.00    -0.358 C  
HETATM    9  C   UNL     1     -10.330  17.736  67.400  1.00  0.00    -0.370 C  
HETATM   10  C   UNL     1     -10.192  16.691  66.328  1.00  0.00    -0.344 C  
HETATM   11  C   UNL     1     -10.390  19.152  66.891  1.00  0.00    -0.504 C  
ENDBRANCH   7   8
ENDBRANCH   6   7
ENDBRANCH   4   6
ENDBRANCH   2   4
TORSDOF 4
ENDMDL
MODEL       69
REMARK 921   NORMALIZED FREE ENERGY PREDICTED BY IDOCK:   -3.19 KCAL/MOL
REMARK 922        TOTAL FREE ENERGY PREDICTED BY IDOCK:   -4.17 KCAL/MOL
REMARK 923 INTER-LIGAND FREE ENERGY PREDICTED BY IDOCK:   -3.87 KCAL/MOL
REMARK 924 INTRA-LIGAND FREE ENERGY PREDICTED BY IDOCK:   -0.30 KCAL/MOL
REMARK 927      BINDING AFFINITY PREDICTED BY RF-SCORE:    0.00 PKD
ROOT
HETATM    1  C   UNL     1     -10.671   5.220  66.370  1.00  0.00    -0.223 C  
HETATM    2  N   UNL     1     -11.367   6.224  67.166  1.00  0.00    -0.673 NA 
HETATM    3  H   UNL     1     -12.284   5.884  67.452  1.00  0.00     0.000 HD 
ENDROOT
BRANCH   2   4
HETATM    4  C   UNL     1     -10.596   6.692  68.333  1.00  0.00    -0.242 C  
HETATM    5  C   UNL     1     -10.385   8.210  68.303  1.00  0.00    -0.241 C  
BRANCH   4   6
HETATM    6  C   UNL     1     -11.354   6.250  69.608  1.00  0.00    -0.492 C  
BRANCH   6   7
HETATM    7  C   UNL     1     -11.180   7.226  70.776  1.00  0.00    -0.300 C  
BRANCH   7   8
HETATM    8  C   UNL     1     -12.466   7.502  71.506  1.00  0.00    -0.375 C  
HETATM    9  C   UNL     1     -13.033   8.705  71.716  1.00  0.00    -0.394 C  
HETATM   10  C   UNL     1     -12.412  10.021  71.339  1.00  0.00    -0.510 C  
HETATM   11  C   UNL     1     -14.381   8.816  72.378  1.00  0.00    -0.419 C  
ENDBRANCH   7   8
ENDBRANCH   6   7
ENDBRANCH   4   6
ENDBRANCH   2   4
TORSDOF 4
ENDMDL
MODEL       70
REMARK 921   NORMALIZED FREE ENERGY PREDICTED BY IDOCK:   -3.18 KCAL/MOL
REMARK 922        TOTAL FREE ENERGY PREDICTED BY IDOCK:   -4.16 KCAL/MOL
REMARK 923 INTER-LIGAND FREE ENERGY PREDICTED BY IDOCK:   -3.92 KCAL/MOL
REMARK 924 INTRA-LIGAND FREE ENERGY PREDICTED BY IDOCK:   -0.24 KCAL/MOL
REMARK 927      BINDING AFFINITY PREDICTED BY RF-SCORE:    0.00 PKD
ROOT
HETATM    1  C   UNL     1     -12.161  11.194  70.373  1.00  0.00    -0.369 C  
HETATM    2  N   UNL     1     -12.620   9.814  70.480  1.00  0.00    -0.512 NA 
HETATM    3  H   UNL     1     -12.081   9.207  69.862  1.00  0.00     0.000 HD 
ENDROOT
BRANCH   2   4
HETATM    4  C   UNL     1     -12.611   9.293  71.860  1.00  0.00    -0.390 C  
HETATM    5  C   UNL     1     -14.014   8.876  72.318  1.00  0.00    -0.531 C  
BRANCH   4   6
HETATM    6  C   UNL     1     -11.621   8.105  71.911  1.00  0.00    -0.361 C  
BRANCH   6   7
HETATM    7  C   UNL     1     -12.193   6.823  71.299  1.00  0.00    -0.415 C  
BRANCH   7   8
HETATM    8  C   UNL     1     -11.385   6.316  70.136  1.00  0.00    -0.476 C  
HETATM    9  C   UNL     1     -10.441   5.356  70.166  1.00  0.00    -0.361 C  
HETATM   10  C   UNL     1      -9.947   4.681  71.415  1.00  0.00    -0.267 C  
HETATM   11  C   UNL     1      -9.785   4.881  68.896  1.00  0.00    -0.242 C  
ENDBRANCH   7   8
ENDBRANCH   6   7
ENDBRANCH   4   6
ENDBRANCH   2   4
TORSDOF 4
ENDMDL
MODEL       71
REMARK 921   NORMALIZED FREE ENERGY PREDICTED BY IDOCK:   -3.18 KCAL/MOL
REMARK 922        TOTAL FREE ENERGY PREDICTED BY IDOCK:   -4.16 KCAL/MOL
REMARK 923 INTER-LIGAND FREE ENERGY PREDICTED BY IDOCK:   -3.88 KCAL/MOL
REMARK 924 INTRA-LIGAND FREE ENERGY PREDICTED BY IDOCK:   -0.28 KCAL/MOL
REMARK 927      BINDING AFFINITY PREDICTED BY RF-SCORE:    0.00 PKD
ROOT
HETATM    1  C   UNL     1     -11.618  15.411  69.318  1.00  0.00    -0.339 C  
HETATM    2  N   UNL     1     -12.200  14.670  68.206  1.00  0.00    -0.604 NA 
HETATM    3  H   UNL     1     -12.920  15.223  67.742  1.00  0.00     0.000 HD 
ENDROOT
BRANCH   2   4
HETATM    4  C   UNL     1     -11.204  14.187  67.231  1.00  0.00    -0.316 C  
HETATM    5  C   UNL     1     -11.507  12.756  66.771  1.00  0.00    -0.399 C  
BRANCH   4   6
HETATM    6  C   UNL     1     -11.190  15.175  66.040  1.00  0.00    -0.275 C  
BRANCH   6   7
HETATM    7  C   UNL     1      -9.986  16.122  66.063  1.00  0.00    -0.373 C  
BRANCH   7   8
HETATM    8  C   UNL     1     -10.381  17.569  66.182  1.00  0.00    -0.330 C  
HETATM    9  C   UNL     1     -10.004  18.432  67.144  1.00  0.00    -0.350 C  
HETATM   10  C   UNL     1      -9.188  18.063  68.352  1.00  0.00    -0.301 C  
HETATM   11  C   UNL     1     -10.398  19.884  67.074  1.00  0.00    -0.592 C  
ENDBRANCH   7   8
ENDBRANCH   6   7
ENDBRANCH   4   6
ENDBRANCH   2   4
TORSDOF 4
ENDMDL
MODEL       72
REMARK 921   NORMALIZED FREE ENERGY PREDICTED BY IDOCK:   -3.17 KCAL/MOL
REMARK 922        TOTAL FREE ENERGY PREDICTED BY IDOCK:   -4.14 KCAL/MOL
REMARK 923 INTER-LIGAND FREE ENERGY PREDICTED BY IDOCK:   -3.83 KCAL/MOL
REMARK 924 INTRA-LIGAND FREE ENERGY PREDICTED BY IDOCK:   -0.31 KCAL/MOL
REMARK 927      BINDING AFFINITY PREDICTED BY RF-SCORE:    0.00 PKD
ROOT
HETATM    1  C   UNL     1     -12.391  14.878  70.409  1.00  0.00    -0.345 C  
HETATM    2  N   UNL     1     -11.122  14.233  70.091  1.00  0.00    -0.471 NA 
HETATM    3  H   UNL     1     -11.173  13.231  70.271  1.00  0.00     0.000 HD 
ENDROOT
BRANCH   2   4
HETATM    4  C   UNL     1     -10.656  14.492  68.716  1.00  0.00    -0.248 C  
HETATM    5  C   UNL     1      -9.421  13.652  68.368  1.00  0.00    -0.190 C  
BRANCH   4   6
HETATM    6  C   UNL     1     -11.832  14.199  67.754  1.00  0.00    -0.414 C  
BRANCH   6   7
HETATM    7  C   UNL     1     -11.798  12.777  67.184  1.00  0.00    -0.415 C  
BRANCH   7   8
HETATM    8  C   UNL     1     -12.240  12.709  65.748  1.00  0.00    -0.427 C  
HETATM    9  C   UNL     1     -11.547  12.198  64.713  1.00  0.00    -0.380 C  
HETATM   10  C   UNL     1     -10.135  11.688  64.797  1.00  0.00    -0.304 C  
HETATM   11  C   UNL     1     -12.165  12.107  63.342  1.00  0.00    -0.635 C  
ENDBRANCH   7   8
ENDBRANCH   6   7
ENDBRANCH   4   6
ENDBRANCH   2   4
TORSDOF 4
ENDMDL
MODEL       73
REMARK 921   NORMALIZED FREE ENERGY PREDICTED BY IDOCK:   -3.16 KCAL/MOL
REMARK 922        TOTAL FREE ENERGY PREDICTED BY IDOCK:   -4.14 KCAL/MOL
REMARK 923 INTER-LIGAND FREE ENERGY PREDICTED BY IDOCK:   -3.93 KCAL/MOL
REMARK 924 INTRA-LIGAND FREE ENERGY PREDICTED BY IDOCK:   -0.20 KCAL/MOL
REMARK 927      BINDING AFFINITY PREDICTED BY RF-SCORE:    0.00 PKD
ROOT
HETATM    1  C   UNL     1     -11.032  16.213  64.783  1.00  0.00    -0.313 C  
HETATM    2  N   UNL     1     -11.914  15.463  63.897  1.00  0.00    -0.972 NA 
HETATM    3  H   UNL     1     -11.423  15.193  63.045  1.00  0.00     0.000 HD 
ENDROOT
BRANCH   2   4
HETATM    4  C   UNL     1     -12.535  14.288  64.536  1.00  0.00    -0.333 C  
HETATM    5  C   UNL     1     -12.142  12.985  63.830  1.00  0.00    -0.541 C  
BRANCH   4   6
HETATM    6  C   UNL     1     -12.110  14.278  66.023  1.00  0.00    -0.423 C  
BRANCH   6   7
HETATM    7  C   UNL     1     -11.934  12.864  66.586  1.00  0.00    -0.436 C  
BRANCH   7   8
HETATM    8  C   UNL     1     -10.526  12.583  67.035  1.00  0.00    -0.246 C  
HETATM    9  C   UNL     1     -10.138  11.686  67.962  1.00  0.00    -0.198 C  
HETATM   10  C   UNL     1     -11.076  10.864  68.802  1.00  0.00    -0.310 C  
HETATM   11  C   UNL     1      -8.677  11.442  68.234  1.00  0.00    -0.160 C  
ENDBRANCH   7   8
ENDBRANCH   6   7
ENDBRANCH   4   6
ENDBRANCH   2   4
TORSDOF 4
ENDMDL
MODEL       74
REMARK 921   NORMALIZED FREE ENERGY PREDICTED BY IDOCK:   -3.16 KCAL/MOL
REMARK 922        TOTAL FREE ENERGY PREDICTED BY IDOCK:   -4.13 KCAL/MOL
REMARK 923 INTER-LIGAND FREE ENERGY PREDICTED BY IDOCK:   -3.79 KCAL/MOL
REMARK 924 INTRA-LIGAND FREE ENERGY PREDICTED BY IDOCK:   -0.35 KCAL/MOL
REMARK 927      BINDING AFFINITY PREDICTED BY RF-SCORE:    0.00 PKD
ROOT
HETATM    1  C   UNL     1     -10.447  18.288  66.053  1.00  0.00    -0.361 C  
HETATM    2  N   UNL     1      -9.575  17.122  65.982  1.00  0.00    -0.494 NA 
HETATM    3  H   UNL     1      -8.598  17.396  66.087  1.00  0.00     0.000 HD 
ENDROOT
BRANCH   2   4
HETATM    4  C   UNL     1      -9.926  16.062  66.945  1.00  0.00    -0.251 C  
HETATM    5  C   UNL     1     -10.822  16.591  68.070  1.00  0.00    -0.337 C  
BRANCH   4   6
HETATM    6  C   UNL     1     -10.614  14.918  66.161  1.00  0.00    -0.322 C  
BRANCH   6   7
HETATM    7  C   UNL     1     -11.825  14.335  66.895  1.00  0.00    -0.458 C  
BRANCH   7   8
HETATM    8  C   UNL     1     -11.569  12.960  67.449  1.00  0.00    -0.414 C  
HETATM    9  C   UNL     1     -11.657  12.579  68.738  1.00  0.00    -0.366 C  
HETATM   10  C   UNL     1     -11.934  13.508  69.887  1.00  0.00    -0.416 C  
HETATM   11  C   UNL     1     -11.470  11.137  69.130  1.00  0.00    -0.366 C  
ENDBRANCH   7   8
ENDBRANCH   6   7
ENDBRANCH   4   6
ENDBRANCH   2   4
TORSDOF 4
ENDMDL
MODEL       75
REMARK 921   NORMALIZED FREE ENERGY PREDICTED BY IDOCK:   -3.15 KCAL/MOL
REMARK 922        TOTAL FREE ENERGY PREDICTED BY IDOCK:   -4.12 KCAL/MOL
REMARK 923 INTER-LIGAND FREE ENERGY PREDICTED BY IDOCK:   -3.97 KCAL/MOL
REMARK 924 INTRA-LIGAND FREE ENERGY PREDICTED BY IDOCK:   -0.15 KCAL/MOL
REMARK 927      BINDING AFFINITY PREDICTED BY RF-SCORE:    0.00 PKD
ROOT
HETATM    1  C   UNL     1     -10.578  18.084  67.411  1.00  0.00    -0.365 C  
HETATM    2  N   UNL     1     -10.361  16.709  67.846  1.00  0.00    -0.298 NA 
HETATM    3  H   UNL     1     -10.730  16.567  68.787  1.00  0.00     0.000 HD 
ENDROOT
BRANCH   2   4
HETATM    4  C   UNL     1     -10.904  15.702  66.916  1.00  0.00    -0.282 C  
HETATM    5  C   UNL     1     -10.356  15.887  65.496  1.00  0.00    -0.425 C  
BRANCH   4   6
HETATM    6  C   UNL     1     -10.559  14.302  67.479  1.00  0.00    -0.261 C  
BRANCH   6   7
HETATM    7  C   UNL     1     -11.708  13.300  67.336  1.00  0.00    -0.419 C  
BRANCH   7   8
HETATM    8  C   UNL     1     -12.189  13.157  65.918  1.00  0.00    -0.497 C  
HETATM    9  C   UNL     1     -11.678  12.350  64.969  1.00  0.00    -0.420 C  
HETATM   10  C   UNL     1     -10.444  11.508  65.136  1.00  0.00    -0.340 C  
HETATM   11  C   UNL     1     -12.333  12.239  63.617  1.00  0.00    -0.664 C  
ENDBRANCH   7   8
ENDBRANCH   6   7
ENDBRANCH   4   6
ENDBRANCH   2   4
TORSDOF 4
ENDMDL
MODEL       76
REMARK 921   NORMALIZED FREE ENERGY PREDICTED BY IDOCK:   -3.14 KCAL/MOL
REMARK 922        TOTAL FREE ENERGY PREDICTED BY IDOCK:   -4.11 KCAL/MOL
REMARK 923 INTER-LIGAND FREE ENERGY PREDICTED BY IDOCK:   -3.88 KCAL/MOL
REMARK 924 INTRA-LIGAND FREE ENERGY PREDICTED BY IDOCK:   -0.23 KCAL/MOL
REMARK 927      BINDING AFFINITY PREDICTED BY RF-SCORE:    0.00 PKD
ROOT
HETATM    1  C   UNL     1     -12.400  11.219  70.509  1.00  0.00    -0.356 C  
HETATM    2  N   UNL     1     -13.095   9.939  70.558  1.00  0.00    -0.586 NA 
HETATM    3  H   UNL     1     -12.726   9.301  69.853  1.00  0.00     0.000 HD 
ENDROOT
BRANCH   2   4
HETATM    4  C   UNL     1     -13.079   9.308  71.892  1.00  0.00    -0.415 C  
HETATM    5  C   UNL     1     -14.387   8.564  72.183  1.00  0.00    -0.529 C  
BRANCH   4   6
HETATM    6  C   UNL     1     -11.860   8.356  71.950  1.00  0.00    -0.398 C  
BRANCH   6   7
HETATM    7  C   UNL     1     -12.094   7.038  71.205  1.00  0.00    -0.412 C  
BRANCH   7   8
HETATM    8  C   UNL     1     -10.879   6.151  71.187  1.00  0.00    -0.328 C  
HETATM    9  C   UNL     1     -10.589   5.162  72.054  1.00  0.00    -0.266 C  
HETATM   10  C   UNL     1     -11.396   4.835  73.279  1.00  0.00    -0.408 C  
HETATM   11  C   UNL     1      -9.380   4.288  71.847  1.00  0.00    -0.186 C  
ENDBRANCH   7   8
ENDBRANCH   6   7
ENDBRANCH   4   6
ENDBRANCH   2   4
TORSDOF 4
ENDMDL
MODEL       77
REMARK 921   NORMALIZED FREE ENERGY PREDICTED BY IDOCK:   -3.14 KCAL/MOL
REMARK 922        TOTAL FREE ENERGY PREDICTED BY IDOCK:   -4.11 KCAL/MOL
REMARK 923 INTER-LIGAND FREE ENERGY PREDICTED BY IDOCK:   -3.62 KCAL/MOL
REMARK 924 INTRA-LIGAND FREE ENERGY PREDICTED BY IDOCK:   -0.49 KCAL/MOL
REMARK 927      BINDING AFFINITY PREDICTED BY RF-SCORE:    0.00 PKD
ROOT
HETATM    1  C   UNL     1     -10.520  10.646  68.017  1.00  0.00    -0.196 C  
HETATM    2  N   UNL     1      -9.635  11.796  67.877  1.00  0.00    -0.181 NA 
HETATM    3  H   UNL     1      -9.353  11.917  66.904  1.00  0.00     0.000 HD 
ENDROOT
BRANCH   2   4
HETATM    4  C   UNL     1     -10.203  13.048  68.413  1.00  0.00    -0.245 C  
HETATM    5  C   UNL     1      -9.424  14.277  67.930  1.00  0.00    -0.212 C  
BRANCH   4   6
HETATM    6  C   UNL     1     -11.689  13.114  67.988  1.00  0.00    -0.394 C  
BRANCH   6   7
HETATM    7  C   UNL     1     -11.926  14.028  66.781  1.00  0.00    -0.473 C  
BRANCH   7   8
HETATM    8  C   UNL     1     -12.457  13.290  65.582  1.00  0.00    -0.510 C  
HETATM    9  C   UNL     1     -11.753  12.876  64.511  1.00  0.00    -0.416 C  
HETATM   10  C   UNL     1     -10.299  13.176  64.275  1.00  0.00    -0.361 C  
HETATM   11  C   UNL     1     -12.406  12.055  63.431  1.00  0.00    -0.635 C  
ENDBRANCH   7   8
ENDBRANCH   6   7
ENDBRANCH   4   6
ENDBRANCH   2   4
TORSDOF 4
ENDMDL
MODEL       78
REMARK 921   NORMALIZED FREE ENERGY PREDICTED BY IDOCK:   -3.14 KCAL/MOL
REMARK 922        TOTAL FREE ENERGY PREDICTED BY IDOCK:   -4.11 KCAL/MOL
REMARK 923 INTER-LIGAND FREE ENERGY PREDICTED BY IDOCK:   -3.86 KCAL/MOL
REMARK 924 INTRA-LIGAND FREE ENERGY PREDICTED BY IDOCK:   -0.25 KCAL/MOL
REMARK 927      BINDING AFFINITY PREDICTED BY RF-SCORE:    0.00 PKD
ROOT
HETATM    1  C   UNL     1      -7.360  17.700  66.120  1.00  0.00    -0.309 C  
HETATM    2  N   UNL     1      -8.604  18.448  65.987  1.00  0.00    -0.511 NA 
HETATM    3  H   UNL     1      -9.256  17.958  65.375  1.00  0.00     0.000 HD 
ENDROOT
BRANCH   2   4
HETATM    4  C   UNL     1      -9.242  18.768  67.278  1.00  0.00    -0.287 C  
HETATM    5  C   UNL     1     -10.647  19.352  67.088  1.00  0.00    -0.596 C  
BRANCH   4   6
HETATM    6  C   UNL     1      -9.275  17.473  68.124  1.00  0.00    -0.277 C  
BRANCH   6   7
HETATM    7  C   UNL     1     -10.691  16.920  68.315  1.00  0.00    -0.377 C  
BRANCH   7   8
HETATM    8  C   UNL     1     -10.970  15.714  67.460  1.00  0.00    -0.309 C  
HETATM    9  C   UNL     1     -11.578  14.575  67.843  1.00  0.00    -0.371 C  
HETATM   10  C   UNL     1     -11.999  14.262  69.252  1.00  0.00    -0.375 C  
HETATM   11  C   UNL     1     -11.881  13.490  66.844  1.00  0.00    -0.452 C  
ENDBRANCH   7   8
ENDBRANCH   6   7
ENDBRANCH   4   6
ENDBRANCH   2   4
TORSDOF 4
ENDMDL
MODEL       79
REMARK 921   NORMALIZED FREE ENERGY PREDICTED BY IDOCK:   -3.13 KCAL/MOL
REMARK 922        TOTAL FREE ENERGY PREDICTED BY IDOCK:   -4.10 KCAL/MOL
REMARK 923 INTER-LIGAND FREE ENERGY PREDICTED BY IDOCK:   -3.82 KCAL/MOL
REMARK 924 INTRA-LIGAND FREE ENERGY PREDICTED BY IDOCK:   -0.28 KCAL/MOL
REMARK 927      BINDING AFFINITY PREDICTED BY RF-SCORE:    0.00 PKD
ROOT
HETATM    1  C   UNL     1     -10.683  17.656  65.222  1.00  0.00     0.156 C  
HETATM    2  N   UNL     1     -11.219  16.597  64.376  1.00  0.00    -1.269 NA 
HETATM    3  H   UNL     1     -10.665  16.501  63.525  1.00  0.00     0.000 HD 
ENDROOT
BRANCH   2   4
HETATM    4  C   UNL     1     -11.348  15.298  65.063  1.00  0.00    -0.358 C  
HETATM    5  C   UNL     1     -12.080  14.267  64.196  1.00  0.00    -0.423 C  
BRANCH   4   6
HETATM    6  C   UNL     1      -9.925  14.817  65.437  1.00  0.00    -0.369 C  
BRANCH   6   7
HETATM    7  C   UNL     1      -9.904  13.914  66.674  1.00  0.00    -0.288 C  
BRANCH   7   8
HETATM    8  C   UNL     1     -10.851  14.372  67.750  1.00  0.00    -0.263 C  
HETATM    9  C   UNL     1     -11.341  13.631  68.763  1.00  0.00    -0.326 C  
HETATM   10  C   UNL     1     -11.103  12.157  68.938  1.00  0.00    -0.292 C  
HETATM   11  C   UNL     1     -12.203  14.257  69.827  1.00  0.00    -0.390 C  
ENDBRANCH   7   8
ENDBRANCH   6   7
ENDBRANCH   4   6
ENDBRANCH   2   4
TORSDOF 4
ENDMDL
MODEL       80
REMARK 921   NORMALIZED FREE ENERGY PREDICTED BY IDOCK:   -3.13 KCAL/MOL
REMARK 922        TOTAL FREE ENERGY PREDICTED BY IDOCK:   -4.09 KCAL/MOL
REMARK 923 INTER-LIGAND FREE ENERGY PREDICTED BY IDOCK:   -3.90 KCAL/MOL
REMARK 924 INTRA-LIGAND FREE ENERGY PREDICTED BY IDOCK:   -0.20 KCAL/MOL
REMARK 927      BINDING AFFINITY PREDICTED BY RF-SCORE:    0.00 PKD
ROOT
HETATM    1  C   UNL     1      -9.698   9.823  65.207  1.00  0.00    -0.300 C  
HETATM    2  N   UNL     1     -10.231  11.179  65.144  1.00  0.00    -0.273 NA 
HETATM    3  H   UNL     1      -9.709  11.799  65.762  1.00  0.00     0.000 HD 
ENDROOT
BRANCH   2   4
HETATM    4  C   UNL     1     -10.285  11.730  63.777  1.00  0.00    -0.399 C  
HETATM    5  C   UNL     1      -9.753  10.733  62.741  1.00  0.00    -0.297 C  
BRANCH   4   6
HETATM    6  C   UNL     1     -11.752  12.124  63.484  1.00  0.00    -0.579 C  
BRANCH   6   7
HETATM    7  C   UNL     1     -12.053  13.592  63.805  1.00  0.00    -0.482 C  
BRANCH   7   8
HETATM    8  C   UNL     1     -12.272  13.838  65.273  1.00  0.00    -0.461 C  
HETATM    9  C   UNL     1     -11.415  14.427  66.129  1.00  0.00    -0.357 C  
HETATM   10  C   UNL     1     -10.017  14.856  65.781  1.00  0.00    -0.376 C  
HETATM   11  C   UNL     1     -11.816  14.698  67.555  1.00  0.00    -0.375 C  
ENDBRANCH   7   8
ENDBRANCH   6   7
ENDBRANCH   4   6
ENDBRANCH   2   4
TORSDOF 4
ENDMDL
MODEL       81
REMARK 921   NORMALIZED FREE ENERGY PREDICTED BY IDOCK:   -3.11 KCAL/MOL
REMARK 922        TOTAL FREE ENERGY PREDICTED BY IDOCK:   -4.07 KCAL/MOL
REMARK 923 INTER-LIGAND FREE ENERGY PREDICTED BY IDOCK:   -3.72 KCAL/MOL
REMARK 924 INTRA-LIGAND FREE ENERGY PREDICTED BY IDOCK:   -0.36 KCAL/MOL
REMARK 927      BINDING AFFINITY PREDICTED BY RF-SCORE:    0.00 PKD
ROOT
HETATM    1  C   UNL     1     -10.591  19.237  66.284  1.00  0.00    -0.454 C  
HETATM    2  N   UNL     1      -9.466  18.332  66.079  1.00  0.00    -0.513 NA 
HETATM    3  H   UNL     1      -8.675  18.605  66.662  1.00  0.00     0.000 HD 
ENDROOT
BRANCH   2   4
HETATM    4  C   UNL     1      -9.804  16.912  66.290  1.00  0.00    -0.302 C  
HETATM    5  C   UNL     1      -8.550  16.055  66.496  1.00  0.00    -0.344 C  
BRANCH   4   6
HETATM    6  C   UNL     1     -10.755  16.828  67.508  1.00  0.00    -0.275 C  
BRANCH   6   7
HETATM    7  C   UNL     1     -11.136  15.389  67.871  1.00  0.00    -0.323 C  
BRANCH   7   8
HETATM    8  C   UNL     1     -11.884  14.685  66.772  1.00  0.00    -0.334 C  
HETATM    9  C   UNL     1     -11.530  13.539  66.160  1.00  0.00    -0.348 C  
HETATM   10  C   UNL     1     -10.243  12.802  66.403  1.00  0.00    -0.263 C  
HETATM   11  C   UNL     1     -12.437  12.897  65.143  1.00  0.00    -0.561 C  
ENDBRANCH   7   8
ENDBRANCH   6   7
ENDBRANCH   4   6
ENDBRANCH   2   4
TORSDOF 4
ENDMDL
MODEL       82
REMARK 921   NORMALIZED FREE ENERGY PREDICTED BY IDOCK:   -3.11 KCAL/MOL
REMARK 922        TOTAL FREE ENERGY PREDICTED BY IDOCK:   -4.07 KCAL/MOL
REMARK 923 INTER-LIGAND FREE ENERGY PREDICTED BY IDOCK:   -3.76 KCAL/MOL
REMARK 924 INTRA-LIGAND FREE ENERGY PREDICTED BY IDOCK:   -0.31 KCAL/MOL
REMARK 927      BINDING AFFINITY PREDICTED BY RF-SCORE:    0.00 PKD
ROOT
HETATM    1  C   UNL     1      -8.927   5.454  70.974  1.00  0.00    -0.139 C  
HETATM    2  N   UNL     1      -9.977   5.965  71.847  1.00  0.00    -0.169 NA 
HETATM    3  H   UNL     1      -9.584   6.286  72.732  1.00  0.00     0.000 HD 
ENDROOT
BRANCH   2   4
HETATM    4  C   UNL     1     -10.799   7.022  71.229  1.00  0.00    -0.235 C  
HETATM    5  C   UNL     1     -11.652   6.477  70.078  1.00  0.00    -0.455 C  
BRANCH   4   6
HETATM    6  C   UNL     1     -11.676   7.650  72.338  1.00  0.00    -0.366 C  
BRANCH   6   7
HETATM    7  C   UNL     1     -12.992   8.226  71.805  1.00  0.00    -0.367 C  
BRANCH   7   8
HETATM    8  C   UNL     1     -13.202   9.664  72.195  1.00  0.00    -0.535 C  
HETATM    9  C   UNL     1     -12.858  10.753  71.481  1.00  0.00    -0.567 C  
HETATM   10  C   UNL     1     -12.093  10.721  70.188  1.00  0.00    -0.427 C  
HETATM   11  C   UNL     1     -13.228  12.134  71.956  1.00  0.00    -0.496 C  
ENDBRANCH   7   8
ENDBRANCH   6   7
ENDBRANCH   4   6
ENDBRANCH   2   4
TORSDOF 4
ENDMDL
MODEL       83
REMARK 921   NORMALIZED FREE ENERGY PREDICTED BY IDOCK:   -3.10 KCAL/MOL
REMARK 922        TOTAL FREE ENERGY PREDICTED BY IDOCK:   -4.07 KCAL/MOL
REMARK 923 INTER-LIGAND FREE ENERGY PREDICTED BY IDOCK:   -3.68 KCAL/MOL
REMARK 924 INTRA-LIGAND FREE ENERGY PREDICTED BY IDOCK:   -0.39 KCAL/MOL
REMARK 927      BINDING AFFINITY PREDICTED BY RF-SCORE:    0.00 PKD
ROOT
HETATM    1  C   UNL     1     -12.389  12.003  63.363  1.00  0.00    -0.523 C  
HETATM    2  N   UNL     1     -12.433  13.460  63.364  1.00  0.00    -0.841 NA 
HETATM    3  H   UNL     1     -13.396  13.791  63.426  1.00  0.00     0.000 HD 
ENDROOT
BRANCH   2   4
HETATM    4  C   UNL     1     -11.601  14.077  64.414  1.00  0.00    -0.369 C  
HETATM    5  C   UNL     1     -11.773  15.600  64.452  1.00  0.00    -0.218 C  
BRANCH   4   6
HETATM    6  C   UNL     1     -11.987  13.428  65.765  1.00  0.00    -0.447 C  
BRANCH   6   7
HETATM    7  C   UNL     1     -11.642  14.308  66.971  1.00  0.00    -0.406 C  
BRANCH   7   8
HETATM    8  C   UNL     1     -10.417  13.838  67.708  1.00  0.00    -0.240 C  
HETATM    9  C   UNL     1      -9.182  14.371  67.644  1.00  0.00    -0.196 C  
HETATM   10  C   UNL     1      -8.780  15.489  66.723  1.00  0.00    -0.302 C  
HETATM   11  C   UNL     1      -8.074  13.853  68.523  1.00  0.00    -0.133 C  
ENDBRANCH   7   8
ENDBRANCH   6   7
ENDBRANCH   4   6
ENDBRANCH   2   4
TORSDOF 4
ENDMDL
MODEL       84
REMARK 921   NORMALIZED FREE ENERGY PREDICTED BY IDOCK:   -3.09 KCAL/MOL
REMARK 922        TOTAL FREE ENERGY PREDICTED BY IDOCK:   -4.04 KCAL/MOL
REMARK 923 INTER-LIGAND FREE ENERGY PREDICTED BY IDOCK:   -3.90 KCAL/MOL
REMARK 924 INTRA-LIGAND FREE ENERGY PREDICTED BY IDOCK:   -0.14 KCAL/MOL
REMARK 927      BINDING AFFINITY PREDICTED BY RF-SCORE:    0.00 PKD
ROOT
HETATM    1  C   UNL     1     -12.742  15.858  73.804  1.00  0.00    -0.607 C  
HETATM    2  N   UNL     1     -13.668  15.313  72.818  1.00  0.00    -0.493 NA 
HETATM    3  H   UNL     1     -14.560  15.805  72.853  1.00  0.00     0.000 HD 
ENDROOT
BRANCH   2   4
HETATM    4  C   UNL     1     -13.131  15.304  71.444  1.00  0.00    -0.454 C  
HETATM    5  C   UNL     1     -11.891  16.196  71.314  1.00  0.00    -0.458 C  
BRANCH   4   6
HETATM    6  C   UNL     1     -12.816  13.836  71.069  1.00  0.00    -0.376 C  
BRANCH   6   7
HETATM    7  C   UNL     1     -12.198  13.695  69.674  1.00  0.00    -0.326 C  
BRANCH   7   8
HETATM    8  C   UNL     1     -12.029  12.262  69.250  1.00  0.00    -0.308 C  
HETATM    9  C   UNL     1     -11.224  11.798  68.275  1.00  0.00    -0.313 C  
HETATM   10  C   UNL     1     -10.412  12.663  67.352  1.00  0.00    -0.233 C  
HETATM   11  C   UNL     1     -11.083  10.318  68.033  1.00  0.00    -0.336 C  
ENDBRANCH   7   8
ENDBRANCH   6   7
ENDBRANCH   4   6
ENDBRANCH   2   4
TORSDOF 4
ENDMDL
MODEL       85
REMARK 921   NORMALIZED FREE ENERGY PREDICTED BY IDOCK:   -3.07 KCAL/MOL
REMARK 922        TOTAL FREE ENERGY PREDICTED BY IDOCK:   -4.03 KCAL/MOL
REMARK 923 INTER-LIGAND FREE ENERGY PREDICTED BY IDOCK:   -3.78 KCAL/MOL
REMARK 924 INTRA-LIGAND FREE ENERGY PREDICTED BY IDOCK:   -0.24 KCAL/MOL
REMARK 927      BINDING AFFINITY PREDICTED BY RF-SCORE:    0.00 PKD
ROOT
HETATM    1  C   UNL     1      -9.413  13.318  66.553  1.00  0.00    -0.245 C  
HETATM    2  N   UNL     1      -9.926  14.008  65.375  1.00  0.00    -0.514 NA 
HETATM    3  H   UNL     1     -10.213  13.338  64.662  1.00  0.00     0.000 HD 
ENDROOT
BRANCH   2   4
HETATM    4  C   UNL     1     -11.018  14.954  65.671  1.00  0.00    -0.344 C  
HETATM    5  C   UNL     1     -11.904  14.456  66.819  1.00  0.00    -0.431 C  
BRANCH   4   6
HETATM    6  C   UNL     1     -10.381  16.325  66.000  1.00  0.00    -0.363 C  
BRANCH   6   7
HETATM    7  C   UNL     1     -10.530  16.716  67.474  1.00  0.00    -0.317 C  
BRANCH   7   8
HETATM    8  C   UNL     1      -9.319  17.423  68.019  1.00  0.00    -0.276 C  
HETATM    9  C   UNL     1      -9.176  18.748  68.212  1.00  0.00    -0.366 C  
HETATM   10  C   UNL     1     -10.187  19.785  67.810  1.00  0.00    -0.571 C  
HETATM   11  C   UNL     1      -7.937  19.302  68.864  1.00  0.00    -0.353 C  
ENDBRANCH   7   8
ENDBRANCH   6   7
ENDBRANCH   4   6
ENDBRANCH   2   4
TORSDOF 4
ENDMDL
MODEL       86
REMARK 921   NORMALIZED FREE ENERGY PREDICTED BY IDOCK:   -3.05 KCAL/MOL
REMARK 922        TOTAL FREE ENERGY PREDICTED BY IDOCK:   -4.00 KCAL/MOL
REMARK 923 INTER-LIGAND FREE ENERGY PREDICTED BY IDOCK:   -3.85 KCAL/MOL
REMARK 924 INTRA-LIGAND FREE ENERGY PREDICTED BY IDOCK:   -0.15 KCAL/MOL
REMARK 927      BINDING AFFINITY PREDICTED BY RF-SCORE:    0.00 PKD
ROOT
HETATM    1  C   UNL     1     -10.009   7.936  68.884  1.00  0.00    -0.190 C  
HETATM    2  N   UNL     1     -10.966   9.010  68.650  1.00  0.00    -0.448 NA 
HETATM    3  H   UNL     1     -11.738   8.684  68.069  1.00  0.00     0.000 HD 
ENDROOT
BRANCH   2   4
HETATM    4  C   UNL     1     -11.471   9.632  69.888  1.00  0.00    -0.100 C  
HETATM    5  C   UNL     1     -10.455   9.528  71.031  1.00  0.00    -0.377 C  
BRANCH   4   6
HETATM    6  C   UNL     1     -11.818  11.107  69.570  1.00  0.00    -0.423 C  
BRANCH   6   7
HETATM    7  C   UNL     1     -12.499  11.827  70.738  1.00  0.00    -0.405 C  
BRANCH   7   8
HETATM    8  C   UNL     1     -12.385  13.324  70.650  1.00  0.00    -0.416 C  
HETATM    9  C   UNL     1     -13.159  14.231  71.276  1.00  0.00    -0.425 C  
HETATM   10  C   UNL     1     -14.365  13.896  72.109  1.00  0.00    -0.530 C  
HETATM   11  C   UNL     1     -12.859  15.703  71.173  1.00  0.00    -0.540 C  
ENDBRANCH   7   8
ENDBRANCH   6   7
ENDBRANCH   4   6
ENDBRANCH   2   4
TORSDOF 4
ENDMDL
MODEL       87
REMARK 921   NORMALIZED FREE ENERGY PREDICTED BY IDOCK:   -3.05 KCAL/MOL
REMARK 922        TOTAL FREE ENERGY PREDICTED BY IDOCK:   -4.00 KCAL/MOL
REMARK 923 INTER-LIGAND FREE ENERGY PREDICTED BY IDOCK:   -3.83 KCAL/MOL
REMARK 924 INTRA-LIGAND FREE ENERGY PREDICTED BY IDOCK:   -0.17 KCAL/MOL
REMARK 927      BINDING AFFINITY PREDICTED BY RF-SCORE:    0.00 PKD
ROOT
HETATM    1  C   UNL     1     -10.336  11.843  63.542  1.00  0.00    -0.458 C  
HETATM    2  N   UNL     1     -10.039  13.179  64.044  1.00  0.00    -0.768 NA 
HETATM    3  H   UNL     1      -9.941  13.840  63.273  1.00  0.00     0.000 HD 
ENDROOT
BRANCH   2   4
HETATM    4  C   UNL     1     -11.017  13.671  65.032  1.00  0.00    -0.346 C  
HETATM    5  C   UNL     1     -12.046  14.610  64.392  1.00  0.00    -0.481 C  
BRANCH   4   6
HETATM    6  C   UNL     1     -11.696  12.441  65.679  1.00  0.00    -0.468 C  
BRANCH   6   7
HETATM    7  C   UNL     1     -11.232  12.189  67.117  1.00  0.00    -0.372 C  
BRANCH   7   8
HETATM    8  C   UNL     1     -11.172  10.727  67.467  1.00  0.00    -0.346 C  
HETATM    9  C   UNL     1     -10.220  10.108  68.191  1.00  0.00    -0.200 C  
HETATM   10  C   UNL     1      -8.969  10.768  68.700  1.00  0.00    -0.162 C  
HETATM   11  C   UNL     1     -10.348   8.651  68.547  1.00  0.00    -0.228 C  
ENDBRANCH   7   8
ENDBRANCH   6   7
ENDBRANCH   4   6
ENDBRANCH   2   4
TORSDOF 4
ENDMDL
MODEL       88
REMARK 921   NORMALIZED FREE ENERGY PREDICTED BY IDOCK:   -3.05 KCAL/MOL
REMARK 922        TOTAL FREE ENERGY PREDICTED BY IDOCK:   -3.99 KCAL/MOL
REMARK 923 INTER-LIGAND FREE ENERGY PREDICTED BY IDOCK:   -3.85 KCAL/MOL
REMARK 924 INTRA-LIGAND FREE ENERGY PREDICTED BY IDOCK:   -0.14 KCAL/MOL
REMARK 927      BINDING AFFINITY PREDICTED BY RF-SCORE:    0.00 PKD
ROOT
HETATM    1  C   UNL     1     -13.524   9.706  72.197  1.00  0.00    -0.429 C  
HETATM    2  N   UNL     1     -13.153   8.375  72.660  1.00  0.00    -0.620 NA 
HETATM    3  H   UNL     1     -13.923   7.719  72.524  1.00  0.00     0.000 HD 
ENDROOT
BRANCH   2   4
HETATM    4  C   UNL     1     -11.915   7.858  72.049  1.00  0.00    -0.319 C  
HETATM    5  C   UNL     1     -12.199   7.087  70.755  1.00  0.00    -0.343 C  
BRANCH   4   6
HETATM    6  C   UNL     1     -10.974   9.061  71.797  1.00  0.00    -0.443 C  
BRANCH   6   7
HETATM    7  C   UNL     1     -10.612   9.239  70.319  1.00  0.00    -0.278 C  
BRANCH   7   8
HETATM    8  C   UNL     1     -11.095  10.545  69.750  1.00  0.00    -0.354 C  
HETATM    9  C   UNL     1     -11.184  10.874  68.447  1.00  0.00    -0.347 C  
HETATM   10  C   UNL     1     -10.708  10.011  67.312  1.00  0.00    -0.309 C  
HETATM   11  C   UNL     1     -11.785  12.188  68.024  1.00  0.00    -0.409 C  
ENDBRANCH   7   8
ENDBRANCH   6   7
ENDBRANCH   4   6
ENDBRANCH   2   4
TORSDOF 4
ENDMDL
MODEL       89
REMARK 921   NORMALIZED FREE ENERGY PREDICTED BY IDOCK:   -3.05 KCAL/MOL
REMARK 922        TOTAL FREE ENERGY PREDICTED BY IDOCK:   -3.99 KCAL/MOL
REMARK 923 INTER-LIGAND FREE ENERGY PREDICTED BY IDOCK:   -3.54 KCAL/MOL
REMARK 924 INTRA-LIGAND FREE ENERGY PREDICTED BY IDOCK:   -0.45 KCAL/MOL
REMARK 927      BINDING AFFINITY PREDICTED BY RF-SCORE:    0.00 PKD
ROOT
HETATM    1  C   UNL     1      -9.638   5.190  73.722  1.00  0.00    -0.134 C  
HETATM    2  N   UNL     1     -10.845   6.007  73.680  1.00  0.00    -0.420 NA 
HETATM    3  H   UNL     1     -11.395   5.879  74.529  1.00  0.00     0.000 HD 
ENDROOT
BRANCH   2   4
HETATM    4  C   UNL     1     -10.582   7.438  73.439  1.00  0.00    -0.377 C  
HETATM    5  C   UNL     1      -9.126   7.686  73.026  1.00  0.00    -0.240 C  
BRANCH   4   6
HETATM    6  C   UNL     1     -11.570   7.924  72.352  1.00  0.00    -0.436 C  
BRANCH   6   7
HETATM    7  C   UNL     1     -12.201   6.774  71.560  1.00  0.00    -0.413 C  
BRANCH   7   8
HETATM    8  C   UNL     1     -11.894   6.837  70.089  1.00  0.00    -0.321 C  
HETATM    9  C   UNL     1     -11.005   6.081  69.416  1.00  0.00    -0.455 C  
HETATM   10  C   UNL     1     -10.070   5.091  70.053  1.00  0.00    -0.342 C  
HETATM   11  C   UNL     1     -10.881   6.188  67.919  1.00  0.00    -0.406 C  
ENDBRANCH   7   8
ENDBRANCH   6   7
ENDBRANCH   4   6
ENDBRANCH   2   4
TORSDOF 4
ENDMDL
MODEL       90
REMARK 921   NORMALIZED FREE ENERGY PREDICTED BY IDOCK:   -3.04 KCAL/MOL
REMARK 922        TOTAL FREE ENERGY PREDICTED BY IDOCK:   -3.99 KCAL/MOL
REMARK 923 INTER-LIGAND FREE ENERGY PREDICTED BY IDOCK:   -3.74 KCAL/MOL
REMARK 924 INTRA-LIGAND FREE ENERGY PREDICTED BY IDOCK:   -0.26 KCAL/MOL
REMARK 927      BINDING AFFINITY PREDICTED BY RF-SCORE:    0.00 PKD
ROOT
HETATM    1  C   UNL     1      -9.028  10.828  62.345  1.00  0.00    -0.306 C  
HETATM    2  N   UNL     1      -9.513  11.889  63.219  1.00  0.00    -0.636 NA 
HETATM    3  H   UNL     1      -9.720  12.731  62.682  1.00  0.00     0.000 HD 
ENDROOT
BRANCH   2   4
HETATM    4  C   UNL     1     -10.673  11.496  64.040  1.00  0.00    -0.384 C  
HETATM    5  C   UNL     1     -10.278  10.511  65.146  1.00  0.00    -0.358 C  
BRANCH   4   6
HETATM    6  C   UNL     1     -11.299  12.785  64.624  1.00  0.00    -0.362 C  
BRANCH   6   7
HETATM    7  C   UNL     1     -11.606  12.676  66.121  1.00  0.00    -0.445 C  
BRANCH   7   8
HETATM    8  C   UNL     1     -11.701  14.015  66.799  1.00  0.00    -0.430 C  
HETATM    9  C   UNL     1     -10.732  14.637  67.497  1.00  0.00    -0.268 C  
HETATM   10  C   UNL     1      -9.388  14.041  67.813  1.00  0.00    -0.205 C  
HETATM   11  C   UNL     1     -10.942  16.028  68.035  1.00  0.00    -0.341 C  
ENDBRANCH   7   8
ENDBRANCH   6   7
ENDBRANCH   4   6
ENDBRANCH   2   4
TORSDOF 4
ENDMDL
MODEL       91
REMARK 921   NORMALIZED FREE ENERGY PREDICTED BY IDOCK:   -3.04 KCAL/MOL
REMARK 922        TOTAL FREE ENERGY PREDICTED BY IDOCK:   -3.99 KCAL/MOL
REMARK 923 INTER-LIGAND FREE ENERGY PREDICTED BY IDOCK:   -3.76 KCAL/MOL
REMARK 924 INTRA-LIGAND FREE ENERGY PREDICTED BY IDOCK:   -0.23 KCAL/MOL
REMARK 927      BINDING AFFINITY PREDICTED BY RF-SCORE:    0.00 PKD
ROOT
HETATM    1  C   UNL     1     -11.964  11.095  69.245  1.00  0.00    -0.351 C  
HETATM    2  N   UNL     1     -11.723  10.609  67.891  1.00  0.00    -0.724 NA 
HETATM    3  H   UNL     1     -11.855  11.358  67.212  1.00  0.00     0.000 HD 
ENDROOT
BRANCH   2   4
HETATM    4  C   UNL     1     -10.404   9.973  67.717  1.00  0.00    -0.215 C  
HETATM    5  C   UNL     1     -10.533   8.499  67.316  1.00  0.00    -0.366 C  
BRANCH   4   6
HETATM    6  C   UNL     1      -9.624  10.784  66.655  1.00  0.00    -0.208 C  
BRANCH   6   7
HETATM    7  C   UNL     1     -10.522  11.328  65.539  1.00  0.00    -0.323 C  
BRANCH   7   8
HETATM    8  C   UNL     1     -10.302  12.791  65.269  1.00  0.00    -0.313 C  
HETATM    9  C   UNL     1     -11.246  13.748  65.185  1.00  0.00    -0.320 C  
HETATM   10  C   UNL     1     -12.727  13.496  65.244  1.00  0.00    -0.481 C  
HETATM   11  C   UNL     1     -10.863  15.194  65.011  1.00  0.00    -0.457 C  
ENDBRANCH   7   8
ENDBRANCH   6   7
ENDBRANCH   4   6
ENDBRANCH   2   4
TORSDOF 4
ENDMDL
MODEL       92
REMARK 921   NORMALIZED FREE ENERGY PREDICTED BY IDOCK:   -3.04 KCAL/MOL
REMARK 922        TOTAL FREE ENERGY PREDICTED BY IDOCK:   -3.98 KCAL/MOL
REMARK 923 INTER-LIGAND FREE ENERGY PREDICTED BY IDOCK:   -3.78 KCAL/MOL
REMARK 924 INTRA-LIGAND FREE ENERGY PREDICTED BY IDOCK:   -0.20 KCAL/MOL
REMARK 927      BINDING AFFINITY PREDICTED BY RF-SCORE:    0.00 PKD
ROOT
HETATM    1  C   UNL     1     -10.005  15.965  65.714  1.00  0.00    -0.360 C  
HETATM    2  N   UNL     1      -9.998  14.646  66.335  1.00  0.00    -0.271 NA 
HETATM    3  H   UNL     1      -9.179  14.534  66.933  1.00  0.00     0.000 HD 
ENDROOT
BRANCH   2   4
HETATM    4  C   UNL     1     -11.233  14.337  67.080  1.00  0.00    -0.323 C  
HETATM    5  C   UNL     1     -12.315  13.750  66.166  1.00  0.00    -0.496 C  
BRANCH   4   6
HETATM    6  C   UNL     1     -10.864  13.360  68.222  1.00  0.00    -0.275 C  
BRANCH   6   7
HETATM    7  C   UNL     1     -11.628  12.034  68.145  1.00  0.00    -0.403 C  
BRANCH   7   8
HETATM    8  C   UNL     1     -11.085  10.989  69.081  1.00  0.00    -0.301 C  
HETATM    9  C   UNL     1     -11.537  10.697  70.315  1.00  0.00    -0.424 C  
HETATM   10  C   UNL     1     -12.623  11.452  71.029  1.00  0.00    -0.487 C  
HETATM   11  C   UNL     1     -10.955   9.549  71.097  1.00  0.00    -0.438 C  
ENDBRANCH   7   8
ENDBRANCH   6   7
ENDBRANCH   4   6
ENDBRANCH   2   4
TORSDOF 4
ENDMDL
MODEL       93
REMARK 921   NORMALIZED FREE ENERGY PREDICTED BY IDOCK:   -3.00 KCAL/MOL
REMARK 922        TOTAL FREE ENERGY PREDICTED BY IDOCK:   -3.94 KCAL/MOL
REMARK 923 INTER-LIGAND FREE ENERGY PREDICTED BY IDOCK:   -3.80 KCAL/MOL
REMARK 924 INTRA-LIGAND FREE ENERGY PREDICTED BY IDOCK:   -0.14 KCAL/MOL
REMARK 927      BINDING AFFINITY PREDICTED BY RF-SCORE:    0.00 PKD
ROOT
HETATM    1  C   UNL     1     -12.878  10.909  71.302  1.00  0.00    -0.433 C  
HETATM    2  N   UNL     1     -12.106  11.944  70.625  1.00  0.00    -0.449 NA 
HETATM    3  H   UNL     1     -11.602  12.517  71.302  1.00  0.00     0.000 HD 
ENDROOT
BRANCH   2   4
HETATM    4  C   UNL     1     -11.188  11.421  69.597  1.00  0.00    -0.230 C  
HETATM    5  C   UNL     1     -11.225   9.890  69.529  1.00  0.00    -0.220 C  
BRANCH   4   6
HETATM    6  C   UNL     1     -11.580  12.059  68.243  1.00  0.00    -0.394 C  
BRANCH   6   7
HETATM    7  C   UNL     1     -11.823  13.569  68.342  1.00  0.00    -0.408 C  
BRANCH   7   8
HETATM    8  C   UNL     1     -11.086  14.352  67.289  1.00  0.00    -0.318 C  
HETATM    9  C   UNL     1     -11.456  14.527  66.006  1.00  0.00    -0.348 C  
HETATM   10  C   UNL     1     -12.644  13.870  65.361  1.00  0.00    -0.538 C  
HETATM   11  C   UNL     1     -10.666  15.427  65.093  1.00  0.00    -0.460 C  
ENDBRANCH   7   8
ENDBRANCH   6   7
ENDBRANCH   4   6
ENDBRANCH   2   4
TORSDOF 4
ENDMDL
MODEL       94
REMARK 921   NORMALIZED FREE ENERGY PREDICTED BY IDOCK:   -2.99 KCAL/MOL
REMARK 922        TOTAL FREE ENERGY PREDICTED BY IDOCK:   -3.93 KCAL/MOL
REMARK 923 INTER-LIGAND FREE ENERGY PREDICTED BY IDOCK:   -3.71 KCAL/MOL
REMARK 924 INTRA-LIGAND FREE ENERGY PREDICTED BY IDOCK:   -0.22 KCAL/MOL
REMARK 927      BINDING AFFINITY PREDICTED BY RF-SCORE:    0.00 PKD
ROOT
HETATM    1  C   UNL     1     -11.240  15.645  70.115  1.00  0.00    -0.336 C  
HETATM    2  N   UNL     1     -10.950  16.476  68.953  1.00  0.00    -0.331 NA 
HETATM    3  H   UNL     1     -10.012  16.872  69.018  1.00  0.00     0.000 HD 
ENDROOT
BRANCH   2   4
HETATM    4  C   UNL     1     -11.131  15.778  67.666  1.00  0.00    -0.283 C  
HETATM    5  C   UNL     1      -9.805  15.620  66.914  1.00  0.00    -0.245 C  
BRANCH   4   6
HETATM    6  C   UNL     1     -11.784  14.406  67.960  1.00  0.00    -0.374 C  
BRANCH   6   7
HETATM    7  C   UNL     1     -12.271  13.692  66.696  1.00  0.00    -0.437 C  
BRANCH   7   8
HETATM    8  C   UNL     1     -11.465  12.465  66.367  1.00  0.00    -0.427 C  
HETATM    9  C   UNL     1     -11.286  11.919  65.149  1.00  0.00    -0.346 C  
HETATM   10  C   UNL     1     -11.961  12.393  63.892  1.00  0.00    -0.572 C  
HETATM   11  C   UNL     1     -10.363  10.745  64.959  1.00  0.00    -0.357 C  
ENDBRANCH   7   8
ENDBRANCH   6   7
ENDBRANCH   4   6
ENDBRANCH   2   4
TORSDOF 4
ENDMDL
MODEL       95
REMARK 921   NORMALIZED FREE ENERGY PREDICTED BY IDOCK:   -2.99 KCAL/MOL
REMARK 922        TOTAL FREE ENERGY PREDICTED BY IDOCK:   -3.93 KCAL/MOL
REMARK 923 INTER-LIGAND FREE ENERGY PREDICTED BY IDOCK:   -3.63 KCAL/MOL
REMARK 924 INTRA-LIGAND FREE ENERGY PREDICTED BY IDOCK:   -0.30 KCAL/MOL
REMARK 927      BINDING AFFINITY PREDICTED BY RF-SCORE:    0.00 PKD
ROOT
HETATM    1  C   UNL     1     -10.642  19.626  65.980  1.00  0.00    -0.483 C  
HETATM    2  N   UNL     1      -9.522  20.489  66.335  1.00  0.00    -0.647 NA 
HETATM    3  H   UNL     1      -9.842  21.289  66.881  1.00  0.00     0.000 HD 
ENDROOT
BRANCH   2   4
HETATM    4  C   UNL     1      -8.431  19.784  67.035  1.00  0.00    -0.319 C  
HETATM    5  C   UNL     1      -7.265  20.724  67.359  1.00  0.00    -0.406 C  
BRANCH   4   6
HETATM    6  C   UNL     1      -9.023  19.150  68.317  1.00  0.00    -0.379 C  
BRANCH   6   7
HETATM    7  C   UNL     1      -8.416  17.782  68.642  1.00  0.00    -0.271 C  
BRANCH   7   8
HETATM    8  C   UNL     1      -9.425  16.667  68.594  1.00  0.00    -0.249 C  
HETATM    9  C   UNL     1      -9.802  15.966  67.508  1.00  0.00    -0.230 C  
HETATM   10  C   UNL     1      -9.346  16.251  66.104  1.00  0.00    -0.374 C  
HETATM   11  C   UNL     1     -10.751  14.803  67.633  1.00  0.00    -0.270 C  
ENDBRANCH   7   8
ENDBRANCH   6   7
ENDBRANCH   4   6
ENDBRANCH   2   4
TORSDOF 4
ENDMDL
MODEL       96
REMARK 921   NORMALIZED FREE ENERGY PREDICTED BY IDOCK:   -2.99 KCAL/MOL
REMARK 922        TOTAL FREE ENERGY PREDICTED BY IDOCK:   -3.92 KCAL/MOL
REMARK 923 INTER-LIGAND FREE ENERGY PREDICTED BY IDOCK:   -3.77 KCAL/MOL
REMARK 924 INTRA-LIGAND FREE ENERGY PREDICTED BY IDOCK:   -0.15 KCAL/MOL
REMARK 927      BINDING AFFINITY PREDICTED BY RF-SCORE:    0.00 PKD
ROOT
HETATM    1  C   UNL     1      -8.604  16.448  68.902  1.00  0.00    -0.250 C  
HETATM    2  N   UNL     1      -9.116  15.727  67.743  1.00  0.00    -0.188 NA 
HETATM    3  H   UNL     1      -9.235  14.738  67.957  1.00  0.00     0.000 HD 
ENDROOT
BRANCH   2   4
HETATM    4  C   UNL     1     -10.364  16.296  67.197  1.00  0.00    -0.285 C  
HETATM    5  C   UNL     1     -10.502  17.785  67.532  1.00  0.00    -0.376 C  
BRANCH   4   6
HETATM    6  C   UNL     1     -10.365  16.054  65.669  1.00  0.00    -0.414 C  
BRANCH   6   7
HETATM    7  C   UNL     1     -10.040  14.606  65.291  1.00  0.00    -0.393 C  
BRANCH   7   8
HETATM    8  C   UNL     1     -11.238  13.850  64.783  1.00  0.00    -0.369 C  
HETATM    9  C   UNL     1     -11.228  12.729  64.037  1.00  0.00    -0.463 C  
HETATM   10  C   UNL     1      -9.989  12.081  63.483  1.00  0.00    -0.393 C  
HETATM   11  C   UNL     1     -12.512  12.024  63.688  1.00  0.00    -0.637 C  
ENDBRANCH   7   8
ENDBRANCH   6   7
ENDBRANCH   4   6
ENDBRANCH   2   4
TORSDOF 4
ENDMDL
MODEL       97
REMARK 921   NORMALIZED FREE ENERGY PREDICTED BY IDOCK:   -2.98 KCAL/MOL
REMARK 922        TOTAL FREE ENERGY PREDICTED BY IDOCK:   -3.91 KCAL/MOL
REMARK 923 INTER-LIGAND FREE ENERGY PREDICTED BY IDOCK:   -3.49 KCAL/MOL
REMARK 924 INTRA-LIGAND FREE ENERGY PREDICTED BY IDOCK:   -0.42 KCAL/MOL
REMARK 927      BINDING AFFINITY PREDICTED BY RF-SCORE:    0.00 PKD
ROOT
HETATM    1  C   UNL     1     -13.057  10.455  71.592  1.00  0.00    -0.448 C  
HETATM    2  N   UNL     1     -11.786  10.378  70.882  1.00  0.00    -0.357 NA 
HETATM    3  H   UNL     1     -11.154  11.116  71.193  1.00  0.00     0.000 HD 
ENDROOT
BRANCH   2   4
HETATM    4  C   UNL     1     -11.133   9.058  70.979  1.00  0.00    -0.289 C  
HETATM    5  C   UNL     1      -9.608   9.184  71.063  1.00  0.00    -0.350 C  
BRANCH   4   6
HETATM    6  C   UNL     1     -11.712   8.335  72.219  1.00  0.00    -0.453 C  
BRANCH   6   7
HETATM    7  C   UNL     1     -12.171   6.905  71.917  1.00  0.00    -0.370 C  
BRANCH   7   8
HETATM    8  C   UNL     1     -11.048   5.905  71.967  1.00  0.00    -0.329 C  
HETATM    9  C   UNL     1     -10.347   5.425  70.923  1.00  0.00    -0.312 C  
HETATM   10  C   UNL     1     -10.640   5.734  69.481  1.00  0.00    -0.390 C  
HETATM   11  C   UNL     1      -9.176   4.502  71.140  1.00  0.00    -0.198 C  
ENDBRANCH   7   8
ENDBRANCH   6   7
ENDBRANCH   4   6
ENDBRANCH   2   4
TORSDOF 4
ENDMDL
MODEL       98
REMARK 921   NORMALIZED FREE ENERGY PREDICTED BY IDOCK:   -2.98 KCAL/MOL
REMARK 922        TOTAL FREE ENERGY PREDICTED BY IDOCK:   -3.91 KCAL/MOL
REMARK 923 INTER-LIGAND FREE ENERGY PREDICTED BY IDOCK:   -3.73 KCAL/MOL
REMARK 924 INTRA-LIGAND FREE ENERGY PREDICTED BY IDOCK:   -0.18 KCAL/MOL
REMARK 927      BINDING AFFINITY PREDICTED BY RF-SCORE:    0.00 PKD
ROOT
HETATM    1  C   UNL     1     -10.031  10.890  63.538  1.00  0.00    -0.363 C  
HETATM    2  N   UNL     1     -10.152  12.267  63.073  1.00  0.00    -0.483 NA 
HETATM    3  H   UNL     1     -10.040  12.315  62.060  1.00  0.00     0.000 HD 
ENDROOT
BRANCH   2   4
HETATM    4  C   UNL     1     -11.404  12.925  63.491  1.00  0.00    -0.351 C  
HETATM    5  C   UNL     1     -12.586  11.950  63.487  1.00  0.00    -0.579 C  
BRANCH   4   6
HETATM    6  C   UNL     1     -11.173  13.532  64.896  1.00  0.00    -0.353 C  
BRANCH   6   7
HETATM    7  C   UNL     1     -11.468  15.034  64.955  1.00  0.00    -0.364 C  
BRANCH   7   8
HETATM    8  C   UNL     1     -10.320  15.836  65.504  1.00  0.00    -0.430 C  
HETATM    9  C   UNL     1     -10.073  16.110  66.799  1.00  0.00    -0.275 C  
HETATM   10  C   UNL     1     -10.980  15.740  67.940  1.00  0.00    -0.324 C  
HETATM   11  C   UNL     1      -8.821  16.842  67.207  1.00  0.00    -0.206 C  
ENDBRANCH   7   8
ENDBRANCH   6   7
ENDBRANCH   4   6
ENDBRANCH   2   4
TORSDOF 4
ENDMDL
MODEL       99
REMARK 921   NORMALIZED FREE ENERGY PREDICTED BY IDOCK:   -2.97 KCAL/MOL
REMARK 922        TOTAL FREE ENERGY PREDICTED BY IDOCK:   -3.90 KCAL/MOL
REMARK 923 INTER-LIGAND FREE ENERGY PREDICTED BY IDOCK:   -3.73 KCAL/MOL
REMARK 924 INTRA-LIGAND FREE ENERGY PREDICTED BY IDOCK:   -0.18 KCAL/MOL
REMARK 927      BINDING AFFINITY PREDICTED BY RF-SCORE:    0.00 PKD
ROOT
HETATM    1  C   UNL     1     -10.960   6.489  67.736  1.00  0.00    -0.316 C  
HETATM    2  N   UNL     1     -11.596   6.520  69.048  1.00  0.00    -0.594 NA 
HETATM    3  H   UNL     1     -11.941   5.595  69.303  1.00  0.00     0.000 HD 
ENDROOT
BRANCH   2   4
HETATM    4  C   UNL     1     -10.732   7.066  70.112  1.00  0.00    -0.240 C  
HETATM    5  C   UNL     1      -9.493   7.760  69.535  1.00  0.00    -0.160 C  
BRANCH   4   6
HETATM    6  C   UNL     1     -11.585   8.039  70.961  1.00  0.00    -0.303 C  
BRANCH   6   7
HETATM    7  C   UNL     1     -11.366   9.508  70.586  1.00  0.00    -0.364 C  
BRANCH   7   8
HETATM    8  C   UNL     1     -12.176  10.455  71.430  1.00  0.00    -0.461 C  
HETATM    9  C   UNL     1     -12.487  11.732  71.138  1.00  0.00    -0.390 C  
HETATM   10  C   UNL     1     -11.980  12.483  69.938  1.00  0.00    -0.371 C  
HETATM   11  C   UNL     1     -13.396  12.528  72.037  1.00  0.00    -0.528 C  
ENDBRANCH   7   8
ENDBRANCH   6   7
ENDBRANCH   4   6
ENDBRANCH   2   4
TORSDOF 4
ENDMDL
MODEL      100
REMARK 921   NORMALIZED FREE ENERGY PREDICTED BY IDOCK:   -2.97 KCAL/MOL
REMARK 922        TOTAL FREE ENERGY PREDICTED BY IDOCK:   -3.90 KCAL/MOL
REMARK 923 INTER-LIGAND FREE ENERGY PREDICTED BY IDOCK:   -3.52 KCAL/MOL
REMARK 924 INTRA-LIGAND FREE ENERGY PREDICTED BY IDOCK:   -0.38 KCAL/MOL
REMARK 927      BINDING AFFINITY PREDICTED BY RF-SCORE:    0.00 PKD
ROOT
HETATM    1  C   UNL     1      -6.977  19.620  68.745  1.00  0.00    -0.339 C  
HETATM    2  N   UNL     1      -8.088  18.787  68.302  1.00  0.00    -0.312 NA 
HETATM    3  H   UNL     1      -8.411  18.186  69.060  1.00  0.00     0.000 HD 
ENDROOT
BRANCH   2   4
HETATM    4  C   UNL     1      -9.210  19.554  67.730  1.00  0.00    -0.324 C  
HETATM    5  C   UNL     1      -9.070  19.720  66.213  1.00  0.00    -0.444 C  
BRANCH   4   6
HETATM    6  C   UNL     1     -10.522  18.822  68.102  1.00  0.00    -0.372 C  
BRANCH   6   7
HETATM    7  C   UNL     1     -10.283  17.425  68.684  1.00  0.00    -0.361 C  
BRANCH   7   8
HETATM    8  C   UNL     1     -11.131  16.366  68.034  1.00  0.00    -0.292 C  
HETATM    9  C   UNL     1     -10.766  15.538  67.036  1.00  0.00    -0.321 C  
HETATM   10  C   UNL     1      -9.450  15.600  66.312  1.00  0.00    -0.351 C  
HETATM   11  C   UNL     1     -11.694  14.454  66.556  1.00  0.00    -0.404 C  
ENDBRANCH   7   8
ENDBRANCH   6   7
ENDBRANCH   4   6
ENDBRANCH   2   4
TORSDOF 4
ENDMDL
MODEL      101
REMARK 921   NORMALIZED FREE ENERGY PREDICTED BY IDOCK:   -2.97 KCAL/MOL
REMARK 922        TOTAL FREE ENERGY PREDICTED BY IDOCK:   -3.90 KCAL/MOL
REMARK 923 INTER-LIGAND FREE ENERGY PREDICTED BY IDOCK:   -3.60 KCAL/MOL
REMARK 924 INTRA-LIGAND FREE ENERGY PREDICTED BY IDOCK:   -0.29 KCAL/MOL
REMARK 927      BINDING AFFINITY PREDICTED BY RF-SCORE:    0.00 PKD
ROOT
HETATM    1  C   UNL     1     -10.993  10.019  67.499  1.00  0.00    -0.212 C  
HETATM    2  N   UNL     1     -11.855  11.181  67.674  1.00  0.00    -0.603 NA 
HETATM    3  H   UNL     1     -12.060  11.331  68.662  1.00  0.00     0.000 HD 
ENDROOT
BRANCH   2   4
HETATM    4  C   UNL     1     -11.321  12.412  67.061  1.00  0.00    -0.327 C  
HETATM    5  C   UNL     1     -12.268  12.970  65.993  1.00  0.00    -0.463 C  
BRANCH   4   6
HETATM    6  C   UNL     1     -11.074  13.437  68.193  1.00  0.00    -0.284 C  
BRANCH   6   7
HETATM    7  C   UNL     1     -12.006  14.650  68.115  1.00  0.00    -0.281 C  
BRANCH   7   8
HETATM    8  C   UNL     1     -11.370  15.912  68.632  1.00  0.00    -0.376 C  
HETATM    9  C   UNL     1     -10.659  16.808  67.921  1.00  0.00    -0.350 C  
HETATM   10  C   UNL     1     -10.280  16.646  66.476  1.00  0.00    -0.314 C  
HETATM   11  C   UNL     1     -10.170  18.082  68.558  1.00  0.00    -0.392 C  
ENDBRANCH   7   8
ENDBRANCH   6   7
ENDBRANCH   4   6
ENDBRANCH   2   4
TORSDOF 4
ENDMDL
MODEL      102
REMARK 921   NORMALIZED FREE ENERGY PREDICTED BY IDOCK:   -2.97 KCAL/MOL
REMARK 922        TOTAL FREE ENERGY PREDICTED BY IDOCK:   -3.90 KCAL/MOL
REMARK 923 INTER-LIGAND FREE ENERGY PREDICTED BY IDOCK:   -3.67 KCAL/MOL
REMARK 924 INTRA-LIGAND FREE ENERGY PREDICTED BY IDOCK:   -0.22 KCAL/MOL
REMARK 927      BINDING AFFINITY PREDICTED BY RF-SCORE:    0.00 PKD
ROOT
HETATM    1  C   UNL     1     -10.403  19.638  66.672  1.00  0.00    -0.486 C  
HETATM    2  N   UNL     1      -9.854  18.449  66.032  1.00  0.00    -0.525 NA 
HETATM    3  H   UNL     1      -9.848  18.556  65.018  1.00  0.00     0.000 HD 
ENDROOT
BRANCH   2   4
HETATM    4  C   UNL     1      -8.513  18.078  66.524  1.00  0.00    -0.261 C  
HETATM    5  C   UNL     1      -8.236  18.667  67.912  1.00  0.00    -0.285 C  
BRANCH   4   6
HETATM    6  C   UNL     1      -8.424  16.533  66.535  1.00  0.00    -0.328 C  
BRANCH   6   7
HETATM    7  C   UNL     1      -9.794  15.856  66.639  1.00  0.00    -0.267 C  
BRANCH   7   8
HETATM    8  C   UNL     1      -9.870  14.566  65.868  1.00  0.00    -0.347 C  
HETATM    9  C   UNL     1     -10.690  14.289  64.836  1.00  0.00    -0.448 C  
HETATM   10  C   UNL     1     -11.768  15.207  64.330  1.00  0.00    -0.301 C  
HETATM   11  C   UNL     1     -10.580  12.984  64.094  1.00  0.00    -0.421 C  
ENDBRANCH   7   8
ENDBRANCH   6   7
ENDBRANCH   4   6
ENDBRANCH   2   4
TORSDOF 4
ENDMDL
MODEL      103
REMARK 921   NORMALIZED FREE ENERGY PREDICTED BY IDOCK:   -2.96 KCAL/MOL
REMARK 922        TOTAL FREE ENERGY PREDICTED BY IDOCK:   -3.89 KCAL/MOL
REMARK 923 INTER-LIGAND FREE ENERGY PREDICTED BY IDOCK:   -3.72 KCAL/MOL
REMARK 924 INTRA-LIGAND FREE ENERGY PREDICTED BY IDOCK:   -0.16 KCAL/MOL
REMARK 927      BINDING AFFINITY PREDICTED BY RF-SCORE:    0.00 PKD
ROOT
HETATM    1  C   UNL     1      -8.543  12.119  68.049  1.00  0.00    -0.175 C  
HETATM    2  N   UNL     1      -9.485  11.397  68.896  1.00  0.00    -0.383 NA 
HETATM    3  H   UNL     1      -9.768  11.970  69.690  1.00  0.00     0.000 HD 
ENDROOT
BRANCH   2   4
HETATM    4  C   UNL     1     -10.666  10.893  68.170  1.00  0.00    -0.214 C  
HETATM    5  C   UNL     1     -10.605   9.375  67.972  1.00  0.00    -0.278 C  
BRANCH   4   6
HETATM    6  C   UNL     1     -11.925  11.312  68.967  1.00  0.00    -0.393 C  
BRANCH   6   7
HETATM    7  C   UNL     1     -11.838  12.739  69.516  1.00  0.00    -0.379 C  
BRANCH   7   8
HETATM    8  C   UNL     1     -12.511  12.895  70.852  1.00  0.00    -0.383 C  
HETATM    9  C   UNL     1     -13.047  14.022  71.360  1.00  0.00    -0.423 C  
HETATM   10  C   UNL     1     -12.972  15.374  70.708  1.00  0.00    -0.510 C  
HETATM   11  C   UNL     1     -13.782  14.000  72.674  1.00  0.00    -0.586 C  
ENDBRANCH   7   8
ENDBRANCH   6   7
ENDBRANCH   4   6
ENDBRANCH   2   4
TORSDOF 4
ENDMDL
MODEL      104
REMARK 921   NORMALIZED FREE ENERGY PREDICTED BY IDOCK:   -2.95 KCAL/MOL
REMARK 922        TOTAL FREE ENERGY PREDICTED BY IDOCK:   -3.88 KCAL/MOL
REMARK 923 INTER-LIGAND FREE ENERGY PREDICTED BY IDOCK:   -3.65 KCAL/MOL
REMARK 924 INTRA-LIGAND FREE ENERGY PREDICTED BY IDOCK:   -0.23 KCAL/MOL
REMARK 927      BINDING AFFINITY PREDICTED BY RF-SCORE:    0.00 PKD
ROOT
HETATM    1  C   UNL     1     -13.425   9.039  72.314  1.00  0.00    -0.475 C  
HETATM    2  N   UNL     1     -13.193   9.248  70.890  1.00  0.00    -0.556 NA 
HETATM    3  H   UNL     1     -14.010   9.671  70.451  1.00  0.00     0.000 HD 
ENDROOT
BRANCH   2   4
HETATM    4  C   UNL     1     -11.979  10.033  70.598  1.00  0.00    -0.313 C  
HETATM    5  C   UNL     1     -12.186  11.525  70.880  1.00  0.00    -0.425 C  
BRANCH   4   6
HETATM    6  C   UNL     1     -10.823   9.451  71.446  1.00  0.00    -0.430 C  
BRANCH   6   7
HETATM    7  C   UNL     1      -9.622   9.013  70.602  1.00  0.00    -0.289 C  
BRANCH   7   8
HETATM    8  C   UNL     1     -10.014   8.178  69.413  1.00  0.00    -0.188 C  
HETATM    9  C   UNL     1     -10.500   6.922  69.434  1.00  0.00    -0.237 C  
HETATM   10  C   UNL     1     -10.641   6.080  70.672  1.00  0.00    -0.322 C  
HETATM   11  C   UNL     1     -10.946   6.248  68.164  1.00  0.00    -0.412 C  
ENDBRANCH   7   8
ENDBRANCH   6   7
ENDBRANCH   4   6
ENDBRANCH   2   4
TORSDOF 4
ENDMDL
MODEL      105
REMARK 921   NORMALIZED FREE ENERGY PREDICTED BY IDOCK:   -2.95 KCAL/MOL
REMARK 922        TOTAL FREE ENERGY PREDICTED BY IDOCK:   -3.88 KCAL/MOL
REMARK 923 INTER-LIGAND FREE ENERGY PREDICTED BY IDOCK:   -3.47 KCAL/MOL
REMARK 924 INTRA-LIGAND FREE ENERGY PREDICTED BY IDOCK:   -0.41 KCAL/MOL
REMARK 927      BINDING AFFINITY PREDICTED BY RF-SCORE:    0.00 PKD
ROOT
HETATM    1  C   UNL     1     -11.150   4.687  73.232  1.00  0.00    -0.321 C  
HETATM    2  N   UNL     1     -12.060   5.746  72.811  1.00  0.00    -0.534 NA 
HETATM    3  H   UNL     1     -12.407   6.264  73.618  1.00  0.00     0.000 HD 
ENDROOT
BRANCH   2   4
HETATM    4  C   UNL     1     -11.479   6.663  71.813  1.00  0.00    -0.291 C  
HETATM    5  C   UNL     1     -11.099   5.929  70.522  1.00  0.00    -0.347 C  
BRANCH   4   6
HETATM    6  C   UNL     1     -12.511   7.785  71.545  1.00  0.00    -0.348 C  
BRANCH   6   7
HETATM    7  C   UNL     1     -11.943   9.188  71.781  1.00  0.00    -0.449 C  
BRANCH   7   8
HETATM    8  C   UNL     1     -11.382   9.812  70.532  1.00  0.00    -0.382 C  
HETATM    9  C   UNL     1     -10.102   9.778  70.116  1.00  0.00    -0.317 C  
HETATM   10  C   UNL     1      -8.964   9.184  70.899  1.00  0.00    -0.298 C  
HETATM   11  C   UNL     1      -9.708  10.363  68.785  1.00  0.00    -0.184 C  
ENDBRANCH   7   8
ENDBRANCH   6   7
ENDBRANCH   4   6
ENDBRANCH   2   4
TORSDOF 4
ENDMDL
MODEL      106
REMARK 921   NORMALIZED FREE ENERGY PREDICTED BY IDOCK:   -2.94 KCAL/MOL
REMARK 922        TOTAL FREE ENERGY PREDICTED BY IDOCK:   -3.87 KCAL/MOL
REMARK 923 INTER-LIGAND FREE ENERGY PREDICTED BY IDOCK:   -3.52 KCAL/MOL
REMARK 924 INTRA-LIGAND FREE ENERGY PREDICTED BY IDOCK:   -0.35 KCAL/MOL
REMARK 927      BINDING AFFINITY PREDICTED BY RF-SCORE:    0.00 PKD
ROOT
HETATM    1  C   UNL     1     -13.358  15.604  71.608  1.00  0.00    -0.458 C  
HETATM    2  N   UNL     1     -13.151  15.280  70.202  1.00  0.00    -0.659 NA 
HETATM    3  H   UNL     1     -13.177  16.125  69.631  1.00  0.00     0.000 HD 
ENDROOT
BRANCH   2   4
HETATM    4  C   UNL     1     -11.915  14.517  69.947  1.00  0.00    -0.328 C  
HETATM    5  C   UNL     1     -11.854  14.002  68.505  1.00  0.00    -0.399 C  
BRANCH   4   6
HETATM    6  C   UNL     1     -10.714  15.437  70.273  1.00  0.00    -0.320 C  
BRANCH   6   7
HETATM    7  C   UNL     1      -9.538  15.250  69.309  1.00  0.00    -0.249 C  
BRANCH   7   8
HETATM    8  C   UNL     1      -8.875  16.547  68.933  1.00  0.00    -0.244 C  
HETATM    9  C   UNL     1      -9.251  17.392  67.954  1.00  0.00    -0.256 C  
HETATM   10  C   UNL     1     -10.363  17.129  66.977  1.00  0.00    -0.308 C  
HETATM   11  C   UNL     1      -8.547  18.709  67.762  1.00  0.00    -0.294 C  
ENDBRANCH   7   8
ENDBRANCH   6   7
ENDBRANCH   4   6
ENDBRANCH   2   4
TORSDOF 4
ENDMDL
MODEL      107
REMARK 921   NORMALIZED FREE ENERGY PREDICTED BY IDOCK:   -2.93 KCAL/MOL
REMARK 922        TOTAL FREE ENERGY PREDICTED BY IDOCK:   -3.85 KCAL/MOL
REMARK 923 INTER-LIGAND FREE ENERGY PREDICTED BY IDOCK:   -3.60 KCAL/MOL
REMARK 924 INTRA-LIGAND FREE ENERGY PREDICTED BY IDOCK:   -0.25 KCAL/MOL
REMARK 927      BINDING AFFINITY PREDICTED BY RF-SCORE:    0.00 PKD
ROOT
HETATM    1  C   UNL     1     -10.965  13.605  67.882  1.00  0.00    -0.259 C  
HETATM    2  N   UNL     1     -12.114  14.364  68.362  1.00  0.00    -0.574 NA 
HETATM    3  H   UNL     1     -12.612  13.845  69.084  1.00  0.00     0.000 HD 
ENDROOT
BRANCH   2   4
HETATM    4  C   UNL     1     -11.771  15.719  68.835  1.00  0.00    -0.394 C  
HETATM    5  C   UNL     1     -11.464  15.734  70.337  1.00  0.00    -0.380 C  
BRANCH   4   6
HETATM    6  C   UNL     1     -10.566  16.220  68.004  1.00  0.00    -0.308 C  
BRANCH   6   7
HETATM    7  C   UNL     1     -10.518  17.746  67.880  1.00  0.00    -0.401 C  
BRANCH   7   8
HETATM    8  C   UNL     1      -9.392  18.363  68.664  1.00  0.00    -0.339 C  
HETATM    9  C   UNL     1      -8.142  18.608  68.225  1.00  0.00    -0.339 C  
HETATM   10  C   UNL     1      -7.614  18.204  66.877  1.00  0.00    -0.239 C  
HETATM   11  C   UNL     1      -7.148  19.329  69.097  1.00  0.00    -0.370 C  
ENDBRANCH   7   8
ENDBRANCH   6   7
ENDBRANCH   4   6
ENDBRANCH   2   4
TORSDOF 4
ENDMDL
MODEL      108
REMARK 921   NORMALIZED FREE ENERGY PREDICTED BY IDOCK:   -2.93 KCAL/MOL
REMARK 922        TOTAL FREE ENERGY PREDICTED BY IDOCK:   -3.85 KCAL/MOL
REMARK 923 INTER-LIGAND FREE ENERGY PREDICTED BY IDOCK:   -3.53 KCAL/MOL
REMARK 924 INTRA-LIGAND FREE ENERGY PREDICTED BY IDOCK:   -0.32 KCAL/MOL
REMARK 927      BINDING AFFINITY PREDICTED BY RF-SCORE:    0.00 PKD
ROOT
HETATM    1  C   UNL     1     -10.793  10.029  67.732  1.00  0.00    -0.282 C  
HETATM    2  N   UNL     1     -11.919  10.658  68.412  1.00  0.00    -0.811 NA 
HETATM    3  H   UNL     1     -11.927  10.408  69.401  1.00  0.00     0.000 HD 
ENDROOT
BRANCH   2   4
HETATM    4  C   UNL     1     -11.969  12.122  68.244  1.00  0.00    -0.187 C  
HETATM    5  C   UNL     1     -11.861  12.852  69.587  1.00  0.00    -0.387 C  
BRANCH   4   6
HETATM    6  C   UNL     1     -10.825  12.528  67.284  1.00  0.00    -0.277 C  
BRANCH   6   7
HETATM    7  C   UNL     1     -11.268  13.534  66.217  1.00  0.00    -0.310 C  
BRANCH   7   8
HETATM    8  C   UNL     1     -10.195  14.529  65.868  1.00  0.00    -0.339 C  
HETATM    9  C   UNL     1      -9.921  15.680  66.510  1.00  0.00    -0.287 C  
HETATM   10  C   UNL     1     -10.726  16.235  67.652  1.00  0.00    -0.311 C  
HETATM   11  C   UNL     1      -8.744  16.528  66.104  1.00  0.00    -0.335 C  
ENDBRANCH   7   8
ENDBRANCH   6   7
ENDBRANCH   4   6
ENDBRANCH   2   4
TORSDOF 4
ENDMDL
MODEL      109
REMARK 921   NORMALIZED FREE ENERGY PREDICTED BY IDOCK:   -2.92 KCAL/MOL
REMARK 922        TOTAL FREE ENERGY PREDICTED BY IDOCK:   -3.84 KCAL/MOL
REMARK 923 INTER-LIGAND FREE ENERGY PREDICTED BY IDOCK:   -3.65 KCAL/MOL
REMARK 924 INTRA-LIGAND FREE ENERGY PREDICTED BY IDOCK:   -0.20 KCAL/MOL
REMARK 927      BINDING AFFINITY PREDICTED BY RF-SCORE:    0.00 PKD
ROOT
HETATM    1  C   UNL     1     -10.331  17.013  68.194  1.00  0.00    -0.347 C  
HETATM    2  N   UNL     1     -11.122  16.164  69.077  1.00  0.00    -0.316 NA 
HETATM    3  H   UNL     1     -12.077  16.513  69.151  1.00  0.00     0.000 HD 
ENDROOT
BRANCH   2   4
HETATM    4  C   UNL     1     -11.116  14.740  68.690  1.00  0.00    -0.262 C  
HETATM    5  C   UNL     1     -11.978  13.893  69.633  1.00  0.00    -0.399 C  
BRANCH   4   6
HETATM    6  C   UNL     1     -11.613  14.645  67.228  1.00  0.00    -0.404 C  
BRANCH   6   7
HETATM    7  C   UNL     1     -12.044  13.229  66.834  1.00  0.00    -0.389 C  
BRANCH   7   8
HETATM    8  C   UNL     1     -11.637  12.859  65.434  1.00  0.00    -0.386 C  
HETATM    9  C   UNL     1     -10.855  11.826  65.066  1.00  0.00    -0.350 C  
HETATM   10  C   UNL     1     -10.154  10.902  66.022  1.00  0.00    -0.303 C  
HETATM   11  C   UNL     1     -10.617  11.520  63.611  1.00  0.00    -0.491 C  
ENDBRANCH   7   8
ENDBRANCH   6   7
ENDBRANCH   4   6
ENDBRANCH   2   4
TORSDOF 4
ENDMDL
MODEL      110
REMARK 921   NORMALIZED FREE ENERGY PREDICTED BY IDOCK:   -2.91 KCAL/MOL
REMARK 922        TOTAL FREE ENERGY PREDICTED BY IDOCK:   -3.83 KCAL/MOL
REMARK 923 INTER-LIGAND FREE ENERGY PREDICTED BY IDOCK:   -3.46 KCAL/MOL
REMARK 924 INTRA-LIGAND FREE ENERGY PREDICTED BY IDOCK:   -0.37 KCAL/MOL
REMARK 927      BINDING AFFINITY PREDICTED BY RF-SCORE:    0.00 PKD
ROOT
HETATM    1  C   UNL     1      -8.750   7.586  66.103  1.00  0.00    -0.156 C  
HETATM    2  N   UNL     1     -10.184   7.715  66.330  1.00  0.00    -0.485 NA 
HETATM    3  H   UNL     1     -10.664   6.844  66.106  1.00  0.00     0.000 HD 
ENDROOT
BRANCH   2   4
HETATM    4  C   UNL     1     -10.529   8.164  67.692  1.00  0.00    -0.231 C  
HETATM    5  C   UNL     1      -9.436   7.799  68.703  1.00  0.00    -0.152 C  
BRANCH   4   6
HETATM    6  C   UNL     1     -10.766   9.693  67.641  1.00  0.00    -0.324 C  
BRANCH   6   7
HETATM    7  C   UNL     1     -10.365  10.404  68.936  1.00  0.00    -0.227 C  
BRANCH   7   8
HETATM    8  C   UNL     1     -11.549  10.882  69.734  1.00  0.00    -0.399 C  
HETATM    9  C   UNL     1     -11.956  10.420  70.931  1.00  0.00    -0.478 C  
HETATM   10  C   UNL     1     -11.345   9.248  71.648  1.00  0.00    -0.467 C  
HETATM   11  C   UNL     1     -13.103  11.070  71.658  1.00  0.00    -0.543 C  
ENDBRANCH   7   8
ENDBRANCH   6   7
ENDBRANCH   4   6
ENDBRANCH   2   4
TORSDOF 4
ENDMDL
MODEL      111
REMARK 921   NORMALIZED FREE ENERGY PREDICTED BY IDOCK:   -2.91 KCAL/MOL
REMARK 922        TOTAL FREE ENERGY PREDICTED BY IDOCK:   -3.83 KCAL/MOL
REMARK 923 INTER-LIGAND FREE ENERGY PREDICTED BY IDOCK:   -3.54 KCAL/MOL
REMARK 924 INTRA-LIGAND FREE ENERGY PREDICTED BY IDOCK:   -0.28 KCAL/MOL
REMARK 927      BINDING AFFINITY PREDICTED BY RF-SCORE:    0.00 PKD
ROOT
HETATM    1  C   UNL     1     -11.867  12.336  63.061  1.00  0.00    -0.017 C  
HETATM    2  N   UNL     1     -12.912  12.399  64.075  1.00  0.00    -0.765 NA 
HETATM    3  H   UNL     1     -13.501  11.567  64.038  1.00  0.00     0.000 HD 
ENDROOT
BRANCH   2   4
HETATM    4  C   UNL     1     -12.398  12.613  65.441  1.00  0.00    -0.436 C  
HETATM    5  C   UNL     1     -11.017  11.977  65.634  1.00  0.00    -0.343 C  
BRANCH   4   6
HETATM    6  C   UNL     1     -12.361  14.138  65.700  1.00  0.00    -0.473 C  
BRANCH   6   7
HETATM    7  C   UNL     1     -10.939  14.685  65.850  1.00  0.00    -0.332 C  
BRANCH   7   8
HETATM    8  C   UNL     1     -10.800  15.655  66.992  1.00  0.00    -0.294 C  
HETATM    9  C   UNL     1     -10.803  15.361  68.306  1.00  0.00    -0.269 C  
HETATM   10  C   UNL     1     -11.054  13.993  68.876  1.00  0.00    -0.296 C  
HETATM   11  C   UNL     1     -10.551  16.431  69.335  1.00  0.00    -0.317 C  
ENDBRANCH   7   8
ENDBRANCH   6   7
ENDBRANCH   4   6
ENDBRANCH   2   4
TORSDOF 4
ENDMDL
MODEL      112
REMARK 921   NORMALIZED FREE ENERGY PREDICTED BY IDOCK:   -2.89 KCAL/MOL
REMARK 922        TOTAL FREE ENERGY PREDICTED BY IDOCK:   -3.80 KCAL/MOL
REMARK 923 INTER-LIGAND FREE ENERGY PREDICTED BY IDOCK:   -3.59 KCAL/MOL
REMARK 924 INTRA-LIGAND FREE ENERGY PREDICTED BY IDOCK:   -0.21 KCAL/MOL
REMARK 927      BINDING AFFINITY PREDICTED BY RF-SCORE:    0.00 PKD
ROOT
HETATM    1  C   UNL     1     -10.600  19.942  66.661  1.00  0.00    -0.421 C  
HETATM    2  N   UNL     1     -10.654  18.858  67.635  1.00  0.00    -0.434 NA 
HETATM    3  H   UNL     1     -11.433  18.232  67.435  1.00  0.00     0.000 HD 
ENDROOT
BRANCH   2   4
HETATM    4  C   UNL     1      -9.393  18.101  67.747  1.00  0.00    -0.267 C  
HETATM    5  C   UNL     1      -8.308  18.909  68.468  1.00  0.00    -0.384 C  
BRANCH   4   6
HETATM    6  C   UNL     1      -9.700  16.777  68.487  1.00  0.00    -0.248 C  
BRANCH   6   7
HETATM    7  C   UNL     1     -11.196  16.453  68.537  1.00  0.00    -0.334 C  
BRANCH   7   8
HETATM    8  C   UNL     1     -11.508  15.249  69.383  1.00  0.00    -0.329 C  
HETATM    9  C   UNL     1     -11.742  13.996  68.949  1.00  0.00    -0.375 C  
HETATM   10  C   UNL     1     -11.835  13.595  67.503  1.00  0.00    -0.416 C  
HETATM   11  C   UNL     1     -11.939  12.867  69.926  1.00  0.00    -0.377 C  
ENDBRANCH   7   8
ENDBRANCH   6   7
ENDBRANCH   4   6
ENDBRANCH   2   4
TORSDOF 4
ENDMDL
MODEL      113
REMARK 921   NORMALIZED FREE ENERGY PREDICTED BY IDOCK:   -2.88 KCAL/MOL
REMARK 922        TOTAL FREE ENERGY PREDICTED BY IDOCK:   -3.79 KCAL/MOL
REMARK 923 INTER-LIGAND FREE ENERGY PREDICTED BY IDOCK:   -3.51 KCAL/MOL
REMARK 924 INTRA-LIGAND FREE ENERGY PREDICTED BY IDOCK:   -0.28 KCAL/MOL
REMARK 927      BINDING AFFINITY PREDICTED BY RF-SCORE:    0.00 PKD
ROOT
HETATM    1  C   UNL     1     -10.586   6.146  67.974  1.00  0.00    -0.268 C  
HETATM    2  N   UNL     1     -11.211   7.237  67.236  1.00  0.00    -0.545 NA 
HETATM    3  H   UNL     1     -12.179   7.364  67.531  1.00  0.00     0.000 HD 
ENDROOT
BRANCH   2   4
HETATM    4  C   UNL     1     -10.470   8.510  67.321  1.00  0.00    -0.296 C  
HETATM    5  C   UNL     1      -9.647   8.602  68.611  1.00  0.00    -0.159 C  
BRANCH   4   6
HETATM    6  C   UNL     1      -9.571   8.619  66.066  1.00  0.00    -0.265 C  
BRANCH   6   7
HETATM    7  C   UNL     1      -9.167  10.061  65.744  1.00  0.00    -0.222 C  
BRANCH   7   8
HETATM    8  C   UNL     1     -10.039  10.695  64.694  1.00  0.00    -0.417 C  
HETATM    9  C   UNL     1     -11.005  11.611  64.892  1.00  0.00    -0.345 C  
HETATM   10  C   UNL     1     -11.462  12.095  66.240  1.00  0.00    -0.433 C  
HETATM   11  C   UNL     1     -11.728  12.232  63.726  1.00  0.00    -0.566 C  
ENDBRANCH   7   8
ENDBRANCH   6   7
ENDBRANCH   4   6
ENDBRANCH   2   4
TORSDOF 4
ENDMDL
MODEL      114
REMARK 921   NORMALIZED FREE ENERGY PREDICTED BY IDOCK:   -2.88 KCAL/MOL
REMARK 922        TOTAL FREE ENERGY PREDICTED BY IDOCK:   -3.79 KCAL/MOL
REMARK 923 INTER-LIGAND FREE ENERGY PREDICTED BY IDOCK:   -3.38 KCAL/MOL
REMARK 924 INTRA-LIGAND FREE ENERGY PREDICTED BY IDOCK:   -0.41 KCAL/MOL
REMARK 927      BINDING AFFINITY PREDICTED BY RF-SCORE:    0.00 PKD
ROOT
HETATM    1  C   UNL     1      -7.541  15.856  69.330  1.00  0.00    -0.210 C  
HETATM    2  N   UNL     1      -8.829  15.647  68.680  1.00  0.00    -0.189 NA 
HETATM    3  H   UNL     1      -9.135  14.680  68.789  1.00  0.00     0.000 HD 
ENDROOT
BRANCH   2   4
HETATM    4  C   UNL     1      -9.879  16.579  69.134  1.00  0.00    -0.254 C  
HETATM    5  C   UNL     1     -10.696  17.129  67.960  1.00  0.00    -0.372 C  
BRANCH   4   6
HETATM    6  C   UNL     1     -10.775  15.825  70.146  1.00  0.00    -0.354 C  
BRANCH   6   7
HETATM    7  C   UNL     1     -12.013  15.197  69.496  1.00  0.00    -0.351 C  
BRANCH   7   8
HETATM    8  C   UNL     1     -11.839  13.733  69.197  1.00  0.00    -0.398 C  
HETATM    9  C   UNL     1     -11.830  13.153  67.981  1.00  0.00    -0.398 C  
HETATM   10  C   UNL     1     -12.102  13.872  66.689  1.00  0.00    -0.485 C  
HETATM   11  C   UNL     1     -11.542  11.683  67.832  1.00  0.00    -0.369 C  
ENDBRANCH   7   8
ENDBRANCH   6   7
ENDBRANCH   4   6
ENDBRANCH   2   4
TORSDOF 4
ENDMDL
MODEL      115
REMARK 921   NORMALIZED FREE ENERGY PREDICTED BY IDOCK:   -2.88 KCAL/MOL
REMARK 922        TOTAL FREE ENERGY PREDICTED BY IDOCK:   -3.78 KCAL/MOL
REMARK 923 INTER-LIGAND FREE ENERGY PREDICTED BY IDOCK:   -3.62 KCAL/MOL
REMARK 924 INTRA-LIGAND FREE ENERGY PREDICTED BY IDOCK:   -0.17 KCAL/MOL
REMARK 927      BINDING AFFINITY PREDICTED BY RF-SCORE:    0.00 PKD
ROOT
HETATM    1  C   UNL     1     -10.837   6.465  67.081  1.00  0.00    -0.393 C  
HETATM    2  N   UNL     1     -10.270   7.558  66.301  1.00  0.00    -0.442 NA 
HETATM    3  H   UNL     1     -10.978   7.974  65.697  1.00  0.00     0.000 HD 
ENDROOT
BRANCH   2   4
HETATM    4  C   UNL     1      -9.612   8.591  67.123  1.00  0.00    -0.178 C  
HETATM    5  C   UNL     1      -8.251   8.995  66.543  1.00  0.00    -0.114 C  
BRANCH   4   6
HETATM    6  C   UNL     1     -10.571   9.802  67.217  1.00  0.00    -0.320 C  
BRANCH   6   7
HETATM    7  C   UNL     1     -10.650  10.605  65.915  1.00  0.00    -0.178 C  
BRANCH   7   8
HETATM    8  C   UNL     1     -11.351  11.926  66.083  1.00  0.00    -0.383 C  
HETATM    9  C   UNL     1     -11.925  12.664  65.113  1.00  0.00    -0.474 C  
HETATM   10  C   UNL     1     -11.872  12.339  63.646  1.00  0.00    -0.610 C  
HETATM   11  C   UNL     1     -12.683  13.921  65.449  1.00  0.00    -0.525 C  
ENDBRANCH   7   8
ENDBRANCH   6   7
ENDBRANCH   4   6
ENDBRANCH   2   4
TORSDOF 4
ENDMDL
MODEL      116
REMARK 921   NORMALIZED FREE ENERGY PREDICTED BY IDOCK:   -2.87 KCAL/MOL
REMARK 922        TOTAL FREE ENERGY PREDICTED BY IDOCK:   -3.78 KCAL/MOL
REMARK 923 INTER-LIGAND FREE ENERGY PREDICTED BY IDOCK:   -3.66 KCAL/MOL
REMARK 924 INTRA-LIGAND FREE ENERGY PREDICTED BY IDOCK:   -0.12 KCAL/MOL
REMARK 927      BINDING AFFINITY PREDICTED BY RF-SCORE:    0.00 PKD
ROOT
HETATM    1  C   UNL     1      -8.148  12.066  68.200  1.00  0.00    -0.160 C  
HETATM    2  N   UNL     1      -9.351  11.836  68.991  1.00  0.00    -0.401 NA 
HETATM    3  H   UNL     1     -10.013  12.603  68.871  1.00  0.00     0.000 HD 
ENDROOT
BRANCH   2   4
HETATM    4  C   UNL     1     -10.000  10.540  68.718  1.00  0.00    -0.192 C  
HETATM    5  C   UNL     1      -9.966   9.620  69.943  1.00  0.00    -0.273 C  
BRANCH   4   6
HETATM    6  C   UNL     1     -11.451  10.824  68.261  1.00  0.00    -0.353 C  
BRANCH   6   7
HETATM    7  C   UNL     1     -11.594  12.157  67.520  1.00  0.00    -0.413 C  
BRANCH   7   8
HETATM    8  C   UNL     1     -11.701  11.990  66.029  1.00  0.00    -0.311 C  
HETATM    9  C   UNL     1     -12.173  12.892  65.147  1.00  0.00    -0.519 C  
HETATM   10  C   UNL     1     -12.786  14.213  65.520  1.00  0.00    -0.404 C  
HETATM   11  C   UNL     1     -12.122  12.621  63.666  1.00  0.00    -0.632 C  
ENDBRANCH   7   8
ENDBRANCH   6   7
ENDBRANCH   4   6
ENDBRANCH   2   4
TORSDOF 4
ENDMDL
MODEL      117
REMARK 921   NORMALIZED FREE ENERGY PREDICTED BY IDOCK:   -2.87 KCAL/MOL
REMARK 922        TOTAL FREE ENERGY PREDICTED BY IDOCK:   -3.77 KCAL/MOL
REMARK 923 INTER-LIGAND FREE ENERGY PREDICTED BY IDOCK:   -3.47 KCAL/MOL
REMARK 924 INTRA-LIGAND FREE ENERGY PREDICTED BY IDOCK:   -0.30 KCAL/MOL
REMARK 927      BINDING AFFINITY PREDICTED BY RF-SCORE:    0.00 PKD
ROOT
HETATM    1  C   UNL     1      -8.897  12.580  68.402  1.00  0.00    -0.123 C  
HETATM    2  N   UNL     1     -10.308  12.664  68.759  1.00  0.00    -0.390 NA 
HETATM    3  H   UNL     1     -10.627  13.632  68.738  1.00  0.00     0.000 HD 
ENDROOT
BRANCH   2   4
HETATM    4  C   UNL     1     -11.179  11.810  67.930  1.00  0.00    -0.267 C  
HETATM    5  C   UNL     1     -10.367  10.838  67.067  1.00  0.00    -0.275 C  
BRANCH   4   6
HETATM    6  C   UNL     1     -12.143  11.056  68.878  1.00  0.00    -0.239 C  
BRANCH   6   7
HETATM    7  C   UNL     1     -11.906  11.384  70.356  1.00  0.00    -0.428 C  
BRANCH   7   8
HETATM    8  C   UNL     1     -12.145  10.208  71.263  1.00  0.00    -0.489 C  
HETATM    9  C   UNL     1     -11.252   9.262  71.612  1.00  0.00    -0.449 C  
HETATM   10  C   UNL     1      -9.858   9.158  71.060  1.00  0.00    -0.366 C  
HETATM   11  C   UNL     1     -11.610   8.198  72.616  1.00  0.00    -0.441 C  
ENDBRANCH   7   8
ENDBRANCH   6   7
ENDBRANCH   4   6
ENDBRANCH   2   4
TORSDOF 4
ENDMDL
MODEL      118
REMARK 921   NORMALIZED FREE ENERGY PREDICTED BY IDOCK:   -2.86 KCAL/MOL
REMARK 922        TOTAL FREE ENERGY PREDICTED BY IDOCK:   -3.77 KCAL/MOL
REMARK 923 INTER-LIGAND FREE ENERGY PREDICTED BY IDOCK:   -3.60 KCAL/MOL
REMARK 924 INTRA-LIGAND FREE ENERGY PREDICTED BY IDOCK:   -0.17 KCAL/MOL
REMARK 927      BINDING AFFINITY PREDICTED BY RF-SCORE:    0.00 PKD
ROOT
HETATM    1  C   UNL     1     -10.741   3.564  74.147  1.00  0.00    -0.187 C  
HETATM    2  N   UNL     1     -11.581   4.636  73.628  1.00  0.00    -0.351 NA 
HETATM    3  H   UNL     1     -11.953   5.203  74.390  1.00  0.00     0.000 HD 
ENDROOT
BRANCH   2   4
HETATM    4  C   UNL     1     -10.907   5.484  72.627  1.00  0.00    -0.257 C  
HETATM    5  C   UNL     1     -10.246   4.647  71.526  1.00  0.00    -0.224 C  
BRANCH   4   6
HETATM    6  C   UNL     1     -11.960   6.457  72.045  1.00  0.00    -0.375 C  
BRANCH   6   7
HETATM    7  C   UNL     1     -11.735   7.910  72.475  1.00  0.00    -0.423 C  
BRANCH   7   8
HETATM    8  C   UNL     1     -11.359   8.810  71.329  1.00  0.00    -0.357 C  
HETATM    9  C   UNL     1     -11.915   9.996  71.018  1.00  0.00    -0.469 C  
HETATM   10  C   UNL     1     -13.104  10.593  71.718  1.00  0.00    -0.571 C  
HETATM   11  C   UNL     1     -11.361  10.836  69.897  1.00  0.00    -0.385 C  
ENDBRANCH   7   8
ENDBRANCH   6   7
ENDBRANCH   4   6
ENDBRANCH   2   4
TORSDOF 4
ENDMDL
MODEL      119
REMARK 921   NORMALIZED FREE ENERGY PREDICTED BY IDOCK:   -2.86 KCAL/MOL
REMARK 922        TOTAL FREE ENERGY PREDICTED BY IDOCK:   -3.76 KCAL/MOL
REMARK 923 INTER-LIGAND FREE ENERGY PREDICTED BY IDOCK:   -3.56 KCAL/MOL
REMARK 924 INTRA-LIGAND FREE ENERGY PREDICTED BY IDOCK:   -0.20 KCAL/MOL
REMARK 927      BINDING AFFINITY PREDICTED BY RF-SCORE:    0.00 PKD
ROOT
HETATM    1  C   UNL     1     -10.932  10.719  69.183  1.00  0.00    -0.244 C  
HETATM    2  N   UNL     1     -11.765   9.732  69.861  1.00  0.00    -0.448 NA 
HETATM    3  H   UNL     1     -11.412   8.790  69.696  1.00  0.00     0.000 HD 
ENDROOT
BRANCH   2   4
HETATM    4  C   UNL     1     -11.923   9.985  71.306  1.00  0.00    -0.394 C  
HETATM    5  C   UNL     1     -12.895  11.139  71.576  1.00  0.00    -0.542 C  
BRANCH   4   6
HETATM    6  C   UNL     1     -12.404   8.671  71.966  1.00  0.00    -0.435 C  
BRANCH   6   7
HETATM    7  C   UNL     1     -11.869   7.418  71.264  1.00  0.00    -0.330 C  
BRANCH   7   8
HETATM    8  C   UNL     1     -11.812   6.218  72.170  1.00  0.00    -0.365 C  
HETATM    9  C   UNL     1     -10.738   5.766  72.845  1.00  0.00    -0.282 C  
HETATM   10  C   UNL     1      -9.352   6.335  72.727  1.00  0.00    -0.144 C  
HETATM   11  C   UNL     1     -10.860   4.606  73.798  1.00  0.00    -0.378 C  
ENDBRANCH   7   8
ENDBRANCH   6   7
ENDBRANCH   4   6
ENDBRANCH   2   4
TORSDOF 4
ENDMDL
MODEL      120
REMARK 921   NORMALIZED FREE ENERGY PREDICTED BY IDOCK:   -2.85 KCAL/MOL
REMARK 922        TOTAL FREE ENERGY PREDICTED BY IDOCK:   -3.76 KCAL/MOL
REMARK 923 INTER-LIGAND FREE ENERGY PREDICTED BY IDOCK:   -3.41 KCAL/MOL
REMARK 924 INTRA-LIGAND FREE ENERGY PREDICTED BY IDOCK:   -0.35 KCAL/MOL
REMARK 927      BINDING AFFINITY PREDICTED BY RF-SCORE:    0.00 PKD
ROOT
HETATM    1  C   UNL     1     -13.348   9.942  72.069  1.00  0.00    -0.432 C  
HETATM    2  N   UNL     1     -12.809   8.853  72.874  1.00  0.00    -0.587 NA 
HETATM    3  H   UNL     1     -13.563   8.302  73.284  1.00  0.00     0.000 HD 
ENDROOT
BRANCH   2   4
HETATM    4  C   UNL     1     -11.867   7.986  72.142  1.00  0.00    -0.349 C  
HETATM    5  C   UNL     1     -12.520   6.662  71.728  1.00  0.00    -0.360 C  
BRANCH   4   6
HETATM    6  C   UNL     1     -11.356   8.774  70.912  1.00  0.00    -0.322 C  
BRANCH   6   7
HETATM    7  C   UNL     1     -10.090   8.169  70.298  1.00  0.00    -0.192 C  
BRANCH   7   8
HETATM    8  C   UNL     1     -10.313   7.624  68.914  1.00  0.00    -0.222 C  
HETATM    9  C   UNL     1     -10.396   6.327  68.561  1.00  0.00    -0.238 C  
HETATM   10  C   UNL     1     -10.173   5.170  69.495  1.00  0.00    -0.318 C  
HETATM   11  C   UNL     1     -10.726   5.934  67.145  1.00  0.00    -0.387 C  
ENDBRANCH   7   8
ENDBRANCH   6   7
ENDBRANCH   4   6
ENDBRANCH   2   4
TORSDOF 4
ENDMDL
MODEL      121
REMARK 921   NORMALIZED FREE ENERGY PREDICTED BY IDOCK:   -2.84 KCAL/MOL
REMARK 922        TOTAL FREE ENERGY PREDICTED BY IDOCK:   -3.74 KCAL/MOL
REMARK 923 INTER-LIGAND FREE ENERGY PREDICTED BY IDOCK:   -3.39 KCAL/MOL
REMARK 924 INTRA-LIGAND FREE ENERGY PREDICTED BY IDOCK:   -0.35 KCAL/MOL
REMARK 927      BINDING AFFINITY PREDICTED BY RF-SCORE:    0.00 PKD
ROOT
HETATM    1  C   UNL     1     -10.568  17.322  68.041  1.00  0.00    -0.394 C  
HETATM    2  N   UNL     1      -9.470  16.362  68.025  1.00  0.00    -0.215 NA 
HETATM    3  H   UNL     1      -8.987  16.353  68.924  1.00  0.00     0.000 HD 
ENDROOT
BRANCH   2   4
HETATM    4  C   UNL     1      -9.881  14.999  67.640  1.00  0.00    -0.220 C  
HETATM    5  C   UNL     1      -8.982  13.934  68.278  1.00  0.00    -0.187 C  
BRANCH   4   6
HETATM    6  C   UNL     1     -11.361  14.816  68.055  1.00  0.00    -0.332 C  
BRANCH   6   7
HETATM    7  C   UNL     1     -11.550  13.754  69.143  1.00  0.00    -0.363 C  
BRANCH   7   8
HETATM    8  C   UNL     1     -12.639  14.102  70.120  1.00  0.00    -0.325 C  
HETATM    9  C   UNL     1     -12.520  14.863  71.225  1.00  0.00    -0.396 C  
HETATM   10  C   UNL     1     -11.225  15.425  71.741  1.00  0.00    -0.380 C  
HETATM   11  C   UNL     1     -13.728  15.211  72.055  1.00  0.00    -0.576 C  
ENDBRANCH   7   8
ENDBRANCH   6   7
ENDBRANCH   4   6
ENDBRANCH   2   4
TORSDOF 4
ENDMDL
MODEL      122
REMARK 921   NORMALIZED FREE ENERGY PREDICTED BY IDOCK:   -2.82 KCAL/MOL
REMARK 922        TOTAL FREE ENERGY PREDICTED BY IDOCK:   -3.71 KCAL/MOL
REMARK 923 INTER-LIGAND FREE ENERGY PREDICTED BY IDOCK:   -3.30 KCAL/MOL
REMARK 924 INTRA-LIGAND FREE ENERGY PREDICTED BY IDOCK:   -0.41 KCAL/MOL
REMARK 927      BINDING AFFINITY PREDICTED BY RF-SCORE:    0.00 PKD
ROOT
HETATM    1  C   UNL     1     -11.131  15.998  69.579  1.00  0.00    -0.333 C  
HETATM    2  N   UNL     1     -12.095  15.469  68.622  1.00  0.00    -0.563 NA 
HETATM    3  H   UNL     1     -12.410  16.201  67.986  1.00  0.00     0.000 HD 
ENDROOT
BRANCH   2   4
HETATM    4  C   UNL     1     -11.600  14.302  67.868  1.00  0.00    -0.336 C  
HETATM    5  C   UNL     1     -12.323  14.146  66.525  1.00  0.00    -0.405 C  
BRANCH   4   6
HETATM    6  C   UNL     1     -10.075  14.475  67.674  1.00  0.00    -0.228 C  
BRANCH   6   7
HETATM    7  C   UNL     1      -9.292  13.177  67.894  1.00  0.00    -0.215 C  
BRANCH   7   8
HETATM    8  C   UNL     1      -9.271  12.291  66.678  1.00  0.00    -0.208 C  
HETATM    9  C   UNL     1     -10.008  11.183  66.474  1.00  0.00    -0.252 C  
HETATM   10  C   UNL     1     -10.926  10.566  67.492  1.00  0.00    -0.365 C  
HETATM   11  C   UNL     1      -9.954  10.454  65.157  1.00  0.00    -0.390 C  
ENDBRANCH   7   8
ENDBRANCH   6   7
ENDBRANCH   4   6
ENDBRANCH   2   4
TORSDOF 4
ENDMDL
MODEL      123
REMARK 921   NORMALIZED FREE ENERGY PREDICTED BY IDOCK:   -2.81 KCAL/MOL
REMARK 922        TOTAL FREE ENERGY PREDICTED BY IDOCK:   -3.70 KCAL/MOL
REMARK 923 INTER-LIGAND FREE ENERGY PREDICTED BY IDOCK:   -3.52 KCAL/MOL
REMARK 924 INTRA-LIGAND FREE ENERGY PREDICTED BY IDOCK:   -0.18 KCAL/MOL
REMARK 927      BINDING AFFINITY PREDICTED BY RF-SCORE:    0.00 PKD
ROOT
HETATM    1  C   UNL     1     -11.000  12.136  63.465  1.00  0.00    -0.453 C  
HETATM    2  N   UNL     1     -10.035  12.845  64.297  1.00  0.00    -0.621 NA 
HETATM    3  H   UNL     1     -10.298  13.826  64.397  1.00  0.00     0.000 HD 
ENDROOT
BRANCH   2   4
HETATM    4  C   UNL     1      -9.825  12.224  65.619  1.00  0.00    -0.231 C  
HETATM    5  C   UNL     1     -10.909  12.641  66.620  1.00  0.00    -0.286 C  
BRANCH   4   6
HETATM    6  C   UNL     1      -9.795  10.690  65.422  1.00  0.00    -0.325 C  
BRANCH   6   7
HETATM    7  C   UNL     1      -9.705   9.919  66.742  1.00  0.00    -0.244 C  
BRANCH   7   8
HETATM    8  C   UNL     1     -10.105   8.475  66.607  1.00  0.00    -0.364 C  
HETATM    9  C   UNL     1     -10.438   7.632  67.603  1.00  0.00    -0.313 C  
HETATM   10  C   UNL     1     -10.368   7.968  69.067  1.00  0.00    -0.228 C  
HETATM   11  C   UNL     1     -10.918   6.237  67.303  1.00  0.00    -0.455 C  
ENDBRANCH   7   8
ENDBRANCH   6   7
ENDBRANCH   4   6
ENDBRANCH   2   4
TORSDOF 4
ENDMDL
MODEL      124
REMARK 921   NORMALIZED FREE ENERGY PREDICTED BY IDOCK:   -2.79 KCAL/MOL
REMARK 922        TOTAL FREE ENERGY PREDICTED BY IDOCK:   -3.68 KCAL/MOL
REMARK 923 INTER-LIGAND FREE ENERGY PREDICTED BY IDOCK:   -3.43 KCAL/MOL
REMARK 924 INTRA-LIGAND FREE ENERGY PREDICTED BY IDOCK:   -0.25 KCAL/MOL
REMARK 927      BINDING AFFINITY PREDICTED BY RF-SCORE:    0.00 PKD
ROOT
HETATM    1  C   UNL     1      -7.430  14.895  69.415  1.00  0.00    -0.174 C  
HETATM    2  N   UNL     1      -8.464  13.977  68.952  1.00  0.00    -0.351 NA 
HETATM    3  H   UNL     1      -8.883  13.481  69.738  1.00  0.00     0.000 HD 
ENDROOT
BRANCH   2   4
HETATM    4  C   UNL     1      -9.504  14.624  68.130  1.00  0.00    -0.212 C  
HETATM    5  C   UNL     1     -10.903  14.093  68.464  1.00  0.00    -0.264 C  
BRANCH   4   6
HETATM    6  C   UNL     1      -9.407  16.151  68.359  1.00  0.00    -0.206 C  
BRANCH   6   7
HETATM    7  C   UNL     1     -10.757  16.863  68.226  1.00  0.00    -0.377 C  
BRANCH   7   8
HETATM    8  C   UNL     1     -10.782  17.867  67.105  1.00  0.00    -0.241 C  
HETATM    9  C   UNL     1     -10.445  19.169  67.180  1.00  0.00    -0.539 C  
HETATM   10  C   UNL     1     -10.074  19.885  68.448  1.00  0.00    -0.557 C  
HETATM   11  C   UNL     1     -10.423  20.030  65.945  1.00  0.00    -0.511 C  
ENDBRANCH   7   8
ENDBRANCH   6   7
ENDBRANCH   4   6
ENDBRANCH   2   4
TORSDOF 4
ENDMDL
MODEL      125
REMARK 921   NORMALIZED FREE ENERGY PREDICTED BY IDOCK:   -2.79 KCAL/MOL
REMARK 922        TOTAL FREE ENERGY PREDICTED BY IDOCK:   -3.68 KCAL/MOL
REMARK 923 INTER-LIGAND FREE ENERGY PREDICTED BY IDOCK:   -3.53 KCAL/MOL
REMARK 924 INTRA-LIGAND FREE ENERGY PREDICTED BY IDOCK:   -0.15 KCAL/MOL
REMARK 927      BINDING AFFINITY PREDICTED BY RF-SCORE:    0.00 PKD
ROOT
HETATM    1  C   UNL     1      -8.004  16.163  66.911  1.00  0.00    -0.244 C  
HETATM    2  N   UNL     1      -8.840  16.924  67.831  1.00  0.00    -0.214 NA 
HETATM    3  H   UNL     1      -8.448  17.852  67.991  1.00  0.00     0.000 HD 
ENDROOT
BRANCH   2   4
HETATM    4  C   UNL     1     -10.250  17.019  67.408  1.00  0.00    -0.314 C  
HETATM    5  C   UNL     1     -11.164  16.152  68.281  1.00  0.00    -0.343 C  
BRANCH   4   6
HETATM    6  C   UNL     1     -10.660  18.511  67.463  1.00  0.00    -0.461 C  
BRANCH   6   7
HETATM    7  C   UNL     1      -9.725  19.357  68.332  1.00  0.00    -0.488 C  
BRANCH   7   8
HETATM    8  C   UNL     1      -8.765  20.188  67.524  1.00  0.00    -0.415 C  
HETATM    9  C   UNL     1      -7.435  20.292  67.706  1.00  0.00    -0.319 C  
HETATM   10  C   UNL     1      -6.676  19.662  68.841  1.00  0.00    -0.353 C  
HETATM   11  C   UNL     1      -6.586  21.086  66.749  1.00  0.00    -0.378 C  
ENDBRANCH   7   8
ENDBRANCH   6   7
ENDBRANCH   4   6
ENDBRANCH   2   4
TORSDOF 4
ENDMDL
MODEL      126
REMARK 921   NORMALIZED FREE ENERGY PREDICTED BY IDOCK:   -2.78 KCAL/MOL
REMARK 922        TOTAL FREE ENERGY PREDICTED BY IDOCK:   -3.67 KCAL/MOL
REMARK 923 INTER-LIGAND FREE ENERGY PREDICTED BY IDOCK:   -3.38 KCAL/MOL
REMARK 924 INTRA-LIGAND FREE ENERGY PREDICTED BY IDOCK:   -0.29 KCAL/MOL
REMARK 927      BINDING AFFINITY PREDICTED BY RF-SCORE:    0.00 PKD
ROOT
HETATM    1  C   UNL     1      -8.044  10.279  65.219  1.00  0.00    -0.151 C  
HETATM    2  N   UNL     1      -8.987  11.284  65.695  1.00  0.00    -0.300 NA 
HETATM    3  H   UNL     1      -9.110  12.020  65.000  1.00  0.00     0.000 HD 
ENDROOT
BRANCH   2   4
HETATM    4  C   UNL     1     -10.291  10.727  66.101  1.00  0.00    -0.239 C  
HETATM    5  C   UNL     1     -10.145   9.328  66.711  1.00  0.00    -0.331 C  
BRANCH   4   6
HETATM    6  C   UNL     1     -10.938  11.716  67.099  1.00  0.00    -0.330 C  
BRANCH   6   7
HETATM    7  C   UNL     1     -10.477  11.497  68.543  1.00  0.00    -0.228 C  
BRANCH   7   8
HETATM    8  C   UNL     1     -11.621  11.381  69.514  1.00  0.00    -0.399 C  
HETATM    9  C   UNL     1     -11.714  10.532  70.555  1.00  0.00    -0.443 C  
HETATM   10  C   UNL     1     -10.712   9.457  70.874  1.00  0.00    -0.393 C  
HETATM   11  C   UNL     1     -12.880  10.602  71.504  1.00  0.00    -0.567 C  
ENDBRANCH   7   8
ENDBRANCH   6   7
ENDBRANCH   4   6
ENDBRANCH   2   4
TORSDOF 4
ENDMDL
MODEL      127
REMARK 921   NORMALIZED FREE ENERGY PREDICTED BY IDOCK:   -2.78 KCAL/MOL
REMARK 922        TOTAL FREE ENERGY PREDICTED BY IDOCK:   -3.66 KCAL/MOL
REMARK 923 INTER-LIGAND FREE ENERGY PREDICTED BY IDOCK:   -3.33 KCAL/MOL
REMARK 924 INTRA-LIGAND FREE ENERGY PREDICTED BY IDOCK:   -0.33 KCAL/MOL
REMARK 927      BINDING AFFINITY PREDICTED BY RF-SCORE:    0.00 PKD
ROOT
HETATM    1  C   UNL     1     -13.556   9.098  72.371  1.00  0.00    -0.483 C  
HETATM    2  N   UNL     1     -13.469   9.370  70.941  1.00  0.00    -0.587 NA 
HETATM    3  H   UNL     1     -14.288   9.887  70.623  1.00  0.00     0.000 HD 
ENDROOT
BRANCH   2   4
HETATM    4  C   UNL     1     -12.229  10.065  70.546  1.00  0.00    -0.222 C  
HETATM    5  C   UNL     1     -12.350  11.583  70.716  1.00  0.00    -0.472 C  
BRANCH   4   6
HETATM    6  C   UNL     1     -11.072   9.488  71.396  1.00  0.00    -0.438 C  
BRANCH   6   7
HETATM    7  C   UNL     1      -9.965   8.854  70.548  1.00  0.00    -0.243 C  
BRANCH   7   8
HETATM    8  C   UNL     1     -10.296   8.820  69.081  1.00  0.00    -0.227 C  
HETATM    9  C   UNL     1      -9.810   9.634  68.125  1.00  0.00    -0.172 C  
HETATM   10  C   UNL     1      -8.911  10.812  68.380  1.00  0.00    -0.153 C  
HETATM   11  C   UNL     1     -10.157   9.413  66.676  1.00  0.00    -0.332 C  
ENDBRANCH   7   8
ENDBRANCH   6   7
ENDBRANCH   4   6
ENDBRANCH   2   4
TORSDOF 4
ENDMDL
MODEL      128
REMARK 921   NORMALIZED FREE ENERGY PREDICTED BY IDOCK:   -2.76 KCAL/MOL
REMARK 922        TOTAL FREE ENERGY PREDICTED BY IDOCK:   -3.64 KCAL/MOL
REMARK 923 INTER-LIGAND FREE ENERGY PREDICTED BY IDOCK:   -3.30 KCAL/MOL
REMARK 924 INTRA-LIGAND FREE ENERGY PREDICTED BY IDOCK:   -0.35 KCAL/MOL
REMARK 927      BINDING AFFINITY PREDICTED BY RF-SCORE:    0.00 PKD
ROOT
HETATM    1  C   UNL     1     -11.321   5.266  72.731  1.00  0.00    -0.276 C  
HETATM    2  N   UNL     1     -12.452   6.172  72.567  1.00  0.00    -0.533 NA 
HETATM    3  H   UNL     1     -12.766   6.522  73.472  1.00  0.00     0.000 HD 
ENDROOT
BRANCH   2   4
HETATM    4  C   UNL     1     -12.187   7.288  71.640  1.00  0.00    -0.343 C  
HETATM    5  C   UNL     1     -11.236   8.322  72.254  1.00  0.00    -0.443 C  
BRANCH   4   6
HETATM    6  C   UNL     1     -11.609   6.691  70.334  1.00  0.00    -0.457 C  
BRANCH   6   7
HETATM    7  C   UNL     1     -10.245   7.279  69.960  1.00  0.00    -0.206 C  
BRANCH   7   8
HETATM    8  C   UNL     1     -10.167   7.710  68.520  1.00  0.00    -0.220 C  
HETATM    9  C   UNL     1     -10.459   8.927  68.024  1.00  0.00    -0.263 C  
HETATM   10  C   UNL     1     -11.025  10.065  68.828  1.00  0.00    -0.242 C  
HETATM   11  C   UNL     1     -10.234   9.240  66.568  1.00  0.00    -0.316 C  
ENDBRANCH   7   8
ENDBRANCH   6   7
ENDBRANCH   4   6
ENDBRANCH   2   4
TORSDOF 4
ENDMDL
MODEL      129
REMARK 921   NORMALIZED FREE ENERGY PREDICTED BY IDOCK:   -2.74 KCAL/MOL
REMARK 922        TOTAL FREE ENERGY PREDICTED BY IDOCK:   -3.61 KCAL/MOL
REMARK 923 INTER-LIGAND FREE ENERGY PREDICTED BY IDOCK:   -3.42 KCAL/MOL
REMARK 924 INTRA-LIGAND FREE ENERGY PREDICTED BY IDOCK:   -0.19 KCAL/MOL
REMARK 927      BINDING AFFINITY PREDICTED BY RF-SCORE:    0.00 PKD
ROOT
HETATM    1  C   UNL     1     -13.372   7.539  71.471  1.00  0.00    -0.352 C  
HETATM    2  N   UNL     1     -12.531   8.554  70.846  1.00  0.00    -0.494 NA 
HETATM    3  H   UNL     1     -12.508   9.401  71.413  1.00  0.00     0.000 HD 
ENDROOT
BRANCH   2   4
HETATM    4  C   UNL     1     -11.163   8.088  70.550  1.00  0.00    -0.250 C  
HETATM    5  C   UNL     1     -11.139   6.601  70.176  1.00  0.00    -0.384 C  
BRANCH   4   6
HETATM    6  C   UNL     1     -10.600   8.969  69.409  1.00  0.00    -0.231 C  
BRANCH   6   7
HETATM    7  C   UNL     1     -10.933  10.454  69.580  1.00  0.00    -0.325 C  
BRANCH   7   8
HETATM    8  C   UNL     1     -11.520  11.071  68.340  1.00  0.00    -0.378 C  
HETATM    9  C   UNL     1     -11.055  12.147  67.676  1.00  0.00    -0.320 C  
HETATM   10  C   UNL     1      -9.903  12.999  68.128  1.00  0.00    -0.228 C  
HETATM   11  C   UNL     1     -11.692  12.588  66.384  1.00  0.00    -0.458 C  
ENDBRANCH   7   8
ENDBRANCH   6   7
ENDBRANCH   4   6
ENDBRANCH   2   4
TORSDOF 4
ENDMDL
MODEL      130
REMARK 921   NORMALIZED FREE ENERGY PREDICTED BY IDOCK:   -2.73 KCAL/MOL
REMARK 922        TOTAL FREE ENERGY PREDICTED BY IDOCK:   -3.61 KCAL/MOL
REMARK 923 INTER-LIGAND FREE ENERGY PREDICTED BY IDOCK:   -3.34 KCAL/MOL
REMARK 924 INTRA-LIGAND FREE ENERGY PREDICTED BY IDOCK:   -0.26 KCAL/MOL
REMARK 927      BINDING AFFINITY PREDICTED BY RF-SCORE:    0.00 PKD
ROOT
HETATM    1  C   UNL     1     -12.070  13.334  70.192  1.00  0.00    -0.333 C  
HETATM    2  N   UNL     1     -11.014  14.147  69.602  1.00  0.00    -0.437 NA 
HETATM    3  H   UNL     1     -10.160  13.600  69.486  1.00  0.00     0.000 HD 
ENDROOT
BRANCH   2   4
HETATM    4  C   UNL     1     -11.400  14.785  68.329  1.00  0.00    -0.301 C  
HETATM    5  C   UNL     1     -11.151  16.298  68.355  1.00  0.00    -0.362 C  
BRANCH   4   6
HETATM    6  C   UNL     1     -10.603  14.098  67.194  1.00  0.00    -0.278 C  
BRANCH   6   7
HETATM    7  C   UNL     1     -11.466  13.168  66.337  1.00  0.00    -0.374 C  
BRANCH   7   8
HETATM    8  C   UNL     1     -11.332  11.720  66.724  1.00  0.00    -0.385 C  
HETATM    9  C   UNL     1     -10.493  10.815  66.185  1.00  0.00    -0.278 C  
HETATM   10  C   UNL     1      -9.598  11.074  65.006  1.00  0.00    -0.291 C  
HETATM   11  C   UNL     1     -10.398   9.421  66.749  1.00  0.00    -0.303 C  
ENDBRANCH   7   8
ENDBRANCH   6   7
ENDBRANCH   4   6
ENDBRANCH   2   4
TORSDOF 4
ENDMDL
MODEL      131
REMARK 921   NORMALIZED FREE ENERGY PREDICTED BY IDOCK:   -2.72 KCAL/MOL
REMARK 922        TOTAL FREE ENERGY PREDICTED BY IDOCK:   -3.60 KCAL/MOL
REMARK 923 INTER-LIGAND FREE ENERGY PREDICTED BY IDOCK:   -3.23 KCAL/MOL
REMARK 924 INTRA-LIGAND FREE ENERGY PREDICTED BY IDOCK:   -0.37 KCAL/MOL
REMARK 927      BINDING AFFINITY PREDICTED BY RF-SCORE:    0.00 PKD
ROOT
HETATM    1  C   UNL     1      -6.945  15.707  69.368  1.00  0.00    -0.196 C  
HETATM    2  N   UNL     1      -7.445  15.265  68.072  1.00  0.00    -0.112 NA 
HETATM    3  H   UNL     1      -7.699  14.278  68.101  1.00  0.00     0.000 HD 
ENDROOT
BRANCH   2   4
HETATM    4  C   UNL     1      -8.568  16.076  67.563  1.00  0.00    -0.178 C  
HETATM    5  C   UNL     1      -9.056  15.577  66.199  1.00  0.00    -0.359 C  
BRANCH   4   6
HETATM    6  C   UNL     1      -9.697  16.037  68.620  1.00  0.00    -0.217 C  
BRANCH   6   7
HETATM    7  C   UNL     1     -10.700  17.184  68.467  1.00  0.00    -0.326 C  
BRANCH   7   8
HETATM    8  C   UNL     1     -10.038  18.522  68.283  1.00  0.00    -0.424 C  
HETATM    9  C   UNL     1     -10.048  19.282  67.171  1.00  0.00    -0.473 C  
HETATM   10  C   UNL     1     -10.651  18.868  65.858  1.00  0.00    -0.438 C  
HETATM   11  C   UNL     1      -9.423  20.652  67.169  1.00  0.00    -0.505 C  
ENDBRANCH   7   8
ENDBRANCH   6   7
ENDBRANCH   4   6
ENDBRANCH   2   4
TORSDOF 4
ENDMDL
MODEL      132
REMARK 921   NORMALIZED FREE ENERGY PREDICTED BY IDOCK:   -2.72 KCAL/MOL
REMARK 922        TOTAL FREE ENERGY PREDICTED BY IDOCK:   -3.59 KCAL/MOL
REMARK 923 INTER-LIGAND FREE ENERGY PREDICTED BY IDOCK:   -3.18 KCAL/MOL
REMARK 924 INTRA-LIGAND FREE ENERGY PREDICTED BY IDOCK:   -0.41 KCAL/MOL
REMARK 927      BINDING AFFINITY PREDICTED BY RF-SCORE:    0.00 PKD
ROOT
HETATM    1  C   UNL     1     -10.701   3.720  63.989  1.00  0.00    -0.242 C  
HETATM    2  N   UNL     1     -11.318   4.488  65.064  1.00  0.00    -1.108 NA 
HETATM    3  H   UNL     1     -12.178   4.039  65.379  1.00  0.00     0.000 HD 
ENDROOT
BRANCH   2   4
HETATM    4  C   UNL     1     -10.415   4.744  66.202  1.00  0.00    -0.290 C  
HETATM    5  C   UNL     1      -8.943   4.591  65.803  1.00  0.00    -0.131 C  
BRANCH   4   6
HETATM    6  C   UNL     1     -10.715   6.166  66.733  1.00  0.00    -0.371 C  
BRANCH   6   7
HETATM    7  C   UNL     1     -10.992   6.195  68.239  1.00  0.00    -0.397 C  
BRANCH   7   8
HETATM    8  C   UNL     1      -9.738   6.294  69.065  1.00  0.00    -0.147 C  
HETATM    9  C   UNL     1      -9.068   5.277  69.641  1.00  0.00    -0.149 C  
HETATM   10  C   UNL     1      -9.526   3.845  69.645  1.00  0.00    -0.263 C  
HETATM   11  C   UNL     1      -7.765   5.520  70.354  1.00  0.00    -0.085 C  
ENDBRANCH   7   8
ENDBRANCH   6   7
ENDBRANCH   4   6
ENDBRANCH   2   4
TORSDOF 4
ENDMDL
MODEL      133
REMARK 921   NORMALIZED FREE ENERGY PREDICTED BY IDOCK:   -2.71 KCAL/MOL
REMARK 922        TOTAL FREE ENERGY PREDICTED BY IDOCK:   -3.58 KCAL/MOL
REMARK 923 INTER-LIGAND FREE ENERGY PREDICTED BY IDOCK:   -3.25 KCAL/MOL
REMARK 924 INTRA-LIGAND FREE ENERGY PREDICTED BY IDOCK:   -0.33 KCAL/MOL
REMARK 927      BINDING AFFINITY PREDICTED BY RF-SCORE:    0.00 PKD
ROOT
HETATM    1  C   UNL     1      -9.847  17.819  67.547  1.00  0.00    -0.304 C  
HETATM    2  N   UNL     1     -10.835  17.225  68.440  1.00  0.00    -0.325 NA 
HETATM    3  H   UNL     1     -11.559  16.743  67.907  1.00  0.00     0.000 HD 
ENDROOT
BRANCH   2   4
HETATM    4  C   UNL     1     -10.251  16.327  69.455  1.00  0.00    -0.265 C  
HETATM    5  C   UNL     1     -11.062  16.338  70.756  1.00  0.00    -0.217 C  
BRANCH   4   6
HETATM    6  C   UNL     1     -10.177  14.907  68.844  1.00  0.00    -0.238 C  
BRANCH   6   7
HETATM    7  C   UNL     1     -11.554  14.266  68.653  1.00  0.00    -0.352 C  
BRANCH   7   8
HETATM    8  C   UNL     1     -11.622  12.855  69.171  1.00  0.00    -0.375 C  
HETATM    9  C   UNL     1     -12.283  12.427  70.263  1.00  0.00    -0.345 C  
HETATM   10  C   UNL     1     -13.002  13.322  71.234  1.00  0.00    -0.353 C  
HETATM   11  C   UNL     1     -12.344  10.960  70.601  1.00  0.00    -0.470 C  
ENDBRANCH   7   8
ENDBRANCH   6   7
ENDBRANCH   4   6
ENDBRANCH   2   4
TORSDOF 4
ENDMDL
MODEL      134
REMARK 921   NORMALIZED FREE ENERGY PREDICTED BY IDOCK:   -2.71 KCAL/MOL
REMARK 922        TOTAL FREE ENERGY PREDICTED BY IDOCK:   -3.57 KCAL/MOL
REMARK 923 INTER-LIGAND FREE ENERGY PREDICTED BY IDOCK:   -3.23 KCAL/MOL
REMARK 924 INTRA-LIGAND FREE ENERGY PREDICTED BY IDOCK:   -0.35 KCAL/MOL
REMARK 927      BINDING AFFINITY PREDICTED BY RF-SCORE:    0.00 PKD
ROOT
HETATM    1  C   UNL     1      -8.907  11.453  66.402  1.00  0.00    -0.192 C  
HETATM    2  N   UNL     1      -9.659  12.540  65.786  1.00  0.00    -0.410 NA 
HETATM    3  H   UNL     1     -10.607  12.239  65.561  1.00  0.00     0.000 HD 
ENDROOT
BRANCH   2   4
HETATM    4  C   UNL     1      -9.681  13.774  66.593  1.00  0.00    -0.289 C  
HETATM    5  C   UNL     1      -8.386  13.954  67.393  1.00  0.00    -0.208 C  
BRANCH   4   6
HETATM    6  C   UNL     1      -9.924  14.963  65.632  1.00  0.00    -0.389 C  
BRANCH   6   7
HETATM    7  C   UNL     1      -9.061  16.185  65.963  1.00  0.00    -0.354 C  
BRANCH   7   8
HETATM    8  C   UNL     1      -9.873  17.428  66.207  1.00  0.00    -0.291 C  
HETATM    9  C   UNL     1     -10.196  17.959  67.402  1.00  0.00    -0.363 C  
HETATM   10  C   UNL     1      -9.881  17.331  68.731  1.00  0.00    -0.306 C  
HETATM   11  C   UNL     1     -10.932  19.271  67.487  1.00  0.00    -0.426 C  
ENDBRANCH   7   8
ENDBRANCH   6   7
ENDBRANCH   4   6
ENDBRANCH   2   4
TORSDOF 4
ENDMDL
MODEL      135
REMARK 921   NORMALIZED FREE ENERGY PREDICTED BY IDOCK:   -2.69 KCAL/MOL
REMARK 922        TOTAL FREE ENERGY PREDICTED BY IDOCK:   -3.56 KCAL/MOL
REMARK 923 INTER-LIGAND FREE ENERGY PREDICTED BY IDOCK:   -3.26 KCAL/MOL
REMARK 924 INTRA-LIGAND FREE ENERGY PREDICTED BY IDOCK:   -0.30 KCAL/MOL
REMARK 927      BINDING AFFINITY PREDICTED BY RF-SCORE:    0.00 PKD
ROOT
HETATM    1  C   UNL     1     -11.581  11.091  69.031  1.00  0.00    -0.323 C  
HETATM    2  N   UNL     1     -10.774  10.568  70.127  1.00  0.00    -0.447 NA 
HETATM    3  H   UNL     1     -10.098  11.265  70.441  1.00  0.00     0.000 HD 
ENDROOT
BRANCH   2   4
HETATM    4  C   UNL     1     -11.572  10.068  71.262  1.00  0.00    -0.350 C  
HETATM    5  C   UNL     1     -13.076  10.154  70.980  1.00  0.00    -0.458 C  
BRANCH   4   6
HETATM    6  C   UNL     1     -11.130   8.612  71.546  1.00  0.00    -0.358 C  
BRANCH   6   7
HETATM    7  C   UNL     1     -10.059   8.112  70.572  1.00  0.00    -0.201 C  
BRANCH   7   8
HETATM    8  C   UNL     1     -10.603   7.169  69.534  1.00  0.00    -0.247 C  
HETATM    9  C   UNL     1     -10.427   7.246  68.201  1.00  0.00    -0.244 C  
HETATM   10  C   UNL     1      -9.726   8.372  67.495  1.00  0.00    -0.209 C  
HETATM   11  C   UNL     1     -10.950   6.166  67.291  1.00  0.00    -0.418 C  
ENDBRANCH   7   8
ENDBRANCH   6   7
ENDBRANCH   4   6
ENDBRANCH   2   4
TORSDOF 4
ENDMDL
MODEL      136
REMARK 921   NORMALIZED FREE ENERGY PREDICTED BY IDOCK:   -2.68 KCAL/MOL
REMARK 922        TOTAL FREE ENERGY PREDICTED BY IDOCK:   -3.55 KCAL/MOL
REMARK 923 INTER-LIGAND FREE ENERGY PREDICTED BY IDOCK:   -3.25 KCAL/MOL
REMARK 924 INTRA-LIGAND FREE ENERGY PREDICTED BY IDOCK:   -0.29 KCAL/MOL
REMARK 927      BINDING AFFINITY PREDICTED BY RF-SCORE:    0.00 PKD
ROOT
HETATM    1  C   UNL     1      -9.517   5.540  70.541  1.00  0.00    -0.164 C  
HETATM    2  N   UNL     1     -10.456   6.603  70.878  1.00  0.00    -0.212 NA 
HETATM    3  H   UNL     1     -11.352   6.212  71.171  1.00  0.00     0.000 HD 
ENDROOT
BRANCH   2   4
HETATM    4  C   UNL     1      -9.943   7.546  71.889  1.00  0.00    -0.171 C  
HETATM    5  C   UNL     1      -8.657   7.031  72.545  1.00  0.00    -0.132 C  
BRANCH   4   6
HETATM    6  C   UNL     1      -9.718   8.910  71.193  1.00  0.00    -0.344 C  
BRANCH   6   7
HETATM    7  C   UNL     1     -10.861   9.294  70.248  1.00  0.00    -0.286 C  
BRANCH   7   8
HETATM    8  C   UNL     1     -11.644  10.485  70.729  1.00  0.00    -0.432 C  
HETATM    9  C   UNL     1     -12.692  10.475  71.575  1.00  0.00    -0.558 C  
HETATM   10  C   UNL     1     -13.341   9.232  72.117  1.00  0.00    -0.537 C  
HETATM   11  C   UNL     1     -13.313  11.763  72.048  1.00  0.00    -0.417 C  
ENDBRANCH   7   8
ENDBRANCH   6   7
ENDBRANCH   4   6
ENDBRANCH   2   4
TORSDOF 4
ENDMDL
MODEL      137
REMARK 921   NORMALIZED FREE ENERGY PREDICTED BY IDOCK:   -2.67 KCAL/MOL
REMARK 922        TOTAL FREE ENERGY PREDICTED BY IDOCK:   -3.53 KCAL/MOL
REMARK 923 INTER-LIGAND FREE ENERGY PREDICTED BY IDOCK:   -3.21 KCAL/MOL
REMARK 924 INTRA-LIGAND FREE ENERGY PREDICTED BY IDOCK:   -0.31 KCAL/MOL
REMARK 927      BINDING AFFINITY PREDICTED BY RF-SCORE:    0.00 PKD
ROOT
HETATM    1  C   UNL     1     -12.261  14.209  66.077  1.00  0.00    -0.443 C  
HETATM    2  N   UNL     1     -12.411  14.344  67.521  1.00  0.00    -0.600 NA 
HETATM    3  H   UNL     1     -13.349  14.070  67.813  1.00  0.00     0.000 HD 
ENDROOT
BRANCH   2   4
HETATM    4  C   UNL     1     -11.390  13.611  68.293  1.00  0.00    -0.289 C  
HETATM    5  C   UNL     1     -11.918  13.178  69.665  1.00  0.00    -0.370 C  
BRANCH   4   6
HETATM    6  C   UNL     1     -10.940  12.396  67.448  1.00  0.00    -0.296 C  
BRANCH   6   7
HETATM    7  C   UNL     1     -11.581  11.081  67.903  1.00  0.00    -0.306 C  
BRANCH   7   8
HETATM    8  C   UNL     1     -10.726   9.878  67.610  1.00  0.00    -0.339 C  
HETATM    9  C   UNL     1      -9.896   9.249  68.464  1.00  0.00    -0.173 C  
HETATM   10  C   UNL     1      -9.596   9.712  69.862  1.00  0.00    -0.260 C  
HETATM   11  C   UNL     1      -9.180   7.990  68.054  1.00  0.00    -0.139 C  
ENDBRANCH   7   8
ENDBRANCH   6   7
ENDBRANCH   4   6
ENDBRANCH   2   4
TORSDOF 4
ENDMDL
MODEL      138
REMARK 921   NORMALIZED FREE ENERGY PREDICTED BY IDOCK:   -2.66 KCAL/MOL
REMARK 922        TOTAL FREE ENERGY PREDICTED BY IDOCK:   -3.51 KCAL/MOL
REMARK 923 INTER-LIGAND FREE ENERGY PREDICTED BY IDOCK:   -3.32 KCAL/MOL
REMARK 924 INTRA-LIGAND FREE ENERGY PREDICTED BY IDOCK:   -0.19 KCAL/MOL
REMARK 927      BINDING AFFINITY PREDICTED BY RF-SCORE:    0.00 PKD
ROOT
HETATM    1  C   UNL     1     -10.673   4.640  65.609  1.00  0.00    -0.148 C  
HETATM    2  N   UNL     1     -11.187   5.834  66.271  1.00  0.00    -0.734 NA 
HETATM    3  H   UNL     1     -12.158   5.699  66.552  1.00  0.00     0.000 HD 
ENDROOT
BRANCH   2   4
HETATM    4  C   UNL     1     -10.368   6.273  67.416  1.00  0.00    -0.211 C  
HETATM    5  C   UNL     1      -9.759   7.660  67.179  1.00  0.00    -0.239 C  
BRANCH   4   6
HETATM    6  C   UNL     1     -11.267   6.256  68.675  1.00  0.00    -0.328 C  
BRANCH   6   7
HETATM    7  C   UNL     1     -10.570   5.655  69.900  1.00  0.00    -0.399 C  
BRANCH   7   8
HETATM    8  C   UNL     1     -10.400   6.642  71.022  1.00  0.00    -0.234 C  
HETATM    9  C   UNL     1     -10.714   6.455  72.317  1.00  0.00    -0.253 C  
HETATM   10  C   UNL     1     -11.402   5.234  72.862  1.00  0.00    -0.368 C  
HETATM   11  C   UNL     1     -10.390   7.503  73.348  1.00  0.00    -0.405 C  
ENDBRANCH   7   8
ENDBRANCH   6   7
ENDBRANCH   4   6
ENDBRANCH   2   4
TORSDOF 4
ENDMDL
MODEL      139
REMARK 921   NORMALIZED FREE ENERGY PREDICTED BY IDOCK:   -2.65 KCAL/MOL
REMARK 922        TOTAL FREE ENERGY PREDICTED BY IDOCK:   -3.50 KCAL/MOL
REMARK 923 INTER-LIGAND FREE ENERGY PREDICTED BY IDOCK:   -3.14 KCAL/MOL
REMARK 924 INTRA-LIGAND FREE ENERGY PREDICTED BY IDOCK:   -0.37 KCAL/MOL
REMARK 927      BINDING AFFINITY PREDICTED BY RF-SCORE:    0.00 PKD
ROOT
HETATM    1  C   UNL     1      -8.974   8.088  68.551  1.00  0.00    -0.133 C  
HETATM    2  N   UNL     1     -10.338   8.509  68.257  1.00  0.00    -0.226 NA 
HETATM    3  H   UNL     1     -10.892   8.559  69.112  1.00  0.00     0.000 HD 
ENDROOT
BRANCH   2   4
HETATM    4  C   UNL     1     -10.418   9.778  67.509  1.00  0.00    -0.251 C  
HETATM    5  C   UNL     1      -9.964  10.968  68.361  1.00  0.00    -0.194 C  
BRANCH   4   6
HETATM    6  C   UNL     1      -9.553   9.630  66.234  1.00  0.00    -0.281 C  
BRANCH   6   7
HETATM    7  C   UNL     1      -9.443  10.931  65.432  1.00  0.00    -0.254 C  
BRANCH   7   8
HETATM    8  C   UNL     1     -10.611  11.151  64.509  1.00  0.00    -0.397 C  
HETATM    9  C   UNL     1     -11.635  12.006  64.692  1.00  0.00    -0.364 C  
HETATM   10  C   UNL     1     -11.848  12.833  65.929  1.00  0.00    -0.490 C  
HETATM   11  C   UNL     1     -12.683  12.192  63.627  1.00  0.00    -0.549 C  
ENDBRANCH   7   8
ENDBRANCH   6   7
ENDBRANCH   4   6
ENDBRANCH   2   4
TORSDOF 4
ENDMDL
MODEL      140
REMARK 921   NORMALIZED FREE ENERGY PREDICTED BY IDOCK:   -2.65 KCAL/MOL
REMARK 922        TOTAL FREE ENERGY PREDICTED BY IDOCK:   -3.50 KCAL/MOL
REMARK 923 INTER-LIGAND FREE ENERGY PREDICTED BY IDOCK:   -3.13 KCAL/MOL
REMARK 924 INTRA-LIGAND FREE ENERGY PREDICTED BY IDOCK:   -0.37 KCAL/MOL
REMARK 927      BINDING AFFINITY PREDICTED BY RF-SCORE:    0.00 PKD
ROOT
HETATM    1  C   UNL     1     -13.357   9.666  71.948  1.00  0.00    -0.438 C  
HETATM    2  N   UNL     1     -12.927   8.577  72.816  1.00  0.00    -0.636 NA 
HETATM    3  H   UNL     1     -13.683   7.906  72.955  1.00  0.00     0.000 HD 
ENDROOT
BRANCH   2   4
HETATM    4  C   UNL     1     -11.705   7.895  72.348  1.00  0.00    -0.367 C  
HETATM    5  C   UNL     1     -12.029   6.747  71.385  1.00  0.00    -0.403 C  
BRANCH   4   6
HETATM    6  C   UNL     1     -10.797   8.956  71.682  1.00  0.00    -0.420 C  
BRANCH   6   7
HETATM    7  C   UNL     1      -9.304   8.684  71.896  1.00  0.00    -0.357 C  
BRANCH   7   8
HETATM    8  C   UNL     1      -8.540   8.563  70.606  1.00  0.00    -0.163 C  
HETATM    9  C   UNL     1      -8.120   7.425  70.020  1.00  0.00    -0.129 C  
HETATM   10  C   UNL     1      -8.257   6.053  70.620  1.00  0.00    -0.120 C  
HETATM   11  C   UNL     1      -7.452   7.455  68.670  1.00  0.00    -0.102 C  
ENDBRANCH   7   8
ENDBRANCH   6   7
ENDBRANCH   4   6
ENDBRANCH   2   4
TORSDOF 4
ENDMDL
MODEL      141
REMARK 921   NORMALIZED FREE ENERGY PREDICTED BY IDOCK:   -2.65 KCAL/MOL
REMARK 922        TOTAL FREE ENERGY PREDICTED BY IDOCK:   -3.50 KCAL/MOL
REMARK 923 INTER-LIGAND FREE ENERGY PREDICTED BY IDOCK:   -3.33 KCAL/MOL
REMARK 924 INTRA-LIGAND FREE ENERGY PREDICTED BY IDOCK:   -0.17 KCAL/MOL
REMARK 927      BINDING AFFINITY PREDICTED BY RF-SCORE:    0.00 PKD
ROOT
HETATM    1  C   UNL     1      -8.936   5.606  66.636  1.00  0.00    -0.120 C  
HETATM    2  N   UNL     1      -9.759   6.585  65.935  1.00  0.00    -0.379 NA 
HETATM    3  H   UNL     1     -10.369   6.125  65.259  1.00  0.00     0.000 HD 
ENDROOT
BRANCH   2   4
HETATM    4  C   UNL     1     -10.541   7.453  66.836  1.00  0.00    -0.305 C  
HETATM    5  C   UNL     1     -10.724   6.818  68.219  1.00  0.00    -0.290 C  
BRANCH   4   6
HETATM    6  C   UNL     1      -9.813   8.816  66.929  1.00  0.00    -0.295 C  
BRANCH   6   7
HETATM    7  C   UNL     1      -9.358   9.345  65.565  1.00  0.00    -0.315 C  
BRANCH   7   8
HETATM    8  C   UNL     1     -10.141  10.547  65.111  1.00  0.00    -0.383 C  
HETATM    9  C   UNL     1     -10.293  10.980  63.845  1.00  0.00    -0.436 C  
HETATM   10  C   UNL     1      -9.606  10.384  62.648  1.00  0.00    -0.274 C  
HETATM   11  C   UNL     1     -11.195  12.145  63.533  1.00  0.00    -0.536 C  
ENDBRANCH   7   8
ENDBRANCH   6   7
ENDBRANCH   4   6
ENDBRANCH   2   4
TORSDOF 4
ENDMDL
MODEL      142
REMARK 921   NORMALIZED FREE ENERGY PREDICTED BY IDOCK:   -2.65 KCAL/MOL
REMARK 922        TOTAL FREE ENERGY PREDICTED BY IDOCK:   -3.50 KCAL/MOL
REMARK 923 INTER-LIGAND FREE ENERGY PREDICTED BY IDOCK:   -3.28 KCAL/MOL
REMARK 924 INTRA-LIGAND FREE ENERGY PREDICTED BY IDOCK:   -0.22 KCAL/MOL
REMARK 927      BINDING AFFINITY PREDICTED BY RF-SCORE:    0.00 PKD
ROOT
HETATM    1  C   UNL     1     -10.557   5.544  69.269  1.00  0.00    -0.255 C  
HETATM    2  N   UNL     1     -11.299   6.739  68.885  1.00  0.00    -0.561 NA 
HETATM    3  H   UNL     1     -11.969   6.995  69.610  1.00  0.00     0.000 HD 
ENDROOT
BRANCH   2   4
HETATM    4  C   UNL     1     -10.437   7.886  68.543  1.00  0.00    -0.167 C  
HETATM    5  C   UNL     1      -8.988   7.659  68.988  1.00  0.00    -0.137 C  
BRANCH   4   6
HETATM    6  C   UNL     1     -10.533   8.111  67.015  1.00  0.00    -0.396 C  
BRANCH   6   7
HETATM    7  C   UNL     1      -9.932   9.448  66.569  1.00  0.00    -0.339 C  
BRANCH   7   8
HETATM    8  C   UNL     1     -10.562  10.631  67.250  1.00  0.00    -0.313 C  
HETATM    9  C   UNL     1     -11.155  11.684  66.656  1.00  0.00    -0.364 C  
HETATM   10  C   UNL     1     -11.199  11.915  65.171  1.00  0.00    -0.346 C  
HETATM   11  C   UNL     1     -11.835  12.749  67.475  1.00  0.00    -0.402 C  
ENDBRANCH   7   8
ENDBRANCH   6   7
ENDBRANCH   4   6
ENDBRANCH   2   4
TORSDOF 4
ENDMDL
MODEL      143
REMARK 921   NORMALIZED FREE ENERGY PREDICTED BY IDOCK:   -2.64 KCAL/MOL
REMARK 922        TOTAL FREE ENERGY PREDICTED BY IDOCK:   -3.49 KCAL/MOL
REMARK 923 INTER-LIGAND FREE ENERGY PREDICTED BY IDOCK:   -3.24 KCAL/MOL
REMARK 924 INTRA-LIGAND FREE ENERGY PREDICTED BY IDOCK:   -0.25 KCAL/MOL
REMARK 927      BINDING AFFINITY PREDICTED BY RF-SCORE:    0.00 PKD
ROOT
HETATM    1  C   UNL     1     -10.736  16.266  69.505  1.00  0.00    -0.323 C  
HETATM    2  N   UNL     1     -11.084  15.894  68.139  1.00  0.00    -0.331 NA 
HETATM    3  H   UNL     1     -11.314  16.721  67.588  1.00  0.00     0.000 HD 
ENDROOT
BRANCH   2   4
HETATM    4  C   UNL     1     -10.048  15.090  67.463  1.00  0.00    -0.228 C  
HETATM    5  C   UNL     1     -10.494  13.636  67.271  1.00  0.00    -0.260 C  
BRANCH   4   6
HETATM    6  C   UNL     1      -9.730  15.769  66.110  1.00  0.00    -0.351 C  
BRANCH   6   7
HETATM    7  C   UNL     1      -9.851  17.295  66.164  1.00  0.00    -0.269 C  
BRANCH   7   8
HETATM    8  C   UNL     1      -8.686  17.952  66.853  1.00  0.00    -0.258 C  
HETATM    9  C   UNL     1      -8.741  18.937  67.769  1.00  0.00    -0.318 C  
HETATM   10  C   UNL     1     -10.000  19.639  68.196  1.00  0.00    -0.547 C  
HETATM   11  C   UNL     1      -7.490  19.426  68.451  1.00  0.00    -0.355 C  
ENDBRANCH   7   8
ENDBRANCH   6   7
ENDBRANCH   4   6
ENDBRANCH   2   4
TORSDOF 4
ENDMDL
MODEL      144
REMARK 921   NORMALIZED FREE ENERGY PREDICTED BY IDOCK:   -2.62 KCAL/MOL
REMARK 922        TOTAL FREE ENERGY PREDICTED BY IDOCK:   -3.47 KCAL/MOL
REMARK 923 INTER-LIGAND FREE ENERGY PREDICTED BY IDOCK:   -3.24 KCAL/MOL
REMARK 924 INTRA-LIGAND FREE ENERGY PREDICTED BY IDOCK:   -0.23 KCAL/MOL
REMARK 927      BINDING AFFINITY PREDICTED BY RF-SCORE:    0.00 PKD
ROOT
HETATM    1  C   UNL     1     -10.043  16.220  69.011  1.00  0.00    -0.259 C  
HETATM    2  N   UNL     1     -11.000  15.876  70.056  1.00  0.00    -0.329 NA 
HETATM    3  H   UNL     1     -11.849  16.432  69.963  1.00  0.00     0.000 HD 
ENDROOT
BRANCH   2   4
HETATM    4  C   UNL     1     -11.322  14.438  70.113  1.00  0.00    -0.165 C  
HETATM    5  C   UNL     1     -12.058  14.072  71.407  1.00  0.00    -0.252 C  
BRANCH   4   6
HETATM    6  C   UNL     1     -12.166  14.092  68.863  1.00  0.00    -0.257 C  
BRANCH   6   7
HETATM    7  C   UNL     1     -11.584  12.930  68.051  1.00  0.00    -0.385 C  
BRANCH   7   8
HETATM    8  C   UNL     1     -12.030  12.937  66.614  1.00  0.00    -0.436 C  
HETATM    9  C   UNL     1     -11.361  13.450  65.564  1.00  0.00    -0.310 C  
HETATM   10  C   UNL     1     -10.070  14.213  65.662  1.00  0.00    -0.350 C  
HETATM   11  C   UNL     1     -11.890  13.290  64.163  1.00  0.00    -0.497 C  
ENDBRANCH   7   8
ENDBRANCH   6   7
ENDBRANCH   4   6
ENDBRANCH   2   4
TORSDOF 4
ENDMDL
MODEL      145
REMARK 921   NORMALIZED FREE ENERGY PREDICTED BY IDOCK:   -2.61 KCAL/MOL
REMARK 922        TOTAL FREE ENERGY PREDICTED BY IDOCK:   -3.46 KCAL/MOL
REMARK 923 INTER-LIGAND FREE ENERGY PREDICTED BY IDOCK:   -3.28 KCAL/MOL
REMARK 924 INTRA-LIGAND FREE ENERGY PREDICTED BY IDOCK:   -0.18 KCAL/MOL
REMARK 927      BINDING AFFINITY PREDICTED BY RF-SCORE:    0.00 PKD
ROOT
HETATM    1  C   UNL     1     -11.422  15.839  69.188  1.00  0.00    -0.380 C  
HETATM    2  N   UNL     1     -11.463  15.959  67.736  1.00  0.00    -0.203 NA 
HETATM    3  H   UNL     1     -10.961  16.792  67.429  1.00  0.00     0.000 HD 
ENDROOT
BRANCH   2   4
HETATM    4  C   UNL     1     -10.969  14.763  67.029  1.00  0.00    -0.324 C  
HETATM    5  C   UNL     1     -12.119  13.922  66.464  1.00  0.00    -0.484 C  
BRANCH   4   6
HETATM    6  C   UNL     1     -10.010  15.236  65.911  1.00  0.00    -0.368 C  
BRANCH   6   7
HETATM    7  C   UNL     1      -8.676  15.763  66.450  1.00  0.00    -0.372 C  
BRANCH   7   8
HETATM    8  C   UNL     1      -8.486  17.235  66.209  1.00  0.00    -0.278 C  
HETATM    9  C   UNL     1      -7.317  17.903  66.166  1.00  0.00    -0.327 C  
HETATM   10  C   UNL     1      -5.974  17.295  66.461  1.00  0.00    -0.244 C  
HETATM   11  C   UNL     1      -7.278  19.366  65.811  1.00  0.00    -0.302 C  
ENDBRANCH   7   8
ENDBRANCH   6   7
ENDBRANCH   4   6
ENDBRANCH   2   4
TORSDOF 4
ENDMDL
MODEL      146
REMARK 921   NORMALIZED FREE ENERGY PREDICTED BY IDOCK:   -2.61 KCAL/MOL
REMARK 922        TOTAL FREE ENERGY PREDICTED BY IDOCK:   -3.45 KCAL/MOL
REMARK 923 INTER-LIGAND FREE ENERGY PREDICTED BY IDOCK:   -3.26 KCAL/MOL
REMARK 924 INTRA-LIGAND FREE ENERGY PREDICTED BY IDOCK:   -0.19 KCAL/MOL
REMARK 927      BINDING AFFINITY PREDICTED BY RF-SCORE:    0.00 PKD
ROOT
HETATM    1  C   UNL     1     -12.718  11.902  63.361  1.00  0.00    -0.366 C  
HETATM    2  N   UNL     1     -11.693  12.932  63.244  1.00  0.00    -0.815 NA 
HETATM    3  H   UNL     1     -12.108  13.825  62.981  1.00  0.00     0.000 HD 
ENDROOT
BRANCH   2   4
HETATM    4  C   UNL     1     -10.864  13.080  64.455  1.00  0.00    -0.372 C  
HETATM    5  C   UNL     1     -11.065  14.448  65.117  1.00  0.00    -0.365 C  
BRANCH   4   6
HETATM    6  C   UNL     1     -11.224  11.925  65.420  1.00  0.00    -0.351 C  
BRANCH   6   7
HETATM    7  C   UNL     1     -10.107  11.611  66.420  1.00  0.00    -0.246 C  
BRANCH   7   8
HETATM    8  C   UNL     1      -9.928  10.136  66.656  1.00  0.00    -0.272 C  
HETATM    9  C   UNL     1      -8.907   9.368  66.230  1.00  0.00    -0.172 C  
HETATM   10  C   UNL     1      -7.794   9.843  65.337  1.00  0.00    -0.132 C  
HETATM   11  C   UNL     1      -8.812   7.920  66.633  1.00  0.00    -0.166 C  
ENDBRANCH   7   8
ENDBRANCH   6   7
ENDBRANCH   4   6
ENDBRANCH   2   4
TORSDOF 4
ENDMDL
MODEL      147
REMARK 921   NORMALIZED FREE ENERGY PREDICTED BY IDOCK:   -2.59 KCAL/MOL
REMARK 922        TOTAL FREE ENERGY PREDICTED BY IDOCK:   -3.44 KCAL/MOL
REMARK 923 INTER-LIGAND FREE ENERGY PREDICTED BY IDOCK:   -3.22 KCAL/MOL
REMARK 924 INTRA-LIGAND FREE ENERGY PREDICTED BY IDOCK:   -0.21 KCAL/MOL
REMARK 927      BINDING AFFINITY PREDICTED BY RF-SCORE:    0.00 PKD
ROOT
HETATM    1  C   UNL     1     -10.421   6.903  68.304  1.00  0.00    -0.206 C  
HETATM    2  N   UNL     1     -10.975   7.883  67.378  1.00  0.00    -0.517 NA 
HETATM    3  H   UNL     1     -11.951   8.076  67.599  1.00  0.00     0.000 HD 
ENDROOT
BRANCH   2   4
HETATM    4  C   UNL     1     -10.198   9.135  67.307  1.00  0.00    -0.254 C  
HETATM    5  C   UNL     1      -9.854   9.509  65.861  1.00  0.00    -0.360 C  
BRANCH   4   6
HETATM    6  C   UNL     1     -11.027  10.245  67.998  1.00  0.00    -0.345 C  
BRANCH   6   7
HETATM    7  C   UNL     1     -10.156  11.326  68.646  1.00  0.00    -0.216 C  
BRANCH   7   8
HETATM    8  C   UNL     1     -10.607  12.721  68.311  1.00  0.00    -0.251 C  
HETATM    9  C   UNL     1     -11.480  13.476  69.005  1.00  0.00    -0.349 C  
HETATM   10  C   UNL     1     -12.252  13.006  70.207  1.00  0.00    -0.368 C  
HETATM   11  C   UNL     1     -11.757  14.901  68.602  1.00  0.00    -0.358 C  
ENDBRANCH   7   8
ENDBRANCH   6   7
ENDBRANCH   4   6
ENDBRANCH   2   4
TORSDOF 4
ENDMDL
MODEL      148
REMARK 921   NORMALIZED FREE ENERGY PREDICTED BY IDOCK:   -2.59 KCAL/MOL
REMARK 922        TOTAL FREE ENERGY PREDICTED BY IDOCK:   -3.43 KCAL/MOL
REMARK 923 INTER-LIGAND FREE ENERGY PREDICTED BY IDOCK:   -3.13 KCAL/MOL
REMARK 924 INTRA-LIGAND FREE ENERGY PREDICTED BY IDOCK:   -0.30 KCAL/MOL
REMARK 927      BINDING AFFINITY PREDICTED BY RF-SCORE:    0.00 PKD
ROOT
HETATM    1  C   UNL     1     -10.514   8.656  69.786  1.00  0.00    -0.220 C  
HETATM    2  N   UNL     1     -11.871   8.253  70.132  1.00  0.00    -0.396 NA 
HETATM    3  H   UNL     1     -12.502   8.398  69.345  1.00  0.00     0.000 HD 
ENDROOT
BRANCH   2   4
HETATM    4  C   UNL     1     -11.968   6.867  70.629  1.00  0.00    -0.348 C  
HETATM    5  C   UNL     1     -11.012   5.929  69.883  1.00  0.00    -0.444 C  
BRANCH   4   6
HETATM    6  C   UNL     1     -11.674   6.887  72.148  1.00  0.00    -0.327 C  
BRANCH   6   7
HETATM    7  C   UNL     1     -10.548   5.930  72.552  1.00  0.00    -0.256 C  
BRANCH   7   8
HETATM    8  C   UNL     1     -11.053   4.673  73.206  1.00  0.00    -0.403 C  
HETATM    9  C   UNL     1     -10.653   3.413  72.950  1.00  0.00    -0.213 C  
HETATM   10  C   UNL     1      -9.685   3.026  71.867  1.00  0.00    -0.234 C  
HETATM   11  C   UNL     1     -11.178   2.259  73.762  1.00  0.00    -0.293 C  
ENDBRANCH   7   8
ENDBRANCH   6   7
ENDBRANCH   4   6
ENDBRANCH   2   4
TORSDOF 4
ENDMDL
MODEL      149
REMARK 921   NORMALIZED FREE ENERGY PREDICTED BY IDOCK:   -2.59 KCAL/MOL
REMARK 922        TOTAL FREE ENERGY PREDICTED BY IDOCK:   -3.43 KCAL/MOL
REMARK 923 INTER-LIGAND FREE ENERGY PREDICTED BY IDOCK:   -3.17 KCAL/MOL
REMARK 924 INTRA-LIGAND FREE ENERGY PREDICTED BY IDOCK:   -0.26 KCAL/MOL
REMARK 927      BINDING AFFINITY PREDICTED BY RF-SCORE:    0.00 PKD
ROOT
HETATM    1  C   UNL     1     -11.748  13.825  67.716  1.00  0.00    -0.358 C  
HETATM    2  N   UNL     1     -12.519  14.041  66.497  1.00  0.00    -0.512 NA 
HETATM    3  H   UNL     1     -12.315  14.958  66.101  1.00  0.00     0.000 HD 
ENDROOT
BRANCH   2   4
HETATM    4  C   UNL     1     -12.334  12.983  65.485  1.00  0.00    -0.472 C  
HETATM    5  C   UNL     1     -11.697  13.530  64.203  1.00  0.00    -0.453 C  
BRANCH   4   6
HETATM    6  C   UNL     1     -11.468  11.868  66.119  1.00  0.00    -0.352 C  
BRANCH   6   7
HETATM    7  C   UNL     1     -10.304  11.434  65.223  1.00  0.00    -0.336 C  
BRANCH   7   8
HETATM    8  C   UNL     1      -9.038  11.173  65.993  1.00  0.00    -0.217 C  
HETATM    9  C   UNL     1      -8.456   9.978  66.209  1.00  0.00    -0.134 C  
HETATM   10  C   UNL     1      -9.040   8.655  65.797  1.00  0.00    -0.242 C  
HETATM   11  C   UNL     1      -7.128   9.884  66.915  1.00  0.00    -0.090 C  
ENDBRANCH   7   8
ENDBRANCH   6   7
ENDBRANCH   4   6
ENDBRANCH   2   4
TORSDOF 4
ENDMDL
MODEL      150
REMARK 921   NORMALIZED FREE ENERGY PREDICTED BY IDOCK:   -2.59 KCAL/MOL
REMARK 922        TOTAL FREE ENERGY PREDICTED BY IDOCK:   -3.42 KCAL/MOL
REMARK 923 INTER-LIGAND FREE ENERGY PREDICTED BY IDOCK:   -3.18 KCAL/MOL
REMARK 924 INTRA-LIGAND FREE ENERGY PREDICTED BY IDOCK:   -0.24 KCAL/MOL
REMARK 927      BINDING AFFINITY PREDICTED BY RF-SCORE:    0.00 PKD
ROOT
HETATM    1  C   UNL     1      -6.625  14.783  69.250  1.00  0.00    -0.128 C  
HETATM    2  N   UNL     1      -7.980  14.935  69.766  1.00  0.00    -0.414 NA 
HETATM    3  H   UNL     1      -7.966  15.093  70.773  1.00  0.00     0.000 HD 
ENDROOT
BRANCH   2   4
HETATM    4  C   UNL     1      -8.758  15.987  69.084  1.00  0.00    -0.248 C  
HETATM    5  C   UNL     1      -7.858  17.124  68.584  1.00  0.00    -0.265 C  
BRANCH   4   6
HETATM    6  C   UNL     1      -9.533  15.323  67.920  1.00  0.00    -0.197 C  
BRANCH   6   7
HETATM    7  C   UNL     1     -10.935  14.859  68.324  1.00  0.00    -0.268 C  
BRANCH   7   8
HETATM    8  C   UNL     1     -11.451  15.552  69.556  1.00  0.00    -0.341 C  
HETATM    9  C   UNL     1     -11.950  14.969  70.662  1.00  0.00    -0.370 C  
HETATM   10  C   UNL     1     -12.179  13.491  70.820  1.00  0.00    -0.417 C  
HETATM   11  C   UNL     1     -12.334  15.794  71.862  1.00  0.00    -0.533 C  
ENDBRANCH   7   8
ENDBRANCH   6   7
ENDBRANCH   4   6
ENDBRANCH   2   4
TORSDOF 4
ENDMDL
MODEL      151
REMARK 921   NORMALIZED FREE ENERGY PREDICTED BY IDOCK:   -2.58 KCAL/MOL
REMARK 922        TOTAL FREE ENERGY PREDICTED BY IDOCK:   -3.42 KCAL/MOL
REMARK 923 INTER-LIGAND FREE ENERGY PREDICTED BY IDOCK:   -3.44 KCAL/MOL
REMARK 924 INTRA-LIGAND FREE ENERGY PREDICTED BY IDOCK:    0.02 KCAL/MOL
REMARK 927      BINDING AFFINITY PREDICTED BY RF-SCORE:    0.00 PKD
ROOT
HETATM    1  C   UNL     1      -9.979   6.209  73.611  1.00  0.00    -0.203 C  
HETATM    2  N   UNL     1     -11.329   6.396  73.092  1.00  0.00    -0.471 NA 
HETATM    3  H   UNL     1     -11.948   6.750  73.820  1.00  0.00     0.000 HD 
ENDROOT
BRANCH   2   4
HETATM    4  C   UNL     1     -11.387   7.255  71.894  1.00  0.00    -0.254 C  
HETATM    5  C   UNL     1     -12.804   7.321  71.313  1.00  0.00    -0.391 C  
BRANCH   4   6
HETATM    6  C   UNL     1     -10.870   8.658  72.292  1.00  0.00    -0.392 C  
BRANCH   6   7
HETATM    7  C   UNL     1      -9.726   9.149  71.400  1.00  0.00    -0.338 C  
BRANCH   7   8
HETATM    8  C   UNL     1     -10.175   9.494  70.006  1.00  0.00    -0.281 C  
HETATM    9  C   UNL     1     -11.196  10.303  69.664  1.00  0.00    -0.322 C  
HETATM   10  C   UNL     1     -12.150  10.936  70.638  1.00  0.00    -0.468 C  
HETATM   11  C   UNL     1     -11.463  10.637  68.220  1.00  0.00    -0.318 C  
ENDBRANCH   7   8
ENDBRANCH   6   7
ENDBRANCH   4   6
ENDBRANCH   2   4
TORSDOF 4
ENDMDL
MODEL      152
REMARK 921   NORMALIZED FREE ENERGY PREDICTED BY IDOCK:   -2.58 KCAL/MOL
REMARK 922        TOTAL FREE ENERGY PREDICTED BY IDOCK:   -3.42 KCAL/MOL
REMARK 923 INTER-LIGAND FREE ENERGY PREDICTED BY IDOCK:   -3.26 KCAL/MOL
REMARK 924 INTRA-LIGAND FREE ENERGY PREDICTED BY IDOCK:   -0.16 KCAL/MOL
REMARK 927      BINDING AFFINITY PREDICTED BY RF-SCORE:    0.00 PKD
ROOT
HETATM    1  C   UNL     1     -12.390  13.711  69.805  1.00  0.00    -0.228 C  
HETATM    2  N   UNL     1     -11.060  13.123  69.702  1.00  0.00    -0.467 NA 
HETATM    3  H   UNL     1     -10.808  12.649  70.569  1.00  0.00     0.000 HD 
ENDROOT
BRANCH   2   4
HETATM    4  C   UNL     1     -10.900  12.219  68.548  1.00  0.00    -0.237 C  
HETATM    5  C   UNL     1     -10.079  12.867  67.428  1.00  0.00    -0.223 C  
BRANCH   4   6
HETATM    6  C   UNL     1     -10.238  10.915  69.056  1.00  0.00    -0.219 C  
BRANCH   6   7
HETATM    7  C   UNL     1     -11.228   9.972  69.746  1.00  0.00    -0.307 C  
BRANCH   7   8
HETATM    8  C   UNL     1     -10.602   9.180  70.862  1.00  0.00    -0.341 C  
HETATM    9  C   UNL     1     -11.193   8.794  72.009  1.00  0.00    -0.443 C  
HETATM   10  C   UNL     1     -12.583   9.185  72.429  1.00  0.00    -0.381 C  
HETATM   11  C   UNL     1     -10.467   7.912  72.990  1.00  0.00    -0.410 C  
ENDBRANCH   7   8
ENDBRANCH   6   7
ENDBRANCH   4   6
ENDBRANCH   2   4
TORSDOF 4
ENDMDL
MODEL      153
REMARK 921   NORMALIZED FREE ENERGY PREDICTED BY IDOCK:   -2.58 KCAL/MOL
REMARK 922        TOTAL FREE ENERGY PREDICTED BY IDOCK:   -3.42 KCAL/MOL
REMARK 923 INTER-LIGAND FREE ENERGY PREDICTED BY IDOCK:   -2.99 KCAL/MOL
REMARK 924 INTRA-LIGAND FREE ENERGY PREDICTED BY IDOCK:   -0.43 KCAL/MOL
REMARK 927      BINDING AFFINITY PREDICTED BY RF-SCORE:    0.00 PKD
ROOT
HETATM    1  C   UNL     1     -10.045  15.793  68.343  1.00  0.00    -0.222 C  
HETATM    2  N   UNL     1      -9.821  14.990  67.147  1.00  0.00    -0.231 NA 
HETATM    3  H   UNL     1      -9.408  14.090  67.390  1.00  0.00     0.000 HD 
ENDROOT
BRANCH   2   4
HETATM    4  C   UNL     1     -11.031  14.803  66.325  1.00  0.00    -0.330 C  
HETATM    5  C   UNL     1     -10.688  14.302  64.917  1.00  0.00    -0.448 C  
BRANCH   4   6
HETATM    6  C   UNL     1     -11.960  13.813  67.068  1.00  0.00    -0.452 C  
BRANCH   6   7
HETATM    7  C   UNL     1     -11.861  12.382  66.532  1.00  0.00    -0.407 C  
BRANCH   7   8
HETATM    8  C   UNL     1     -11.202  11.437  67.499  1.00  0.00    -0.356 C  
HETATM    9  C   UNL     1      -9.886  11.163  67.590  1.00  0.00    -0.191 C  
HETATM   10  C   UNL     1      -8.836  11.687  66.650  1.00  0.00    -0.187 C  
HETATM   11  C   UNL     1      -9.360  10.269  68.682  1.00  0.00    -0.162 C  
ENDBRANCH   7   8
ENDBRANCH   6   7
ENDBRANCH   4   6
ENDBRANCH   2   4
TORSDOF 4
ENDMDL
MODEL      154
REMARK 921   NORMALIZED FREE ENERGY PREDICTED BY IDOCK:   -2.56 KCAL/MOL
REMARK 922        TOTAL FREE ENERGY PREDICTED BY IDOCK:   -3.40 KCAL/MOL
REMARK 923 INTER-LIGAND FREE ENERGY PREDICTED BY IDOCK:   -3.17 KCAL/MOL
REMARK 924 INTRA-LIGAND FREE ENERGY PREDICTED BY IDOCK:   -0.23 KCAL/MOL
REMARK 927      BINDING AFFINITY PREDICTED BY RF-SCORE:    0.00 PKD
ROOT
HETATM    1  C   UNL     1      -7.024   9.874  65.511  1.00  0.00    -0.110 C  
HETATM    2  N   UNL     1      -8.007  10.885  65.140  1.00  0.00    -0.360 NA 
HETATM    3  H   UNL     1      -7.646  11.482  64.397  1.00  0.00     0.000 HD 
ENDROOT
BRANCH   2   4
HETATM    4  C   UNL     1      -9.319  10.324  64.766  1.00  0.00    -0.260 C  
HETATM    5  C   UNL     1      -9.758   9.216  65.730  1.00  0.00    -0.299 C  
BRANCH   4   6
HETATM    6  C   UNL     1     -10.340  11.487  64.737  1.00  0.00    -0.341 C  
BRANCH   6   7
HETATM    7  C   UNL     1     -11.285  11.484  65.942  1.00  0.00    -0.239 C  
BRANCH   7   8
HETATM    8  C   UNL     1     -11.159  12.720  66.790  1.00  0.00    -0.314 C  
HETATM    9  C   UNL     1     -11.810  13.886  66.620  1.00  0.00    -0.447 C  
HETATM   10  C   UNL     1     -12.720  14.198  65.465  1.00  0.00    -0.468 C  
HETATM   11  C   UNL     1     -11.656  15.006  67.616  1.00  0.00    -0.327 C  
ENDBRANCH   7   8
ENDBRANCH   6   7
ENDBRANCH   4   6
ENDBRANCH   2   4
TORSDOF 4
ENDMDL
MODEL      155
REMARK 921   NORMALIZED FREE ENERGY PREDICTED BY IDOCK:   -2.56 KCAL/MOL
REMARK 922        TOTAL FREE ENERGY PREDICTED BY IDOCK:   -3.39 KCAL/MOL
REMARK 923 INTER-LIGAND FREE ENERGY PREDICTED BY IDOCK:   -3.16 KCAL/MOL
REMARK 924 INTRA-LIGAND FREE ENERGY PREDICTED BY IDOCK:   -0.22 KCAL/MOL
REMARK 927      BINDING AFFINITY PREDICTED BY RF-SCORE:    0.00 PKD
ROOT
HETATM    1  C   UNL     1     -12.832   7.196  71.349  1.00  0.00    -0.384 C  
HETATM    2  N   UNL     1     -12.014   8.122  70.575  1.00  0.00    -0.484 NA 
HETATM    3  H   UNL     1     -11.767   8.939  71.134  1.00  0.00     0.000 HD 
ENDROOT
BRANCH   2   4
HETATM    4  C   UNL     1     -10.807   7.503  69.995  1.00  0.00    -0.249 C  
HETATM    5  C   UNL     1     -11.112   6.133  69.379  1.00  0.00    -0.479 C  
BRANCH   4   6
HETATM    6  C   UNL     1     -10.231   8.483  68.944  1.00  0.00    -0.221 C  
BRANCH   6   7
HETATM    7  C   UNL     1     -10.621   8.116  67.509  1.00  0.00    -0.291 C  
BRANCH   7   8
HETATM    8  C   UNL     1      -9.448   8.102  66.567  1.00  0.00    -0.286 C  
HETATM    9  C   UNL     1      -9.112   9.059  65.681  1.00  0.00    -0.278 C  
HETATM   10  C   UNL     1      -9.929  10.289  65.400  1.00  0.00    -0.371 C  
HETATM   11  C   UNL     1      -7.844   8.951  64.875  1.00  0.00    -0.121 C  
ENDBRANCH   7   8
ENDBRANCH   6   7
ENDBRANCH   4   6
ENDBRANCH   2   4
TORSDOF 4
ENDMDL
MODEL      156
REMARK 921   NORMALIZED FREE ENERGY PREDICTED BY IDOCK:   -2.55 KCAL/MOL
REMARK 922        TOTAL FREE ENERGY PREDICTED BY IDOCK:   -3.38 KCAL/MOL
REMARK 923 INTER-LIGAND FREE ENERGY PREDICTED BY IDOCK:   -3.15 KCAL/MOL
REMARK 924 INTRA-LIGAND FREE ENERGY PREDICTED BY IDOCK:   -0.23 KCAL/MOL
REMARK 927      BINDING AFFINITY PREDICTED BY RF-SCORE:    0.00 PKD
ROOT
HETATM    1  C   UNL     1      -7.792   5.699  69.912  1.00  0.00    -0.087 C  
HETATM    2  N   UNL     1      -8.792   5.217  68.967  1.00  0.00    -0.099 NA 
HETATM    3  H   UNL     1      -8.422   4.442  68.417  1.00  0.00     0.000 HD 
ENDROOT
BRANCH   2   4
HETATM    4  C   UNL     1     -10.072   4.845  69.598  1.00  0.00    -0.230 C  
HETATM    5  C   UNL     1      -9.857   4.054  70.893  1.00  0.00    -0.229 C  
BRANCH   4   6
HETATM    6  C   UNL     1     -10.869   6.147  69.854  1.00  0.00    -0.420 C  
BRANCH   6   7
HETATM    7  C   UNL     1     -11.074   6.439  71.343  1.00  0.00    -0.328 C  
BRANCH   7   8
HETATM    8  C   UNL     1     -12.449   6.965  71.654  1.00  0.00    -0.418 C  
HETATM    9  C   UNL     1     -12.812   8.256  71.777  1.00  0.00    -0.362 C  
HETATM   10  C   UNL     1     -11.861   9.420  71.725  1.00  0.00    -0.452 C  
HETATM   11  C   UNL     1     -14.254   8.634  71.989  1.00  0.00    -0.524 C  
ENDBRANCH   7   8
ENDBRANCH   6   7
ENDBRANCH   4   6
ENDBRANCH   2   4
TORSDOF 4
ENDMDL
MODEL      157
REMARK 921   NORMALIZED FREE ENERGY PREDICTED BY IDOCK:   -2.55 KCAL/MOL
REMARK 922        TOTAL FREE ENERGY PREDICTED BY IDOCK:   -3.38 KCAL/MOL
REMARK 923 INTER-LIGAND FREE ENERGY PREDICTED BY IDOCK:   -3.22 KCAL/MOL
REMARK 924 INTRA-LIGAND FREE ENERGY PREDICTED BY IDOCK:   -0.15 KCAL/MOL
REMARK 927      BINDING AFFINITY PREDICTED BY RF-SCORE:    0.00 PKD
ROOT
HETATM    1  C   UNL     1      -8.040  10.158  64.934  1.00  0.00    -0.153 C  
HETATM    2  N   UNL     1      -8.754  11.405  65.179  1.00  0.00    -0.387 NA 
HETATM    3  H   UNL     1      -8.941  11.891  64.302  1.00  0.00     0.000 HD 
ENDROOT
BRANCH   2   4
HETATM    4  C   UNL     1      -9.996  11.233  65.955  1.00  0.00    -0.231 C  
HETATM    5  C   UNL     1     -10.033   9.880  66.675  1.00  0.00    -0.277 C  
BRANCH   4   6
HETATM    6  C   UNL     1     -10.096  12.410  66.955  1.00  0.00    -0.223 C  
BRANCH   6   7
HETATM    7  C   UNL     1     -11.494  12.562  67.562  1.00  0.00    -0.397 C  
BRANCH   7   8
HETATM    8  C   UNL     1     -11.699  13.890  68.239  1.00  0.00    -0.396 C  
HETATM    9  C   UNL     1     -12.022  14.098  69.529  1.00  0.00    -0.389 C  
HETATM   10  C   UNL     1     -12.342  13.010  70.517  1.00  0.00    -0.365 C  
HETATM   11  C   UNL     1     -12.093  15.493  70.091  1.00  0.00    -0.404 C  
ENDBRANCH   7   8
ENDBRANCH   6   7
ENDBRANCH   4   6
ENDBRANCH   2   4
TORSDOF 4
ENDMDL
MODEL      158
REMARK 921   NORMALIZED FREE ENERGY PREDICTED BY IDOCK:   -2.54 KCAL/MOL
REMARK 922        TOTAL FREE ENERGY PREDICTED BY IDOCK:   -3.37 KCAL/MOL
REMARK 923 INTER-LIGAND FREE ENERGY PREDICTED BY IDOCK:   -3.12 KCAL/MOL
REMARK 924 INTRA-LIGAND FREE ENERGY PREDICTED BY IDOCK:   -0.25 KCAL/MOL
REMARK 927      BINDING AFFINITY PREDICTED BY RF-SCORE:    0.00 PKD
ROOT
HETATM    1  C   UNL     1      -7.816   9.391  63.654  1.00  0.00    -0.131 C  
HETATM    2  N   UNL     1      -9.269   9.492  63.733  1.00  0.00    -0.422 NA 
HETATM    3  H   UNL     1      -9.666   8.646  64.140  1.00  0.00     0.000 HD 
ENDROOT
BRANCH   2   4
HETATM    4  C   UNL     1      -9.740  10.689  64.454  1.00  0.00    -0.311 C  
HETATM    5  C   UNL     1     -10.888  11.382  63.711  1.00  0.00    -0.468 C  
BRANCH   4   6
HETATM    6  C   UNL     1     -10.167  10.248  65.874  1.00  0.00    -0.293 C  
BRANCH   6   7
HETATM    7  C   UNL     1      -9.606  11.154  66.975  1.00  0.00    -0.201 C  
BRANCH   7   8
HETATM    8  C   UNL     1     -10.474  12.353  67.247  1.00  0.00    -0.237 C  
HETATM    9  C   UNL     1     -11.368  12.493  68.245  1.00  0.00    -0.331 C  
HETATM   10  C   UNL     1     -11.737  11.411  69.221  1.00  0.00    -0.404 C  
HETATM   11  C   UNL     1     -12.092  13.797  68.452  1.00  0.00    -0.324 C  
ENDBRANCH   7   8
ENDBRANCH   6   7
ENDBRANCH   4   6
ENDBRANCH   2   4
TORSDOF 4
ENDMDL
MODEL      159
REMARK 921   NORMALIZED FREE ENERGY PREDICTED BY IDOCK:   -2.54 KCAL/MOL
REMARK 922        TOTAL FREE ENERGY PREDICTED BY IDOCK:   -3.37 KCAL/MOL
REMARK 923 INTER-LIGAND FREE ENERGY PREDICTED BY IDOCK:   -3.17 KCAL/MOL
REMARK 924 INTRA-LIGAND FREE ENERGY PREDICTED BY IDOCK:   -0.20 KCAL/MOL
REMARK 927      BINDING AFFINITY PREDICTED BY RF-SCORE:    0.00 PKD
ROOT
HETATM    1  C   UNL     1     -12.407  14.431  64.367  1.00  0.00    -0.403 C  
HETATM    2  N   UNL     1     -11.868  14.417  65.721  1.00  0.00    -0.369 NA 
HETATM    3  H   UNL     1     -12.609  14.252  66.402  1.00  0.00     0.000 HD 
ENDROOT
BRANCH   2   4
HETATM    4  C   UNL     1     -10.764  13.457  65.909  1.00  0.00    -0.279 C  
HETATM    5  C   UNL     1     -10.240  12.926  64.570  1.00  0.00    -0.334 C  
BRANCH   4   6
HETATM    6  C   UNL     1      -9.650  14.168  66.713  1.00  0.00    -0.290 C  
BRANCH   6   7
HETATM    7  C   UNL     1      -9.302  15.552  66.158  1.00  0.00    -0.380 C  
BRANCH   7   8
HETATM    8  C   UNL     1      -8.995  16.556  67.235  1.00  0.00    -0.212 C  
HETATM    9  C   UNL     1      -8.054  17.519  67.198  1.00  0.00    -0.229 C  
HETATM   10  C   UNL     1      -7.055  17.696  66.088  1.00  0.00    -0.347 C  
HETATM   11  C   UNL     1      -7.932  18.521  68.316  1.00  0.00    -0.325 C  
ENDBRANCH   7   8
ENDBRANCH   6   7
ENDBRANCH   4   6
ENDBRANCH   2   4
TORSDOF 4
ENDMDL
MODEL      160
REMARK 921   NORMALIZED FREE ENERGY PREDICTED BY IDOCK:   -2.53 KCAL/MOL
REMARK 922        TOTAL FREE ENERGY PREDICTED BY IDOCK:   -3.36 KCAL/MOL
REMARK 923 INTER-LIGAND FREE ENERGY PREDICTED BY IDOCK:   -3.09 KCAL/MOL
REMARK 924 INTRA-LIGAND FREE ENERGY PREDICTED BY IDOCK:   -0.27 KCAL/MOL
REMARK 927      BINDING AFFINITY PREDICTED BY RF-SCORE:    0.00 PKD
ROOT
HETATM    1  C   UNL     1      -9.286   9.696  70.185  1.00  0.00    -0.251 C  
HETATM    2  N   UNL     1     -10.009  10.570  69.269  1.00  0.00    -0.244 NA 
HETATM    3  H   UNL     1     -10.484  11.314  69.781  1.00  0.00     0.000 HD 
ENDROOT
BRANCH   2   4
HETATM    4  C   UNL     1      -9.165  11.131  68.198  1.00  0.00    -0.166 C  
HETATM    5  C   UNL     1      -8.735  10.057  67.193  1.00  0.00    -0.132 C  
BRANCH   4   6
HETATM    6  C   UNL     1      -9.964  12.264  67.510  1.00  0.00    -0.201 C  
BRANCH   6   7
HETATM    7  C   UNL     1     -11.284  11.780  66.901  1.00  0.00    -0.387 C  
BRANCH   7   8
HETATM    8  C   UNL     1     -11.839  12.730  65.875  1.00  0.00    -0.490 C  
HETATM    9  C   UNL     1     -11.559  12.752  64.558  1.00  0.00    -0.397 C  
HETATM   10  C   UNL     1     -10.538  11.876  63.887  1.00  0.00    -0.444 C  
HETATM   11  C   UNL     1     -12.275  13.701  63.634  1.00  0.00    -0.376 C  
ENDBRANCH   7   8
ENDBRANCH   6   7
ENDBRANCH   4   6
ENDBRANCH   2   4
TORSDOF 4
ENDMDL
MODEL      161
REMARK 921   NORMALIZED FREE ENERGY PREDICTED BY IDOCK:   -2.53 KCAL/MOL
REMARK 922        TOTAL FREE ENERGY PREDICTED BY IDOCK:   -3.36 KCAL/MOL
REMARK 923 INTER-LIGAND FREE ENERGY PREDICTED BY IDOCK:   -3.12 KCAL/MOL
REMARK 924 INTRA-LIGAND FREE ENERGY PREDICTED BY IDOCK:   -0.24 KCAL/MOL
REMARK 927      BINDING AFFINITY PREDICTED BY RF-SCORE:    0.00 PKD
ROOT
HETATM    1  C   UNL     1      -7.248   6.416  72.752  1.00  0.00    -0.083 C  
HETATM    2  N   UNL     1      -8.234   6.300  71.684  1.00  0.00    -0.117 NA 
HETATM    3  H   UNL     1      -7.858   5.762  70.904  1.00  0.00     0.000 HD 
ENDROOT
BRANCH   2   4
HETATM    4  C   UNL     1      -9.524   5.740  72.129  1.00  0.00    -0.149 C  
HETATM    5  C   UNL     1      -9.553   5.517  73.645  1.00  0.00    -0.140 C  
BRANCH   4   6
HETATM    6  C   UNL     1     -10.642   6.709  71.676  1.00  0.00    -0.245 C  
BRANCH   6   7
HETATM    7  C   UNL     1     -10.688   7.997  72.504  1.00  0.00    -0.407 C  
BRANCH   7   8
HETATM    8  C   UNL     1     -11.096   9.199  71.696  1.00  0.00    -0.445 C  
HETATM    9  C   UNL     1     -12.326   9.742  71.622  1.00  0.00    -0.495 C  
HETATM   10  C   UNL     1     -13.556   9.166  72.267  1.00  0.00    -0.548 C  
HETATM   11  C   UNL     1     -12.561  11.013  70.848  1.00  0.00    -0.488 C  
ENDBRANCH   7   8
ENDBRANCH   6   7
ENDBRANCH   4   6
ENDBRANCH   2   4
TORSDOF 4
ENDMDL
MODEL      162
REMARK 921   NORMALIZED FREE ENERGY PREDICTED BY IDOCK:   -2.53 KCAL/MOL
REMARK 922        TOTAL FREE ENERGY PREDICTED BY IDOCK:   -3.35 KCAL/MOL
REMARK 923 INTER-LIGAND FREE ENERGY PREDICTED BY IDOCK:   -3.10 KCAL/MOL
REMARK 924 INTRA-LIGAND FREE ENERGY PREDICTED BY IDOCK:   -0.25 KCAL/MOL
REMARK 927      BINDING AFFINITY PREDICTED BY RF-SCORE:    0.00 PKD
ROOT
HETATM    1  C   UNL     1      -7.486   5.052  70.813  1.00  0.00    -0.069 C  
HETATM    2  N   UNL     1      -8.716   5.161  70.038  1.00  0.00    -0.105 NA 
HETATM    3  H   UNL     1      -9.287   4.324  70.149  1.00  0.00     0.000 HD 
ENDROOT
BRANCH   2   4
HETATM    4  C   UNL     1      -9.501   6.372  70.343  1.00  0.00    -0.162 C  
HETATM    5  C   UNL     1      -9.404   7.410  69.219  1.00  0.00    -0.154 C  
BRANCH   4   6
HETATM    6  C   UNL     1     -10.966   5.936  70.587  1.00  0.00    -0.357 C  
BRANCH   6   7
HETATM    7  C   UNL     1     -11.500   6.373  71.955  1.00  0.00    -0.352 C  
BRANCH   7   8
HETATM    8  C   UNL     1     -11.870   7.831  72.002  1.00  0.00    -0.351 C  
HETATM    9  C   UNL     1     -13.106   8.354  71.895  1.00  0.00    -0.383 C  
HETATM   10  C   UNL     1     -14.348   7.561  71.600  1.00  0.00    -0.621 C  
HETATM   11  C   UNL     1     -13.333   9.833  72.065  1.00  0.00    -0.547 C  
ENDBRANCH   7   8
ENDBRANCH   6   7
ENDBRANCH   4   6
ENDBRANCH   2   4
TORSDOF 4
ENDMDL
MODEL      163
REMARK 921   NORMALIZED FREE ENERGY PREDICTED BY IDOCK:   -2.51 KCAL/MOL
REMARK 922        TOTAL FREE ENERGY PREDICTED BY IDOCK:   -3.33 KCAL/MOL
REMARK 923 INTER-LIGAND FREE ENERGY PREDICTED BY IDOCK:   -3.14 KCAL/MOL
REMARK 924 INTRA-LIGAND FREE ENERGY PREDICTED BY IDOCK:   -0.19 KCAL/MOL
REMARK 927      BINDING AFFINITY PREDICTED BY RF-SCORE:    0.00 PKD
ROOT
HETATM    1  C   UNL     1      -7.333  15.480  69.448  1.00  0.00    -0.215 C  
HETATM    2  N   UNL     1      -8.367  14.480  69.210  1.00  0.00    -0.364 NA 
HETATM    3  H   UNL     1      -8.610  13.999  70.076  1.00  0.00     0.000 HD 
ENDROOT
BRANCH   2   4
HETATM    4  C   UNL     1      -9.574  15.021  68.557  1.00  0.00    -0.210 C  
HETATM    5  C   UNL     1      -9.252  16.248  67.697  1.00  0.00    -0.206 C  
BRANCH   4   6
HETATM    6  C   UNL     1     -10.205  13.887  67.714  1.00  0.00    -0.237 C  
BRANCH   6   7
HETATM    7  C   UNL     1     -11.648  13.572  68.121  1.00  0.00    -0.368 C  
BRANCH   7   8
HETATM    8  C   UNL     1     -11.736  12.655  69.310  1.00  0.00    -0.379 C  
HETATM    9  C   UNL     1     -11.576  11.318  69.313  1.00  0.00    -0.390 C  
HETATM   10  C   UNL     1     -11.379  10.478  68.082  1.00  0.00    -0.324 C  
HETATM   11  C   UNL     1     -11.591  10.543  70.604  1.00  0.00    -0.445 C  
ENDBRANCH   7   8
ENDBRANCH   6   7
ENDBRANCH   4   6
ENDBRANCH   2   4
TORSDOF 4
ENDMDL
MODEL      164
REMARK 921   NORMALIZED FREE ENERGY PREDICTED BY IDOCK:   -2.50 KCAL/MOL
REMARK 922        TOTAL FREE ENERGY PREDICTED BY IDOCK:   -3.32 KCAL/MOL
REMARK 923 INTER-LIGAND FREE ENERGY PREDICTED BY IDOCK:   -3.19 KCAL/MOL
REMARK 924 INTRA-LIGAND FREE ENERGY PREDICTED BY IDOCK:   -0.13 KCAL/MOL
REMARK 927      BINDING AFFINITY PREDICTED BY RF-SCORE:    0.00 PKD
ROOT
HETATM    1  C   UNL     1      -7.260   7.656  68.488  1.00  0.00    -0.086 C  
HETATM    2  N   UNL     1      -8.169   8.639  69.064  1.00  0.00    -0.120 NA 
HETATM    3  H   UNL     1      -8.465   9.313  68.358  1.00  0.00     0.000 HD 
ENDROOT
BRANCH   2   4
HETATM    4  C   UNL     1      -9.338   8.041  69.736  1.00  0.00    -0.159 C  
HETATM    5  C   UNL     1      -8.925   6.947  70.726  1.00  0.00    -0.150 C  
BRANCH   4   6
HETATM    6  C   UNL     1     -10.114   9.181  70.440  1.00  0.00    -0.264 C  
BRANCH   6   7
HETATM    7  C   UNL     1     -10.508   8.835  71.879  1.00  0.00    -0.423 C  
BRANCH   7   8
HETATM    8  C   UNL     1     -11.920   8.331  71.996  1.00  0.00    -0.405 C  
HETATM    9  C   UNL     1     -13.047   9.067  71.953  1.00  0.00    -0.459 C  
HETATM   10  C   UNL     1     -13.085  10.569  71.883  1.00  0.00    -0.567 C  
HETATM   11  C   UNL     1     -14.400   8.407  71.980  1.00  0.00    -0.555 C  
ENDBRANCH   7   8
ENDBRANCH   6   7
ENDBRANCH   4   6
ENDBRANCH   2   4
TORSDOF 4
ENDMDL
MODEL      165
REMARK 921   NORMALIZED FREE ENERGY PREDICTED BY IDOCK:   -2.50 KCAL/MOL
REMARK 922        TOTAL FREE ENERGY PREDICTED BY IDOCK:   -3.32 KCAL/MOL
REMARK 923 INTER-LIGAND FREE ENERGY PREDICTED BY IDOCK:   -2.91 KCAL/MOL
REMARK 924 INTRA-LIGAND FREE ENERGY PREDICTED BY IDOCK:   -0.42 KCAL/MOL
REMARK 927      BINDING AFFINITY PREDICTED BY RF-SCORE:    0.00 PKD
ROOT
HETATM    1  C   UNL     1      -8.342   9.525  63.407  1.00  0.00    -0.179 C  
HETATM    2  N   UNL     1      -9.747   9.903  63.504  1.00  0.00    -0.498 NA 
HETATM    3  H   UNL     1     -10.305   9.128  63.861  1.00  0.00     0.000 HD 
ENDROOT
BRANCH   2   4
HETATM    4  C   UNL     1      -9.978  11.122  64.302  1.00  0.00    -0.306 C  
HETATM    5  C   UNL     1     -10.685  12.210  63.485  1.00  0.00    -0.509 C  
BRANCH   4   6
HETATM    6  C   UNL     1     -10.803  10.722  65.549  1.00  0.00    -0.061 C  
BRANCH   6   7
HETATM    7  C   UNL     1     -10.134  11.129  66.865  1.00  0.00    -0.250 C  
BRANCH   7   8
HETATM    8  C   UNL     1     -10.789  12.319  67.513  1.00  0.00    -0.271 C  
HETATM    9  C   UNL     1     -10.444  13.612  67.362  1.00  0.00    -0.251 C  
HETATM   10  C   UNL     1      -9.252  14.094  66.583  1.00  0.00    -0.272 C  
HETATM   11  C   UNL     1     -11.262  14.706  67.996  1.00  0.00    -0.307 C  
ENDBRANCH   7   8
ENDBRANCH   6   7
ENDBRANCH   4   6
ENDBRANCH   2   4
TORSDOF 4
ENDMDL
MODEL      166
REMARK 921   NORMALIZED FREE ENERGY PREDICTED BY IDOCK:   -2.50 KCAL/MOL
REMARK 922        TOTAL FREE ENERGY PREDICTED BY IDOCK:   -3.31 KCAL/MOL
REMARK 923 INTER-LIGAND FREE ENERGY PREDICTED BY IDOCK:   -3.13 KCAL/MOL
REMARK 924 INTRA-LIGAND FREE ENERGY PREDICTED BY IDOCK:   -0.19 KCAL/MOL
REMARK 927      BINDING AFFINITY PREDICTED BY RF-SCORE:    0.00 PKD
ROOT
HETATM    1  C   UNL     1     -11.131   9.641  71.096  1.00  0.00    -0.374 C  
HETATM    2  N   UNL     1     -11.780   8.618  70.285  1.00  0.00    -0.471 NA 
HETATM    3  H   UNL     1     -11.449   8.659  69.322  1.00  0.00     0.000 HD 
ENDROOT
BRANCH   2   4
HETATM    4  C   UNL     1     -11.638   7.254  70.828  1.00  0.00    -0.302 C  
HETATM    5  C   UNL     1     -12.855   6.848  71.667  1.00  0.00    -0.383 C  
BRANCH   4   6
HETATM    6  C   UNL     1     -11.424   6.291  69.637  1.00  0.00    -0.425 C  
BRANCH   6   7
HETATM    7  C   UNL     1      -9.944   6.021  69.344  1.00  0.00    -0.220 C  
BRANCH   7   8
HETATM    8  C   UNL     1      -9.658   4.573  69.056  1.00  0.00    -0.245 C  
HETATM    9  C   UNL     1      -9.622   3.982  67.846  1.00  0.00    -0.199 C  
HETATM   10  C   UNL     1      -9.972   4.661  66.552  1.00  0.00    -0.265 C  
HETATM   11  C   UNL     1      -9.218   2.538  67.706  1.00  0.00    -0.240 C  
ENDBRANCH   7   8
ENDBRANCH   6   7
ENDBRANCH   4   6
ENDBRANCH   2   4
TORSDOF 4
ENDMDL
MODEL      167
REMARK 921   NORMALIZED FREE ENERGY PREDICTED BY IDOCK:   -2.50 KCAL/MOL
REMARK 922        TOTAL FREE ENERGY PREDICTED BY IDOCK:   -3.31 KCAL/MOL
REMARK 923 INTER-LIGAND FREE ENERGY PREDICTED BY IDOCK:   -2.83 KCAL/MOL
REMARK 924 INTRA-LIGAND FREE ENERGY PREDICTED BY IDOCK:   -0.48 KCAL/MOL
REMARK 927      BINDING AFFINITY PREDICTED BY RF-SCORE:    0.00 PKD
ROOT
HETATM    1  C   UNL     1     -12.491  12.772  63.612  1.00  0.00    -0.389 C  
HETATM    2  N   UNL     1     -12.162  11.743  64.592  1.00  0.00    -0.150 NA 
HETATM    3  H   UNL     1     -12.775  10.935  64.485  1.00  0.00     0.000 HD 
ENDROOT
BRANCH   2   4
HETATM    4  C   UNL     1     -10.746  11.330  64.563  1.00  0.00    -0.323 C  
HETATM    5  C   UNL     1      -9.841  12.443  64.022  1.00  0.00    -0.160 C  
BRANCH   4   6
HETATM    6  C   UNL     1     -10.343  10.920  66.000  1.00  0.00    -0.304 C  
BRANCH   6   7
HETATM    7  C   UNL     1     -11.333  11.411  67.061  1.00  0.00    -0.309 C  
BRANCH   7   8
HETATM    8  C   UNL     1     -10.751  12.466  67.963  1.00  0.00    -0.247 C  
HETATM    9  C   UNL     1     -11.014  13.786  67.935  1.00  0.00    -0.270 C  
HETATM   10  C   UNL     1     -11.876  14.465  66.907  1.00  0.00    -0.433 C  
HETATM   11  C   UNL     1     -10.431  14.710  68.972  1.00  0.00    -0.248 C  
ENDBRANCH   7   8
ENDBRANCH   6   7
ENDBRANCH   4   6
ENDBRANCH   2   4
TORSDOF 4
ENDMDL
MODEL      168
REMARK 921   NORMALIZED FREE ENERGY PREDICTED BY IDOCK:   -2.49 KCAL/MOL
REMARK 922        TOTAL FREE ENERGY PREDICTED BY IDOCK:   -3.31 KCAL/MOL
REMARK 923 INTER-LIGAND FREE ENERGY PREDICTED BY IDOCK:   -3.10 KCAL/MOL
REMARK 924 INTRA-LIGAND FREE ENERGY PREDICTED BY IDOCK:   -0.21 KCAL/MOL
REMARK 927      BINDING AFFINITY PREDICTED BY RF-SCORE:    0.00 PKD
ROOT
HETATM    1  C   UNL     1     -13.679   9.137  72.353  1.00  0.00    -0.480 C  
HETATM    2  N   UNL     1     -13.339   9.225  70.937  1.00  0.00    -0.564 NA 
HETATM    3  H   UNL     1     -13.913   9.929  70.473  1.00  0.00     0.000 HD 
ENDROOT
BRANCH   2   4
HETATM    4  C   UNL     1     -11.907   9.470  70.687  1.00  0.00    -0.233 C  
HETATM    5  C   UNL     1     -11.637  10.936  70.327  1.00  0.00    -0.426 C  
BRANCH   4   6
HETATM    6  C   UNL     1     -11.125   9.044  71.952  1.00  0.00    -0.433 C  
BRANCH   6   7
HETATM    7  C   UNL     1      -9.860   8.241  71.632  1.00  0.00    -0.263 C  
BRANCH   7   8
HETATM    8  C   UNL     1      -9.837   6.892  72.296  1.00  0.00    -0.163 C  
HETATM    9  C   UNL     1      -9.301   6.590  73.494  1.00  0.00    -0.153 C  
HETATM   10  C   UNL     1      -8.522   7.551  74.349  1.00  0.00    -0.255 C  
HETATM   11  C   UNL     1      -9.446   5.209  74.077  1.00  0.00    -0.128 C  
ENDBRANCH   7   8
ENDBRANCH   6   7
ENDBRANCH   4   6
ENDBRANCH   2   4
TORSDOF 4
ENDMDL
MODEL      169
REMARK 921   NORMALIZED FREE ENERGY PREDICTED BY IDOCK:   -2.47 KCAL/MOL
REMARK 922        TOTAL FREE ENERGY PREDICTED BY IDOCK:   -3.29 KCAL/MOL
REMARK 923 INTER-LIGAND FREE ENERGY PREDICTED BY IDOCK:   -3.07 KCAL/MOL
REMARK 924 INTRA-LIGAND FREE ENERGY PREDICTED BY IDOCK:   -0.21 KCAL/MOL
REMARK 927      BINDING AFFINITY PREDICTED BY RF-SCORE:    0.00 PKD
ROOT
HETATM    1  C   UNL     1      -9.690  17.352  67.486  1.00  0.00    -0.266 C  
HETATM    2  N   UNL     1     -10.825  16.766  68.190  1.00  0.00    -0.360 NA 
HETATM    3  H   UNL     1     -11.500  16.383  67.528  1.00  0.00     0.000 HD 
ENDROOT
BRANCH   2   4
HETATM    4  C   UNL     1     -10.441  15.752  69.190  1.00  0.00    -0.240 C  
HETATM    5  C   UNL     1     -11.484  15.636  70.308  1.00  0.00    -0.361 C  
BRANCH   4   6
HETATM    6  C   UNL     1     -10.250  14.407  68.450  1.00  0.00    -0.243 C  
BRANCH   6   7
HETATM    7  C   UNL     1     -11.402  14.080  67.495  1.00  0.00    -0.343 C  
BRANCH   7   8
HETATM    8  C   UNL     1     -11.186  12.802  66.731  1.00  0.00    -0.338 C  
HETATM    9  C   UNL     1     -10.563  12.665  65.545  1.00  0.00    -0.301 C  
HETATM   10  C   UNL     1     -10.053  13.807  64.710  1.00  0.00    -0.259 C  
HETATM   11  C   UNL     1     -10.332  11.301  64.950  1.00  0.00    -0.362 C  
ENDBRANCH   7   8
ENDBRANCH   6   7
ENDBRANCH   4   6
ENDBRANCH   2   4
TORSDOF 4
ENDMDL
MODEL      170
REMARK 921   NORMALIZED FREE ENERGY PREDICTED BY IDOCK:   -2.47 KCAL/MOL
REMARK 922        TOTAL FREE ENERGY PREDICTED BY IDOCK:   -3.29 KCAL/MOL
REMARK 923 INTER-LIGAND FREE ENERGY PREDICTED BY IDOCK:   -2.92 KCAL/MOL
REMARK 924 INTRA-LIGAND FREE ENERGY PREDICTED BY IDOCK:   -0.36 KCAL/MOL
REMARK 927      BINDING AFFINITY PREDICTED BY RF-SCORE:    0.00 PKD
ROOT
HETATM    1  C   UNL     1      -9.530  15.479  65.880  1.00  0.00    -0.342 C  
HETATM    2  N   UNL     1     -10.556  16.007  66.772  1.00  0.00    -0.315 NA 
HETATM    3  H   UNL     1     -11.478  15.661  66.505  1.00  0.00     0.000 HD 
ENDROOT
BRANCH   2   4
HETATM    4  C   UNL     1     -10.294  15.741  68.199  1.00  0.00    -0.242 C  
HETATM    5  C   UNL     1      -9.824  17.002  68.933  1.00  0.00    -0.272 C  
BRANCH   4   6
HETATM    6  C   UNL     1     -11.591  15.172  68.821  1.00  0.00    -0.369 C  
BRANCH   6   7
HETATM    7  C   UNL     1     -11.416  13.756  69.377  1.00  0.00    -0.341 C  
BRANCH   7   8
HETATM    8  C   UNL     1     -11.585  12.689  68.330  1.00  0.00    -0.370 C  
HETATM    9  C   UNL     1     -10.608  11.965  67.750  1.00  0.00    -0.233 C  
HETATM   10  C   UNL     1      -9.137  12.175  67.979  1.00  0.00    -0.190 C  
HETATM   11  C   UNL     1     -10.941  10.855  66.788  1.00  0.00    -0.248 C  
ENDBRANCH   7   8
ENDBRANCH   6   7
ENDBRANCH   4   6
ENDBRANCH   2   4
TORSDOF 4
ENDMDL
MODEL      171
REMARK 921   NORMALIZED FREE ENERGY PREDICTED BY IDOCK:   -2.46 KCAL/MOL
REMARK 922        TOTAL FREE ENERGY PREDICTED BY IDOCK:   -3.28 KCAL/MOL
REMARK 923 INTER-LIGAND FREE ENERGY PREDICTED BY IDOCK:   -2.87 KCAL/MOL
REMARK 924 INTRA-LIGAND FREE ENERGY PREDICTED BY IDOCK:   -0.41 KCAL/MOL
REMARK 927      BINDING AFFINITY PREDICTED BY RF-SCORE:    0.00 PKD
ROOT
HETATM    1  C   UNL     1      -6.981  15.529  69.241  1.00  0.00    -0.171 C  
HETATM    2  N   UNL     1      -8.244  15.685  68.530  1.00  0.00    -0.146 NA 
HETATM    3  H   UNL     1      -8.326  14.992  67.786  1.00  0.00     0.000 HD 
ENDROOT
BRANCH   2   4
HETATM    4  C   UNL     1      -9.428  15.647  69.409  1.00  0.00    -0.279 C  
HETATM    5  C   UNL     1     -10.278  16.915  69.272  1.00  0.00    -0.262 C  
BRANCH   4   6
HETATM    6  C   UNL     1     -10.240  14.378  69.056  1.00  0.00    -0.185 C  
BRANCH   6   7
HETATM    7  C   UNL     1     -11.439  14.669  68.149  1.00  0.00    -0.346 C  
BRANCH   7   8
HETATM    8  C   UNL     1     -11.381  13.926  66.842  1.00  0.00    -0.343 C  
HETATM    9  C   UNL     1     -10.758  14.320  65.716  1.00  0.00    -0.308 C  
HETATM   10  C   UNL     1     -10.083  15.651  65.533  1.00  0.00    -0.395 C  
HETATM   11  C   UNL     1     -10.699  13.417  64.512  1.00  0.00    -0.434 C  
ENDBRANCH   7   8
ENDBRANCH   6   7
ENDBRANCH   4   6
ENDBRANCH   2   4
TORSDOF 4
ENDMDL
MODEL      172
REMARK 921   NORMALIZED FREE ENERGY PREDICTED BY IDOCK:   -2.44 KCAL/MOL
REMARK 922        TOTAL FREE ENERGY PREDICTED BY IDOCK:   -3.24 KCAL/MOL
REMARK 923 INTER-LIGAND FREE ENERGY PREDICTED BY IDOCK:   -3.04 KCAL/MOL
REMARK 924 INTRA-LIGAND FREE ENERGY PREDICTED BY IDOCK:   -0.21 KCAL/MOL
REMARK 927      BINDING AFFINITY PREDICTED BY RF-SCORE:    0.00 PKD
ROOT
HETATM    1  C   UNL     1     -11.641  14.626  70.154  1.00  0.00    -0.282 C  
HETATM    2  N   UNL     1     -12.652  14.243  69.175  1.00  0.00    -0.465 NA 
HETATM    3  H   UNL     1     -13.106  15.069  68.786  1.00  0.00     0.000 HD 
ENDROOT
BRANCH   2   4
HETATM    4  C   UNL     1     -12.135  13.377  68.099  1.00  0.00    -0.232 C  
HETATM    5  C   UNL     1     -11.897  14.161  66.804  1.00  0.00    -0.449 C  
BRANCH   4   6
HETATM    6  C   UNL     1     -10.832  12.715  68.610  1.00  0.00    -0.281 C  
BRANCH   6   7
HETATM    7  C   UNL     1     -10.697  11.251  68.180  1.00  0.00    -0.244 C  
BRANCH   7   8
HETATM    8  C   UNL     1     -10.754  10.292  69.337  1.00  0.00    -0.272 C  
HETATM    9  C   UNL     1      -9.714   9.838  70.062  1.00  0.00    -0.292 C  
HETATM   10  C   UNL     1      -8.270  10.138  69.768  1.00  0.00    -0.161 C  
HETATM   11  C   UNL     1      -9.938   8.957  71.263  1.00  0.00    -0.358 C  
ENDBRANCH   7   8
ENDBRANCH   6   7
ENDBRANCH   4   6
ENDBRANCH   2   4
TORSDOF 4
ENDMDL
MODEL      173
REMARK 921   NORMALIZED FREE ENERGY PREDICTED BY IDOCK:   -2.42 KCAL/MOL
REMARK 922        TOTAL FREE ENERGY PREDICTED BY IDOCK:   -3.23 KCAL/MOL
REMARK 923 INTER-LIGAND FREE ENERGY PREDICTED BY IDOCK:   -3.05 KCAL/MOL
REMARK 924 INTRA-LIGAND FREE ENERGY PREDICTED BY IDOCK:   -0.18 KCAL/MOL
REMARK 927      BINDING AFFINITY PREDICTED BY RF-SCORE:    0.00 PKD
ROOT
HETATM    1  C   UNL     1      -8.999   5.738  66.354  1.00  0.00    -0.137 C  
HETATM    2  N   UNL     1      -9.580   7.064  66.180  1.00  0.00    -0.400 NA 
HETATM    3  H   UNL     1     -10.020   7.147  65.264  1.00  0.00     0.000 HD 
ENDROOT
BRANCH   2   4
HETATM    4  C   UNL     1     -10.525   7.440  67.248  1.00  0.00    -0.315 C  
HETATM    5  C   UNL     1     -10.960   6.225  68.075  1.00  0.00    -0.418 C  
BRANCH   4   6
HETATM    6  C   UNL     1      -9.840   8.512  68.130  1.00  0.00    -0.192 C  
BRANCH   6   7
HETATM    7  C   UNL     1     -10.755   9.051  69.234  1.00  0.00    -0.189 C  
BRANCH   7   8
HETATM    8  C   UNL     1     -10.346   8.598  70.609  1.00  0.00    -0.241 C  
HETATM    9  C   UNL     1     -11.147   8.443  71.680  1.00  0.00    -0.344 C  
HETATM   10  C   UNL     1     -12.606   8.804  71.716  1.00  0.00    -0.409 C  
HETATM   11  C   UNL     1     -10.609   7.881  72.969  1.00  0.00    -0.406 C  
ENDBRANCH   7   8
ENDBRANCH   6   7
ENDBRANCH   4   6
ENDBRANCH   2   4
TORSDOF 4
ENDMDL
MODEL      174
REMARK 921   NORMALIZED FREE ENERGY PREDICTED BY IDOCK:   -2.39 KCAL/MOL
REMARK 922        TOTAL FREE ENERGY PREDICTED BY IDOCK:   -3.19 KCAL/MOL
REMARK 923 INTER-LIGAND FREE ENERGY PREDICTED BY IDOCK:   -2.97 KCAL/MOL
REMARK 924 INTRA-LIGAND FREE ENERGY PREDICTED BY IDOCK:   -0.22 KCAL/MOL
REMARK 927      BINDING AFFINITY PREDICTED BY RF-SCORE:    0.00 PKD
ROOT
HETATM    1  C   UNL     1     -12.753  10.845  71.075  1.00  0.00    -0.407 C  
HETATM    2  N   UNL     1     -13.218   9.549  70.598  1.00  0.00    -0.549 NA 
HETATM    3  H   UNL     1     -12.769   9.308  69.714  1.00  0.00     0.000 HD 
ENDROOT
BRANCH   2   4
HETATM    4  C   UNL     1     -13.050   8.461  71.580  1.00  0.00    -0.296 C  
HETATM    5  C   UNL     1     -14.390   8.034  72.189  1.00  0.00    -0.442 C  
BRANCH   4   6
HETATM    6  C   UNL     1     -12.350   7.281  70.864  1.00  0.00    -0.287 C  
BRANCH   6   7
HETATM    7  C   UNL     1     -10.844   7.223  71.138  1.00  0.00    -0.260 C  
BRANCH   7   8
HETATM    8  C   UNL     1     -10.018   7.245  69.880  1.00  0.00    -0.183 C  
HETATM    9  C   UNL     1      -9.129   8.187  69.514  1.00  0.00    -0.151 C  
HETATM   10  C   UNL     1      -8.877   9.464  70.267  1.00  0.00    -0.269 C  
HETATM   11  C   UNL     1      -8.297   8.019  68.270  1.00  0.00    -0.123 C  
ENDBRANCH   7   8
ENDBRANCH   6   7
ENDBRANCH   4   6
ENDBRANCH   2   4
TORSDOF 4
ENDMDL
MODEL      175
REMARK 921   NORMALIZED FREE ENERGY PREDICTED BY IDOCK:   -2.38 KCAL/MOL
REMARK 922        TOTAL FREE ENERGY PREDICTED BY IDOCK:   -3.18 KCAL/MOL
REMARK 923 INTER-LIGAND FREE ENERGY PREDICTED BY IDOCK:   -2.82 KCAL/MOL
REMARK 924 INTRA-LIGAND FREE ENERGY PREDICTED BY IDOCK:   -0.35 KCAL/MOL
REMARK 927      BINDING AFFINITY PREDICTED BY RF-SCORE:    0.00 PKD
ROOT
HETATM    1  C   UNL     1     -11.683  14.732  70.412  1.00  0.00    -0.295 C  
HETATM    2  N   UNL     1     -12.339  13.630  69.718  1.00  0.00    -0.276 NA 
HETATM    3  H   UNL     1     -13.281  13.895  69.433  1.00  0.00     0.000 HD 
ENDROOT
BRANCH   2   4
HETATM    4  C   UNL     1     -11.571  13.114  68.569  1.00  0.00    -0.326 C  
HETATM    5  C   UNL     1     -11.646  11.586  68.477  1.00  0.00    -0.377 C  
BRANCH   4   6
HETATM    6  C   UNL     1     -12.125  13.788  67.290  1.00  0.00    -0.393 C  
BRANCH   6   7
HETATM    7  C   UNL     1     -11.032  14.133  66.275  1.00  0.00    -0.303 C  
BRANCH   7   8
HETATM    8  C   UNL     1     -10.128  15.242  66.741  1.00  0.00    -0.262 C  
HETATM    9  C   UNL     1      -8.857  15.122  67.172  1.00  0.00    -0.236 C  
HETATM   10  C   UNL     1      -8.140  13.814  67.363  1.00  0.00    -0.188 C  
HETATM   11  C   UNL     1      -8.040  16.340  67.510  1.00  0.00    -0.165 C  
ENDBRANCH   7   8
ENDBRANCH   6   7
ENDBRANCH   4   6
ENDBRANCH   2   4
TORSDOF 4
ENDMDL
MODEL      176
REMARK 921   NORMALIZED FREE ENERGY PREDICTED BY IDOCK:   -2.38 KCAL/MOL
REMARK 922        TOTAL FREE ENERGY PREDICTED BY IDOCK:   -3.17 KCAL/MOL
REMARK 923 INTER-LIGAND FREE ENERGY PREDICTED BY IDOCK:   -2.99 KCAL/MOL
REMARK 924 INTRA-LIGAND FREE ENERGY PREDICTED BY IDOCK:   -0.19 KCAL/MOL
REMARK 927      BINDING AFFINITY PREDICTED BY RF-SCORE:    0.00 PKD
ROOT
HETATM    1  C   UNL     1     -10.201   8.496  68.176  1.00  0.00    -0.208 C  
HETATM    2  N   UNL     1     -11.161   9.487  67.704  1.00  0.00    -0.462 NA 
HETATM    3  H   UNL     1     -11.944   9.034  67.233  1.00  0.00     0.000 HD 
ENDROOT
BRANCH   2   4
HETATM    4  C   UNL     1     -11.643  10.394  68.763  1.00  0.00    -0.119 C  
HETATM    5  C   UNL     1     -10.693  10.420  69.965  1.00  0.00    -0.321 C  
BRANCH   4   6
HETATM    6  C   UNL     1     -11.809  11.802  68.140  1.00  0.00    -0.324 C  
BRANCH   6   7
HETATM    7  C   UNL     1     -11.811  12.921  69.186  1.00  0.00    -0.353 C  
BRANCH   7   8
HETATM    8  C   UNL     1     -10.825  14.015  68.875  1.00  0.00    -0.278 C  
HETATM    9  C   UNL     1     -10.731  15.213  69.482  1.00  0.00    -0.273 C  
HETATM   10  C   UNL     1     -11.683  15.718  70.530  1.00  0.00    -0.400 C  
HETATM   11  C   UNL     1      -9.622  16.170  69.130  1.00  0.00    -0.249 C  
ENDBRANCH   7   8
ENDBRANCH   6   7
ENDBRANCH   4   6
ENDBRANCH   2   4
TORSDOF 4
ENDMDL
MODEL      177
REMARK 921   NORMALIZED FREE ENERGY PREDICTED BY IDOCK:   -2.37 KCAL/MOL
REMARK 922        TOTAL FREE ENERGY PREDICTED BY IDOCK:   -3.16 KCAL/MOL
REMARK 923 INTER-LIGAND FREE ENERGY PREDICTED BY IDOCK:   -2.78 KCAL/MOL
REMARK 924 INTRA-LIGAND FREE ENERGY PREDICTED BY IDOCK:   -0.38 KCAL/MOL
REMARK 927      BINDING AFFINITY PREDICTED BY RF-SCORE:    0.00 PKD
ROOT
HETATM    1  C   UNL     1     -12.235  12.469  63.338  1.00  0.00    -0.517 C  
HETATM    2  N   UNL     1     -11.561  12.797  64.589  1.00  0.00    -0.322 NA 
HETATM    3  H   UNL     1     -12.146  13.401  65.165  1.00  0.00     0.000 HD 
ENDROOT
BRANCH   2   4
HETATM    4  C   UNL     1     -11.121  11.614  65.352  1.00  0.00    -0.239 C  
HETATM    5  C   UNL     1     -10.319  10.642  64.481  1.00  0.00    -0.352 C  
BRANCH   4   6
HETATM    6  C   UNL     1     -10.290  12.112  66.560  1.00  0.00    -0.239 C  
BRANCH   6   7
HETATM    7  C   UNL     1      -9.354  11.040  67.125  1.00  0.00    -0.177 C  
BRANCH   7   8
HETATM    8  C   UNL     1      -9.902  10.373  68.357  1.00  0.00    -0.173 C  
HETATM    9  C   UNL     1     -10.418   9.132  68.442  1.00  0.00    -0.241 C  
HETATM   10  C   UNL     1     -10.636   8.214  67.272  1.00  0.00    -0.344 C  
HETATM   11  C   UNL     1     -10.835   8.561  69.772  1.00  0.00    -0.177 C  
ENDBRANCH   7   8
ENDBRANCH   6   7
ENDBRANCH   4   6
ENDBRANCH   2   4
TORSDOF 4
ENDMDL
MODEL      178
REMARK 921   NORMALIZED FREE ENERGY PREDICTED BY IDOCK:   -2.36 KCAL/MOL
REMARK 922        TOTAL FREE ENERGY PREDICTED BY IDOCK:   -3.15 KCAL/MOL
REMARK 923 INTER-LIGAND FREE ENERGY PREDICTED BY IDOCK:   -2.90 KCAL/MOL
REMARK 924 INTRA-LIGAND FREE ENERGY PREDICTED BY IDOCK:   -0.25 KCAL/MOL
REMARK 927      BINDING AFFINITY PREDICTED BY RF-SCORE:    0.00 PKD
ROOT
HETATM    1  C   UNL     1      -9.775  14.296  67.393  1.00  0.00    -0.235 C  
HETATM    2  N   UNL     1      -9.978  13.798  68.748  1.00  0.00    -0.382 NA 
HETATM    3  H   UNL     1      -9.928  14.561  69.423  1.00  0.00     0.000 HD 
ENDROOT
BRANCH   2   4
HETATM    4  C   UNL     1     -11.229  13.035  68.916  1.00  0.00    -0.278 C  
HETATM    5  C   UNL     1     -12.224  13.320  67.786  1.00  0.00    -0.158 C  
BRANCH   4   6
HETATM    6  C   UNL     1     -10.861  11.533  68.983  1.00  0.00    -0.258 C  
BRANCH   6   7
HETATM    7  C   UNL     1     -11.416  10.728  67.804  1.00  0.00    -0.283 C  
BRANCH   7   8
HETATM    8  C   UNL     1     -10.380  10.441  66.751  1.00  0.00    -0.294 C  
HETATM    9  C   UNL     1      -9.923   9.231  66.377  1.00  0.00    -0.356 C  
HETATM   10  C   UNL     1     -10.302   7.933  67.034  1.00  0.00    -0.411 C  
HETATM   11  C   UNL     1      -8.956   9.093  65.231  1.00  0.00    -0.246 C  
ENDBRANCH   7   8
ENDBRANCH   6   7
ENDBRANCH   4   6
ENDBRANCH   2   4
TORSDOF 4
ENDMDL
MODEL      179
REMARK 921   NORMALIZED FREE ENERGY PREDICTED BY IDOCK:   -2.34 KCAL/MOL
REMARK 922        TOTAL FREE ENERGY PREDICTED BY IDOCK:   -3.12 KCAL/MOL
REMARK 923 INTER-LIGAND FREE ENERGY PREDICTED BY IDOCK:   -2.90 KCAL/MOL
REMARK 924 INTRA-LIGAND FREE ENERGY PREDICTED BY IDOCK:   -0.22 KCAL/MOL
REMARK 927      BINDING AFFINITY PREDICTED BY RF-SCORE:    0.00 PKD
ROOT
HETATM    1  C   UNL     1     -11.693  14.858  69.980  1.00  0.00    -0.294 C  
HETATM    2  N   UNL     1     -11.281  14.720  68.589  1.00  0.00    -0.260 NA 
HETATM    3  H   UNL     1     -10.264  14.715  68.514  1.00  0.00     0.000 HD 
ENDROOT
BRANCH   2   4
HETATM    4  C   UNL     1     -11.859  13.543  67.915  1.00  0.00    -0.362 C  
HETATM    5  C   UNL     1     -12.193  13.836  66.448  1.00  0.00    -0.480 C  
BRANCH   4   6
HETATM    6  C   UNL     1     -10.848  12.379  68.045  1.00  0.00    -0.251 C  
BRANCH   6   7
HETATM    7  C   UNL     1     -11.519  11.033  68.338  1.00  0.00    -0.378 C  
BRANCH   7   8
HETATM    8  C   UNL     1     -11.065   9.937  67.413  1.00  0.00    -0.101 C  
HETATM    9  C   UNL     1     -10.258   8.904  67.720  1.00  0.00    -0.283 C  
HETATM   10  C   UNL     1      -9.571   8.719  69.044  1.00  0.00    -0.162 C  
HETATM   11  C   UNL     1      -9.974   7.823  66.710  1.00  0.00    -0.331 C  
ENDBRANCH   7   8
ENDBRANCH   6   7
ENDBRANCH   4   6
ENDBRANCH   2   4
TORSDOF 4
ENDMDL
MODEL      180
REMARK 921   NORMALIZED FREE ENERGY PREDICTED BY IDOCK:   -2.34 KCAL/MOL
REMARK 922        TOTAL FREE ENERGY PREDICTED BY IDOCK:   -3.12 KCAL/MOL
REMARK 923 INTER-LIGAND FREE ENERGY PREDICTED BY IDOCK:   -2.95 KCAL/MOL
REMARK 924 INTRA-LIGAND FREE ENERGY PREDICTED BY IDOCK:   -0.17 KCAL/MOL
REMARK 927      BINDING AFFINITY PREDICTED BY RF-SCORE:    0.00 PKD
ROOT
HETATM    1  C   UNL     1     -11.669  11.256  68.549  1.00  0.00    -0.308 C  
HETATM    2  N   UNL     1     -10.961  12.247  69.350  1.00  0.00    -0.454 NA 
HETATM    3  H   UNL     1      -9.956  12.077  69.328  1.00  0.00     0.000 HD 
ENDROOT
BRANCH   2   4
HETATM    4  C   UNL     1     -11.262  13.640  68.968  1.00  0.00    -0.273 C  
HETATM    5  C   UNL     1     -12.051  14.370  70.061  1.00  0.00    -0.401 C  
BRANCH   4   6
HETATM    6  C   UNL     1      -9.919  14.349  68.668  1.00  0.00    -0.241 C  
BRANCH   6   7
HETATM    7  C   UNL     1      -9.430  14.120  67.235  1.00  0.00    -0.229 C  
BRANCH   7   8
HETATM    8  C   UNL     1      -8.245  14.976  66.877  1.00  0.00    -0.206 C  
HETATM    9  C   UNL     1      -8.263  16.279  66.538  1.00  0.00    -0.344 C  
HETATM   10  C   UNL     1      -9.510  17.098  66.356  1.00  0.00    -0.290 C  
HETATM   11  C   UNL     1      -6.979  17.031  66.304  1.00  0.00    -0.205 C  
ENDBRANCH   7   8
ENDBRANCH   6   7
ENDBRANCH   4   6
ENDBRANCH   2   4
TORSDOF 4
ENDMDL
MODEL      181
REMARK 921   NORMALIZED FREE ENERGY PREDICTED BY IDOCK:   -2.31 KCAL/MOL
REMARK 922        TOTAL FREE ENERGY PREDICTED BY IDOCK:   -3.09 KCAL/MOL
REMARK 923 INTER-LIGAND FREE ENERGY PREDICTED BY IDOCK:   -2.75 KCAL/MOL
REMARK 924 INTRA-LIGAND FREE ENERGY PREDICTED BY IDOCK:   -0.34 KCAL/MOL
REMARK 927      BINDING AFFINITY PREDICTED BY RF-SCORE:    0.00 PKD
ROOT
HETATM    1  C   UNL     1     -11.712  13.970  68.869  1.00  0.00    -0.340 C  
HETATM    2  N   UNL     1     -10.291  13.641  68.859  1.00  0.00    -0.397 NA 
HETATM    3  H   UNL     1     -10.116  12.786  69.388  1.00  0.00     0.000 HD 
ENDROOT
BRANCH   2   4
HETATM    4  C   UNL     1      -9.717  13.542  67.504  1.00  0.00    -0.228 C  
HETATM    5  C   UNL     1     -10.662  14.118  66.444  1.00  0.00    -0.288 C  
BRANCH   4   6
HETATM    6  C   UNL     1      -8.356  14.279  67.512  1.00  0.00    -0.198 C  
BRANCH   6   7
HETATM    7  C   UNL     1      -8.009  14.879  68.879  1.00  0.00    -0.163 C  
BRANCH   7   8
HETATM    8  C   UNL     1      -7.597  16.323  68.798  1.00  0.00    -0.199 C  
HETATM    9  C   UNL     1      -8.397  17.379  68.556  1.00  0.00    -0.271 C  
HETATM   10  C   UNL     1      -9.858  17.284  68.215  1.00  0.00    -0.304 C  
HETATM   11  C   UNL     1      -7.856  18.783  68.608  1.00  0.00    -0.361 C  
ENDBRANCH   7   8
ENDBRANCH   6   7
ENDBRANCH   4   6
ENDBRANCH   2   4
TORSDOF 4
ENDMDL
MODEL      182
REMARK 921   NORMALIZED FREE ENERGY PREDICTED BY IDOCK:   -2.31 KCAL/MOL
REMARK 922        TOTAL FREE ENERGY PREDICTED BY IDOCK:   -3.09 KCAL/MOL
REMARK 923 INTER-LIGAND FREE ENERGY PREDICTED BY IDOCK:   -3.11 KCAL/MOL
REMARK 924 INTRA-LIGAND FREE ENERGY PREDICTED BY IDOCK:    0.03 KCAL/MOL
REMARK 927      BINDING AFFINITY PREDICTED BY RF-SCORE:    0.00 PKD
ROOT
HETATM    1  C   UNL     1      -7.158  12.458  68.271  1.00  0.00    -0.098 C  
HETATM    2  N   UNL     1      -8.578  12.701  68.498  1.00  0.00    -0.344 NA 
HETATM    3  H   UNL     1      -8.713  13.334  69.287  1.00  0.00     0.000 HD 
ENDROOT
BRANCH   2   4
HETATM    4  C   UNL     1      -9.291  13.196  67.305  1.00  0.00    -0.225 C  
HETATM    5  C   UNL     1      -9.461  12.097  66.250  1.00  0.00    -0.238 C  
BRANCH   4   6
HETATM    6  C   UNL     1     -10.658  13.754  67.769  1.00  0.00    -0.250 C  
BRANCH   6   7
HETATM    7  C   UNL     1     -11.795  12.736  67.637  1.00  0.00    -0.396 C  
BRANCH   7   8
HETATM    8  C   UNL     1     -11.921  11.838  68.838  1.00  0.00    -0.332 C  
HETATM    9  C   UNL     1     -12.229  12.209  70.095  1.00  0.00    -0.308 C  
HETATM   10  C   UNL     1     -12.405  13.631  70.548  1.00  0.00    -0.425 C  
HETATM   11  C   UNL     1     -12.420  11.179  71.177  1.00  0.00    -0.498 C  
ENDBRANCH   7   8
ENDBRANCH   6   7
ENDBRANCH   4   6
ENDBRANCH   2   4
TORSDOF 4
ENDMDL
MODEL      183
REMARK 921   NORMALIZED FREE ENERGY PREDICTED BY IDOCK:   -2.30 KCAL/MOL
REMARK 922        TOTAL FREE ENERGY PREDICTED BY IDOCK:   -3.08 KCAL/MOL
REMARK 923 INTER-LIGAND FREE ENERGY PREDICTED BY IDOCK:   -2.74 KCAL/MOL
REMARK 924 INTRA-LIGAND FREE ENERGY PREDICTED BY IDOCK:   -0.34 KCAL/MOL
REMARK 927      BINDING AFFINITY PREDICTED BY RF-SCORE:    0.00 PKD
ROOT
HETATM    1  C   UNL     1      -8.789   4.338  68.467  1.00  0.00    -0.103 C  
HETATM    2  N   UNL     1      -9.990   4.680  69.219  1.00  0.00    -0.191 NA 
HETATM    3  H   UNL     1      -9.868   4.467  70.209  1.00  0.00     0.000 HD 
ENDROOT
BRANCH   2   4
HETATM    4  C   UNL     1     -10.426   6.077  69.036  1.00  0.00    -0.256 C  
HETATM    5  C   UNL     1     -11.031   6.306  67.646  1.00  0.00    -0.438 C  
BRANCH   4   6
HETATM    6  C   UNL     1     -11.439   6.407  70.158  1.00  0.00    -0.484 C  
BRANCH   6   7
HETATM    7  C   UNL     1     -10.949   7.510  71.101  1.00  0.00    -0.264 C  
BRANCH   7   8
HETATM    8  C   UNL     1      -9.728   8.222  70.587  1.00  0.00    -0.191 C  
HETATM    9  C   UNL     1      -9.674   9.468  70.077  1.00  0.00    -0.271 C  
HETATM   10  C   UNL     1     -10.870  10.344  69.832  1.00  0.00    -0.353 C  
HETATM   11  C   UNL     1      -8.355  10.087  69.695  1.00  0.00    -0.188 C  
ENDBRANCH   7   8
ENDBRANCH   6   7
ENDBRANCH   4   6
ENDBRANCH   2   4
TORSDOF 4
ENDMDL
MODEL      184
REMARK 921   NORMALIZED FREE ENERGY PREDICTED BY IDOCK:   -2.29 KCAL/MOL
REMARK 922        TOTAL FREE ENERGY PREDICTED BY IDOCK:   -3.06 KCAL/MOL
REMARK 923 INTER-LIGAND FREE ENERGY PREDICTED BY IDOCK:   -2.73 KCAL/MOL
REMARK 924 INTRA-LIGAND FREE ENERGY PREDICTED BY IDOCK:   -0.33 KCAL/MOL
REMARK 927      BINDING AFFINITY PREDICTED BY RF-SCORE:    0.00 PKD
ROOT
HETATM    1  C   UNL     1      -6.260  14.837  69.438  1.00  0.00    -0.114 C  
HETATM    2  N   UNL     1      -7.297  13.812  69.470  1.00  0.00    -0.322 NA 
HETATM    3  H   UNL     1      -8.040  14.072  70.119  1.00  0.00     0.000 HD 
ENDROOT
BRANCH   2   4
HETATM    4  C   UNL     1      -7.854  13.492  68.142  1.00  0.00    -0.144 C  
HETATM    5  C   UNL     1      -7.816  11.985  67.860  1.00  0.00    -0.144 C  
BRANCH   4   6
HETATM    6  C   UNL     1      -9.298  14.044  68.089  1.00  0.00    -0.201 C  
BRANCH   6   7
HETATM    7  C   UNL     1     -10.362  12.943  68.160  1.00  0.00    -0.243 C  
BRANCH   7   8
HETATM    8  C   UNL     1     -11.482  13.145  67.176  1.00  0.00    -0.378 C  
HETATM    9  C   UNL     1     -11.505  12.751  65.888  1.00  0.00    -0.399 C  
HETATM   10  C   UNL     1     -10.349  12.118  65.166  1.00  0.00    -0.311 C  
HETATM   11  C   UNL     1     -12.743  12.932  65.050  1.00  0.00    -0.474 C  
ENDBRANCH   7   8
ENDBRANCH   6   7
ENDBRANCH   4   6
ENDBRANCH   2   4
TORSDOF 4
ENDMDL
MODEL      185
REMARK 921   NORMALIZED FREE ENERGY PREDICTED BY IDOCK:   -2.28 KCAL/MOL
REMARK 922        TOTAL FREE ENERGY PREDICTED BY IDOCK:   -3.05 KCAL/MOL
REMARK 923 INTER-LIGAND FREE ENERGY PREDICTED BY IDOCK:   -2.89 KCAL/MOL
REMARK 924 INTRA-LIGAND FREE ENERGY PREDICTED BY IDOCK:   -0.16 KCAL/MOL
REMARK 927      BINDING AFFINITY PREDICTED BY RF-SCORE:    0.00 PKD
ROOT
HETATM    1  C   UNL     1      -8.566   5.103  65.624  1.00  0.00    -0.139 C  
HETATM    2  N   UNL     1      -8.529   5.071  67.082  1.00  0.00    -0.106 NA 
HETATM    3  H   UNL     1      -7.578   5.214  67.421  1.00  0.00     0.000 HD 
ENDROOT
BRANCH   2   4
HETATM    4  C   UNL     1      -9.458   6.023  67.718  1.00  0.00    -0.112 C  
HETATM    5  C   UNL     1     -10.727   6.223  66.881  1.00  0.00    -0.411 C  
BRANCH   4   6
HETATM    6  C   UNL     1      -9.789   5.489  69.132  1.00  0.00    -0.227 C  
BRANCH   6   7
HETATM    7  C   UNL     1     -11.149   5.967  69.649  1.00  0.00    -0.414 C  
BRANCH   7   8
HETATM    8  C   UNL     1     -11.084   7.316  70.311  1.00  0.00    -0.289 C  
HETATM    9  C   UNL     1     -12.001   7.856  71.136  1.00  0.00    -0.304 C  
HETATM   10  C   UNL     1     -13.328   7.232  71.466  1.00  0.00    -0.435 C  
HETATM   11  C   UNL     1     -11.749   9.181  71.807  1.00  0.00    -0.456 C  
ENDBRANCH   7   8
ENDBRANCH   6   7
ENDBRANCH   4   6
ENDBRANCH   2   4
TORSDOF 4
ENDMDL
MODEL      186
REMARK 921   NORMALIZED FREE ENERGY PREDICTED BY IDOCK:   -2.27 KCAL/MOL
REMARK 922        TOTAL FREE ENERGY PREDICTED BY IDOCK:   -3.04 KCAL/MOL
REMARK 923 INTER-LIGAND FREE ENERGY PREDICTED BY IDOCK:   -2.84 KCAL/MOL
REMARK 924 INTRA-LIGAND FREE ENERGY PREDICTED BY IDOCK:   -0.19 KCAL/MOL
REMARK 927      BINDING AFFINITY PREDICTED BY RF-SCORE:    0.00 PKD
ROOT
HETATM    1  C   UNL     1      -7.520   9.937  63.413  1.00  0.00    -0.132 C  
HETATM    2  N   UNL     1      -8.933   9.769  63.730  1.00  0.00    -0.237 NA 
HETATM    3  H   UNL     1      -9.082   8.914  64.264  1.00  0.00     0.000 HD 
ENDROOT
BRANCH   2   4
HETATM    4  C   UNL     1      -9.525  10.928  64.425  1.00  0.00    -0.247 C  
HETATM    5  C   UNL     1     -10.404  11.763  63.487  1.00  0.00    -0.490 C  
BRANCH   4   6
HETATM    6  C   UNL     1     -10.331  10.394  65.633  1.00  0.00    -0.260 C  
BRANCH   6   7
HETATM    7  C   UNL     1      -9.481   9.561  66.598  1.00  0.00    -0.222 C  
BRANCH   7   8
HETATM    8  C   UNL     1      -9.944   8.134  66.706  1.00  0.00    -0.349 C  
HETATM    9  C   UNL     1     -10.390   7.511  67.813  1.00  0.00    -0.278 C  
HETATM   10  C   UNL     1     -10.407   8.119  69.188  1.00  0.00    -0.228 C  
HETATM   11  C   UNL     1     -10.919   6.103  67.744  1.00  0.00    -0.400 C  
ENDBRANCH   7   8
ENDBRANCH   6   7
ENDBRANCH   4   6
ENDBRANCH   2   4
TORSDOF 4
ENDMDL
MODEL      187
REMARK 921   NORMALIZED FREE ENERGY PREDICTED BY IDOCK:   -2.27 KCAL/MOL
REMARK 922        TOTAL FREE ENERGY PREDICTED BY IDOCK:   -3.04 KCAL/MOL
REMARK 923 INTER-LIGAND FREE ENERGY PREDICTED BY IDOCK:   -2.85 KCAL/MOL
REMARK 924 INTRA-LIGAND FREE ENERGY PREDICTED BY IDOCK:   -0.19 KCAL/MOL
REMARK 927      BINDING AFFINITY PREDICTED BY RF-SCORE:    0.00 PKD
ROOT
HETATM    1  C   UNL     1      -6.624  15.965  68.125  1.00  0.00    -0.125 C  
HETATM    2  N   UNL     1      -7.373  17.041  67.488  1.00  0.00    -0.150 NA 
HETATM    3  H   UNL     1      -7.249  17.017  66.476  1.00  0.00     0.000 HD 
ENDROOT
BRANCH   2   4
HETATM    4  C   UNL     1      -8.806  17.052  67.837  1.00  0.00    -0.224 C  
HETATM    5  C   UNL     1      -9.196  18.326  68.597  1.00  0.00    -0.309 C  
BRANCH   4   6
HETATM    6  C   UNL     1      -9.614  16.904  66.526  1.00  0.00    -0.295 C  
BRANCH   6   7
HETATM    7  C   UNL     1      -9.388  15.557  65.833  1.00  0.00    -0.355 C  
BRANCH   7   8
HETATM    8  C   UNL     1     -10.121  14.424  66.500  1.00  0.00    -0.281 C  
HETATM    9  C   UNL     1     -10.684  13.360  65.897  1.00  0.00    -0.285 C  
HETATM   10  C   UNL     1     -10.770  13.168  64.408  1.00  0.00    -0.426 C  
HETATM   11  C   UNL     1     -11.296  12.249  66.708  1.00  0.00    -0.395 C  
ENDBRANCH   7   8
ENDBRANCH   6   7
ENDBRANCH   4   6
ENDBRANCH   2   4
TORSDOF 4
ENDMDL
MODEL      188
REMARK 921   NORMALIZED FREE ENERGY PREDICTED BY IDOCK:   -2.27 KCAL/MOL
REMARK 922        TOTAL FREE ENERGY PREDICTED BY IDOCK:   -3.03 KCAL/MOL
REMARK 923 INTER-LIGAND FREE ENERGY PREDICTED BY IDOCK:   -2.75 KCAL/MOL
REMARK 924 INTRA-LIGAND FREE ENERGY PREDICTED BY IDOCK:   -0.29 KCAL/MOL
REMARK 927      BINDING AFFINITY PREDICTED BY RF-SCORE:    0.00 PKD
ROOT
HETATM    1  C   UNL     1     -11.030   6.392  68.324  1.00  0.00    -0.312 C  
HETATM    2  N   UNL     1     -10.083   7.189  69.095  1.00  0.00    -0.178 NA 
HETATM    3  H   UNL     1      -9.261   7.413  68.535  1.00  0.00     0.000 HD 
ENDROOT
BRANCH   2   4
HETATM    4  C   UNL     1     -10.671   8.413  69.671  1.00  0.00    -0.198 C  
HETATM    5  C   UNL     1      -9.889   8.895  70.898  1.00  0.00    -0.304 C  
BRANCH   4   6
HETATM    6  C   UNL     1     -10.703   9.490  68.560  1.00  0.00    -0.222 C  
BRANCH   6   7
HETATM    7  C   UNL     1      -9.930  10.758  68.934  1.00  0.00    -0.213 C  
BRANCH   7   8
HETATM    8  C   UNL     1     -10.542  12.009  68.364  1.00  0.00    -0.236 C  
HETATM    9  C   UNL     1     -11.500  12.768  68.928  1.00  0.00    -0.352 C  
HETATM   10  C   UNL     1     -12.214  12.434  70.209  1.00  0.00    -0.345 C  
HETATM   11  C   UNL     1     -11.943  14.054  68.282  1.00  0.00    -0.384 C  
ENDBRANCH   7   8
ENDBRANCH   6   7
ENDBRANCH   4   6
ENDBRANCH   2   4
TORSDOF 4
ENDMDL
MODEL      189
REMARK 921   NORMALIZED FREE ENERGY PREDICTED BY IDOCK:   -2.25 KCAL/MOL
REMARK 922        TOTAL FREE ENERGY PREDICTED BY IDOCK:   -3.01 KCAL/MOL
REMARK 923 INTER-LIGAND FREE ENERGY PREDICTED BY IDOCK:   -2.66 KCAL/MOL
REMARK 924 INTRA-LIGAND FREE ENERGY PREDICTED BY IDOCK:   -0.35 KCAL/MOL
REMARK 927      BINDING AFFINITY PREDICTED BY RF-SCORE:    0.00 PKD
ROOT
HETATM    1  C   UNL     1      -6.936   5.881  72.730  1.00  0.00    -0.076 C  
HETATM    2  N   UNL     1      -7.934   6.205  71.717  1.00  0.00    -0.102 NA 
HETATM    3  H   UNL     1      -8.158   5.382  71.157  1.00  0.00     0.000 HD 
ENDROOT
BRANCH   2   4
HETATM    4  C   UNL     1      -9.160   6.811  72.268  1.00  0.00    -0.132 C  
HETATM    5  C   UNL     1      -9.304   8.279  71.853  1.00  0.00    -0.282 C  
BRANCH   4   6
HETATM    6  C   UNL     1     -10.364   5.965  71.786  1.00  0.00    -0.263 C  
BRANCH   6   7
HETATM    7  C   UNL     1     -11.263   6.714  70.798  1.00  0.00    -0.366 C  
BRANCH   7   8
HETATM    8  C   UNL     1     -11.257   6.105  69.422  1.00  0.00    -0.466 C  
HETATM    9  C   UNL     1     -10.820   6.682  68.286  1.00  0.00    -0.322 C  
HETATM   10  C   UNL     1     -10.348   8.105  68.176  1.00  0.00    -0.251 C  
HETATM   11  C   UNL     1     -10.781   5.908  66.995  1.00  0.00    -0.396 C  
ENDBRANCH   7   8
ENDBRANCH   6   7
ENDBRANCH   4   6
ENDBRANCH   2   4
TORSDOF 4
ENDMDL
MODEL      190
REMARK 921   NORMALIZED FREE ENERGY PREDICTED BY IDOCK:   -2.25 KCAL/MOL
REMARK 922        TOTAL FREE ENERGY PREDICTED BY IDOCK:   -3.01 KCAL/MOL
REMARK 923 INTER-LIGAND FREE ENERGY PREDICTED BY IDOCK:   -2.84 KCAL/MOL
REMARK 924 INTRA-LIGAND FREE ENERGY PREDICTED BY IDOCK:   -0.17 KCAL/MOL
REMARK 927      BINDING AFFINITY PREDICTED BY RF-SCORE:    0.00 PKD
ROOT
HETATM    1  C   UNL     1      -7.055  15.558  69.240  1.00  0.00    -0.186 C  
HETATM    2  N   UNL     1      -8.388  15.154  69.671  1.00  0.00    -0.407 NA 
HETATM    3  H   UNL     1      -8.490  15.266  70.680  1.00  0.00     0.000 HD 
ENDROOT
BRANCH   2   4
HETATM    4  C   UNL     1      -9.476  15.849  68.957  1.00  0.00    -0.247 C  
HETATM    5  C   UNL     1     -10.797  15.782  69.732  1.00  0.00    -0.314 C  
BRANCH   4   6
HETATM    6  C   UNL     1      -9.029  17.312  68.723  1.00  0.00    -0.231 C  
BRANCH   6   7
HETATM    7  C   UNL     1      -9.627  17.924  67.452  1.00  0.00    -0.271 C  
BRANCH   7   8
HETATM    8  C   UNL     1      -8.831  19.089  66.932  1.00  0.00    -0.314 C  
HETATM    9  C   UNL     1      -7.681  19.035  66.233  1.00  0.00    -0.295 C  
HETATM   10  C   UNL     1      -6.921  17.773  65.934  1.00  0.00    -0.291 C  
HETATM   11  C   UNL     1      -7.051  20.289  65.688  1.00  0.00    -0.284 C  
ENDBRANCH   7   8
ENDBRANCH   6   7
ENDBRANCH   4   6
ENDBRANCH   2   4
TORSDOF 4
ENDMDL
MODEL      191
REMARK 921   NORMALIZED FREE ENERGY PREDICTED BY IDOCK:   -2.24 KCAL/MOL
REMARK 922        TOTAL FREE ENERGY PREDICTED BY IDOCK:   -3.00 KCAL/MOL
REMARK 923 INTER-LIGAND FREE ENERGY PREDICTED BY IDOCK:   -2.80 KCAL/MOL
REMARK 924 INTRA-LIGAND FREE ENERGY PREDICTED BY IDOCK:   -0.20 KCAL/MOL
REMARK 927      BINDING AFFINITY PREDICTED BY RF-SCORE:    0.00 PKD
ROOT
HETATM    1  C   UNL     1      -8.113   7.588  67.185  1.00  0.00    -0.118 C  
HETATM    2  N   UNL     1      -8.640   7.948  68.495  1.00  0.00    -0.128 NA 
HETATM    3  H   UNL     1      -9.367   8.658  68.408  1.00  0.00     0.000 HD 
ENDROOT
BRANCH   2   4
HETATM    4  C   UNL     1      -9.128   6.795  69.274  1.00  0.00    -0.139 C  
HETATM    5  C   UNL     1      -8.042   5.727  69.448  1.00  0.00    -0.101 C  
BRANCH   4   6
HETATM    6  C   UNL     1      -9.628   7.323  70.640  1.00  0.00    -0.172 C  
BRANCH   6   7
HETATM    7  C   UNL     1      -9.671   8.853  70.710  1.00  0.00    -0.281 C  
BRANCH   7   8
HETATM    8  C   UNL     1     -10.912   9.374  71.382  1.00  0.00    -0.443 C  
HETATM    9  C   UNL     1     -11.831  10.202  70.851  1.00  0.00    -0.468 C  
HETATM   10  C   UNL     1     -11.721  10.846  69.497  1.00  0.00    -0.400 C  
HETATM   11  C   UNL     1     -13.080  10.557  71.613  1.00  0.00    -0.551 C  
ENDBRANCH   7   8
ENDBRANCH   6   7
ENDBRANCH   4   6
ENDBRANCH   2   4
TORSDOF 4
ENDMDL
MODEL      192
REMARK 921   NORMALIZED FREE ENERGY PREDICTED BY IDOCK:   -2.23 KCAL/MOL
REMARK 922        TOTAL FREE ENERGY PREDICTED BY IDOCK:   -2.99 KCAL/MOL
REMARK 923 INTER-LIGAND FREE ENERGY PREDICTED BY IDOCK:   -2.78 KCAL/MOL
REMARK 924 INTRA-LIGAND FREE ENERGY PREDICTED BY IDOCK:   -0.21 KCAL/MOL
REMARK 927      BINDING AFFINITY PREDICTED BY RF-SCORE:    0.00 PKD
ROOT
HETATM    1  C   UNL     1     -10.829  12.824  63.944  1.00  0.00    -0.411 C  
HETATM    2  N   UNL     1     -11.877  12.610  64.935  1.00  0.00    -0.365 NA 
HETATM    3  H   UNL     1     -12.518  11.878  64.629  1.00  0.00     0.000 HD 
ENDROOT
BRANCH   2   4
HETATM    4  C   UNL     1     -11.362  12.320  66.287  1.00  0.00    -0.345 C  
HETATM    5  C   UNL     1     -10.490  11.060  66.304  1.00  0.00    -0.310 C  
BRANCH   4   6
HETATM    6  C   UNL     1     -10.574  13.562  66.770  1.00  0.00    -0.272 C  
BRANCH   6   7
HETATM    7  C   UNL     1      -9.693  13.275  67.989  1.00  0.00    -0.223 C  
BRANCH   7   8
HETATM    8  C   UNL     1      -8.671  14.349  68.241  1.00  0.00    -0.180 C  
HETATM    9  C   UNL     1      -8.829  15.453  68.996  1.00  0.00    -0.231 C  
HETATM   10  C   UNL     1     -10.118  15.865  69.650  1.00  0.00    -0.271 C  
HETATM   11  C   UNL     1      -7.676  16.391  69.239  1.00  0.00    -0.171 C  
ENDBRANCH   7   8
ENDBRANCH   6   7
ENDBRANCH   4   6
ENDBRANCH   2   4
TORSDOF 4
ENDMDL
MODEL      193
REMARK 921   NORMALIZED FREE ENERGY PREDICTED BY IDOCK:   -2.23 KCAL/MOL
REMARK 922        TOTAL FREE ENERGY PREDICTED BY IDOCK:   -2.99 KCAL/MOL
REMARK 923 INTER-LIGAND FREE ENERGY PREDICTED BY IDOCK:   -2.80 KCAL/MOL
REMARK 924 INTRA-LIGAND FREE ENERGY PREDICTED BY IDOCK:   -0.19 KCAL/MOL
REMARK 927      BINDING AFFINITY PREDICTED BY RF-SCORE:    0.00 PKD
ROOT
HETATM    1  C   UNL     1     -14.305  14.726  71.866  1.00  0.00    -0.570 C  
HETATM    2  N   UNL     1     -12.920  14.563  71.441  1.00  0.00    -0.315 NA 
HETATM    3  H   UNL     1     -12.767  13.627  71.066  1.00  0.00     0.000 HD 
ENDROOT
BRANCH   2   4
HETATM    4  C   UNL     1     -12.470  15.590  70.483  1.00  0.00    -0.427 C  
HETATM    5  C   UNL     1     -11.192  16.289  70.958  1.00  0.00    -0.227 C  
BRANCH   4   6
HETATM    6  C   UNL     1     -12.264  14.900  69.113  1.00  0.00    -0.194 C  
BRANCH   6   7
HETATM    7  C   UNL     1     -10.861  15.118  68.539  1.00  0.00    -0.247 C  
BRANCH   7   8
HETATM    8  C   UNL     1     -10.188  13.835  68.132  1.00  0.00    -0.253 C  
HETATM    9  C   UNL     1      -9.059  13.710  67.409  1.00  0.00    -0.222 C  
HETATM   10  C   UNL     1      -8.313  14.854  66.782  1.00  0.00    -0.158 C  
HETATM   11  C   UNL     1      -8.447  12.355  67.167  1.00  0.00    -0.185 C  
ENDBRANCH   7   8
ENDBRANCH   6   7
ENDBRANCH   4   6
ENDBRANCH   2   4
TORSDOF 4
ENDMDL
MODEL      194
REMARK 921   NORMALIZED FREE ENERGY PREDICTED BY IDOCK:   -2.22 KCAL/MOL
REMARK 922        TOTAL FREE ENERGY PREDICTED BY IDOCK:   -2.98 KCAL/MOL
REMARK 923 INTER-LIGAND FREE ENERGY PREDICTED BY IDOCK:   -2.80 KCAL/MOL
REMARK 924 INTRA-LIGAND FREE ENERGY PREDICTED BY IDOCK:   -0.18 KCAL/MOL
REMARK 927      BINDING AFFINITY PREDICTED BY RF-SCORE:    0.00 PKD
ROOT
HETATM    1  C   UNL     1      -5.358  17.978  67.378  1.00  0.00    -0.136 C  
HETATM    2  N   UNL     1      -6.329  17.170  66.651  1.00  0.00    -0.206 NA 
HETATM    3  H   UNL     1      -5.863  16.421  66.139  1.00  0.00     0.000 HD 
ENDROOT
BRANCH   2   4
HETATM    4  C   UNL     1      -7.404  16.629  67.503  1.00  0.00    -0.149 C  
HETATM    5  C   UNL     1      -8.304  17.740  68.056  1.00  0.00    -0.249 C  
BRANCH   4   6
HETATM    6  C   UNL     1      -8.211  15.613  66.658  1.00  0.00    -0.284 C  
BRANCH   6   7
HETATM    7  C   UNL     1      -9.505  15.161  67.342  1.00  0.00    -0.204 C  
BRANCH   7   8
HETATM    8  C   UNL     1     -10.647  14.984  66.378  1.00  0.00    -0.310 C  
HETATM    9  C   UNL     1     -11.490  13.937  66.309  1.00  0.00    -0.347 C  
HETATM   10  C   UNL     1     -11.371  12.687  67.136  1.00  0.00    -0.373 C  
HETATM   11  C   UNL     1     -12.655  13.947  65.354  1.00  0.00    -0.538 C  
ENDBRANCH   7   8
ENDBRANCH   6   7
ENDBRANCH   4   6
ENDBRANCH   2   4
TORSDOF 4
ENDMDL
MODEL      195
REMARK 921   NORMALIZED FREE ENERGY PREDICTED BY IDOCK:   -2.22 KCAL/MOL
REMARK 922        TOTAL FREE ENERGY PREDICTED BY IDOCK:   -2.98 KCAL/MOL
REMARK 923 INTER-LIGAND FREE ENERGY PREDICTED BY IDOCK:   -2.64 KCAL/MOL
REMARK 924 INTRA-LIGAND FREE ENERGY PREDICTED BY IDOCK:   -0.34 KCAL/MOL
REMARK 927      BINDING AFFINITY PREDICTED BY RF-SCORE:    0.00 PKD
ROOT
HETATM    1  C   UNL     1      -6.746   7.458  67.177  1.00  0.00    -0.069 C  
HETATM    2  N   UNL     1      -7.654   6.457  67.724  1.00  0.00    -0.100 NA 
HETATM    3  H   UNL     1      -7.194   5.918  68.458  1.00  0.00     0.000 HD 
ENDROOT
BRANCH   2   4
HETATM    4  C   UNL     1      -8.929   7.017  68.210  1.00  0.00    -0.128 C  
HETATM    5  C   UNL     1      -9.792   7.545  67.058  1.00  0.00    -0.280 C  
BRANCH   4   6
HETATM    6  C   UNL     1      -9.660   5.909  69.005  1.00  0.00    -0.157 C  
BRANCH   6   7
HETATM    7  C   UNL     1     -11.149   6.204  69.212  1.00  0.00    -0.463 C  
BRANCH   7   8
HETATM    8  C   UNL     1     -11.472   6.634  70.617  1.00  0.00    -0.420 C  
HETATM    9  C   UNL     1     -11.446   7.889  71.104  1.00  0.00    -0.297 C  
HETATM   10  C   UNL     1     -10.979   9.094  70.337  1.00  0.00    -0.290 C  
HETATM   11  C   UNL     1     -11.897   8.178  72.511  1.00  0.00    -0.438 C  
ENDBRANCH   7   8
ENDBRANCH   6   7
ENDBRANCH   4   6
ENDBRANCH   2   4
TORSDOF 4
ENDMDL
MODEL      196
REMARK 921   NORMALIZED FREE ENERGY PREDICTED BY IDOCK:   -2.22 KCAL/MOL
REMARK 922        TOTAL FREE ENERGY PREDICTED BY IDOCK:   -2.97 KCAL/MOL
REMARK 923 INTER-LIGAND FREE ENERGY PREDICTED BY IDOCK:   -2.47 KCAL/MOL
REMARK 924 INTRA-LIGAND FREE ENERGY PREDICTED BY IDOCK:   -0.50 KCAL/MOL
REMARK 927      BINDING AFFINITY PREDICTED BY RF-SCORE:    0.00 PKD
ROOT
HETATM    1  C   UNL     1      -7.080   8.469  67.945  1.00  0.00    -0.086 C  
HETATM    2  N   UNL     1      -8.484   8.840  67.818  1.00  0.00    -0.125 NA 
HETATM    3  H   UNL     1      -8.586   9.854  67.782  1.00  0.00     0.000 HD 
ENDROOT
BRANCH   2   4
HETATM    4  C   UNL     1      -9.162   8.206  66.672  1.00  0.00    -0.180 C  
HETATM    5  C   UNL     1      -8.422   6.950  66.199  1.00  0.00    -0.136 C  
BRANCH   4   6
HETATM    6  C   UNL     1     -10.614   7.883  67.100  1.00  0.00    -0.383 C  
BRANCH   6   7
HETATM    7  C   UNL     1     -10.789   6.436  67.572  1.00  0.00    -0.438 C  
BRANCH   7   8
HETATM    8  C   UNL     1     -11.073   6.330  69.046  1.00  0.00    -0.446 C  
HETATM    9  C   UNL     1     -10.195   6.008  70.016  1.00  0.00    -0.264 C  
HETATM   10  C   UNL     1      -8.772   5.588  69.776  1.00  0.00    -0.118 C  
HETATM   11  C   UNL     1     -10.603   6.043  71.465  1.00  0.00    -0.295 C  
ENDBRANCH   7   8
ENDBRANCH   6   7
ENDBRANCH   4   6
ENDBRANCH   2   4
TORSDOF 4
ENDMDL
MODEL      197
REMARK 921   NORMALIZED FREE ENERGY PREDICTED BY IDOCK:   -2.22 KCAL/MOL
REMARK 922        TOTAL FREE ENERGY PREDICTED BY IDOCK:   -2.97 KCAL/MOL
REMARK 923 INTER-LIGAND FREE ENERGY PREDICTED BY IDOCK:   -2.72 KCAL/MOL
REMARK 924 INTRA-LIGAND FREE ENERGY PREDICTED BY IDOCK:   -0.25 KCAL/MOL
REMARK 927      BINDING AFFINITY PREDICTED BY RF-SCORE:    0.00 PKD
ROOT
HETATM    1  C   UNL     1      -9.548  10.907  68.827  1.00  0.00    -0.189 C  
HETATM    2  N   UNL     1     -10.523  11.828  68.256  1.00  0.00    -0.199 NA 
HETATM    3  H   UNL     1     -10.725  11.584  67.286  1.00  0.00     0.000 HD 
ENDROOT
BRANCH   2   4
HETATM    4  C   UNL     1     -11.770  11.929  69.037  1.00  0.00    -0.331 C  
HETATM    5  C   UNL     1     -12.110  10.608  69.736  1.00  0.00    -0.343 C  
BRANCH   4   6
HETATM    6  C   UNL     1     -11.598  13.082  70.056  1.00  0.00    -0.195 C  
BRANCH   6   7
HETATM    7  C   UNL     1     -12.015  14.444  69.493  1.00  0.00    -0.376 C  
BRANCH   7   8
HETATM    8  C   UNL     1     -10.854  15.239  68.961  1.00  0.00    -0.244 C  
HETATM    9  C   UNL     1     -10.536  15.438  67.668  1.00  0.00    -0.272 C  
HETATM   10  C   UNL     1     -11.243  14.799  66.506  1.00  0.00    -0.342 C  
HETATM   11  C   UNL     1      -9.398  16.347  67.285  1.00  0.00    -0.227 C  
ENDBRANCH   7   8
ENDBRANCH   6   7
ENDBRANCH   4   6
ENDBRANCH   2   4
TORSDOF 4
ENDMDL
MODEL      198
REMARK 921   NORMALIZED FREE ENERGY PREDICTED BY IDOCK:   -2.21 KCAL/MOL
REMARK 922        TOTAL FREE ENERGY PREDICTED BY IDOCK:   -2.96 KCAL/MOL
REMARK 923 INTER-LIGAND FREE ENERGY PREDICTED BY IDOCK:   -2.75 KCAL/MOL
REMARK 924 INTRA-LIGAND FREE ENERGY PREDICTED BY IDOCK:   -0.21 KCAL/MOL
REMARK 927      BINDING AFFINITY PREDICTED BY RF-SCORE:    0.00 PKD
ROOT
HETATM    1  C   UNL     1     -11.023  10.340  68.486  1.00  0.00    -0.247 C  
HETATM    2  N   UNL     1     -10.713  11.763  68.548  1.00  0.00    -0.211 NA 
HETATM    3  H   UNL     1      -9.705  11.910  68.607  1.00  0.00     0.000 HD 
ENDROOT
BRANCH   2   4
HETATM    4  C   UNL     1     -11.289  12.543  67.436  1.00  0.00    -0.313 C  
HETATM    5  C   UNL     1     -10.529  13.855  67.210  1.00  0.00    -0.271 C  
BRANCH   4   6
HETATM    6  C   UNL     1     -11.269  11.650  66.172  1.00  0.00    -0.314 C  
BRANCH   6   7
HETATM    7  C   UNL     1      -9.973  11.783  65.366  1.00  0.00    -0.284 C  
BRANCH   7   8
HETATM    8  C   UNL     1      -9.428  10.458  64.909  1.00  0.00    -0.320 C  
HETATM    9  C   UNL     1      -8.955  10.158  63.684  1.00  0.00    -0.269 C  
HETATM   10  C   UNL     1      -8.986  11.089  62.504  1.00  0.00    -0.366 C  
HETATM   11  C   UNL     1      -8.344   8.811  63.402  1.00  0.00    -0.157 C  
ENDBRANCH   7   8
ENDBRANCH   6   7
ENDBRANCH   4   6
ENDBRANCH   2   4
TORSDOF 4
ENDMDL
MODEL      199
REMARK 921   NORMALIZED FREE ENERGY PREDICTED BY IDOCK:   -2.21 KCAL/MOL
REMARK 922        TOTAL FREE ENERGY PREDICTED BY IDOCK:   -2.96 KCAL/MOL
REMARK 923 INTER-LIGAND FREE ENERGY PREDICTED BY IDOCK:   -2.58 KCAL/MOL
REMARK 924 INTRA-LIGAND FREE ENERGY PREDICTED BY IDOCK:   -0.38 KCAL/MOL
REMARK 927      BINDING AFFINITY PREDICTED BY RF-SCORE:    0.00 PKD
ROOT
HETATM    1  C   UNL     1      -9.393  14.926  68.838  1.00  0.00    -0.197 C  
HETATM    2  N   UNL     1     -10.125  15.583  67.762  1.00  0.00    -0.230 NA 
HETATM    3  H   UNL     1     -11.067  15.830  68.066  1.00  0.00     0.000 HD 
ENDROOT
BRANCH   2   4
HETATM    4  C   UNL     1      -9.431  16.760  67.206  1.00  0.00    -0.230 C  
HETATM    5  C   UNL     1      -9.151  17.814  68.283  1.00  0.00    -0.281 C  
BRANCH   4   6
HETATM    6  C   UNL     1      -8.124  16.268  66.540  1.00  0.00    -0.337 C  
BRANCH   6   7
HETATM    7  C   UNL     1      -6.927  17.179  66.827  1.00  0.00    -0.260 C  
BRANCH   7   8
HETATM    8  C   UNL     1      -6.411  17.875  65.597  1.00  0.00    -0.213 C  
HETATM    9  C   UNL     1      -6.672  19.140  65.215  1.00  0.00    -0.233 C  
HETATM   10  C   UNL     1      -7.629  20.064  65.915  1.00  0.00    -0.316 C  
HETATM   11  C   UNL     1      -5.998  19.735  64.007  1.00  0.00    -0.280 C  
ENDBRANCH   7   8
ENDBRANCH   6   7
ENDBRANCH   4   6
ENDBRANCH   2   4
TORSDOF 4
ENDMDL
MODEL      200
REMARK 921   NORMALIZED FREE ENERGY PREDICTED BY IDOCK:   -2.21 KCAL/MOL
REMARK 922        TOTAL FREE ENERGY PREDICTED BY IDOCK:   -2.96 KCAL/MOL
REMARK 923 INTER-LIGAND FREE ENERGY PREDICTED BY IDOCK:   -2.69 KCAL/MOL
REMARK 924 INTRA-LIGAND FREE ENERGY PREDICTED BY IDOCK:   -0.27 KCAL/MOL
REMARK 927      BINDING AFFINITY PREDICTED BY RF-SCORE:    0.00 PKD
ROOT
HETATM    1  C   UNL     1      -6.480  13.376  68.078  1.00  0.00    -0.131 C  
HETATM    2  N   UNL     1      -7.345  13.938  67.048  1.00  0.00    -0.335 NA 
HETATM    3  H   UNL     1      -6.846  14.019  66.163  1.00  0.00     0.000 HD 
ENDROOT
BRANCH   2   4
HETATM    4  C   UNL     1      -8.608  13.197  66.868  1.00  0.00    -0.109 C  
HETATM    5  C   UNL     1      -8.910  12.290  68.066  1.00  0.00    -0.182 C  
BRANCH   4   6
HETATM    6  C   UNL     1      -9.736  14.232  66.642  1.00  0.00    -0.297 C  
BRANCH   6   7
HETATM    7  C   UNL     1      -9.762  15.331  67.710  1.00  0.00    -0.215 C  
BRANCH   7   8
HETATM    8  C   UNL     1     -10.330  16.628  67.203  1.00  0.00    -0.300 C  
HETATM    9  C   UNL     1      -9.645  17.650  66.654  1.00  0.00    -0.301 C  
HETATM   10  C   UNL     1      -8.147  17.714  66.545  1.00  0.00    -0.306 C  
HETATM   11  C   UNL     1     -10.365  18.849  66.096  1.00  0.00    -0.517 C  
ENDBRANCH   7   8
ENDBRANCH   6   7
ENDBRANCH   4   6
ENDBRANCH   2   4
TORSDOF 4
ENDMDL
MODEL      201
REMARK 921   NORMALIZED FREE ENERGY PREDICTED BY IDOCK:   -2.18 KCAL/MOL
REMARK 922        TOTAL FREE ENERGY PREDICTED BY IDOCK:   -2.92 KCAL/MOL
REMARK 923 INTER-LIGAND FREE ENERGY PREDICTED BY IDOCK:   -2.72 KCAL/MOL
REMARK 924 INTRA-LIGAND FREE ENERGY PREDICTED BY IDOCK:   -0.20 KCAL/MOL
REMARK 927      BINDING AFFINITY PREDICTED BY RF-SCORE:    0.00 PKD
ROOT
HETATM    1  C   UNL     1      -8.250  13.269  67.116  1.00  0.00    -0.114 C  
HETATM    2  N   UNL     1      -9.112  13.701  66.023  1.00  0.00    -0.461 NA 
HETATM    3  H   UNL     1      -9.921  13.086  65.937  1.00  0.00     0.000 HD 
ENDROOT
BRANCH   2   4
HETATM    4  C   UNL     1      -9.539  15.110  66.128  1.00  0.00    -0.313 C  
HETATM    5  C   UNL     1     -11.007  15.228  66.553  1.00  0.00    -0.295 C  
BRANCH   4   6
HETATM    6  C   UNL     1      -8.598  15.815  67.134  1.00  0.00    -0.226 C  
BRANCH   6   7
HETATM    7  C   UNL     1      -8.183  17.219  66.682  1.00  0.00    -0.296 C  
BRANCH   7   8
HETATM    8  C   UNL     1      -7.919  18.151  67.832  1.00  0.00    -0.249 C  
HETATM    9  C   UNL     1      -6.761  18.779  68.113  1.00  0.00    -0.239 C  
HETATM   10  C   UNL     1      -5.472  18.571  67.367  1.00  0.00    -0.143 C  
HETATM   11  C   UNL     1      -6.676  19.768  69.245  1.00  0.00    -0.383 C  
ENDBRANCH   7   8
ENDBRANCH   6   7
ENDBRANCH   4   6
ENDBRANCH   2   4
TORSDOF 4
ENDMDL
MODEL      202
REMARK 921   NORMALIZED FREE ENERGY PREDICTED BY IDOCK:   -2.17 KCAL/MOL
REMARK 922        TOTAL FREE ENERGY PREDICTED BY IDOCK:   -2.91 KCAL/MOL
REMARK 923 INTER-LIGAND FREE ENERGY PREDICTED BY IDOCK:   -2.69 KCAL/MOL
REMARK 924 INTRA-LIGAND FREE ENERGY PREDICTED BY IDOCK:   -0.22 KCAL/MOL
REMARK 927      BINDING AFFINITY PREDICTED BY RF-SCORE:    0.00 PKD
ROOT
HETATM    1  C   UNL     1     -12.202  13.472  63.503  1.00  0.00    -0.346 C  
HETATM    2  N   UNL     1     -12.736  12.796  64.679  1.00  0.00    -0.707 NA 
HETATM    3  H   UNL     1     -13.646  12.383  64.475  1.00  0.00     0.000 HD 
ENDROOT
BRANCH   2   4
HETATM    4  C   UNL     1     -11.821  11.787  65.246  1.00  0.00     0.024 C  
HETATM    5  C   UNL     1     -10.746  11.365  64.239  1.00  0.00    -0.420 C  
BRANCH   4   6
HETATM    6  C   UNL     1     -11.194  12.385  66.528  1.00  0.00    -0.368 C  
BRANCH   6   7
HETATM    7  C   UNL     1      -9.671  12.523  66.440  1.00  0.00    -0.253 C  
BRANCH   7   8
HETATM    8  C   UNL     1      -9.147  13.727  67.176  1.00  0.00    -0.243 C  
HETATM    9  C   UNL     1      -8.157  13.748  68.088  1.00  0.00    -0.155 C  
HETATM   10  C   UNL     1      -7.457  12.529  68.619  1.00  0.00    -0.090 C  
HETATM   11  C   UNL     1      -7.671  15.051  68.667  1.00  0.00    -0.128 C  
ENDBRANCH   7   8
ENDBRANCH   6   7
ENDBRANCH   4   6
ENDBRANCH   2   4
TORSDOF 4
ENDMDL
MODEL      203
REMARK 921   NORMALIZED FREE ENERGY PREDICTED BY IDOCK:   -2.15 KCAL/MOL
REMARK 922        TOTAL FREE ENERGY PREDICTED BY IDOCK:   -2.89 KCAL/MOL
REMARK 923 INTER-LIGAND FREE ENERGY PREDICTED BY IDOCK:   -2.67 KCAL/MOL
REMARK 924 INTRA-LIGAND FREE ENERGY PREDICTED BY IDOCK:   -0.22 KCAL/MOL
REMARK 927      BINDING AFFINITY PREDICTED BY RF-SCORE:    0.00 PKD
ROOT
HETATM    1  C   UNL     1      -6.227  14.521  70.403  1.00  0.00    -0.174 C  
HETATM    2  N   UNL     1      -6.545  15.634  69.516  1.00  0.00    -0.169 NA 
HETATM    3  H   UNL     1      -5.850  15.712  68.774  1.00  0.00     0.000 HD 
ENDROOT
BRANCH   2   4
HETATM    4  C   UNL     1      -7.906  15.570  68.951  1.00  0.00    -0.182 C  
HETATM    5  C   UNL     1      -8.482  16.968  68.700  1.00  0.00    -0.262 C  
BRANCH   4   6
HETATM    6  C   UNL     1      -7.838  14.741  67.646  1.00  0.00    -0.191 C  
BRANCH   6   7
HETATM    7  C   UNL     1      -8.767  13.523  67.663  1.00  0.00    -0.194 C  
BRANCH   7   8
HETATM    8  C   UNL     1      -9.925  13.655  66.711  1.00  0.00    -0.270 C  
HETATM    9  C   UNL     1     -11.205  13.307  66.944  1.00  0.00    -0.332 C  
HETATM   10  C   UNL     1     -11.691  12.615  68.187  1.00  0.00    -0.396 C  
HETATM   11  C   UNL     1     -12.278  13.596  65.928  1.00  0.00    -0.502 C  
ENDBRANCH   7   8
ENDBRANCH   6   7
ENDBRANCH   4   6
ENDBRANCH   2   4
TORSDOF 4
ENDMDL
MODEL      204
REMARK 921   NORMALIZED FREE ENERGY PREDICTED BY IDOCK:   -2.14 KCAL/MOL
REMARK 922        TOTAL FREE ENERGY PREDICTED BY IDOCK:   -2.87 KCAL/MOL
REMARK 923 INTER-LIGAND FREE ENERGY PREDICTED BY IDOCK:   -2.71 KCAL/MOL
REMARK 924 INTRA-LIGAND FREE ENERGY PREDICTED BY IDOCK:   -0.16 KCAL/MOL
REMARK 927      BINDING AFFINITY PREDICTED BY RF-SCORE:    0.00 PKD
ROOT
HETATM    1  C   UNL     1     -10.939   6.698  68.301  1.00  0.00    -0.244 C  
HETATM    2  N   UNL     1     -10.214   7.710  69.059  1.00  0.00    -0.202 NA 
HETATM    3  H   UNL     1      -9.491   8.142  68.483  1.00  0.00     0.000 HD 
ENDROOT
BRANCH   2   4
HETATM    4  C   UNL     1     -11.086   8.738  69.658  1.00  0.00    -0.028 C  
HETATM    5  C   UNL     1     -11.073   8.671  71.189  1.00  0.00    -0.324 C  
BRANCH   4   6
HETATM    6  C   UNL     1     -10.610  10.119  69.147  1.00  0.00    -0.247 C  
BRANCH   6   7
HETATM    7  C   UNL     1     -11.768  11.073  68.836  1.00  0.00    -0.400 C  
BRANCH   7   8
HETATM    8  C   UNL     1     -11.304  12.417  68.344  1.00  0.00    -0.330 C  
HETATM    9  C   UNL     1     -11.021  12.757  67.072  1.00  0.00    -0.295 C  
HETATM   10  C   UNL     1     -11.019  11.802  65.911  1.00  0.00    -0.354 C  
HETATM   11  C   UNL     1     -10.665  14.177  66.716  1.00  0.00    -0.286 C  
ENDBRANCH   7   8
ENDBRANCH   6   7
ENDBRANCH   4   6
ENDBRANCH   2   4
TORSDOF 4
ENDMDL
MODEL      205
REMARK 921   NORMALIZED FREE ENERGY PREDICTED BY IDOCK:   -2.13 KCAL/MOL
REMARK 922        TOTAL FREE ENERGY PREDICTED BY IDOCK:   -2.87 KCAL/MOL
REMARK 923 INTER-LIGAND FREE ENERGY PREDICTED BY IDOCK:   -2.57 KCAL/MOL
REMARK 924 INTRA-LIGAND FREE ENERGY PREDICTED BY IDOCK:   -0.30 KCAL/MOL
REMARK 927      BINDING AFFINITY PREDICTED BY RF-SCORE:    0.00 PKD
ROOT
HETATM    1  C   UNL     1     -10.575   3.717  64.113  1.00  0.00    -0.237 C  
HETATM    2  N   UNL     1     -11.252   4.462  65.168  1.00  0.00    -1.040 NA 
HETATM    3  H   UNL     1     -11.930   3.870  65.648  1.00  0.00     0.000 HD 
ENDROOT
BRANCH   2   4
HETATM    4  C   UNL     1     -10.331   5.089  66.134  1.00  0.00    -0.268 C  
HETATM    5  C   UNL     1     -11.031   6.170  66.966  1.00  0.00    -0.414 C  
BRANCH   4   6
HETATM    6  C   UNL     1      -9.752   3.969  67.031  1.00  0.00    -0.214 C  
BRANCH   6   7
HETATM    7  C   UNL     1      -8.228   4.040  67.167  1.00  0.00    -0.099 C  
BRANCH   7   8
HETATM    8  C   UNL     1      -7.578   4.845  66.075  1.00  0.00    -0.090 C  
HETATM    9  C   UNL     1      -7.175   6.128  66.148  1.00  0.00    -0.076 C  
HETATM   10  C   UNL     1      -7.404   7.030  67.328  1.00  0.00    -0.091 C  
HETATM   11  C   UNL     1      -6.444   6.772  64.999  1.00  0.00    -0.042 C  
ENDBRANCH   7   8
ENDBRANCH   6   7
ENDBRANCH   4   6
ENDBRANCH   2   4
TORSDOF 4
ENDMDL
MODEL      206
REMARK 921   NORMALIZED FREE ENERGY PREDICTED BY IDOCK:   -2.13 KCAL/MOL
REMARK 922        TOTAL FREE ENERGY PREDICTED BY IDOCK:   -2.86 KCAL/MOL
REMARK 923 INTER-LIGAND FREE ENERGY PREDICTED BY IDOCK:   -2.48 KCAL/MOL
REMARK 924 INTRA-LIGAND FREE ENERGY PREDICTED BY IDOCK:   -0.39 KCAL/MOL
REMARK 927      BINDING AFFINITY PREDICTED BY RF-SCORE:    0.00 PKD
ROOT
HETATM    1  C   UNL     1     -10.575   3.717  64.113  1.00  0.00    -0.237 C  
HETATM    2  N   UNL     1     -11.252   4.462  65.168  1.00  0.00    -1.040 NA 
HETATM    3  H   UNL     1     -11.930   3.870  65.648  1.00  0.00     0.000 HD 
ENDROOT
BRANCH   2   4
HETATM    4  C   UNL     1     -10.331   5.089  66.134  1.00  0.00    -0.268 C  
HETATM    5  C   UNL     1     -11.031   6.170  66.966  1.00  0.00    -0.414 C  
BRANCH   4   6
HETATM    6  C   UNL     1      -9.752   3.969  67.031  1.00  0.00    -0.214 C  
BRANCH   6   7
HETATM    7  C   UNL     1      -8.228   4.040  67.167  1.00  0.00    -0.099 C  
BRANCH   7   8
HETATM    8  C   UNL     1      -7.508   3.192  66.153  1.00  0.00    -0.076 C  
HETATM    9  C   UNL     1      -6.956   3.610  64.998  1.00  0.00    -0.057 C  
HETATM   10  C   UNL     1      -7.054   5.010  64.460  1.00  0.00    -0.054 C  
HETATM   11  C   UNL     1      -6.175   2.658  64.130  1.00  0.00    -0.018 C  
ENDBRANCH   7   8
ENDBRANCH   6   7
ENDBRANCH   4   6
ENDBRANCH   2   4
TORSDOF 4
ENDMDL
MODEL      207
REMARK 921   NORMALIZED FREE ENERGY PREDICTED BY IDOCK:   -2.13 KCAL/MOL
REMARK 922        TOTAL FREE ENERGY PREDICTED BY IDOCK:   -2.86 KCAL/MOL
REMARK 923 INTER-LIGAND FREE ENERGY PREDICTED BY IDOCK:   -2.67 KCAL/MOL
REMARK 924 INTRA-LIGAND FREE ENERGY PREDICTED BY IDOCK:   -0.19 KCAL/MOL
REMARK 927      BINDING AFFINITY PREDICTED BY RF-SCORE:    0.00 PKD
ROOT
HETATM    1  C   UNL     1      -9.352   5.683  68.486  1.00  0.00    -0.123 C  
HETATM    2  N   UNL     1     -10.163   6.848  68.156  1.00  0.00    -0.167 NA 
HETATM    3  H   UNL     1     -10.756   7.109  68.944  1.00  0.00     0.000 HD 
ENDROOT
BRANCH   2   4
HETATM    4  C   UNL     1      -9.375   8.005  67.691  1.00  0.00    -0.143 C  
HETATM    5  C   UNL     1      -8.069   7.568  67.018  1.00  0.00    -0.117 C  
BRANCH   4   6
HETATM    6  C   UNL     1     -10.263   8.825  66.725  1.00  0.00    -0.354 C  
BRANCH   6   7
HETATM    7  C   UNL     1     -10.442  10.281  67.167  1.00  0.00    -0.311 C  
BRANCH   7   8
HETATM    8  C   UNL     1     -10.969  10.407  68.570  1.00  0.00    -0.302 C  
HETATM    9  C   UNL     1     -11.686  11.430  69.074  1.00  0.00    -0.409 C  
HETATM   10  C   UNL     1     -12.003  12.699  68.334  1.00  0.00    -0.268 C  
HETATM   11  C   UNL     1     -12.236  11.368  70.475  1.00  0.00    -0.478 C  
ENDBRANCH   7   8
ENDBRANCH   6   7
ENDBRANCH   4   6
ENDBRANCH   2   4
TORSDOF 4
ENDMDL
MODEL      208
REMARK 921   NORMALIZED FREE ENERGY PREDICTED BY IDOCK:   -2.13 KCAL/MOL
REMARK 922        TOTAL FREE ENERGY PREDICTED BY IDOCK:   -2.86 KCAL/MOL
REMARK 923 INTER-LIGAND FREE ENERGY PREDICTED BY IDOCK:   -2.68 KCAL/MOL
REMARK 924 INTRA-LIGAND FREE ENERGY PREDICTED BY IDOCK:   -0.18 KCAL/MOL
REMARK 927      BINDING AFFINITY PREDICTED BY RF-SCORE:    0.00 PKD
ROOT
HETATM    1  C   UNL     1     -11.144  11.319  66.854  1.00  0.00    -0.275 C  
HETATM    2  N   UNL     1     -10.848  12.701  67.213  1.00  0.00    -0.243 NA 
HETATM    3  H   UNL     1      -9.946  12.765  67.685  1.00  0.00     0.000 HD 
ENDROOT
BRANCH   2   4
HETATM    4  C   UNL     1     -10.906  13.633  66.071  1.00  0.00    -0.275 C  
HETATM    5  C   UNL     1     -12.055  13.290  65.116  1.00  0.00    -0.452 C  
BRANCH   4   6
HETATM    6  C   UNL     1     -11.048  15.066  66.638  1.00  0.00    -0.326 C  
BRANCH   6   7
HETATM    7  C   UNL     1      -9.794  15.920  66.428  1.00  0.00    -0.302 C  
BRANCH   7   8
HETATM    8  C   UNL     1      -8.797  15.783  67.547  1.00  0.00    -0.196 C  
HETATM    9  C   UNL     1      -8.281  16.776  68.295  1.00  0.00    -0.204 C  
HETATM   10  C   UNL     1      -8.539  18.240  68.069  1.00  0.00    -0.280 C  
HETATM   11  C   UNL     1      -7.367  16.473  69.453  1.00  0.00    -0.123 C  
ENDBRANCH   7   8
ENDBRANCH   6   7
ENDBRANCH   4   6
ENDBRANCH   2   4
TORSDOF 4
ENDMDL
MODEL      209
REMARK 921   NORMALIZED FREE ENERGY PREDICTED BY IDOCK:   -2.12 KCAL/MOL
REMARK 922        TOTAL FREE ENERGY PREDICTED BY IDOCK:   -2.85 KCAL/MOL
REMARK 923 INTER-LIGAND FREE ENERGY PREDICTED BY IDOCK:   -2.69 KCAL/MOL
REMARK 924 INTRA-LIGAND FREE ENERGY PREDICTED BY IDOCK:   -0.17 KCAL/MOL
REMARK 927      BINDING AFFINITY PREDICTED BY RF-SCORE:    0.00 PKD
ROOT
HETATM    1  C   UNL     1      -6.784  13.582  67.594  1.00  0.00    -0.167 C  
HETATM    2  N   UNL     1      -6.246  14.440  68.643  1.00  0.00    -0.083 NA 
HETATM    3  H   UNL     1      -5.241  14.296  68.744  1.00  0.00     0.000 HD 
ENDROOT
BRANCH   2   4
HETATM    4  C   UNL     1      -6.552  15.870  68.453  1.00  0.00    -0.116 C  
HETATM    5  C   UNL     1      -5.284  16.693  68.198  1.00  0.00    -0.114 C  
BRANCH   4   6
HETATM    6  C   UNL     1      -7.551  15.988  67.277  1.00  0.00    -0.227 C  
BRANCH   6   7
HETATM    7  C   UNL     1      -8.913  16.545  67.702  1.00  0.00    -0.198 C  
BRANCH   7   8
HETATM    8  C   UNL     1      -9.483  17.521  66.710  1.00  0.00    -0.282 C  
HETATM    9  C   UNL     1      -9.949  18.758  66.971  1.00  0.00    -0.379 C  
HETATM   10  C   UNL     1     -10.076  19.352  68.346  1.00  0.00    -0.538 C  
HETATM   11  C   UNL     1     -10.396  19.663  65.854  1.00  0.00    -0.584 C  
ENDBRANCH   7   8
ENDBRANCH   6   7
ENDBRANCH   4   6
ENDBRANCH   2   4
TORSDOF 4
ENDMDL
MODEL      210
REMARK 921   NORMALIZED FREE ENERGY PREDICTED BY IDOCK:   -2.12 KCAL/MOL
REMARK 922        TOTAL FREE ENERGY PREDICTED BY IDOCK:   -2.84 KCAL/MOL
REMARK 923 INTER-LIGAND FREE ENERGY PREDICTED BY IDOCK:   -2.62 KCAL/MOL
REMARK 924 INTRA-LIGAND FREE ENERGY PREDICTED BY IDOCK:   -0.23 KCAL/MOL
REMARK 927      BINDING AFFINITY PREDICTED BY RF-SCORE:    0.00 PKD
ROOT
HETATM    1  C   UNL     1     -10.418   8.935  68.935  1.00  0.00    -0.205 C  
HETATM    2  N   UNL     1     -11.108   7.974  68.082  1.00  0.00    -0.352 NA 
HETATM    3  H   UNL     1     -10.774   8.041  67.121  1.00  0.00     0.000 HD 
ENDROOT
BRANCH   2   4
HETATM    4  C   UNL     1     -11.021   6.584  68.568  1.00  0.00    -0.286 C  
HETATM    5  C   UNL     1      -9.734   5.898  68.099  1.00  0.00    -0.143 C  
BRANCH   4   6
HETATM    6  C   UNL     1     -11.117   6.616  70.112  1.00  0.00    -0.384 C  
BRANCH   6   7
HETATM    7  C   UNL     1     -10.085   5.711  70.794  1.00  0.00    -0.270 C  
BRANCH   7   8
HETATM    8  C   UNL     1     -10.632   5.008  72.006  1.00  0.00    -0.243 C  
HETATM    9  C   UNL     1     -10.275   3.792  72.464  1.00  0.00    -0.232 C  
HETATM   10  C   UNL     1      -9.320   2.863  71.768  1.00  0.00    -0.193 C  
HETATM   11  C   UNL     1     -10.839   3.260  73.755  1.00  0.00    -0.310 C  
ENDBRANCH   7   8
ENDBRANCH   6   7
ENDBRANCH   4   6
ENDBRANCH   2   4
TORSDOF 4
ENDMDL
MODEL      211
REMARK 921   NORMALIZED FREE ENERGY PREDICTED BY IDOCK:   -2.09 KCAL/MOL
REMARK 922        TOTAL FREE ENERGY PREDICTED BY IDOCK:   -2.81 KCAL/MOL
REMARK 923 INTER-LIGAND FREE ENERGY PREDICTED BY IDOCK:   -2.57 KCAL/MOL
REMARK 924 INTRA-LIGAND FREE ENERGY PREDICTED BY IDOCK:   -0.25 KCAL/MOL
REMARK 927      BINDING AFFINITY PREDICTED BY RF-SCORE:    0.00 PKD
ROOT
HETATM    1  C   UNL     1     -10.771  13.342  68.429  1.00  0.00    -0.257 C  
HETATM    2  N   UNL     1     -11.226  13.133  67.060  1.00  0.00    -0.283 NA 
HETATM    3  H   UNL     1     -10.744  13.764  66.420  1.00  0.00     0.000 HD 
ENDROOT
BRANCH   2   4
HETATM    4  C   UNL     1     -11.105  11.735  66.603  1.00  0.00    -0.310 C  
HETATM    5  C   UNL     1      -9.732  11.459  65.980  1.00  0.00    -0.253 C  
BRANCH   4   6
HETATM    6  C   UNL     1     -11.373  10.816  67.818  1.00  0.00    -0.354 C  
BRANCH   6   7
HETATM    7  C   UNL     1     -10.309   9.728  67.991  1.00  0.00    -0.250 C  
BRANCH   7   8
HETATM    8  C   UNL     1      -9.852   9.574  69.416  1.00  0.00    -0.194 C  
HETATM    9  C   UNL     1      -9.810   8.435  70.133  1.00  0.00    -0.183 C  
HETATM   10  C   UNL     1     -10.320   7.104  69.654  1.00  0.00    -0.224 C  
HETATM   11  C   UNL     1      -9.229   8.419  71.522  1.00  0.00    -0.257 C  
ENDBRANCH   7   8
ENDBRANCH   6   7
ENDBRANCH   4   6
ENDBRANCH   2   4
TORSDOF 4
ENDMDL
MODEL      212
REMARK 921   NORMALIZED FREE ENERGY PREDICTED BY IDOCK:   -2.08 KCAL/MOL
REMARK 922        TOTAL FREE ENERGY PREDICTED BY IDOCK:   -2.80 KCAL/MOL
REMARK 923 INTER-LIGAND FREE ENERGY PREDICTED BY IDOCK:   -2.51 KCAL/MOL
REMARK 924 INTRA-LIGAND FREE ENERGY PREDICTED BY IDOCK:   -0.29 KCAL/MOL
REMARK 927      BINDING AFFINITY PREDICTED BY RF-SCORE:    0.00 PKD
ROOT
HETATM    1  C   UNL     1      -6.009  15.285  68.444  1.00  0.00    -0.107 C  
HETATM    2  N   UNL     1      -7.340  15.747  68.819  1.00  0.00    -0.131 NA 
HETATM    3  H   UNL     1      -7.431  15.796  69.833  1.00  0.00     0.000 HD 
ENDROOT
BRANCH   2   4
HETATM    4  C   UNL     1      -7.716  17.032  68.199  1.00  0.00    -0.197 C  
HETATM    5  C   UNL     1      -6.513  17.972  68.065  1.00  0.00    -0.188 C  
BRANCH   4   6
HETATM    6  C   UNL     1      -8.352  16.724  66.822  1.00  0.00    -0.272 C  
BRANCH   6   7
HETATM    7  C   UNL     1      -9.875  16.892  66.816  1.00  0.00    -0.284 C  
BRANCH   7   8
HETATM    8  C   UNL     1     -10.610  15.582  66.892  1.00  0.00    -0.307 C  
HETATM    9  C   UNL     1     -11.245  15.073  67.964  1.00  0.00    -0.324 C  
HETATM   10  C   UNL     1     -11.242  15.693  69.334  1.00  0.00    -0.313 C  
HETATM   11  C   UNL     1     -12.029  13.791  67.859  1.00  0.00    -0.391 C  
ENDBRANCH   7   8
ENDBRANCH   6   7
ENDBRANCH   4   6
ENDBRANCH   2   4
TORSDOF 4
ENDMDL
MODEL      213
REMARK 921   NORMALIZED FREE ENERGY PREDICTED BY IDOCK:   -2.08 KCAL/MOL
REMARK 922        TOTAL FREE ENERGY PREDICTED BY IDOCK:   -2.80 KCAL/MOL
REMARK 923 INTER-LIGAND FREE ENERGY PREDICTED BY IDOCK:   -2.49 KCAL/MOL
REMARK 924 INTRA-LIGAND FREE ENERGY PREDICTED BY IDOCK:   -0.30 KCAL/MOL
REMARK 927      BINDING AFFINITY PREDICTED BY RF-SCORE:    0.00 PKD
ROOT
HETATM    1  C   UNL     1     -12.650   9.049  72.111  1.00  0.00    -0.391 C  
HETATM    2  N   UNL     1     -12.527   8.894  70.667  1.00  0.00    -0.476 NA 
HETATM    3  H   UNL     1     -13.218   9.467  70.183  1.00  0.00     0.000 HD 
ENDROOT
BRANCH   2   4
HETATM    4  C   UNL     1     -11.171   9.171  70.156  1.00  0.00    -0.187 C  
HETATM    5  C   UNL     1     -11.137  10.437  69.293  1.00  0.00    -0.303 C  
BRANCH   4   6
HETATM    6  C   UNL     1     -10.222   9.288  71.373  1.00  0.00    -0.371 C  
BRANCH   6   7
HETATM    7  C   UNL     1      -8.756   9.020  71.016  1.00  0.00    -0.280 C  
BRANCH   7   8
HETATM    8  C   UNL     1      -8.581   7.833  70.108  1.00  0.00    -0.139 C  
HETATM    9  C   UNL     1      -8.440   6.546  70.480  1.00  0.00    -0.138 C  
HETATM   10  C   UNL     1      -8.325   6.075  71.903  1.00  0.00    -0.115 C  
HETATM   11  C   UNL     1      -8.377   5.450  69.449  1.00  0.00    -0.096 C  
ENDBRANCH   7   8
ENDBRANCH   6   7
ENDBRANCH   4   6
ENDBRANCH   2   4
TORSDOF 4
ENDMDL
MODEL      214
REMARK 921   NORMALIZED FREE ENERGY PREDICTED BY IDOCK:   -2.05 KCAL/MOL
REMARK 922        TOTAL FREE ENERGY PREDICTED BY IDOCK:   -2.77 KCAL/MOL
REMARK 923 INTER-LIGAND FREE ENERGY PREDICTED BY IDOCK:   -2.51 KCAL/MOL
REMARK 924 INTRA-LIGAND FREE ENERGY PREDICTED BY IDOCK:   -0.26 KCAL/MOL
REMARK 927      BINDING AFFINITY PREDICTED BY RF-SCORE:    0.00 PKD
ROOT
HETATM    1  C   UNL     1      -8.867   5.469  66.667  1.00  0.00    -0.117 C  
HETATM    2  N   UNL     1      -9.953   6.248  66.085  1.00  0.00    -0.399 NA 
HETATM    3  H   UNL     1     -10.437   5.709  65.366  1.00  0.00     0.000 HD 
ENDROOT
BRANCH   2   4
HETATM    4  C   UNL     1     -10.910   6.766  67.080  1.00  0.00    -0.392 C  
HETATM    5  C   UNL     1     -10.852   5.970  68.390  1.00  0.00    -0.361 C  
BRANCH   4   6
HETATM    6  C   UNL     1     -10.590   8.262  67.311  1.00  0.00    -0.335 C  
BRANCH   6   7
HETATM    7  C   UNL     1     -10.346   8.601  68.785  1.00  0.00    -0.228 C  
BRANCH   7   8
HETATM    8  C   UNL     1      -9.098   9.414  69.001  1.00  0.00    -0.142 C  
HETATM    9  C   UNL     1      -8.265   9.349  70.057  1.00  0.00    -0.171 C  
HETATM   10  C   UNL     1      -8.498   8.507  71.280  1.00  0.00    -0.203 C  
HETATM   11  C   UNL     1      -6.994  10.156  70.085  1.00  0.00    -0.157 C  
ENDBRANCH   7   8
ENDBRANCH   6   7
ENDBRANCH   4   6
ENDBRANCH   2   4
TORSDOF 4
ENDMDL
MODEL      215
REMARK 921   NORMALIZED FREE ENERGY PREDICTED BY IDOCK:   -2.05 KCAL/MOL
REMARK 922        TOTAL FREE ENERGY PREDICTED BY IDOCK:   -2.77 KCAL/MOL
REMARK 923 INTER-LIGAND FREE ENERGY PREDICTED BY IDOCK:   -2.58 KCAL/MOL
REMARK 924 INTRA-LIGAND FREE ENERGY PREDICTED BY IDOCK:   -0.18 KCAL/MOL
REMARK 927      BINDING AFFINITY PREDICTED BY RF-SCORE:    0.00 PKD
ROOT
HETATM    1  C   UNL     1     -11.942  14.971  69.420  1.00  0.00    -0.303 C  
HETATM    2  N   UNL     1     -11.776  16.417  69.333  1.00  0.00    -0.230 NA 
HETATM    3  H   UNL     1     -11.466  16.798  70.226  1.00  0.00     0.000 HD 
ENDROOT
BRANCH   2   4
HETATM    4  C   UNL     1     -10.877  16.844  68.244  1.00  0.00    -0.357 C  
HETATM    5  C   UNL     1      -9.921  17.952  68.699  1.00  0.00    -0.387 C  
BRANCH   4   6
HETATM    6  C   UNL     1     -10.105  15.596  67.751  1.00  0.00    -0.226 C  
BRANCH   6   7
HETATM    7  C   UNL     1      -8.958  15.941  66.796  1.00  0.00    -0.280 C  
BRANCH   7   8
HETATM    8  C   UNL     1      -7.604  15.844  67.445  1.00  0.00    -0.208 C  
HETATM    9  C   UNL     1      -6.577  16.702  67.303  1.00  0.00    -0.213 C  
HETATM   10  C   UNL     1      -6.568  17.879  66.368  1.00  0.00    -0.267 C  
HETATM   11  C   UNL     1      -5.311  16.528  68.101  1.00  0.00    -0.110 C  
ENDBRANCH   7   8
ENDBRANCH   6   7
ENDBRANCH   4   6
ENDBRANCH   2   4
TORSDOF 4
ENDMDL
MODEL      216
REMARK 921   NORMALIZED FREE ENERGY PREDICTED BY IDOCK:   -2.04 KCAL/MOL
REMARK 922        TOTAL FREE ENERGY PREDICTED BY IDOCK:   -2.75 KCAL/MOL
REMARK 923 INTER-LIGAND FREE ENERGY PREDICTED BY IDOCK:   -2.27 KCAL/MOL
REMARK 924 INTRA-LIGAND FREE ENERGY PREDICTED BY IDOCK:   -0.48 KCAL/MOL
REMARK 927      BINDING AFFINITY PREDICTED BY RF-SCORE:    0.00 PKD
ROOT
HETATM    1  C   UNL     1      -9.309   2.870  67.698  1.00  0.00    -0.188 C  
HETATM    2  N   UNL     1      -9.511   3.509  68.992  1.00  0.00    -0.167 NA 
HETATM    3  H   UNL     1      -9.904   2.849  69.663  1.00  0.00     0.000 HD 
ENDROOT
BRANCH   2   4
HETATM    4  C   UNL     1      -8.293   4.140  69.537  1.00  0.00    -0.057 C  
HETATM    5  C   UNL     1      -8.068   5.538  68.949  1.00  0.00    -0.095 C  
BRANCH   4   6
HETATM    6  C   UNL     1      -8.433   4.188  71.077  1.00  0.00    -0.104 C  
BRANCH   6   7
HETATM    7  C   UNL     1      -9.891   4.244  71.544  1.00  0.00    -0.260 C  
BRANCH   7   8
HETATM    8  C   UNL     1     -10.299   5.608  72.029  1.00  0.00    -0.261 C  
HETATM    9  C   UNL     1     -11.044   6.513  71.365  1.00  0.00    -0.315 C  
HETATM   10  C   UNL     1     -11.522   6.352  69.949  1.00  0.00    -0.483 C  
HETATM   11  C   UNL     1     -11.460   7.801  72.024  1.00  0.00    -0.337 C  
ENDBRANCH   7   8
ENDBRANCH   6   7
ENDBRANCH   4   6
ENDBRANCH   2   4
TORSDOF 4
ENDMDL
MODEL      217
REMARK 921   NORMALIZED FREE ENERGY PREDICTED BY IDOCK:   -2.04 KCAL/MOL
REMARK 922        TOTAL FREE ENERGY PREDICTED BY IDOCK:   -2.75 KCAL/MOL
REMARK 923 INTER-LIGAND FREE ENERGY PREDICTED BY IDOCK:   -2.38 KCAL/MOL
REMARK 924 INTRA-LIGAND FREE ENERGY PREDICTED BY IDOCK:   -0.37 KCAL/MOL
REMARK 927      BINDING AFFINITY PREDICTED BY RF-SCORE:    0.00 PKD
ROOT
HETATM    1  C   UNL     1      -6.399  10.197  66.890  1.00  0.00    -0.069 C  
HETATM    2  N   UNL     1      -7.762   9.781  66.581  1.00  0.00    -0.101 NA 
HETATM    3  H   UNL     1      -7.914   8.812  66.858  1.00  0.00     0.000 HD 
ENDROOT
BRANCH   2   4
HETATM    4  C   UNL     1      -8.795  10.658  67.165  1.00  0.00    -0.137 C  
HETATM    5  C   UNL     1      -8.176  11.804  67.972  1.00  0.00    -0.152 C  
BRANCH   4   6
HETATM    6  C   UNL     1      -9.674  11.189  66.007  1.00  0.00    -0.263 C  
BRANCH   6   7
HETATM    7  C   UNL     1     -11.133  11.411  66.417  1.00  0.00    -0.301 C  
BRANCH   7   8
HETATM    8  C   UNL     1     -11.452  12.855  66.691  1.00  0.00    -0.393 C  
HETATM    9  C   UNL     1     -11.740  13.406  67.886  1.00  0.00    -0.396 C  
HETATM   10  C   UNL     1     -11.897  12.636  69.167  1.00  0.00    -0.349 C  
HETATM   11  C   UNL     1     -11.939  14.893  68.021  1.00  0.00    -0.216 C  
ENDBRANCH   7   8
ENDBRANCH   6   7
ENDBRANCH   4   6
ENDBRANCH   2   4
TORSDOF 4
ENDMDL
MODEL      218
REMARK 921   NORMALIZED FREE ENERGY PREDICTED BY IDOCK:   -2.03 KCAL/MOL
REMARK 922        TOTAL FREE ENERGY PREDICTED BY IDOCK:   -2.74 KCAL/MOL
REMARK 923 INTER-LIGAND FREE ENERGY PREDICTED BY IDOCK:   -2.57 KCAL/MOL
REMARK 924 INTRA-LIGAND FREE ENERGY PREDICTED BY IDOCK:   -0.17 KCAL/MOL
REMARK 927      BINDING AFFINITY PREDICTED BY RF-SCORE:    0.00 PKD
ROOT
HETATM    1  C   UNL     1     -11.340  16.024  69.512  1.00  0.00    -0.344 C  
HETATM    2  N   UNL     1     -12.203  15.305  68.583  1.00  0.00    -0.583 NA 
HETATM    3  H   UNL     1     -12.696  15.957  67.973  1.00  0.00     0.000 HD 
ENDROOT
BRANCH   2   4
HETATM    4  C   UNL     1     -11.497  14.281  67.790  1.00  0.00    -0.329 C  
HETATM    5  C   UNL     1     -12.310  13.852  66.564  1.00  0.00    -0.447 C  
BRANCH   4   6
HETATM    6  C   UNL     1     -10.122  14.864  67.384  1.00  0.00    -0.228 C  
BRANCH   6   7
HETATM    7  C   UNL     1      -8.954  13.930  67.720  1.00  0.00    -0.188 C  
BRANCH   7   8
HETATM    8  C   UNL     1      -7.943  14.563  68.637  1.00  0.00    -0.145 C  
HETATM    9  C   UNL     1      -6.777  14.026  69.046  1.00  0.00    -0.109 C  
HETATM   10  C   UNL     1      -6.322  12.629  68.731  1.00  0.00    -0.080 C  
HETATM   11  C   UNL     1      -5.815  14.824  69.886  1.00  0.00    -0.123 C  
ENDBRANCH   7   8
ENDBRANCH   6   7
ENDBRANCH   4   6
ENDBRANCH   2   4
TORSDOF 4
ENDMDL
MODEL      219
REMARK 921   NORMALIZED FREE ENERGY PREDICTED BY IDOCK:   -2.03 KCAL/MOL
REMARK 922        TOTAL FREE ENERGY PREDICTED BY IDOCK:   -2.74 KCAL/MOL
REMARK 923 INTER-LIGAND FREE ENERGY PREDICTED BY IDOCK:   -2.55 KCAL/MOL
REMARK 924 INTRA-LIGAND FREE ENERGY PREDICTED BY IDOCK:   -0.18 KCAL/MOL
REMARK 927      BINDING AFFINITY PREDICTED BY RF-SCORE:    0.00 PKD
ROOT
HETATM    1  C   UNL     1     -12.303   8.792  72.197  1.00  0.00    -0.389 C  
HETATM    2  N   UNL     1     -11.233   9.509  71.514  1.00  0.00    -0.383 NA 
HETATM    3  H   UNL     1     -10.381   8.949  71.494  1.00  0.00     0.000 HD 
ENDROOT
BRANCH   2   4
HETATM    4  C   UNL     1     -11.595   9.956  70.156  1.00  0.00    -0.218 C  
HETATM    5  C   UNL     1     -12.032  11.425  70.139  1.00  0.00    -0.460 C  
BRANCH   4   6
HETATM    6  C   UNL     1     -10.371   9.718  69.238  1.00  0.00    -0.230 C  
BRANCH   6   7
HETATM    7  C   UNL     1     -10.043  10.925  68.354  1.00  0.00    -0.196 C  
BRANCH   7   8
HETATM    8  C   UNL     1      -8.999  10.624  67.314  1.00  0.00    -0.141 C  
HETATM    9  C   UNL     1      -9.055  10.925  66.003  1.00  0.00    -0.208 C  
HETATM   10  C   UNL     1     -10.243  11.538  65.316  1.00  0.00    -0.315 C  
HETATM   11  C   UNL     1      -7.882  10.650  65.098  1.00  0.00    -0.015 C  
ENDBRANCH   7   8
ENDBRANCH   6   7
ENDBRANCH   4   6
ENDBRANCH   2   4
TORSDOF 4
ENDMDL
MODEL      220
REMARK 921   NORMALIZED FREE ENERGY PREDICTED BY IDOCK:   -2.03 KCAL/MOL
REMARK 922        TOTAL FREE ENERGY PREDICTED BY IDOCK:   -2.73 KCAL/MOL
REMARK 923 INTER-LIGAND FREE ENERGY PREDICTED BY IDOCK:   -2.57 KCAL/MOL
REMARK 924 INTRA-LIGAND FREE ENERGY PREDICTED BY IDOCK:   -0.17 KCAL/MOL
REMARK 927      BINDING AFFINITY PREDICTED BY RF-SCORE:    0.00 PKD
ROOT
HETATM    1  C   UNL     1     -10.674  11.901  65.121  1.00  0.00    -0.291 C  
HETATM    2  N   UNL     1      -9.619  11.412  64.241  1.00  0.00    -0.339 NA 
HETATM    3  H   UNL     1      -8.734  11.872  64.451  1.00  0.00     0.000 HD 
ENDROOT
BRANCH   2   4
HETATM    4  C   UNL     1      -9.463   9.945  64.264  1.00  0.00    -0.216 C  
HETATM    5  C   UNL     1      -8.393   9.474  63.272  1.00  0.00    -0.181 C  
BRANCH   4   6
HETATM    6  C   UNL     1      -9.117   9.528  65.713  1.00  0.00    -0.243 C  
BRANCH   6   7
HETATM    7  C   UNL     1     -10.025   8.417  66.248  1.00  0.00    -0.216 C  
BRANCH   7   8
HETATM    8  C   UNL     1     -10.313   8.552  67.719  1.00  0.00    -0.298 C  
HETATM    9  C   UNL     1     -10.574   7.555  68.586  1.00  0.00    -0.171 C  
HETATM   10  C   UNL     1     -10.727   6.108  68.205  1.00  0.00    -0.367 C  
HETATM   11  C   UNL     1     -10.742   7.836  70.055  1.00  0.00    -0.245 C  
ENDBRANCH   7   8
ENDBRANCH   6   7
ENDBRANCH   4   6
ENDBRANCH   2   4
TORSDOF 4
ENDMDL
MODEL      221
REMARK 921   NORMALIZED FREE ENERGY PREDICTED BY IDOCK:   -2.02 KCAL/MOL
REMARK 922        TOTAL FREE ENERGY PREDICTED BY IDOCK:   -2.72 KCAL/MOL
REMARK 923 INTER-LIGAND FREE ENERGY PREDICTED BY IDOCK:   -2.52 KCAL/MOL
REMARK 924 INTRA-LIGAND FREE ENERGY PREDICTED BY IDOCK:   -0.20 KCAL/MOL
REMARK 927      BINDING AFFINITY PREDICTED BY RF-SCORE:    0.00 PKD
ROOT
HETATM    1  C   UNL     1      -9.915  11.431  63.107  1.00  0.00    -0.372 C  
HETATM    2  N   UNL     1     -10.766  11.132  64.252  1.00  0.00    -0.358 NA 
HETATM    3  H   UNL     1     -10.378  10.363  64.798  1.00  0.00     0.000 HD 
ENDROOT
BRANCH   2   4
HETATM    4  C   UNL     1     -11.033  12.300  65.112  1.00  0.00    -0.303 C  
HETATM    5  C   UNL     1     -12.511  12.704  65.079  1.00  0.00    -0.556 C  
BRANCH   4   6
HETATM    6  C   UNL     1     -10.574  11.945  66.547  1.00  0.00    -0.278 C  
BRANCH   6   7
HETATM    7  C   UNL     1      -9.054  12.016  66.723  1.00  0.00    -0.197 C  
BRANCH   7   8
HETATM    8  C   UNL     1      -8.405  10.660  66.774  1.00  0.00    -0.132 C  
HETATM    9  C   UNL     1      -7.896  10.048  67.860  1.00  0.00    -0.090 C  
HETATM   10  C   UNL     1      -7.793  10.673  69.224  1.00  0.00    -0.140 C  
HETATM   11  C   UNL     1      -7.369   8.640  67.775  1.00  0.00    -0.092 C  
ENDBRANCH   7   8
ENDBRANCH   6   7
ENDBRANCH   4   6
ENDBRANCH   2   4
TORSDOF 4
ENDMDL
MODEL      222
REMARK 921   NORMALIZED FREE ENERGY PREDICTED BY IDOCK:   -2.01 KCAL/MOL
REMARK 922        TOTAL FREE ENERGY PREDICTED BY IDOCK:   -2.71 KCAL/MOL
REMARK 923 INTER-LIGAND FREE ENERGY PREDICTED BY IDOCK:   -2.58 KCAL/MOL
REMARK 924 INTRA-LIGAND FREE ENERGY PREDICTED BY IDOCK:   -0.14 KCAL/MOL
REMARK 927      BINDING AFFINITY PREDICTED BY RF-SCORE:    0.00 PKD
ROOT
HETATM    1  C   UNL     1      -6.941  12.094  66.779  1.00  0.00     0.110 C  
HETATM    2  N   UNL     1      -8.355  12.293  67.074  1.00  0.00    -0.216 NA 
HETATM    3  H   UNL     1      -8.804  11.405  67.299  1.00  0.00     0.000 HD 
ENDROOT
BRANCH   2   4
HETATM    4  C   UNL     1      -8.605  13.287  68.134  1.00  0.00    -0.177 C  
HETATM    5  C   UNL     1      -7.491  14.338  68.200  1.00  0.00    -0.131 C  
BRANCH   4   6
HETATM    6  C   UNL     1      -9.982  13.937  67.860  1.00  0.00    -0.242 C  
BRANCH   6   7
HETATM    7  C   UNL     1     -10.492  14.777  69.035  1.00  0.00    -0.249 C  
BRANCH   7   8
HETATM    8  C   UNL     1     -11.650  14.140  69.753  1.00  0.00    -0.351 C  
HETATM    9  C   UNL     1     -12.093  14.434  70.990  1.00  0.00    -0.417 C  
HETATM   10  C   UNL     1     -11.428  15.402  71.930  1.00  0.00    -0.513 C  
HETATM   11  C   UNL     1     -13.334  13.781  71.540  1.00  0.00    -0.391 C  
ENDBRANCH   7   8
ENDBRANCH   6   7
ENDBRANCH   4   6
ENDBRANCH   2   4
TORSDOF 4
ENDMDL
MODEL      223
REMARK 921   NORMALIZED FREE ENERGY PREDICTED BY IDOCK:   -2.00 KCAL/MOL
REMARK 922        TOTAL FREE ENERGY PREDICTED BY IDOCK:   -2.70 KCAL/MOL
REMARK 923 INTER-LIGAND FREE ENERGY PREDICTED BY IDOCK:   -2.80 KCAL/MOL
REMARK 924 INTRA-LIGAND FREE ENERGY PREDICTED BY IDOCK:    0.10 KCAL/MOL
REMARK 927      BINDING AFFINITY PREDICTED BY RF-SCORE:    0.00 PKD
ROOT
HETATM    1  C   UNL     1      -8.183  11.495  67.202  1.00  0.00    -0.161 C  
HETATM    2  N   UNL     1      -8.807  12.132  66.049  1.00  0.00    -0.412 NA 
HETATM    3  H   UNL     1      -8.334  11.858  65.187  1.00  0.00     0.000 HD 
ENDROOT
BRANCH   2   4
HETATM    4  C   UNL     1     -10.257  11.884  65.948  1.00  0.00    -0.236 C  
HETATM    5  C   UNL     1     -10.691  10.697  66.816  1.00  0.00    -0.272 C  
BRANCH   4   6
HETATM    6  C   UNL     1     -10.989  13.184  66.359  1.00  0.00    -0.305 C  
BRANCH   6   7
HETATM    7  C   UNL     1     -10.241  13.977  67.435  1.00  0.00    -0.248 C  
BRANCH   7   8
HETATM    8  C   UNL     1     -10.191  15.453  67.148  1.00  0.00    -0.251 C  
HETATM    9  C   UNL     1     -10.255  16.453  68.048  1.00  0.00    -0.264 C  
HETATM   10  C   UNL     1     -10.498  16.266  69.519  1.00  0.00    -0.299 C  
HETATM   11  C   UNL     1     -10.088  17.887  67.618  1.00  0.00    -0.350 C  
ENDBRANCH   7   8
ENDBRANCH   6   7
ENDBRANCH   4   6
ENDBRANCH   2   4
TORSDOF 4
ENDMDL
MODEL      224
REMARK 921   NORMALIZED FREE ENERGY PREDICTED BY IDOCK:   -1.99 KCAL/MOL
REMARK 922        TOTAL FREE ENERGY PREDICTED BY IDOCK:   -2.69 KCAL/MOL
REMARK 923 INTER-LIGAND FREE ENERGY PREDICTED BY IDOCK:   -2.60 KCAL/MOL
REMARK 924 INTRA-LIGAND FREE ENERGY PREDICTED BY IDOCK:   -0.09 KCAL/MOL
REMARK 927      BINDING AFFINITY PREDICTED BY RF-SCORE:    0.00 PKD
ROOT
HETATM    1  C   UNL     1      -8.439  12.467  68.260  1.00  0.00    -0.170 C  
HETATM    2  N   UNL     1      -9.752  13.035  68.540  1.00  0.00    -0.367 NA 
HETATM    3  H   UNL     1      -9.701  13.697  69.314  1.00  0.00     0.000 HD 
ENDROOT
BRANCH   2   4
HETATM    4  C   UNL     1     -10.390  13.656  67.364  1.00  0.00    -0.244 C  
HETATM    5  C   UNL     1      -9.355  14.266  66.413  1.00  0.00    -0.270 C  
BRANCH   4   6
HETATM    6  C   UNL     1     -11.240  12.572  66.658  1.00  0.00    -0.357 C  
BRANCH   6   7
HETATM    7  C   UNL     1     -11.586  11.394  67.574  1.00  0.00    -0.298 C  
BRANCH   7   8
HETATM    8  C   UNL     1     -11.035  10.084  67.078  1.00  0.00    -0.119 C  
HETATM    9  C   UNL     1     -10.707   9.012  67.824  1.00  0.00    -0.217 C  
HETATM   10  C   UNL     1     -10.739   8.973  69.327  1.00  0.00    -0.189 C  
HETATM   11  C   UNL     1     -10.262   7.729  67.174  1.00  0.00    -0.365 C  
ENDBRANCH   7   8
ENDBRANCH   6   7
ENDBRANCH   4   6
ENDBRANCH   2   4
TORSDOF 4
ENDMDL
MODEL      225
REMARK 921   NORMALIZED FREE ENERGY PREDICTED BY IDOCK:   -1.96 KCAL/MOL
REMARK 922        TOTAL FREE ENERGY PREDICTED BY IDOCK:   -2.65 KCAL/MOL
REMARK 923 INTER-LIGAND FREE ENERGY PREDICTED BY IDOCK:   -2.43 KCAL/MOL
REMARK 924 INTRA-LIGAND FREE ENERGY PREDICTED BY IDOCK:   -0.22 KCAL/MOL
REMARK 927      BINDING AFFINITY PREDICTED BY RF-SCORE:    0.00 PKD
ROOT
HETATM    1  C   UNL     1      -8.816   9.656  63.792  1.00  0.00    -0.231 C  
HETATM    2  N   UNL     1      -9.802   9.458  64.847  1.00  0.00    -0.350 NA 
HETATM    3  H   UNL     1     -10.072   8.476  64.908  1.00  0.00     0.000 HD 
ENDROOT
BRANCH   2   4
HETATM    4  C   UNL     1      -9.367   9.960  66.164  1.00  0.00    -0.181 C  
HETATM    5  C   UNL     1      -7.853  10.193  66.211  1.00  0.00    -0.113 C  
BRANCH   4   6
HETATM    6  C   UNL     1     -10.151  11.262  66.457  1.00  0.00    -0.256 C  
BRANCH   6   7
HETATM    7  C   UNL     1      -9.666  11.981  67.719  1.00  0.00    -0.192 C  
BRANCH   7   8
HETATM    8  C   UNL     1     -10.390  11.537  68.962  1.00  0.00    -0.143 C  
HETATM    9  C   UNL     1     -11.341  12.217  69.629  1.00  0.00    -0.207 C  
HETATM   10  C   UNL     1     -11.782  13.616  69.300  1.00  0.00    -0.376 C  
HETATM   11  C   UNL     1     -12.051  11.597  70.803  1.00  0.00    -0.383 C  
ENDBRANCH   7   8
ENDBRANCH   6   7
ENDBRANCH   4   6
ENDBRANCH   2   4
TORSDOF 4
ENDMDL
MODEL      226
REMARK 921   NORMALIZED FREE ENERGY PREDICTED BY IDOCK:   -1.95 KCAL/MOL
REMARK 922        TOTAL FREE ENERGY PREDICTED BY IDOCK:   -2.64 KCAL/MOL
REMARK 923 INTER-LIGAND FREE ENERGY PREDICTED BY IDOCK:   -2.43 KCAL/MOL
REMARK 924 INTRA-LIGAND FREE ENERGY PREDICTED BY IDOCK:   -0.21 KCAL/MOL
REMARK 927      BINDING AFFINITY PREDICTED BY RF-SCORE:    0.00 PKD
ROOT
HETATM    1  C   UNL     1      -7.063  13.954  68.584  1.00  0.00    -0.110 C  
HETATM    2  N   UNL     1      -6.086  14.689  69.380  1.00  0.00    -0.103 NA 
HETATM    3  H   UNL     1      -5.170  14.669  68.933  1.00  0.00     0.000 HD 
ENDROOT
BRANCH   2   4
HETATM    4  C   UNL     1      -6.490  16.076  69.678  1.00  0.00    -0.190 C  
HETATM    5  C   UNL     1      -5.358  16.865  70.345  1.00  0.00    -0.223 C  
BRANCH   4   6
HETATM    6  C   UNL     1      -6.937  16.735  68.351  1.00  0.00    -0.170 C  
BRANCH   6   7
HETATM    7  C   UNL     1      -7.835  17.958  68.564  1.00  0.00    -0.301 C  
BRANCH   7   8
HETATM    8  C   UNL     1      -7.106  19.260  68.374  1.00  0.00    -0.328 C  
HETATM    9  C   UNL     1      -7.046  19.996  67.248  1.00  0.00    -0.279 C  
HETATM   10  C   UNL     1      -7.625  19.581  65.924  1.00  0.00    -0.306 C  
HETATM   11  C   UNL     1      -6.359  21.336  67.239  1.00  0.00    -0.421 C  
ENDBRANCH   7   8
ENDBRANCH   6   7
ENDBRANCH   4   6
ENDBRANCH   2   4
TORSDOF 4
ENDMDL
MODEL      227
REMARK 921   NORMALIZED FREE ENERGY PREDICTED BY IDOCK:   -1.94 KCAL/MOL
REMARK 922        TOTAL FREE ENERGY PREDICTED BY IDOCK:   -2.63 KCAL/MOL
REMARK 923 INTER-LIGAND FREE ENERGY PREDICTED BY IDOCK:   -2.32 KCAL/MOL
REMARK 924 INTRA-LIGAND FREE ENERGY PREDICTED BY IDOCK:   -0.31 KCAL/MOL
REMARK 927      BINDING AFFINITY PREDICTED BY RF-SCORE:    0.00 PKD
ROOT
HETATM    1  C   UNL     1     -10.441   6.863  68.266  1.00  0.00    -0.206 C  
HETATM    2  N   UNL     1     -10.974   7.795  67.281  1.00  0.00    -0.524 NA 
HETATM    3  H   UNL     1     -11.955   7.999  67.472  1.00  0.00     0.000 HD 
ENDROOT
BRANCH   2   4
HETATM    4  C   UNL     1     -10.196   9.043  67.165  1.00  0.00    -0.265 C  
HETATM    5  C   UNL     1      -9.843   9.358  65.707  1.00  0.00    -0.345 C  
BRANCH   4   6
HETATM    6  C   UNL     1     -11.027  10.180  67.806  1.00  0.00    -0.338 C  
BRANCH   6   7
HETATM    7  C   UNL     1     -10.160  11.239  68.494  1.00  0.00    -0.210 C  
BRANCH   7   8
HETATM    8  C   UNL     1      -9.140  10.646  69.428  1.00  0.00    -0.064 C  
HETATM    9  C   UNL     1      -7.817  10.523  69.208  1.00  0.00    -0.144 C  
HETATM   10  C   UNL     1      -7.130  10.872  67.917  1.00  0.00    -0.081 C  
HETATM   11  C   UNL     1      -6.902  10.000  70.283  1.00  0.00    -0.147 C  
ENDBRANCH   7   8
ENDBRANCH   6   7
ENDBRANCH   4   6
ENDBRANCH   2   4
TORSDOF 4
ENDMDL
MODEL      228
REMARK 921   NORMALIZED FREE ENERGY PREDICTED BY IDOCK:   -1.92 KCAL/MOL
REMARK 922        TOTAL FREE ENERGY PREDICTED BY IDOCK:   -2.60 KCAL/MOL
REMARK 923 INTER-LIGAND FREE ENERGY PREDICTED BY IDOCK:   -2.37 KCAL/MOL
REMARK 924 INTRA-LIGAND FREE ENERGY PREDICTED BY IDOCK:   -0.23 KCAL/MOL
REMARK 927      BINDING AFFINITY PREDICTED BY RF-SCORE:    0.00 PKD
ROOT
HETATM    1  C   UNL     1     -10.748   3.899  63.786  1.00  0.00    -0.175 C  
HETATM    2  N   UNL     1     -11.329   4.123  65.104  1.00  0.00    -0.853 NA 
HETATM    3  H   UNL     1     -11.704   3.254  65.485  1.00  0.00     0.000 HD 
ENDROOT
BRANCH   2   4
HETATM    4  C   UNL     1     -10.400   4.753  66.061  1.00  0.00    -0.293 C  
HETATM    5  C   UNL     1      -9.764   3.720  66.998  1.00  0.00    -0.149 C  
BRANCH   4   6
HETATM    6  C   UNL     1      -9.328   5.517  65.247  1.00  0.00     0.107 C  
BRANCH   6   7
HETATM    7  C   UNL     1      -8.517   6.498  66.098  1.00  0.00    -0.137 C  
BRANCH   7   8
HETATM    8  C   UNL     1      -9.370   7.299  67.043  1.00  0.00    -0.181 C  
HETATM    9  C   UNL     1      -9.545   8.634  67.040  1.00  0.00    -0.240 C  
HETATM   10  C   UNL     1      -8.819   9.590  66.134  1.00  0.00    -0.177 C  
HETATM   11  C   UNL     1     -10.515   9.287  67.989  1.00  0.00    -0.275 C  
ENDBRANCH   7   8
ENDBRANCH   6   7
ENDBRANCH   4   6
ENDBRANCH   2   4
TORSDOF 4
ENDMDL
MODEL      229
REMARK 921   NORMALIZED FREE ENERGY PREDICTED BY IDOCK:   -1.91 KCAL/MOL
REMARK 922        TOTAL FREE ENERGY PREDICTED BY IDOCK:   -2.60 KCAL/MOL
REMARK 923 INTER-LIGAND FREE ENERGY PREDICTED BY IDOCK:   -2.41 KCAL/MOL
REMARK 924 INTRA-LIGAND FREE ENERGY PREDICTED BY IDOCK:   -0.19 KCAL/MOL
REMARK 927      BINDING AFFINITY PREDICTED BY RF-SCORE:    0.00 PKD
ROOT
HETATM    1  C   UNL     1      -7.050  17.796  66.221  1.00  0.00    -0.294 C  
HETATM    2  N   UNL     1      -7.733  16.508  66.210  1.00  0.00    -0.261 NA 
HETATM    3  H   UNL     1      -7.172  15.808  65.725  1.00  0.00     0.000 HD 
ENDROOT
BRANCH   2   4
HETATM    4  C   UNL     1      -8.116  16.031  67.552  1.00  0.00    -0.148 C  
HETATM    5  C   UNL     1      -9.547  16.445  67.914  1.00  0.00    -0.228 C  
BRANCH   4   6
HETATM    6  C   UNL     1      -7.949  14.492  67.573  1.00  0.00    -0.208 C  
BRANCH   6   7
HETATM    7  C   UNL     1      -9.261  13.744  67.317  1.00  0.00    -0.239 C  
BRANCH   7   8
HETATM    8  C   UNL     1      -9.502  12.630  68.299  1.00  0.00    -0.203 C  
HETATM    9  C   UNL     1     -10.543  11.776  68.312  1.00  0.00    -0.236 C  
HETATM   10  C   UNL     1     -11.725  11.854  67.387  1.00  0.00    -0.326 C  
HETATM   11  C   UNL     1     -10.596  10.641  69.300  1.00  0.00    -0.263 C  
ENDBRANCH   7   8
ENDBRANCH   6   7
ENDBRANCH   4   6
ENDBRANCH   2   4
TORSDOF 4
ENDMDL
MODEL      230
REMARK 921   NORMALIZED FREE ENERGY PREDICTED BY IDOCK:   -1.91 KCAL/MOL
REMARK 922        TOTAL FREE ENERGY PREDICTED BY IDOCK:   -2.60 KCAL/MOL
REMARK 923 INTER-LIGAND FREE ENERGY PREDICTED BY IDOCK:   -2.86 KCAL/MOL
REMARK 924 INTRA-LIGAND FREE ENERGY PREDICTED BY IDOCK:    0.27 KCAL/MOL
REMARK 927      BINDING AFFINITY PREDICTED BY RF-SCORE:    0.00 PKD
ROOT
HETATM    1  C   UNL     1     -10.986  14.938  65.082  1.00  0.00    -0.399 C  
HETATM    2  N   UNL     1     -11.589  14.660  66.380  1.00  0.00    -0.359 NA 
HETATM    3  H   UNL     1     -12.467  14.153  66.267  1.00  0.00     0.000 HD 
ENDROOT
BRANCH   2   4
HETATM    4  C   UNL     1     -10.691  13.948  67.309  1.00  0.00    -0.284 C  
HETATM    5  C   UNL     1      -9.289  13.768  66.717  1.00  0.00    -0.276 C  
BRANCH   4   6
HETATM    6  C   UNL     1     -10.650  14.747  68.633  1.00  0.00    -0.255 C  
BRANCH   6   7
HETATM    7  C   UNL     1     -11.358  16.102  68.536  1.00  0.00    -0.359 C  
BRANCH   7   8
HETATM    8  C   UNL     1     -10.487  17.179  67.948  1.00  0.00    -0.369 C  
HETATM    9  C   UNL     1      -9.193  17.417  68.235  1.00  0.00    -0.271 C  
HETATM   10  C   UNL     1      -8.405  16.697  69.294  1.00  0.00    -0.019 C  
HETATM   11  C   UNL     1      -8.419  18.470  67.486  1.00  0.00    -0.272 C  
ENDBRANCH   7   8
ENDBRANCH   6   7
ENDBRANCH   4   6
ENDBRANCH   2   4
TORSDOF 4
ENDMDL
MODEL      231
REMARK 921   NORMALIZED FREE ENERGY PREDICTED BY IDOCK:   -1.91 KCAL/MOL
REMARK 922        TOTAL FREE ENERGY PREDICTED BY IDOCK:   -2.59 KCAL/MOL
REMARK 923 INTER-LIGAND FREE ENERGY PREDICTED BY IDOCK:   -2.24 KCAL/MOL
REMARK 924 INTRA-LIGAND FREE ENERGY PREDICTED BY IDOCK:   -0.35 KCAL/MOL
REMARK 927      BINDING AFFINITY PREDICTED BY RF-SCORE:    0.00 PKD
ROOT
HETATM    1  C   UNL     1     -11.671   9.072  71.920  1.00  0.00    -0.374 C  
HETATM    2  N   UNL     1     -11.582   8.607  70.541  1.00  0.00    -0.431 NA 
HETATM    3  H   UNL     1     -11.145   9.314  69.950  1.00  0.00     0.000 HD 
ENDROOT
BRANCH   2   4
HETATM    4  C   UNL     1     -10.894   7.310  70.398  1.00  0.00    -0.246 C  
HETATM    5  C   UNL     1     -11.508   6.463  69.277  1.00  0.00    -0.318 C  
BRANCH   4   6
HETATM    6  C   UNL     1      -9.396   7.595  70.138  1.00  0.00    -0.157 C  
BRANCH   6   7
HETATM    7  C   UNL     1      -8.470   6.544  70.759  1.00  0.00    -0.134 C  
BRANCH   7   8
HETATM    8  C   UNL     1      -8.506   6.546  72.263  1.00  0.00    -0.112 C  
HETATM    9  C   UNL     1      -9.090   5.630  73.058  1.00  0.00    -0.121 C  
HETATM   10  C   UNL     1      -9.917   4.475  72.567  1.00  0.00    -0.225 C  
HETATM   11  C   UNL     1      -8.954   5.711  74.556  1.00  0.00    -0.122 C  
ENDBRANCH   7   8
ENDBRANCH   6   7
ENDBRANCH   4   6
ENDBRANCH   2   4
TORSDOF 4
ENDMDL
MODEL      232
REMARK 921   NORMALIZED FREE ENERGY PREDICTED BY IDOCK:   -1.91 KCAL/MOL
REMARK 922        TOTAL FREE ENERGY PREDICTED BY IDOCK:   -2.59 KCAL/MOL
REMARK 923 INTER-LIGAND FREE ENERGY PREDICTED BY IDOCK:   -2.40 KCAL/MOL
REMARK 924 INTRA-LIGAND FREE ENERGY PREDICTED BY IDOCK:   -0.19 KCAL/MOL
REMARK 927      BINDING AFFINITY PREDICTED BY RF-SCORE:    0.00 PKD
ROOT
HETATM    1  C   UNL     1     -10.229  10.670  65.939  1.00  0.00    -0.251 C  
HETATM    2  N   UNL     1     -10.170  10.431  67.376  1.00  0.00    -0.202 NA 
HETATM    3  H   UNL     1     -11.072  10.106  67.724  1.00  0.00     0.000 HD 
ENDROOT
BRANCH   2   4
HETATM    4  C   UNL     1      -9.092   9.509  67.779  1.00  0.00    -0.125 C  
HETATM    5  C   UNL     1      -8.215  10.108  68.884  1.00  0.00    -0.124 C  
BRANCH   4   6
HETATM    6  C   UNL     1      -9.749   8.183  68.233  1.00  0.00    -0.175 C  
BRANCH   6   7
HETATM    7  C   UNL     1     -10.649   8.351  69.462  1.00  0.00    -0.217 C  
BRANCH   7   8
HETATM    8  C   UNL     1     -10.460   7.260  70.480  1.00  0.00    -0.229 C  
HETATM    9  C   UNL     1     -11.395   6.761  71.311  1.00  0.00    -0.333 C  
HETATM   10  C   UNL     1     -12.796   7.290  71.438  1.00  0.00    -0.425 C  
HETATM   11  C   UNL     1     -11.082   5.593  72.209  1.00  0.00    -0.318 C  
ENDBRANCH   7   8
ENDBRANCH   6   7
ENDBRANCH   4   6
ENDBRANCH   2   4
TORSDOF 4
ENDMDL
MODEL      233
REMARK 921   NORMALIZED FREE ENERGY PREDICTED BY IDOCK:   -1.89 KCAL/MOL
REMARK 922        TOTAL FREE ENERGY PREDICTED BY IDOCK:   -2.57 KCAL/MOL
REMARK 923 INTER-LIGAND FREE ENERGY PREDICTED BY IDOCK:   -2.36 KCAL/MOL
REMARK 924 INTRA-LIGAND FREE ENERGY PREDICTED BY IDOCK:   -0.20 KCAL/MOL
REMARK 927      BINDING AFFINITY PREDICTED BY RF-SCORE:    0.00 PKD
ROOT
HETATM    1  C   UNL     1      -6.676   7.929  68.298  1.00  0.00    -0.063 C  
HETATM    2  N   UNL     1      -7.453   7.150  67.342  1.00  0.00    -0.098 NA 
HETATM    3  H   UNL     1      -8.100   6.528  67.826  1.00  0.00     0.000 HD 
ENDROOT
BRANCH   2   4
HETATM    4  C   UNL     1      -8.168   7.974  66.349  1.00  0.00    -0.113 C  
HETATM    5  C   UNL     1      -7.853   7.535  64.915  1.00  0.00    -0.128 C  
BRANCH   4   6
HETATM    6  C   UNL     1      -9.682   7.875  66.653  1.00  0.00    -0.305 C  
BRANCH   6   7
HETATM    7  C   UNL     1     -10.259   9.165  67.243  1.00  0.00    -0.319 C  
BRANCH   7   8
HETATM    8  C   UNL     1     -10.472   9.087  68.730  1.00  0.00    -0.230 C  
HETATM    9  C   UNL     1     -11.054  10.016  69.513  1.00  0.00    -0.279 C  
HETATM   10  C   UNL     1     -11.510  11.368  69.041  1.00  0.00    -0.366 C  
HETATM   11  C   UNL     1     -11.290   9.751  70.976  1.00  0.00    -0.460 C  
ENDBRANCH   7   8
ENDBRANCH   6   7
ENDBRANCH   4   6
ENDBRANCH   2   4
TORSDOF 4
ENDMDL
MODEL      234
REMARK 921   NORMALIZED FREE ENERGY PREDICTED BY IDOCK:   -1.89 KCAL/MOL
REMARK 922        TOTAL FREE ENERGY PREDICTED BY IDOCK:   -2.56 KCAL/MOL
REMARK 923 INTER-LIGAND FREE ENERGY PREDICTED BY IDOCK:   -2.41 KCAL/MOL
REMARK 924 INTRA-LIGAND FREE ENERGY PREDICTED BY IDOCK:   -0.15 KCAL/MOL
REMARK 927      BINDING AFFINITY PREDICTED BY RF-SCORE:    0.00 PKD
ROOT
HETATM    1  C   UNL     1      -7.706  11.817  67.247  1.00  0.00    -0.158 C  
HETATM    2  N   UNL     1      -8.439  10.818  66.479  1.00  0.00    -0.141 NA 
HETATM    3  H   UNL     1      -8.136   9.877  66.731  1.00  0.00     0.000 HD 
ENDROOT
BRANCH   2   4
HETATM    4  C   UNL     1      -9.905  10.941  66.594  1.00  0.00    -0.198 C  
HETATM    5  C   UNL     1     -10.546  11.343  65.261  1.00  0.00    -0.336 C  
BRANCH   4   6
HETATM    6  C   UNL     1     -10.455   9.588  67.103  1.00  0.00    -0.322 C  
BRANCH   6   7
HETATM    7  C   UNL     1     -10.592   9.533  68.628  1.00  0.00    -0.239 C  
BRANCH   7   8
HETATM    8  C   UNL     1     -10.355   8.158  69.190  1.00  0.00    -0.228 C  
HETATM    9  C   UNL     1     -10.090   7.844  70.472  1.00  0.00    -0.192 C  
HETATM   10  C   UNL     1      -9.879   8.847  71.572  1.00  0.00    -0.384 C  
HETATM   11  C   UNL     1      -9.977   6.406  70.906  1.00  0.00    -0.211 C  
ENDBRANCH   7   8
ENDBRANCH   6   7
ENDBRANCH   4   6
ENDBRANCH   2   4
TORSDOF 4
ENDMDL
MODEL      235
REMARK 921   NORMALIZED FREE ENERGY PREDICTED BY IDOCK:   -1.88 KCAL/MOL
REMARK 922        TOTAL FREE ENERGY PREDICTED BY IDOCK:   -2.56 KCAL/MOL
REMARK 923 INTER-LIGAND FREE ENERGY PREDICTED BY IDOCK:   -2.34 KCAL/MOL
REMARK 924 INTRA-LIGAND FREE ENERGY PREDICTED BY IDOCK:   -0.21 KCAL/MOL
REMARK 927      BINDING AFFINITY PREDICTED BY RF-SCORE:    0.00 PKD
ROOT
HETATM    1  C   UNL     1     -12.062   9.168  71.924  1.00  0.00    -0.378 C  
HETATM    2  N   UNL     1     -12.189   7.858  71.297  1.00  0.00    -0.331 NA 
HETATM    3  H   UNL     1     -13.026   7.817  70.716  1.00  0.00     0.000 HD 
ENDROOT
BRANCH   2   4
HETATM    4  C   UNL     1     -10.999   7.454  70.525  1.00  0.00    -0.253 C  
HETATM    5  C   UNL     1      -9.834   7.064  71.442  1.00  0.00    -0.180 C  
BRANCH   4   6
HETATM    6  C   UNL     1     -11.410   6.283  69.601  1.00  0.00    -0.492 C  
BRANCH   6   7
HETATM    7  C   UNL     1     -10.255   5.320  69.307  1.00  0.00    -0.301 C  
BRANCH   7   8
HETATM    8  C   UNL     1      -9.553   5.624  68.012  1.00  0.00    -0.137 C  
HETATM    9  C   UNL     1      -8.360   5.147  67.608  1.00  0.00    -0.105 C  
HETATM   10  C   UNL     1      -7.454   4.289  68.447  1.00  0.00    -0.064 C  
HETATM   11  C   UNL     1      -7.829   5.462  66.234  1.00  0.00    -0.100 C  
ENDBRANCH   7   8
ENDBRANCH   6   7
ENDBRANCH   4   6
ENDBRANCH   2   4
TORSDOF 4
ENDMDL
MODEL      236
REMARK 921   NORMALIZED FREE ENERGY PREDICTED BY IDOCK:   -1.88 KCAL/MOL
REMARK 922        TOTAL FREE ENERGY PREDICTED BY IDOCK:   -2.55 KCAL/MOL
REMARK 923 INTER-LIGAND FREE ENERGY PREDICTED BY IDOCK:   -3.08 KCAL/MOL
REMARK 924 INTRA-LIGAND FREE ENERGY PREDICTED BY IDOCK:    0.53 KCAL/MOL
REMARK 927      BINDING AFFINITY PREDICTED BY RF-SCORE:    0.00 PKD
ROOT
HETATM    1  C   UNL     1     -11.740  14.911  70.012  1.00  0.00    -0.294 C  
HETATM    2  N   UNL     1     -11.252  16.256  69.733  1.00  0.00    -0.334 NA 
HETATM    3  H   UNL     1     -10.561  16.540  70.427  1.00  0.00     0.000 HD 
ENDROOT
BRANCH   2   4
HETATM    4  C   UNL     1     -10.716  16.420  68.368  1.00  0.00    -0.327 C  
HETATM    5  C   UNL     1     -10.451  17.893  68.036  1.00  0.00    -0.390 C  
BRANCH   4   6
HETATM    6  C   UNL     1      -9.425  15.573  68.262  1.00  0.00    -0.200 C  
BRANCH   6   7
HETATM    7  C   UNL     1      -9.701  14.067  68.202  1.00  0.00    -0.220 C  
BRANCH   7   8
HETATM    8  C   UNL     1     -10.191  13.614  66.854  1.00  0.00    -0.261 C  
HETATM    9  C   UNL     1     -10.948  12.532  66.591  1.00  0.00    -0.303 C  
HETATM   10  C   UNL     1     -11.359  11.508  67.612  1.00  0.00    -0.358 C  
HETATM   11  C   UNL     1     -11.449  12.262  65.197  1.00  0.00    -0.390 C  
ENDBRANCH   7   8
ENDBRANCH   6   7
ENDBRANCH   4   6
ENDBRANCH   2   4
TORSDOF 4
ENDMDL
MODEL      237
REMARK 921   NORMALIZED FREE ENERGY PREDICTED BY IDOCK:   -1.85 KCAL/MOL
REMARK 922        TOTAL FREE ENERGY PREDICTED BY IDOCK:   -2.51 KCAL/MOL
REMARK 923 INTER-LIGAND FREE ENERGY PREDICTED BY IDOCK:   -2.29 KCAL/MOL
REMARK 924 INTRA-LIGAND FREE ENERGY PREDICTED BY IDOCK:   -0.23 KCAL/MOL
REMARK 927      BINDING AFFINITY PREDICTED BY RF-SCORE:    0.00 PKD
ROOT
HETATM    1  C   UNL     1      -9.959   4.547  66.500  1.00  0.00    -0.240 C  
HETATM    2  N   UNL     1     -10.435   5.834  66.008  1.00  0.00    -0.452 NA 
HETATM    3  H   UNL     1     -11.085   5.705  65.232  1.00  0.00     0.000 HD 
ENDROOT
BRANCH   2   4
HETATM    4  C   UNL     1     -11.035   6.683  67.054  1.00  0.00    -0.393 C  
HETATM    5  C   UNL     1     -10.748   6.140  68.459  1.00  0.00    -0.365 C  
BRANCH   4   6
HETATM    6  C   UNL     1     -10.482   8.117  66.876  1.00  0.00    -0.379 C  
BRANCH   6   7
HETATM    7  C   UNL     1      -9.204   8.164  66.032  1.00  0.00    -0.207 C  
BRANCH   7   8
HETATM    8  C   UNL     1      -7.997   8.599  66.818  1.00  0.00    -0.094 C  
HETATM    9  C   UNL     1      -6.714   8.565  66.412  1.00  0.00    -0.070 C  
HETATM   10  C   UNL     1      -6.244   7.978  65.110  1.00  0.00    -0.045 C  
HETATM   11  C   UNL     1      -5.618   9.133  67.275  1.00  0.00    -0.041 C  
ENDBRANCH   7   8
ENDBRANCH   6   7
ENDBRANCH   4   6
ENDBRANCH   2   4
TORSDOF 4
ENDMDL
MODEL      238
REMARK 921   NORMALIZED FREE ENERGY PREDICTED BY IDOCK:   -1.84 KCAL/MOL
REMARK 922        TOTAL FREE ENERGY PREDICTED BY IDOCK:   -2.51 KCAL/MOL
REMARK 923 INTER-LIGAND FREE ENERGY PREDICTED BY IDOCK:   -2.31 KCAL/MOL
REMARK 924 INTRA-LIGAND FREE ENERGY PREDICTED BY IDOCK:   -0.20 KCAL/MOL
REMARK 927      BINDING AFFINITY PREDICTED BY RF-SCORE:    0.00 PKD
ROOT
HETATM    1  C   UNL     1      -7.880   6.086  72.424  1.00  0.00    -0.102 C  
HETATM    2  N   UNL     1      -9.113   5.498  72.932  1.00  0.00    -0.123 NA 
HETATM    3  H   UNL     1      -9.098   5.454  73.951  1.00  0.00     0.000 HD 
ENDROOT
BRANCH   2   4
HETATM    4  C   UNL     1     -10.333   6.179  72.458  1.00  0.00    -0.193 C  
HETATM    5  C   UNL     1     -10.773   7.288  73.420  1.00  0.00    -0.415 C  
BRANCH   4   6
HETATM    6  C   UNL     1     -10.044   6.736  71.043  1.00  0.00    -0.206 C  
BRANCH   6   7
HETATM    7  C   UNL     1     -10.744   8.071  70.772  1.00  0.00    -0.236 C  
BRANCH   7   8
HETATM    8  C   UNL     1     -10.231   8.762  69.538  1.00  0.00    -0.208 C  
HETATM    9  C   UNL     1     -10.637   9.949  69.049  1.00  0.00    -0.240 C  
HETATM   10  C   UNL     1     -11.774  10.760  69.607  1.00  0.00    -0.395 C  
HETATM   11  C   UNL     1      -9.955  10.565  67.856  1.00  0.00    -0.193 C  
ENDBRANCH   7   8
ENDBRANCH   6   7
ENDBRANCH   4   6
ENDBRANCH   2   4
TORSDOF 4
ENDMDL
MODEL      239
REMARK 921   NORMALIZED FREE ENERGY PREDICTED BY IDOCK:   -1.82 KCAL/MOL
REMARK 922        TOTAL FREE ENERGY PREDICTED BY IDOCK:   -2.48 KCAL/MOL
REMARK 923 INTER-LIGAND FREE ENERGY PREDICTED BY IDOCK:   -2.29 KCAL/MOL
REMARK 924 INTRA-LIGAND FREE ENERGY PREDICTED BY IDOCK:   -0.20 KCAL/MOL
REMARK 927      BINDING AFFINITY PREDICTED BY RF-SCORE:    0.00 PKD
ROOT
HETATM    1  C   UNL     1      -8.710   9.963  63.936  1.00  0.00    -0.214 C  
HETATM    2  N   UNL     1      -9.970   9.732  64.632  1.00  0.00    -0.365 NA 
HETATM    3  H   UNL     1     -10.162   8.733  64.706  1.00  0.00     0.000 HD 
ENDROOT
BRANCH   2   4
HETATM    4  C   UNL     1     -10.040  10.375  65.958  1.00  0.00    -0.243 C  
HETATM    5  C   UNL     1      -9.722   9.386  67.085  1.00  0.00    -0.225 C  
BRANCH   4   6
HETATM    6  C   UNL     1      -9.057  11.570  65.957  1.00  0.00    -0.206 C  
BRANCH   6   7
HETATM    7  C   UNL     1      -9.046  12.337  67.283  1.00  0.00    -0.184 C  
BRANCH   7   8
HETATM    8  C   UNL     1      -8.965  13.827  67.097  1.00  0.00    -0.241 C  
HETATM    9  C   UNL     1      -7.922  14.623  67.401  1.00  0.00    -0.223 C  
HETATM   10  C   UNL     1      -6.667  14.163  68.090  1.00  0.00    -0.125 C  
HETATM   11  C   UNL     1      -7.947  16.090  67.062  1.00  0.00    -0.262 C  
ENDBRANCH   7   8
ENDBRANCH   6   7
ENDBRANCH   4   6
ENDBRANCH   2   4
TORSDOF 4
ENDMDL
MODEL      240
REMARK 921   NORMALIZED FREE ENERGY PREDICTED BY IDOCK:   -1.81 KCAL/MOL
REMARK 922        TOTAL FREE ENERGY PREDICTED BY IDOCK:   -2.47 KCAL/MOL
REMARK 923 INTER-LIGAND FREE ENERGY PREDICTED BY IDOCK:   -2.19 KCAL/MOL
REMARK 924 INTRA-LIGAND FREE ENERGY PREDICTED BY IDOCK:   -0.28 KCAL/MOL
REMARK 927      BINDING AFFINITY PREDICTED BY RF-SCORE:    0.00 PKD
ROOT
HETATM    1  C   UNL     1     -10.433   9.016  69.344  1.00  0.00    -0.222 C  
HETATM    2  N   UNL     1     -11.310   9.498  68.284  1.00  0.00    -0.457 NA 
HETATM    3  H   UNL     1     -11.796  10.345  68.576  1.00  0.00     0.000 HD 
ENDROOT
BRANCH   2   4
HETATM    4  C   UNL     1     -10.621   9.711  66.997  1.00  0.00    -0.197 C  
HETATM    5  C   UNL     1     -10.449  11.202  66.685  1.00  0.00    -0.298 C  
BRANCH   4   6
HETATM    6  C   UNL     1      -9.256   8.984  67.065  1.00  0.00    -0.169 C  
BRANCH   6   7
HETATM    7  C   UNL     1      -8.138   9.742  66.342  1.00  0.00    -0.116 C  
BRANCH   7   8
HETATM    8  C   UNL     1      -7.752   9.110  65.033  1.00  0.00    -0.109 C  
HETATM    9  C   UNL     1      -8.260   9.393  63.819  1.00  0.00    -0.165 C  
HETATM   10  C   UNL     1      -9.401  10.339  63.568  1.00  0.00    -0.341 C  
HETATM   11  C   UNL     1      -7.698   8.747  62.579  1.00  0.00    -0.119 C  
ENDBRANCH   7   8
ENDBRANCH   6   7
ENDBRANCH   4   6
ENDBRANCH   2   4
TORSDOF 4
ENDMDL
MODEL      241
REMARK 921   NORMALIZED FREE ENERGY PREDICTED BY IDOCK:   -1.80 KCAL/MOL
REMARK 922        TOTAL FREE ENERGY PREDICTED BY IDOCK:   -2.46 KCAL/MOL
REMARK 923 INTER-LIGAND FREE ENERGY PREDICTED BY IDOCK:   -2.31 KCAL/MOL
REMARK 924 INTRA-LIGAND FREE ENERGY PREDICTED BY IDOCK:   -0.15 KCAL/MOL
REMARK 927      BINDING AFFINITY PREDICTED BY RF-SCORE:    0.00 PKD
ROOT
HETATM    1  C   UNL     1     -12.273   8.931  72.024  1.00  0.00    -0.377 C  
HETATM    2  N   UNL     1     -12.462   8.011  70.909  1.00  0.00    -0.509 NA 
HETATM    3  H   UNL     1     -13.062   8.428  70.197  1.00  0.00     0.000 HD 
ENDROOT
BRANCH   2   4
HETATM    4  C   UNL     1     -11.199   7.536  70.313  1.00  0.00    -0.236 C  
HETATM    5  C   UNL     1     -11.407   6.269  69.476  1.00  0.00    -0.475 C  
BRANCH   4   6
HETATM    6  C   UNL     1     -10.614   8.689  69.462  1.00  0.00    -0.218 C  
BRANCH   6   7
HETATM    7  C   UNL     1      -9.718   8.195  68.322  1.00  0.00    -0.175 C  
BRANCH   7   8
HETATM    8  C   UNL     1      -8.691   9.211  67.901  1.00  0.00    -0.128 C  
HETATM    9  C   UNL     1      -7.548   9.518  68.544  1.00  0.00    -0.081 C  
HETATM   10  C   UNL     1      -7.141   8.960  69.879  1.00  0.00    -0.055 C  
HETATM   11  C   UNL     1      -6.564  10.488  67.944  1.00  0.00    -0.061 C  
ENDBRANCH   7   8
ENDBRANCH   6   7
ENDBRANCH   4   6
ENDBRANCH   2   4
TORSDOF 4
ENDMDL
MODEL      242
REMARK 921   NORMALIZED FREE ENERGY PREDICTED BY IDOCK:   -1.79 KCAL/MOL
REMARK 922        TOTAL FREE ENERGY PREDICTED BY IDOCK:   -2.44 KCAL/MOL
REMARK 923 INTER-LIGAND FREE ENERGY PREDICTED BY IDOCK:   -2.16 KCAL/MOL
REMARK 924 INTRA-LIGAND FREE ENERGY PREDICTED BY IDOCK:   -0.28 KCAL/MOL
REMARK 927      BINDING AFFINITY PREDICTED BY RF-SCORE:    0.00 PKD
ROOT
HETATM    1  C   UNL     1      -7.224  12.620  67.242  1.00  0.00    -0.103 C  
HETATM    2  N   UNL     1      -8.180  11.774  66.538  1.00  0.00    -0.335 NA 
HETATM    3  H   UNL     1      -8.320  12.106  65.584  1.00  0.00     0.000 HD 
ENDROOT
BRANCH   2   4
HETATM    4  C   UNL     1      -7.821  10.343  66.544  1.00  0.00    -0.124 C  
HETATM    5  C   UNL     1      -7.013   9.966  67.791  1.00  0.00    -0.085 C  
BRANCH   4   6
HETATM    6  C   UNL     1      -9.131   9.526  66.447  1.00  0.00    -0.195 C  
BRANCH   6   7
HETATM    7  C   UNL     1      -9.914   9.493  67.764  1.00  0.00    -0.216 C  
BRANCH   7   8
HETATM    8  C   UNL     1     -10.527   8.149  68.049  1.00  0.00    -0.242 C  
HETATM    9  C   UNL     1     -10.488   7.474  69.213  1.00  0.00    -0.216 C  
HETATM   10  C   UNL     1      -9.718   7.909  70.428  1.00  0.00    -0.179 C  
HETATM   11  C   UNL     1     -11.239   6.179  69.378  1.00  0.00    -0.466 C  
ENDBRANCH   7   8
ENDBRANCH   6   7
ENDBRANCH   4   6
ENDBRANCH   2   4
TORSDOF 4
ENDMDL
MODEL      243
REMARK 921   NORMALIZED FREE ENERGY PREDICTED BY IDOCK:   -1.79 KCAL/MOL
REMARK 922        TOTAL FREE ENERGY PREDICTED BY IDOCK:   -2.44 KCAL/MOL
REMARK 923 INTER-LIGAND FREE ENERGY PREDICTED BY IDOCK:   -2.28 KCAL/MOL
REMARK 924 INTRA-LIGAND FREE ENERGY PREDICTED BY IDOCK:   -0.16 KCAL/MOL
REMARK 927      BINDING AFFINITY PREDICTED BY RF-SCORE:    0.00 PKD
ROOT
HETATM    1  C   UNL     1      -8.562   3.242  66.188  1.00  0.00    -0.121 C  
HETATM    2  N   UNL     1      -8.514   4.129  67.344  1.00  0.00    -0.099 NA 
HETATM    3  H   UNL     1      -8.617   5.102  67.055  1.00  0.00     0.000 HD 
ENDROOT
BRANCH   2   4
HETATM    4  C   UNL     1      -9.496   3.789  68.391  1.00  0.00    -0.148 C  
HETATM    5  C   UNL     1      -9.326   2.347  68.881  1.00  0.00    -0.217 C  
BRANCH   4   6
HETATM    6  C   UNL     1      -9.325   4.805  69.546  1.00  0.00    -0.198 C  
BRANCH   6   7
HETATM    7  C   UNL     1     -10.631   5.514  69.917  1.00  0.00    -0.387 C  
BRANCH   7   8
HETATM    8  C   UNL     1     -10.452   6.549  70.994  1.00  0.00    -0.260 C  
HETATM    9  C   UNL     1     -10.444   7.886  70.836  1.00  0.00    -0.217 C  
HETATM   10  C   UNL     1     -10.510   8.591  69.509  1.00  0.00    -0.222 C  
HETATM   11  C   UNL     1     -10.356   8.802  72.028  1.00  0.00    -0.411 C  
ENDBRANCH   7   8
ENDBRANCH   6   7
ENDBRANCH   4   6
ENDBRANCH   2   4
TORSDOF 4
ENDMDL
MODEL      244
REMARK 921   NORMALIZED FREE ENERGY PREDICTED BY IDOCK:   -1.78 KCAL/MOL
REMARK 922        TOTAL FREE ENERGY PREDICTED BY IDOCK:   -2.43 KCAL/MOL
REMARK 923 INTER-LIGAND FREE ENERGY PREDICTED BY IDOCK:   -2.28 KCAL/MOL
REMARK 924 INTRA-LIGAND FREE ENERGY PREDICTED BY IDOCK:   -0.15 KCAL/MOL
REMARK 927      BINDING AFFINITY PREDICTED BY RF-SCORE:    0.00 PKD
ROOT
HETATM    1  C   UNL     1      -9.486   4.290  64.458  1.00  0.00    -0.156 C  
HETATM    2  N   UNL     1     -10.418   4.052  65.554  1.00  0.00    -0.476 NA 
HETATM    3  H   UNL     1     -10.921   3.176  65.415  1.00  0.00     0.000 HD 
ENDROOT
BRANCH   2   4
HETATM    4  C   UNL     1      -9.785   4.085  66.886  1.00  0.00    -0.185 C  
HETATM    5  C   UNL     1      -8.464   3.307  66.906  1.00  0.00    -0.103 C  
BRANCH   4   6
HETATM    6  C   UNL     1      -9.576   5.568  67.274  1.00  0.00    -0.132 C  
BRANCH   6   7
HETATM    7  C   UNL     1     -10.768   6.163  68.030  1.00  0.00    -0.370 C  
BRANCH   7   8
HETATM    8  C   UNL     1     -10.585   7.618  68.364  1.00  0.00    -0.166 C  
HETATM    9  C   UNL     1     -10.809   8.208  69.554  1.00  0.00    -0.128 C  
HETATM   10  C   UNL     1     -11.395   7.517  70.754  1.00  0.00    -0.300 C  
HETATM   11  C   UNL     1     -10.480   9.662  69.766  1.00  0.00    -0.263 C  
ENDBRANCH   7   8
ENDBRANCH   6   7
ENDBRANCH   4   6
ENDBRANCH   2   4
TORSDOF 4
ENDMDL
MODEL      245
REMARK 921   NORMALIZED FREE ENERGY PREDICTED BY IDOCK:   -1.76 KCAL/MOL
REMARK 922        TOTAL FREE ENERGY PREDICTED BY IDOCK:   -2.40 KCAL/MOL
REMARK 923 INTER-LIGAND FREE ENERGY PREDICTED BY IDOCK:   -2.13 KCAL/MOL
REMARK 924 INTRA-LIGAND FREE ENERGY PREDICTED BY IDOCK:   -0.27 KCAL/MOL
REMARK 927      BINDING AFFINITY PREDICTED BY RF-SCORE:    0.00 PKD
ROOT
HETATM    1  C   UNL     1     -10.292  13.568  64.747  1.00  0.00    -0.385 C  
HETATM    2  N   UNL     1     -10.902  12.275  65.034  1.00  0.00    -0.287 NA 
HETATM    3  H   UNL     1     -11.545  12.007  64.289  1.00  0.00     0.000 HD 
ENDROOT
BRANCH   2   4
HETATM    4  C   UNL     1      -9.922  11.202  65.286  1.00  0.00    -0.260 C  
HETATM    5  C   UNL     1     -10.370  10.280  66.426  1.00  0.00    -0.262 C  
BRANCH   4   6
HETATM    6  C   UNL     1      -9.727  10.419  63.966  1.00  0.00    -0.373 C  
BRANCH   6   7
HETATM    7  C   UNL     1      -8.253  10.200  63.612  1.00  0.00    -0.166 C  
BRANCH   7   8
HETATM    8  C   UNL     1      -7.377  10.032  64.824  1.00  0.00    -0.143 C  
HETATM    9  C   UNL     1      -7.089   8.881  65.459  1.00  0.00    -0.080 C  
HETATM   10  C   UNL     1      -7.689   7.544  65.122  1.00  0.00    -0.111 C  
HETATM   11  C   UNL     1      -6.110   8.856  66.603  1.00  0.00    -0.060 C  
ENDBRANCH   7   8
ENDBRANCH   6   7
ENDBRANCH   4   6
ENDBRANCH   2   4
TORSDOF 4
ENDMDL
MODEL      246
REMARK 921   NORMALIZED FREE ENERGY PREDICTED BY IDOCK:   -1.75 KCAL/MOL
REMARK 922        TOTAL FREE ENERGY PREDICTED BY IDOCK:   -2.40 KCAL/MOL
REMARK 923 INTER-LIGAND FREE ENERGY PREDICTED BY IDOCK:   -2.08 KCAL/MOL
REMARK 924 INTRA-LIGAND FREE ENERGY PREDICTED BY IDOCK:   -0.31 KCAL/MOL
REMARK 927      BINDING AFFINITY PREDICTED BY RF-SCORE:    0.00 PKD
ROOT
HETATM    1  C   UNL     1      -7.940   3.584  68.642  1.00  0.00    -0.062 C  
HETATM    2  N   UNL     1      -9.364   3.669  68.943  1.00  0.00    -0.161 NA 
HETATM    3  H   UNL     1      -9.619   3.001  69.670  1.00  0.00     0.000 HD 
ENDROOT
BRANCH   2   4
HETATM    4  C   UNL     1      -9.813   5.027  69.304  1.00  0.00    -0.196 C  
HETATM    5  C   UNL     1      -8.691   5.839  69.961  1.00  0.00    -0.132 C  
BRANCH   4   6
HETATM    6  C   UNL     1     -10.330   5.713  68.017  1.00  0.00    -0.258 C  
BRANCH   6   7
HETATM    7  C   UNL     1     -10.782   7.158  68.249  1.00  0.00    -0.202 C  
BRANCH   7   8
HETATM    8  C   UNL     1     -10.578   8.037  67.046  1.00  0.00    -0.364 C  
HETATM    9  C   UNL     1      -9.537   8.859  66.814  1.00  0.00    -0.262 C  
HETATM   10  C   UNL     1      -8.423   9.124  67.789  1.00  0.00    -0.117 C  
HETATM   11  C   UNL     1      -9.418   9.604  65.511  1.00  0.00    -0.330 C  
ENDBRANCH   7   8
ENDBRANCH   6   7
ENDBRANCH   4   6
ENDBRANCH   2   4
TORSDOF 4
ENDMDL
MODEL      247
REMARK 921   NORMALIZED FREE ENERGY PREDICTED BY IDOCK:   -1.71 KCAL/MOL
REMARK 922        TOTAL FREE ENERGY PREDICTED BY IDOCK:   -2.35 KCAL/MOL
REMARK 923 INTER-LIGAND FREE ENERGY PREDICTED BY IDOCK:   -1.94 KCAL/MOL
REMARK 924 INTRA-LIGAND FREE ENERGY PREDICTED BY IDOCK:   -0.41 KCAL/MOL
REMARK 927      BINDING AFFINITY PREDICTED BY RF-SCORE:    0.00 PKD
ROOT
HETATM    1  C   UNL     1      -7.363   6.101  71.874  1.00  0.00    -0.093 C  
HETATM    2  N   UNL     1      -8.331   5.633  70.890  1.00  0.00    -0.122 NA 
HETATM    3  H   UNL     1      -9.083   5.114  71.343  1.00  0.00     0.000 HD 
ENDROOT
BRANCH   2   4
HETATM    4  C   UNL     1      -8.878   6.707  70.040  1.00  0.00    -0.141 C  
HETATM    5  C   UNL     1      -9.046   6.252  68.586  1.00  0.00    -0.126 C  
BRANCH   4   6
HETATM    6  C   UNL     1     -10.226   7.155  70.654  1.00  0.00    -0.205 C  
BRANCH   6   7
HETATM    7  C   UNL     1     -10.230   8.626  71.080  1.00  0.00    -0.294 C  
BRANCH   7   8
HETATM    8  C   UNL     1      -9.271   9.470  70.285  1.00  0.00    -0.303 C  
HETATM    9  C   UNL     1      -9.545  10.165  69.165  1.00  0.00    -0.222 C  
HETATM   10  C   UNL     1     -10.861  10.135  68.440  1.00  0.00    -0.284 C  
HETATM   11  C   UNL     1      -8.503  11.051  68.535  1.00  0.00    -0.153 C  
ENDBRANCH   7   8
ENDBRANCH   6   7
ENDBRANCH   4   6
ENDBRANCH   2   4
TORSDOF 4
ENDMDL
MODEL      248
REMARK 921   NORMALIZED FREE ENERGY PREDICTED BY IDOCK:   -1.71 KCAL/MOL
REMARK 922        TOTAL FREE ENERGY PREDICTED BY IDOCK:   -2.35 KCAL/MOL
REMARK 923 INTER-LIGAND FREE ENERGY PREDICTED BY IDOCK:   -2.08 KCAL/MOL
REMARK 924 INTRA-LIGAND FREE ENERGY PREDICTED BY IDOCK:   -0.26 KCAL/MOL
REMARK 927      BINDING AFFINITY PREDICTED BY RF-SCORE:    0.00 PKD
ROOT
HETATM    1  C   UNL     1     -10.762   3.897  63.747  1.00  0.00    -0.175 C  
HETATM    2  N   UNL     1     -11.274   4.396  65.018  1.00  0.00    -1.057 NA 
HETATM    3  H   UNL     1     -11.618   3.628  65.594  1.00  0.00     0.000 HD 
ENDROOT
BRANCH   2   4
HETATM    4  C   UNL     1     -10.301   5.215  65.766  1.00  0.00    -0.049 C  
HETATM    5  C   UNL     1     -10.651   5.290  67.257  1.00  0.00    -0.200 C  
BRANCH   4   6
HETATM    6  C   UNL     1      -8.897   4.603  65.543  1.00  0.00    -0.134 C  
BRANCH   6   7
HETATM    7  C   UNL     1      -7.762   5.581  65.861  1.00  0.00    -0.091 C  
BRANCH   7   8
HETATM    8  C   UNL     1      -7.993   6.954  65.290  1.00  0.00    -0.127 C  
HETATM    9  C   UNL     1      -7.252   7.573  64.351  1.00  0.00    -0.081 C  
HETATM   10  C   UNL     1      -5.976   7.029  63.772  1.00  0.00    -0.040 C  
HETATM   11  C   UNL     1      -7.668   8.912  63.802  1.00  0.00    -0.129 C  
ENDBRANCH   7   8
ENDBRANCH   6   7
ENDBRANCH   4   6
ENDBRANCH   2   4
TORSDOF 4
ENDMDL
MODEL      249
REMARK 921   NORMALIZED FREE ENERGY PREDICTED BY IDOCK:   -1.68 KCAL/MOL
REMARK 922        TOTAL FREE ENERGY PREDICTED BY IDOCK:   -2.31 KCAL/MOL
REMARK 923 INTER-LIGAND FREE ENERGY PREDICTED BY IDOCK:   -2.08 KCAL/MOL
REMARK 924 INTRA-LIGAND FREE ENERGY PREDICTED BY IDOCK:   -0.23 KCAL/MOL
REMARK 927      BINDING AFFINITY PREDICTED BY RF-SCORE:    0.00 PKD
ROOT
HETATM    1  C   UNL     1      -9.549   7.600  67.958  1.00  0.00    -0.145 C  
HETATM    2  N   UNL     1      -8.662   6.640  68.604  1.00  0.00    -0.124 NA 
HETATM    3  H   UNL     1      -8.593   6.829  69.603  1.00  0.00     0.000 HD 
ENDROOT
BRANCH   2   4
HETATM    4  C   UNL     1      -9.038   5.234  68.364  1.00  0.00    -0.110 C  
HETATM    5  C   UNL     1      -7.823   4.302  68.437  1.00  0.00    -0.074 C  
BRANCH   4   6
HETATM    6  C   UNL     1     -10.113   4.847  69.407  1.00  0.00    -0.270 C  
BRANCH   6   7
HETATM    7  C   UNL     1      -9.616   4.967  70.851  1.00  0.00    -0.242 C  
BRANCH   7   8
HETATM    8  C   UNL     1      -9.925   3.751  71.682  1.00  0.00    -0.211 C  
HETATM    9  C   UNL     1     -10.479   3.731  72.909  1.00  0.00    -0.246 C  
HETATM   10  C   UNL     1     -10.796   4.954  73.725  1.00  0.00    -0.376 C  
HETATM   11  C   UNL     1     -10.825   2.426  73.576  1.00  0.00    -0.282 C  
ENDBRANCH   7   8
ENDBRANCH   6   7
ENDBRANCH   4   6
ENDBRANCH   2   4
TORSDOF 4
ENDMDL
MODEL      250
REMARK 921   NORMALIZED FREE ENERGY PREDICTED BY IDOCK:   -1.67 KCAL/MOL
REMARK 922        TOTAL FREE ENERGY PREDICTED BY IDOCK:   -2.30 KCAL/MOL
REMARK 923 INTER-LIGAND FREE ENERGY PREDICTED BY IDOCK:   -1.99 KCAL/MOL
REMARK 924 INTRA-LIGAND FREE ENERGY PREDICTED BY IDOCK:   -0.30 KCAL/MOL
REMARK 927      BINDING AFFINITY PREDICTED BY RF-SCORE:    0.00 PKD
ROOT
HETATM    1  C   UNL     1      -9.075   3.827  68.976  1.00  0.00    -0.138 C  
HETATM    2  N   UNL     1      -8.326   5.076  69.049  1.00  0.00    -0.086 NA 
HETATM    3  H   UNL     1      -7.916   5.303  68.143  1.00  0.00     0.000 HD 
ENDROOT
BRANCH   2   4
HETATM    4  C   UNL     1      -9.115   6.210  69.564  1.00  0.00    -0.139 C  
HETATM    5  C   UNL     1      -8.664   6.624  70.969  1.00  0.00    -0.138 C  
BRANCH   4   6
HETATM    6  C   UNL     1      -8.978   7.378  68.558  1.00  0.00    -0.128 C  
BRANCH   6   7
HETATM    7  C   UNL     1     -10.317   7.796  67.941  1.00  0.00    -0.276 C  
BRANCH   7   8
HETATM    8  C   UNL     1     -10.510   9.288  67.914  1.00  0.00    -0.290 C  
HETATM    9  C   UNL     1     -10.920  10.067  68.933  1.00  0.00    -0.244 C  
HETATM   10  C   UNL     1     -11.365   9.557  70.275  1.00  0.00    -0.284 C  
HETATM   11  C   UNL     1     -10.967  11.565  68.786  1.00  0.00    -0.271 C  
ENDBRANCH   7   8
ENDBRANCH   6   7
ENDBRANCH   4   6
ENDBRANCH   2   4
TORSDOF 4
ENDMDL
MODEL      251
REMARK 921   NORMALIZED FREE ENERGY PREDICTED BY IDOCK:   -1.67 KCAL/MOL
REMARK 922        TOTAL FREE ENERGY PREDICTED BY IDOCK:   -2.30 KCAL/MOL
REMARK 923 INTER-LIGAND FREE ENERGY PREDICTED BY IDOCK:   -2.04 KCAL/MOL
REMARK 924 INTRA-LIGAND FREE ENERGY PREDICTED BY IDOCK:   -0.26 KCAL/MOL
REMARK 927      BINDING AFFINITY PREDICTED BY RF-SCORE:    0.00 PKD
ROOT
HETATM    1  C   UNL     1      -8.916   4.187  67.655  1.00  0.00    -0.121 C  
HETATM    2  N   UNL     1     -10.029   4.558  68.521  1.00  0.00    -0.087 NA 
HETATM    3  H   UNL     1      -9.876   4.216  69.470  1.00  0.00     0.000 HD 
ENDROOT
BRANCH   2   4
HETATM    4  C   UNL     1     -10.316   6.004  68.528  1.00  0.00    -0.207 C  
HETATM    5  C   UNL     1     -10.979   6.457  67.222  1.00  0.00    -0.474 C  
BRANCH   4   6
HETATM    6  C   UNL     1     -11.213   6.303  69.753  1.00  0.00    -0.499 C  
BRANCH   6   7
HETATM    7  C   UNL     1     -10.610   7.350  70.695  1.00  0.00    -0.234 C  
BRANCH   7   8
HETATM    8  C   UNL     1      -9.493   6.804  71.541  1.00  0.00    -0.156 C  
HETATM    9  C   UNL     1      -8.207   7.204  71.538  1.00  0.00    -0.107 C  
HETATM   10  C   UNL     1      -7.630   8.220  70.591  1.00  0.00    -0.071 C  
HETATM   11  C   UNL     1      -7.220   6.631  72.520  1.00  0.00    -0.084 C  
ENDBRANCH   7   8
ENDBRANCH   6   7
ENDBRANCH   4   6
ENDBRANCH   2   4
TORSDOF 4
ENDMDL
MODEL      252
REMARK 921   NORMALIZED FREE ENERGY PREDICTED BY IDOCK:   -1.67 KCAL/MOL
REMARK 922        TOTAL FREE ENERGY PREDICTED BY IDOCK:   -2.29 KCAL/MOL
REMARK 923 INTER-LIGAND FREE ENERGY PREDICTED BY IDOCK:   -2.04 KCAL/MOL
REMARK 924 INTRA-LIGAND FREE ENERGY PREDICTED BY IDOCK:   -0.25 KCAL/MOL
REMARK 927      BINDING AFFINITY PREDICTED BY RF-SCORE:    0.00 PKD
ROOT
HETATM    1  C   UNL     1      -9.067   5.521  73.512  1.00  0.00    -0.128 C  
HETATM    2  N   UNL     1     -10.384   5.819  72.961  1.00  0.00    -0.194 NA 
HETATM    3  H   UNL     1     -10.806   6.610  73.446  1.00  0.00     0.000 HD 
ENDROOT
BRANCH   2   4
HETATM    4  C   UNL     1     -10.377   6.045  71.503  1.00  0.00    -0.214 C  
HETATM    5  C   UNL     1     -10.190   4.737  70.727  1.00  0.00    -0.246 C  
BRANCH   4   6
HETATM    6  C   UNL     1     -11.706   6.744  71.127  1.00  0.00    -0.394 C  
BRANCH   6   7
HETATM    7  C   UNL     1     -11.523   7.860  70.094  1.00  0.00    -0.025 C  
BRANCH   7   8
HETATM    8  C   UNL     1     -10.082   8.088  69.725  1.00  0.00    -0.196 C  
HETATM    9  C   UNL     1      -9.560   8.111  68.484  1.00  0.00    -0.153 C  
HETATM   10  C   UNL     1     -10.326   7.804  67.228  1.00  0.00    -0.371 C  
HETATM   11  C   UNL     1      -8.110   8.456  68.265  1.00  0.00    -0.120 C  
ENDBRANCH   7   8
ENDBRANCH   6   7
ENDBRANCH   4   6
ENDBRANCH   2   4
TORSDOF 4
ENDMDL
MODEL      253
REMARK 921   NORMALIZED FREE ENERGY PREDICTED BY IDOCK:   -1.67 KCAL/MOL
REMARK 922        TOTAL FREE ENERGY PREDICTED BY IDOCK:   -2.29 KCAL/MOL
REMARK 923 INTER-LIGAND FREE ENERGY PREDICTED BY IDOCK:   -2.12 KCAL/MOL
REMARK 924 INTRA-LIGAND FREE ENERGY PREDICTED BY IDOCK:   -0.17 KCAL/MOL
REMARK 927      BINDING AFFINITY PREDICTED BY RF-SCORE:    0.00 PKD
ROOT
HETATM    1  C   UNL     1      -8.563   5.209  65.671  1.00  0.00    -0.139 C  
HETATM    2  N   UNL     1      -8.678   5.463  67.102  1.00  0.00    -0.108 NA 
HETATM    3  H   UNL     1      -7.780   5.755  67.489  1.00  0.00     0.000 HD 
ENDROOT
BRANCH   2   4
HETATM    4  C   UNL     1      -9.734   6.433  67.447  1.00  0.00    -0.121 C  
HETATM    5  C   UNL     1     -10.958   5.744  68.062  1.00  0.00    -0.145 C  
BRANCH   4   6
HETATM    6  C   UNL     1      -9.123   7.474  68.416  1.00  0.00    -0.133 C  
BRANCH   6   7
HETATM    7  C   UNL     1     -10.148   8.054  69.395  1.00  0.00    -0.197 C  
BRANCH   7   8
HETATM    8  C   UNL     1     -10.439   9.509  69.146  1.00  0.00    -0.224 C  
HETATM    9  C   UNL     1     -11.061  10.363  69.981  1.00  0.00    -0.379 C  
HETATM   10  C   UNL     1     -11.679   9.976  71.296  1.00  0.00    -0.452 C  
HETATM   11  C   UNL     1     -11.188  11.823  69.636  1.00  0.00    -0.225 C  
ENDBRANCH   7   8
ENDBRANCH   6   7
ENDBRANCH   4   6
ENDBRANCH   2   4
TORSDOF 4
ENDMDL
MODEL      254
REMARK 921   NORMALIZED FREE ENERGY PREDICTED BY IDOCK:   -1.66 KCAL/MOL
REMARK 922        TOTAL FREE ENERGY PREDICTED BY IDOCK:   -2.29 KCAL/MOL
REMARK 923 INTER-LIGAND FREE ENERGY PREDICTED BY IDOCK:   -1.96 KCAL/MOL
REMARK 924 INTRA-LIGAND FREE ENERGY PREDICTED BY IDOCK:   -0.33 KCAL/MOL
REMARK 927      BINDING AFFINITY PREDICTED BY RF-SCORE:    0.00 PKD
ROOT
HETATM    1  C   UNL     1      -6.375   8.973  69.760  1.00  0.00    -0.038 C  
HETATM    2  N   UNL     1      -7.573   9.750  70.057  1.00  0.00    -0.147 NA 
HETATM    3  H   UNL     1      -7.418  10.738  69.860  1.00  0.00     0.000 HD 
ENDROOT
BRANCH   2   4
HETATM    4  C   UNL     1      -8.781   9.263  69.365  1.00  0.00    -0.148 C  
HETATM    5  C   UNL     1     -10.040  10.001  69.834  1.00  0.00    -0.289 C  
BRANCH   4   6
HETATM    6  C   UNL     1      -8.556   9.433  67.843  1.00  0.00    -0.120 C  
BRANCH   6   7
HETATM    7  C   UNL     1      -8.480  10.901  67.411  1.00  0.00    -0.120 C  
BRANCH   7   8
HETATM    8  C   UNL     1      -9.270  11.187  66.163  1.00  0.00    -0.216 C  
HETATM    9  C   UNL     1     -10.280  12.068  66.031  1.00  0.00    -0.256 C  
HETATM   10  C   UNL     1     -10.875  12.862  67.160  1.00  0.00    -0.278 C  
HETATM   11  C   UNL     1     -10.911  12.320  64.687  1.00  0.00    -0.349 C  
ENDBRANCH   7   8
ENDBRANCH   6   7
ENDBRANCH   4   6
ENDBRANCH   2   4
TORSDOF 4
ENDMDL
MODEL      255
REMARK 921   NORMALIZED FREE ENERGY PREDICTED BY IDOCK:   -1.65 KCAL/MOL
REMARK 922        TOTAL FREE ENERGY PREDICTED BY IDOCK:   -2.28 KCAL/MOL
REMARK 923 INTER-LIGAND FREE ENERGY PREDICTED BY IDOCK:   -1.99 KCAL/MOL
REMARK 924 INTRA-LIGAND FREE ENERGY PREDICTED BY IDOCK:   -0.28 KCAL/MOL
REMARK 927      BINDING AFFINITY PREDICTED BY RF-SCORE:    0.00 PKD
ROOT
HETATM    1  C   UNL     1      -6.972   7.785  68.415  1.00  0.00    -0.072 C  
HETATM    2  N   UNL     1      -7.670   8.962  68.916  1.00  0.00    -0.093 NA 
HETATM    3  H   UNL     1      -7.454   9.779  68.344  1.00  0.00     0.000 HD 
ENDROOT
BRANCH   2   4
HETATM    4  C   UNL     1      -9.129   8.780  69.034  1.00  0.00    -0.141 C  
HETATM    5  C   UNL     1      -9.489   7.353  69.463  1.00  0.00    -0.155 C  
BRANCH   4   6
HETATM    6  C   UNL     1      -9.657   9.827  70.044  1.00  0.00    -0.282 C  
BRANCH   6   7
HETATM    7  C   UNL     1     -10.742  10.733  69.454  1.00  0.00    -0.272 C  
BRANCH   7   8
HETATM    8  C   UNL     1     -10.180  11.873  68.649  1.00  0.00    -0.202 C  
HETATM    9  C   UNL     1     -10.211  12.009  67.310  1.00  0.00    -0.221 C  
HETATM   10  C   UNL     1     -10.733  10.970  66.357  1.00  0.00    -0.286 C  
HETATM   11  C   UNL     1      -9.696  13.261  66.650  1.00  0.00    -0.270 C  
ENDBRANCH   7   8
ENDBRANCH   6   7
ENDBRANCH   4   6
ENDBRANCH   2   4
TORSDOF 4
ENDMDL
MODEL      256
REMARK 921   NORMALIZED FREE ENERGY PREDICTED BY IDOCK:   -1.61 KCAL/MOL
REMARK 922        TOTAL FREE ENERGY PREDICTED BY IDOCK:   -2.23 KCAL/MOL
REMARK 923 INTER-LIGAND FREE ENERGY PREDICTED BY IDOCK:   -2.05 KCAL/MOL
REMARK 924 INTRA-LIGAND FREE ENERGY PREDICTED BY IDOCK:   -0.18 KCAL/MOL
REMARK 927      BINDING AFFINITY PREDICTED BY RF-SCORE:    0.00 PKD
ROOT
HETATM    1  C   UNL     1      -8.324   7.442  65.515  1.00  0.00    -0.135 C  
HETATM    2  N   UNL     1      -9.564   8.008  66.032  1.00  0.00    -0.437 NA 
HETATM    3  H   UNL     1     -10.253   8.109  65.287  1.00  0.00     0.000 HD 
ENDROOT
BRANCH   2   4
HETATM    4  C   UNL     1     -10.131   7.255  67.167  1.00  0.00    -0.236 C  
HETATM    5  C   UNL     1     -10.585   5.853  66.746  1.00  0.00    -0.368 C  
BRANCH   4   6
HETATM    6  C   UNL     1      -9.055   7.193  68.278  1.00  0.00    -0.134 C  
BRANCH   6   7
HETATM    7  C   UNL     1      -9.323   8.173  69.425  1.00  0.00    -0.155 C  
BRANCH   7   8
HETATM    8  C   UNL     1      -9.851   7.498  70.661  1.00  0.00    -0.179 C  
HETATM    9  C   UNL     1      -9.132   6.853  71.599  1.00  0.00    -0.139 C  
HETATM   10  C   UNL     1      -7.652   6.600  71.518  1.00  0.00    -0.089 C  
HETATM   11  C   UNL     1      -9.792   6.314  72.841  1.00  0.00    -0.174 C  
ENDBRANCH   7   8
ENDBRANCH   6   7
ENDBRANCH   4   6
ENDBRANCH   2   4
TORSDOF 4
ENDMDL
MODEL      257
REMARK 921   NORMALIZED FREE ENERGY PREDICTED BY IDOCK:   -1.61 KCAL/MOL
REMARK 922        TOTAL FREE ENERGY PREDICTED BY IDOCK:   -2.23 KCAL/MOL
REMARK 923 INTER-LIGAND FREE ENERGY PREDICTED BY IDOCK:   -1.93 KCAL/MOL
REMARK 924 INTRA-LIGAND FREE ENERGY PREDICTED BY IDOCK:   -0.29 KCAL/MOL
REMARK 927      BINDING AFFINITY PREDICTED BY RF-SCORE:    0.00 PKD
ROOT
HETATM    1  C   UNL     1      -9.853   7.847  69.021  1.00  0.00    -0.171 C  
HETATM    2  N   UNL     1     -10.677   7.949  67.823  1.00  0.00    -0.465 NA 
HETATM    3  H   UNL     1     -11.370   8.691  67.924  1.00  0.00     0.000 HD 
ENDROOT
BRANCH   2   4
HETATM    4  C   UNL     1      -9.898   8.130  66.583  1.00  0.00    -0.261 C  
HETATM    5  C   UNL     1      -9.947   9.580  66.089  1.00  0.00    -0.342 C  
BRANCH   4   6
HETATM    6  C   UNL     1      -8.446   7.676  66.866  1.00  0.00    -0.126 C  
BRANCH   6   7
HETATM    7  C   UNL     1      -8.082   6.365  66.162  1.00  0.00    -0.117 C  
BRANCH   7   8
HETATM    8  C   UNL     1      -7.523   5.330  67.100  1.00  0.00    -0.084 C  
HETATM    9  C   UNL     1      -8.177   4.273  67.619  1.00  0.00    -0.098 C  
HETATM   10  C   UNL     1      -9.642   3.996  67.427  1.00  0.00    -0.222 C  
HETATM   11  C   UNL     1      -7.453   3.261  68.467  1.00  0.00    -0.049 C  
ENDBRANCH   7   8
ENDBRANCH   6   7
ENDBRANCH   4   6
ENDBRANCH   2   4
TORSDOF 4
ENDMDL
MODEL      258
REMARK 921   NORMALIZED FREE ENERGY PREDICTED BY IDOCK:   -1.61 KCAL/MOL
REMARK 922        TOTAL FREE ENERGY PREDICTED BY IDOCK:   -2.22 KCAL/MOL
REMARK 923 INTER-LIGAND FREE ENERGY PREDICTED BY IDOCK:   -2.04 KCAL/MOL
REMARK 924 INTRA-LIGAND FREE ENERGY PREDICTED BY IDOCK:   -0.18 KCAL/MOL
REMARK 927      BINDING AFFINITY PREDICTED BY RF-SCORE:    0.00 PKD
ROOT
HETATM    1  C   UNL     1      -6.900   9.209  64.730  1.00  0.00    -0.085 C  
HETATM    2  N   UNL     1      -7.721  10.381  64.449  1.00  0.00    -0.304 NA 
HETATM    3  H   UNL     1      -8.241  10.255  63.581  1.00  0.00     0.000 HD 
ENDROOT
BRANCH   2   4
HETATM    4  C   UNL     1      -8.628  10.746  65.553  1.00  0.00    -0.176 C  
HETATM    5  C   UNL     1     -10.056  10.249  65.302  1.00  0.00    -0.359 C  
BRANCH   4   6
HETATM    6  C   UNL     1      -8.044  10.159  66.860  1.00  0.00    -0.121 C  
BRANCH   6   7
HETATM    7  C   UNL     1      -9.065   9.340  67.656  1.00  0.00    -0.136 C  
BRANCH   7   8
HETATM    8  C   UNL     1      -8.768   9.307  69.131  1.00  0.00    -0.139 C  
HETATM    9  C   UNL     1      -9.482   8.678  70.084  1.00  0.00    -0.172 C  
HETATM   10  C   UNL     1     -10.786   7.968  69.848  1.00  0.00    -0.242 C  
HETATM   11  C   UNL     1      -9.002   8.649  71.512  1.00  0.00    -0.302 C  
ENDBRANCH   7   8
ENDBRANCH   6   7
ENDBRANCH   4   6
ENDBRANCH   2   4
TORSDOF 4
ENDMDL
MODEL      259
REMARK 921   NORMALIZED FREE ENERGY PREDICTED BY IDOCK:   -1.59 KCAL/MOL
REMARK 922        TOTAL FREE ENERGY PREDICTED BY IDOCK:   -2.19 KCAL/MOL
REMARK 923 INTER-LIGAND FREE ENERGY PREDICTED BY IDOCK:   -1.86 KCAL/MOL
REMARK 924 INTRA-LIGAND FREE ENERGY PREDICTED BY IDOCK:   -0.34 KCAL/MOL
REMARK 927      BINDING AFFINITY PREDICTED BY RF-SCORE:    0.00 PKD
ROOT
HETATM    1  C   UNL     1     -11.028  19.465  65.938  1.00  0.00    -0.155 C  
HETATM    2  N   UNL     1      -9.626  19.101  65.768  1.00  0.00    -0.352 NA 
HETATM    3  H   UNL     1      -9.023  19.906  65.937  1.00  0.00     0.000 HD 
ENDROOT
BRANCH   2   4
HETATM    4  C   UNL     1      -9.208  17.954  66.595  1.00  0.00    -0.278 C  
HETATM    5  C   UNL     1     -10.116  17.775  67.818  1.00  0.00    -0.345 C  
BRANCH   4   6
HETATM    6  C   UNL     1      -9.214  16.695  65.696  1.00  0.00     0.160 C  
BRANCH   6   7
HETATM    7  C   UNL     1      -8.693  15.445  66.412  1.00  0.00    -0.307 C  
BRANCH   7   8
HETATM    8  C   UNL     1      -7.287  15.606  66.924  1.00  0.00    -0.127 C  
HETATM    9  C   UNL     1      -6.889  15.589  68.210  1.00  0.00    -0.120 C  
HETATM   10  C   UNL     1      -7.815  15.507  69.391  1.00  0.00    -0.231 C  
HETATM   11  C   UNL     1      -5.427  15.660  68.564  1.00  0.00    -0.104 C  
ENDBRANCH   7   8
ENDBRANCH   6   7
ENDBRANCH   4   6
ENDBRANCH   2   4
TORSDOF 4
ENDMDL
MODEL      260
REMARK 921   NORMALIZED FREE ENERGY PREDICTED BY IDOCK:   -1.58 KCAL/MOL
REMARK 922        TOTAL FREE ENERGY PREDICTED BY IDOCK:   -2.19 KCAL/MOL
REMARK 923 INTER-LIGAND FREE ENERGY PREDICTED BY IDOCK:   -2.03 KCAL/MOL
REMARK 924 INTRA-LIGAND FREE ENERGY PREDICTED BY IDOCK:   -0.16 KCAL/MOL
REMARK 927      BINDING AFFINITY PREDICTED BY RF-SCORE:    0.00 PKD
ROOT
HETATM    1  C   UNL     1      -8.040   6.784  70.459  1.00  0.00    -0.116 C  
HETATM    2  N   UNL     1      -8.641   7.075  69.163  1.00  0.00    -0.132 NA 
HETATM    3  H   UNL     1      -9.504   7.607  69.278  1.00  0.00     0.000 HD 
ENDROOT
BRANCH   2   4
HETATM    4  C   UNL     1      -7.728   7.758  68.227  1.00  0.00    -0.119 C  
HETATM    5  C   UNL     1      -6.682   6.796  67.652  1.00  0.00    -0.071 C  
BRANCH   4   6
HETATM    6  C   UNL     1      -8.587   8.396  67.109  1.00  0.00    -0.123 C  
BRANCH   6   7
HETATM    7  C   UNL     1     -10.086   8.387  67.428  1.00  0.00    -0.301 C  
BRANCH   7   8
HETATM    8  C   UNL     1     -10.593   9.723  67.899  1.00  0.00    -0.310 C  
HETATM    9  C   UNL     1     -10.930  10.776  67.131  1.00  0.00    -0.324 C  
HETATM   10  C   UNL     1     -10.756  10.836  65.639  1.00  0.00    -0.142 C  
HETATM   11  C   UNL     1     -11.523  12.018  67.742  1.00  0.00    -0.394 C  
ENDBRANCH   7   8
ENDBRANCH   6   7
ENDBRANCH   4   6
ENDBRANCH   2   4
TORSDOF 4
ENDMDL
MODEL      261
REMARK 921   NORMALIZED FREE ENERGY PREDICTED BY IDOCK:   -1.58 KCAL/MOL
REMARK 922        TOTAL FREE ENERGY PREDICTED BY IDOCK:   -2.19 KCAL/MOL
REMARK 923 INTER-LIGAND FREE ENERGY PREDICTED BY IDOCK:   -1.87 KCAL/MOL
REMARK 924 INTRA-LIGAND FREE ENERGY PREDICTED BY IDOCK:   -0.31 KCAL/MOL
REMARK 927      BINDING AFFINITY PREDICTED BY RF-SCORE:    0.00 PKD
ROOT
HETATM    1  C   UNL     1     -10.076   6.573  66.929  1.00  0.00    -0.192 C  
HETATM    2  N   UNL     1      -8.842   6.713  67.693  1.00  0.00    -0.118 NA 
HETATM    3  H   UNL     1      -8.250   7.439  67.289  1.00  0.00     0.000 HD 
ENDROOT
BRANCH   2   4
HETATM    4  C   UNL     1      -9.060   6.958  69.131  1.00  0.00    -0.136 C  
HETATM    5  C   UNL     1      -8.536   8.333  69.558  1.00  0.00    -0.125 C  
BRANCH   4   6
HETATM    6  C   UNL     1     -10.576   6.817  69.410  1.00  0.00    -0.265 C  
BRANCH   6   7
HETATM    7  C   UNL     1     -10.898   5.701  70.410  1.00  0.00    -0.326 C  
BRANCH   7   8
HETATM    8  C   UNL     1     -10.456   6.024  71.811  1.00  0.00    -0.268 C  
HETATM    9  C   UNL     1      -9.586   5.325  72.565  1.00  0.00    -0.171 C  
HETATM   10  C   UNL     1      -8.970   4.013  72.165  1.00  0.00    -0.145 C  
HETATM   11  C   UNL     1      -9.161   5.830  73.918  1.00  0.00    -0.126 C  
ENDBRANCH   7   8
ENDBRANCH   6   7
ENDBRANCH   4   6
ENDBRANCH   2   4
TORSDOF 4
ENDMDL
MODEL      262
REMARK 921   NORMALIZED FREE ENERGY PREDICTED BY IDOCK:   -1.58 KCAL/MOL
REMARK 922        TOTAL FREE ENERGY PREDICTED BY IDOCK:   -2.18 KCAL/MOL
REMARK 923 INTER-LIGAND FREE ENERGY PREDICTED BY IDOCK:   -2.02 KCAL/MOL
REMARK 924 INTRA-LIGAND FREE ENERGY PREDICTED BY IDOCK:   -0.17 KCAL/MOL
REMARK 927      BINDING AFFINITY PREDICTED BY RF-SCORE:    0.00 PKD
ROOT
HETATM    1  C   UNL     1      -6.986  15.258  68.987  1.00  0.00    -0.136 C  
HETATM    2  N   UNL     1      -6.999  15.257  67.529  1.00  0.00    -0.186 NA 
HETATM    3  H   UNL     1      -7.860  14.839  67.177  1.00  0.00     0.000 HD 
ENDROOT
BRANCH   2   4
HETATM    4  C   UNL     1      -6.787  16.591  66.936  1.00  0.00    -0.213 C  
HETATM    5  C   UNL     1      -8.100  17.372  66.812  1.00  0.00    -0.282 C  
BRANCH   4   6
HETATM    6  C   UNL     1      -5.760  17.342  67.816  1.00  0.00    -0.140 C  
BRANCH   6   7
HETATM    7  C   UNL     1      -5.521  18.785  67.357  1.00  0.00    -0.153 C  
BRANCH   7   8
HETATM    8  C   UNL     1      -5.179  18.887  65.896  1.00  0.00    -0.171 C  
HETATM    9  C   UNL     1      -5.846  19.585  64.958  1.00  0.00    -0.263 C  
HETATM   10  C   UNL     1      -7.138  20.318  65.193  1.00  0.00    -0.170 C  
HETATM   11  C   UNL     1      -5.323  19.677  63.548  1.00  0.00    -0.302 C  
ENDBRANCH   7   8
ENDBRANCH   6   7
ENDBRANCH   4   6
ENDBRANCH   2   4
TORSDOF 4
ENDMDL
MODEL      263
REMARK 921   NORMALIZED FREE ENERGY PREDICTED BY IDOCK:   -1.57 KCAL/MOL
REMARK 922        TOTAL FREE ENERGY PREDICTED BY IDOCK:   -2.18 KCAL/MOL
REMARK 923 INTER-LIGAND FREE ENERGY PREDICTED BY IDOCK:   -2.01 KCAL/MOL
REMARK 924 INTRA-LIGAND FREE ENERGY PREDICTED BY IDOCK:   -0.16 KCAL/MOL
REMARK 927      BINDING AFFINITY PREDICTED BY RF-SCORE:    0.00 PKD
ROOT
HETATM    1  C   UNL     1     -10.377   7.992  69.523  1.00  0.00    -0.221 C  
HETATM    2  N   UNL     1     -11.463   7.049  69.763  1.00  0.00    -0.529 NA 
HETATM    3  H   UNL     1     -12.029   6.931  68.923  1.00  0.00     0.000 HD 
ENDROOT
BRANCH   2   4
HETATM    4  C   UNL     1     -11.009   5.742  70.273  1.00  0.00    -0.276 C  
HETATM    5  C   UNL     1     -10.083   5.034  69.277  1.00  0.00    -0.270 C  
BRANCH   4   6
HETATM    6  C   UNL     1     -10.304   5.983  71.630  1.00  0.00    -0.260 C  
BRANCH   6   7
HETATM    7  C   UNL     1      -8.825   5.584  71.615  1.00  0.00    -0.141 C  
BRANCH   7   8
HETATM    8  C   UNL     1      -7.999   6.356  72.607  1.00  0.00    -0.104 C  
HETATM    9  C   UNL     1      -7.013   5.874  73.386  1.00  0.00    -0.085 C  
HETATM   10  C   UNL     1      -6.627   4.423  73.477  1.00  0.00    -0.053 C  
HETATM   11  C   UNL     1      -6.202   6.793  74.261  1.00  0.00    -0.071 C  
ENDBRANCH   7   8
ENDBRANCH   6   7
ENDBRANCH   4   6
ENDBRANCH   2   4
TORSDOF 4
ENDMDL
MODEL      264
REMARK 921   NORMALIZED FREE ENERGY PREDICTED BY IDOCK:   -1.56 KCAL/MOL
REMARK 922        TOTAL FREE ENERGY PREDICTED BY IDOCK:   -2.16 KCAL/MOL
REMARK 923 INTER-LIGAND FREE ENERGY PREDICTED BY IDOCK:   -1.99 KCAL/MOL
REMARK 924 INTRA-LIGAND FREE ENERGY PREDICTED BY IDOCK:   -0.17 KCAL/MOL
REMARK 927      BINDING AFFINITY PREDICTED BY RF-SCORE:    0.00 PKD
ROOT
HETATM    1  C   UNL     1      -8.221   3.953  68.199  1.00  0.00    -0.087 C  
HETATM    2  N   UNL     1      -9.481   4.629  68.483  1.00  0.00    -0.138 NA 
HETATM    3  H   UNL     1      -9.420   5.149  69.358  1.00  0.00     0.000 HD 
ENDROOT
BRANCH   2   4
HETATM    4  C   UNL     1      -9.945   5.502  67.389  1.00  0.00    -0.162 C  
HETATM    5  C   UNL     1     -10.747   4.721  66.341  1.00  0.00    -0.060 C  
BRANCH   4   6
HETATM    6  C   UNL     1     -10.785   6.640  68.015  1.00  0.00    -0.330 C  
BRANCH   6   7
HETATM    7  C   UNL     1     -10.533   8.001  67.357  1.00  0.00    -0.357 C  
BRANCH   7   8
HETATM    8  C   UNL     1      -9.378   7.982  66.394  1.00  0.00    -0.259 C  
HETATM    9  C   UNL     1      -8.885   9.028  65.704  1.00  0.00    -0.224 C  
HETATM   10  C   UNL     1      -9.483  10.407  65.698  1.00  0.00    -0.262 C  
HETATM   11  C   UNL     1      -7.652   8.876  64.852  1.00  0.00    -0.108 C  
ENDBRANCH   7   8
ENDBRANCH   6   7
ENDBRANCH   4   6
ENDBRANCH   2   4
TORSDOF 4
ENDMDL
MODEL      265
REMARK 921   NORMALIZED FREE ENERGY PREDICTED BY IDOCK:   -1.54 KCAL/MOL
REMARK 922        TOTAL FREE ENERGY PREDICTED BY IDOCK:   -2.14 KCAL/MOL
REMARK 923 INTER-LIGAND FREE ENERGY PREDICTED BY IDOCK:   -1.90 KCAL/MOL
REMARK 924 INTRA-LIGAND FREE ENERGY PREDICTED BY IDOCK:   -0.24 KCAL/MOL
REMARK 927      BINDING AFFINITY PREDICTED BY RF-SCORE:    0.00 PKD
ROOT
HETATM    1  C   UNL     1      -5.829   4.562  69.920  1.00  0.00    -0.017 C  
HETATM    2  N   UNL     1      -6.624   3.587  69.183  1.00  0.00    -0.033 NA 
HETATM    3  H   UNL     1      -7.002   2.880  69.815  1.00  0.00     0.000 HD 
ENDROOT
BRANCH   2   4
HETATM    4  C   UNL     1      -7.699   4.190  68.373  1.00  0.00    -0.070 C  
HETATM    5  C   UNL     1      -8.716   3.141  67.908  1.00  0.00    -0.134 C  
BRANCH   4   6
HETATM    6  C   UNL     1      -8.371   5.293  69.225  1.00  0.00    -0.091 C  
BRANCH   6   7
HETATM    7  C   UNL     1      -9.630   5.871  68.570  1.00  0.00    -0.142 C  
BRANCH   7   8
HETATM    8  C   UNL     1     -10.812   5.905  69.499  1.00  0.00    -0.442 C  
HETATM    9  C   UNL     1     -11.167   6.913  70.318  1.00  0.00    -0.363 C  
HETATM   10  C   UNL     1     -10.367   8.169  70.526  1.00  0.00    -0.211 C  
HETATM   11  C   UNL     1     -12.441   6.844  71.118  1.00  0.00    -0.398 C  
ENDBRANCH   7   8
ENDBRANCH   6   7
ENDBRANCH   4   6
ENDBRANCH   2   4
TORSDOF 4
ENDMDL
MODEL      266
REMARK 921   NORMALIZED FREE ENERGY PREDICTED BY IDOCK:   -1.50 KCAL/MOL
REMARK 922        TOTAL FREE ENERGY PREDICTED BY IDOCK:   -2.08 KCAL/MOL
REMARK 923 INTER-LIGAND FREE ENERGY PREDICTED BY IDOCK:   -1.90 KCAL/MOL
REMARK 924 INTRA-LIGAND FREE ENERGY PREDICTED BY IDOCK:   -0.18 KCAL/MOL
REMARK 927      BINDING AFFINITY PREDICTED BY RF-SCORE:    0.00 PKD
ROOT
HETATM    1  C   UNL     1      -8.709   4.812  64.133  1.00  0.00    -0.141 C  
HETATM    2  N   UNL     1      -9.428   3.694  64.731  1.00  0.00    -0.151 NA 
HETATM    3  H   UNL     1      -9.846   3.107  64.009  1.00  0.00     0.000 HD 
ENDROOT
BRANCH   2   4
HETATM    4  C   UNL     1      -8.606   2.884  65.649  1.00  0.00    -0.116 C  
HETATM    5  C   UNL     1      -7.284   2.459  65.001  1.00  0.00    -0.058 C  
BRANCH   4   6
HETATM    6  C   UNL     1      -8.366   3.719  66.930  1.00  0.00    -0.100 C  
BRANCH   6   7
HETATM    7  C   UNL     1      -9.412   3.457  68.019  1.00  0.00    -0.213 C  
BRANCH   7   8
HETATM    8  C   UNL     1      -9.339   4.444  69.152  1.00  0.00    -0.221 C  
HETATM    9  C   UNL     1     -10.069   5.567  69.294  1.00  0.00    -0.293 C  
HETATM   10  C   UNL     1     -11.033   6.095  68.268  1.00  0.00    -0.397 C  
HETATM   11  C   UNL     1      -9.957   6.406  70.539  1.00  0.00    -0.214 C  
ENDBRANCH   7   8
ENDBRANCH   6   7
ENDBRANCH   4   6
ENDBRANCH   2   4
TORSDOF 4
ENDMDL
MODEL      267
REMARK 921   NORMALIZED FREE ENERGY PREDICTED BY IDOCK:   -1.49 KCAL/MOL
REMARK 922        TOTAL FREE ENERGY PREDICTED BY IDOCK:   -2.07 KCAL/MOL
REMARK 923 INTER-LIGAND FREE ENERGY PREDICTED BY IDOCK:   -1.82 KCAL/MOL
REMARK 924 INTRA-LIGAND FREE ENERGY PREDICTED BY IDOCK:   -0.25 KCAL/MOL
REMARK 927      BINDING AFFINITY PREDICTED BY RF-SCORE:    0.00 PKD
ROOT
HETATM    1  C   UNL     1      -8.348   5.429  68.208  1.00  0.00    -0.098 C  
HETATM    2  N   UNL     1      -9.251   6.570  68.114  1.00  0.00    -0.114 NA 
HETATM    3  H   UNL     1      -9.688   6.608  67.194  1.00  0.00     0.000 HD 
ENDROOT
BRANCH   2   4
HETATM    4  C   UNL     1     -10.272   6.605  69.178  1.00  0.00    -0.179 C  
HETATM    5  C   UNL     1     -10.199   5.365  70.076  1.00  0.00    -0.349 C  
BRANCH   4   6
HETATM    6  C   UNL     1     -10.066   7.906  69.990  1.00  0.00    -0.199 C  
BRANCH   6   7
HETATM    7  C   UNL     1      -9.015   8.835  69.374  1.00  0.00    -0.145 C  
BRANCH   7   8
HETATM    8  C   UNL     1      -9.608  10.092  68.797  1.00  0.00    -0.168 C  
HETATM    9  C   UNL     1      -9.555  10.495  67.514  1.00  0.00    -0.181 C  
HETATM   10  C   UNL     1      -8.786   9.794  66.428  1.00  0.00    -0.144 C  
HETATM   11  C   UNL     1     -10.287  11.732  67.064  1.00  0.00    -0.243 C  
ENDBRANCH   7   8
ENDBRANCH   6   7
ENDBRANCH   4   6
ENDBRANCH   2   4
TORSDOF 4
ENDMDL
MODEL      268
REMARK 921   NORMALIZED FREE ENERGY PREDICTED BY IDOCK:   -1.49 KCAL/MOL
REMARK 922        TOTAL FREE ENERGY PREDICTED BY IDOCK:   -2.07 KCAL/MOL
REMARK 923 INTER-LIGAND FREE ENERGY PREDICTED BY IDOCK:   -1.75 KCAL/MOL
REMARK 924 INTRA-LIGAND FREE ENERGY PREDICTED BY IDOCK:   -0.31 KCAL/MOL
REMARK 927      BINDING AFFINITY PREDICTED BY RF-SCORE:    0.00 PKD
ROOT
HETATM    1  C   UNL     1      -9.469   4.215  64.588  1.00  0.00    -0.168 C  
HETATM    2  N   UNL     1     -10.169   4.159  65.866  1.00  0.00    -0.431 NA 
HETATM    3  H   UNL     1     -10.841   3.391  65.875  1.00  0.00     0.000 HD 
ENDROOT
BRANCH   2   4
HETATM    4  C   UNL     1      -9.269   4.078  67.031  1.00  0.00    -0.168 C  
HETATM    5  C   UNL     1      -8.608   2.699  67.143  1.00  0.00    -0.120 C  
BRANCH   4   6
HETATM    6  C   UNL     1      -8.215   5.202  66.894  1.00  0.00    -0.108 C  
BRANCH   6   7
HETATM    7  C   UNL     1      -8.681   6.534  67.491  1.00  0.00    -0.114 C  
BRANCH   7   8
HETATM    8  C   UNL     1      -9.627   6.360  68.647  1.00  0.00    -0.121 C  
HETATM    9  C   UNL     1      -9.299   6.228  69.946  1.00  0.00    -0.158 C  
HETATM   10  C   UNL     1      -7.892   6.125  70.467  1.00  0.00    -0.106 C  
HETATM   11  C   UNL     1     -10.366   6.165  71.007  1.00  0.00    -0.260 C  
ENDBRANCH   7   8
ENDBRANCH   6   7
ENDBRANCH   4   6
ENDBRANCH   2   4
TORSDOF 4
ENDMDL
MODEL      269
REMARK 921   NORMALIZED FREE ENERGY PREDICTED BY IDOCK:   -1.48 KCAL/MOL
REMARK 922        TOTAL FREE ENERGY PREDICTED BY IDOCK:   -2.06 KCAL/MOL
REMARK 923 INTER-LIGAND FREE ENERGY PREDICTED BY IDOCK:   -1.71 KCAL/MOL
REMARK 924 INTRA-LIGAND FREE ENERGY PREDICTED BY IDOCK:   -0.35 KCAL/MOL
REMARK 927      BINDING AFFINITY PREDICTED BY RF-SCORE:    0.00 PKD
ROOT
HETATM    1  C   UNL     1      -9.881   7.850  69.022  1.00  0.00    -0.171 C  
HETATM    2  N   UNL     1     -10.756   7.942  67.859  1.00  0.00    -0.442 NA 
HETATM    3  H   UNL     1     -11.452   8.676  67.989  1.00  0.00     0.000 HD 
ENDROOT
BRANCH   2   4
HETATM    4  C   UNL     1     -10.031   8.131  66.587  1.00  0.00    -0.269 C  
HETATM    5  C   UNL     1     -10.127   9.577  66.089  1.00  0.00    -0.326 C  
BRANCH   4   6
HETATM    6  C   UNL     1      -8.561   7.705  66.813  1.00  0.00    -0.129 C  
BRANCH   6   7
HETATM    7  C   UNL     1      -7.562   8.566  66.034  1.00  0.00    -0.089 C  
BRANCH   7   8
HETATM    8  C   UNL     1      -6.628   7.754  65.179  1.00  0.00    -0.047 C  
HETATM    9  C   UNL     1      -6.719   7.551  63.851  1.00  0.00    -0.053 C  
HETATM   10  C   UNL     1      -7.855   8.029  62.989  1.00  0.00    -0.148 C  
HETATM   11  C   UNL     1      -5.647   6.796  63.111  1.00  0.00    -0.035 C  
ENDBRANCH   7   8
ENDBRANCH   6   7
ENDBRANCH   4   6
ENDBRANCH   2   4
TORSDOF 4
ENDMDL
MODEL      270
REMARK 921   NORMALIZED FREE ENERGY PREDICTED BY IDOCK:   -1.43 KCAL/MOL
REMARK 922        TOTAL FREE ENERGY PREDICTED BY IDOCK:   -2.00 KCAL/MOL
REMARK 923 INTER-LIGAND FREE ENERGY PREDICTED BY IDOCK:   -1.80 KCAL/MOL
REMARK 924 INTRA-LIGAND FREE ENERGY PREDICTED BY IDOCK:   -0.20 KCAL/MOL
REMARK 927      BINDING AFFINITY PREDICTED BY RF-SCORE:    0.00 PKD
ROOT
HETATM    1  C   UNL     1      -8.095   5.855  72.295  1.00  0.00    -0.107 C  
HETATM    2  N   UNL     1      -9.104   4.813  72.156  1.00  0.00    -0.126 NA 
HETATM    3  H   UNL     1      -9.622   4.694  73.026  1.00  0.00     0.000 HD 
ENDROOT
BRANCH   2   4
HETATM    4  C   UNL     1     -10.027   5.030  71.026  1.00  0.00    -0.211 C  
HETATM    5  C   UNL     1     -11.025   6.157  71.317  1.00  0.00    -0.340 C  
BRANCH   4   6
HETATM    6  C   UNL     1      -9.175   5.336  69.771  1.00  0.00    -0.167 C  
BRANCH   6   7
HETATM    7  C   UNL     1      -9.834   6.353  68.834  1.00  0.00    -0.152 C  
BRANCH   7   8
HETATM    8  C   UNL     1      -8.859   6.997  67.887  1.00  0.00    -0.124 C  
HETATM    9  C   UNL     1      -9.111   8.001  67.026  1.00  0.00    -0.170 C  
HETATM   10  C   UNL     1     -10.470   8.598  66.783  1.00  0.00    -0.298 C  
HETATM   11  C   UNL     1      -8.003   8.614  66.211  1.00  0.00    -0.102 C  
ENDBRANCH   7   8
ENDBRANCH   6   7
ENDBRANCH   4   6
ENDBRANCH   2   4
TORSDOF 4
ENDMDL
MODEL      271
REMARK 921   NORMALIZED FREE ENERGY PREDICTED BY IDOCK:   -1.38 KCAL/MOL
REMARK 922        TOTAL FREE ENERGY PREDICTED BY IDOCK:   -1.93 KCAL/MOL
REMARK 923 INTER-LIGAND FREE ENERGY PREDICTED BY IDOCK:   -1.68 KCAL/MOL
REMARK 924 INTRA-LIGAND FREE ENERGY PREDICTED BY IDOCK:   -0.25 KCAL/MOL
REMARK 927      BINDING AFFINITY PREDICTED BY RF-SCORE:    0.00 PKD
ROOT
HETATM    1  C   UNL     1      -6.128   3.516  68.582  1.00  0.00    -0.028 C  
HETATM    2  N   UNL     1      -7.504   3.181  68.932  1.00  0.00    -0.049 NA 
HETATM    3  H   UNL     1      -7.627   2.170  68.978  1.00  0.00     0.000 HD 
ENDROOT
BRANCH   2   4
HETATM    4  C   UNL     1      -7.970   3.821  70.176  1.00  0.00    -0.047 C  
HETATM    5  C   UNL     1      -6.798   4.268  71.058  1.00  0.00    -0.036 C  
BRANCH   4   6
HETATM    6  C   UNL     1      -8.873   5.015  69.785  1.00  0.00    -0.125 C  
BRANCH   6   7
HETATM    7  C   UNL     1     -10.252   4.965  70.451  1.00  0.00    -0.292 C  
BRANCH   7   8
HETATM    8  C   UNL     1     -10.797   6.330  70.773  1.00  0.00    -0.339 C  
HETATM    9  C   UNL     1     -10.438   7.122  71.801  1.00  0.00    -0.219 C  
HETATM   10  C   UNL     1      -9.480   6.727  72.890  1.00  0.00    -0.156 C  
HETATM   11  C   UNL     1     -11.000   8.512  71.936  1.00  0.00    -0.394 C  
ENDBRANCH   7   8
ENDBRANCH   6   7
ENDBRANCH   4   6
ENDBRANCH   2   4
TORSDOF 4
ENDMDL
MODEL      272
REMARK 921   NORMALIZED FREE ENERGY PREDICTED BY IDOCK:   -1.36 KCAL/MOL
REMARK 922        TOTAL FREE ENERGY PREDICTED BY IDOCK:   -1.91 KCAL/MOL
REMARK 923 INTER-LIGAND FREE ENERGY PREDICTED BY IDOCK:   -1.46 KCAL/MOL
REMARK 924 INTRA-LIGAND FREE ENERGY PREDICTED BY IDOCK:   -0.45 KCAL/MOL
REMARK 927      BINDING AFFINITY PREDICTED BY RF-SCORE:    0.00 PKD
ROOT
HETATM    1  C   UNL     1     -10.013   9.115  66.257  1.00  0.00    -0.282 C  
HETATM    2  N   UNL     1      -9.152  10.289  66.323  1.00  0.00    -0.151 NA 
HETATM    3  H   UNL     1      -8.561  10.256  67.154  1.00  0.00     0.000 HD 
ENDROOT
BRANCH   2   4
HETATM    4  C   UNL     1      -8.335  10.493  65.112  1.00  0.00    -0.150 C  
HETATM    5  C   UNL     1      -6.835  10.428  65.421  1.00  0.00    -0.120 C  
BRANCH   4   6
HETATM    6  C   UNL     1      -8.748   9.419  64.076  1.00  0.00    -0.225 C  
BRANCH   6   7
HETATM    7  C   UNL     1      -7.564   8.589  63.571  1.00  0.00    -0.127 C  
BRANCH   7   8
HETATM    8  C   UNL     1      -7.838   7.109  63.584  1.00  0.00    -0.106 C  
HETATM    9  C   UNL     1      -7.769   6.284  64.646  1.00  0.00    -0.105 C  
HETATM   10  C   UNL     1      -7.295   6.689  66.014  1.00  0.00    -0.076 C  
HETATM   11  C   UNL     1      -8.172   4.838  64.526  1.00  0.00    -0.115 C  
ENDBRANCH   7   8
ENDBRANCH   6   7
ENDBRANCH   4   6
ENDBRANCH   2   4
TORSDOF 4
ENDMDL
MODEL      273
REMARK 921   NORMALIZED FREE ENERGY PREDICTED BY IDOCK:   -1.31 KCAL/MOL
REMARK 922        TOTAL FREE ENERGY PREDICTED BY IDOCK:   -1.85 KCAL/MOL
REMARK 923 INTER-LIGAND FREE ENERGY PREDICTED BY IDOCK:   -1.57 KCAL/MOL
REMARK 924 INTRA-LIGAND FREE ENERGY PREDICTED BY IDOCK:   -0.28 KCAL/MOL
REMARK 927      BINDING AFFINITY PREDICTED BY RF-SCORE:    0.00 PKD
ROOT
HETATM    1  C   UNL     1      -7.803   7.514  67.156  1.00  0.00    -0.117 C  
HETATM    2  N   UNL     1      -7.569   8.085  68.476  1.00  0.00    -0.102 NA 
HETATM    3  H   UNL     1      -8.323   8.723  68.731  1.00  0.00     0.000 HD 
ENDROOT
BRANCH   2   4
HETATM    4  C   UNL     1      -7.363   7.074  69.531  1.00  0.00    -0.094 C  
HETATM    5  C   UNL     1      -6.159   6.176  69.228  1.00  0.00    -0.029 C  
BRANCH   4   6
HETATM    6  C   UNL     1      -7.190   7.821  70.875  1.00  0.00    -0.054 C  
BRANCH   6   7
HETATM    7  C   UNL     1      -8.441   8.602  71.290  1.00  0.00    -0.226 C  
BRANCH   7   8
HETATM    8  C   UNL     1      -9.684   7.755  71.303  1.00  0.00    -0.179 C  
HETATM    9  C   UNL     1     -10.827   7.988  70.629  1.00  0.00    -0.240 C  
HETATM   10  C   UNL     1     -11.101   9.218  69.809  1.00  0.00    -0.168 C  
HETATM   11  C   UNL     1     -11.956   6.992  70.659  1.00  0.00    -0.361 C  
ENDBRANCH   7   8
ENDBRANCH   6   7
ENDBRANCH   4   6
ENDBRANCH   2   4
TORSDOF 4
ENDMDL
MODEL      274
REMARK 921   NORMALIZED FREE ENERGY PREDICTED BY IDOCK:   -1.30 KCAL/MOL
REMARK 922        TOTAL FREE ENERGY PREDICTED BY IDOCK:   -1.84 KCAL/MOL
REMARK 923 INTER-LIGAND FREE ENERGY PREDICTED BY IDOCK:   -1.62 KCAL/MOL
REMARK 924 INTRA-LIGAND FREE ENERGY PREDICTED BY IDOCK:   -0.22 KCAL/MOL
REMARK 927      BINDING AFFINITY PREDICTED BY RF-SCORE:    0.00 PKD
ROOT
HETATM    1  C   UNL     1     -10.316   7.979  70.192  1.00  0.00    -0.215 C  
HETATM    2  N   UNL     1     -11.406   7.034  70.404  1.00  0.00    -0.300 NA 
HETATM    3  H   UNL     1     -11.975   6.947  69.561  1.00  0.00     0.000 HD 
ENDROOT
BRANCH   2   4
HETATM    4  C   UNL     1     -10.958   5.708  70.870  1.00  0.00    -0.187 C  
HETATM    5  C   UNL     1     -10.095   5.000  69.821  1.00  0.00    -0.337 C  
BRANCH   4   6
HETATM    6  C   UNL     1     -10.188   5.909  72.197  1.00  0.00    -0.231 C  
BRANCH   6   7
HETATM    7  C   UNL     1      -8.825   5.211  72.209  1.00  0.00    -0.134 C  
BRANCH   7   8
HETATM    8  C   UNL     1      -8.812   3.964  73.051  1.00  0.00    -0.103 C  
HETATM    9  C   UNL     1      -7.817   3.061  73.141  1.00  0.00    -0.056 C  
HETATM   10  C   UNL     1      -6.559   3.089  72.319  1.00  0.00    -0.015 C  
HETATM   11  C   UNL     1      -7.906   1.911  74.109  1.00  0.00    -0.038 C  
ENDBRANCH   7   8
ENDBRANCH   6   7
ENDBRANCH   4   6
ENDBRANCH   2   4
TORSDOF 4
ENDMDL
MODEL      275
REMARK 921   NORMALIZED FREE ENERGY PREDICTED BY IDOCK:   -1.29 KCAL/MOL
REMARK 922        TOTAL FREE ENERGY PREDICTED BY IDOCK:   -1.83 KCAL/MOL
REMARK 923 INTER-LIGAND FREE ENERGY PREDICTED BY IDOCK:   -1.50 KCAL/MOL
REMARK 924 INTRA-LIGAND FREE ENERGY PREDICTED BY IDOCK:   -0.33 KCAL/MOL
REMARK 927      BINDING AFFINITY PREDICTED BY RF-SCORE:    0.00 PKD
ROOT
HETATM    1  C   UNL     1      -5.544   4.201  69.906  1.00  0.00    -0.016 C  
HETATM    2  N   UNL     1      -6.488   4.544  68.849  1.00  0.00    -0.036 NA 
HETATM    3  H   UNL     1      -7.212   3.831  68.767  1.00  0.00     0.000 HD 
ENDROOT
BRANCH   2   4
HETATM    4  C   UNL     1      -7.089   5.882  69.005  1.00  0.00    -0.069 C  
HETATM    5  C   UNL     1      -8.410   6.004  68.237  1.00  0.00    -0.113 C  
BRANCH   4   6
HETATM    6  C   UNL     1      -7.287   6.138  70.519  1.00  0.00    -0.085 C  
BRANCH   6   7
HETATM    7  C   UNL     1      -7.673   7.586  70.835  1.00  0.00    -0.090 C  
BRANCH   7   8
HETATM    8  C   UNL     1      -8.844   7.690  71.774  1.00  0.00    -0.139 C  
HETATM    9  C   UNL     1     -10.043   8.243  71.510  1.00  0.00    -0.270 C  
HETATM   10  C   UNL     1     -10.393   8.960  70.236  1.00  0.00    -0.235 C  
HETATM   11  C   UNL     1     -11.159   8.181  72.520  1.00  0.00    -0.446 C  
ENDBRANCH   7   8
ENDBRANCH   6   7
ENDBRANCH   4   6
ENDBRANCH   2   4
TORSDOF 4
ENDMDL
MODEL      276
REMARK 921   NORMALIZED FREE ENERGY PREDICTED BY IDOCK:   -1.24 KCAL/MOL
REMARK 922        TOTAL FREE ENERGY PREDICTED BY IDOCK:   -1.76 KCAL/MOL
REMARK 923 INTER-LIGAND FREE ENERGY PREDICTED BY IDOCK:   -1.45 KCAL/MOL
REMARK 924 INTRA-LIGAND FREE ENERGY PREDICTED BY IDOCK:   -0.31 KCAL/MOL
REMARK 927      BINDING AFFINITY PREDICTED BY RF-SCORE:    0.00 PKD
ROOT
HETATM    1  C   UNL     1      -8.409   3.284  69.229  1.00  0.00    -0.060 C  
HETATM    2  N   UNL     1      -7.351   4.269  69.419  1.00  0.00    -0.051 NA 
HETATM    3  H   UNL     1      -6.894   4.481  68.532  1.00  0.00     0.000 HD 
ENDROOT
BRANCH   2   4
HETATM    4  C   UNL     1      -7.807   5.507  70.079  1.00  0.00    -0.082 C  
HETATM    5  C   UNL     1      -7.563   5.467  71.591  1.00  0.00    -0.098 C  
BRANCH   4   6
HETATM    6  C   UNL     1      -7.071   6.696  69.416  1.00  0.00    -0.080 C  
BRANCH   6   7
HETATM    7  C   UNL     1      -8.012   7.837  69.019  1.00  0.00    -0.123 C  
BRANCH   7   8
HETATM    8  C   UNL     1      -9.351   7.350  68.533  1.00  0.00    -0.141 C  
HETATM    9  C   UNL     1      -9.671   6.989  67.276  1.00  0.00    -0.189 C  
HETATM   10  C   UNL     1      -8.753   7.109  66.091  1.00  0.00    -0.164 C  
HETATM   11  C   UNL     1     -11.030   6.422  66.960  1.00  0.00    -0.463 C  
ENDBRANCH   7   8
ENDBRANCH   6   7
ENDBRANCH   4   6
ENDBRANCH   2   4
TORSDOF 4
ENDMDL
MODEL      277
REMARK 921   NORMALIZED FREE ENERGY PREDICTED BY IDOCK:   -1.24 KCAL/MOL
REMARK 922        TOTAL FREE ENERGY PREDICTED BY IDOCK:   -1.76 KCAL/MOL
REMARK 923 INTER-LIGAND FREE ENERGY PREDICTED BY IDOCK:   -1.52 KCAL/MOL
REMARK 924 INTRA-LIGAND FREE ENERGY PREDICTED BY IDOCK:   -0.24 KCAL/MOL
REMARK 927      BINDING AFFINITY PREDICTED BY RF-SCORE:    0.00 PKD
ROOT
HETATM    1  C   UNL     1      -9.968  11.698  66.949  1.00  0.00    -0.202 C  
HETATM    2  N   UNL     1      -8.570  11.286  66.990  1.00  0.00    -0.143 NA 
HETATM    3  H   UNL     1      -8.224  11.284  67.950  1.00  0.00     0.000 HD 
ENDROOT
BRANCH   2   4
HETATM    4  C   UNL     1      -8.318   9.984  66.343  1.00  0.00    -0.126 C  
HETATM    5  C   UNL     1      -8.023  10.142  64.847  1.00  0.00    -0.150 C  
BRANCH   4   6
HETATM    6  C   UNL     1      -7.141   9.307  67.085  1.00  0.00    -0.086 C  
BRANCH   6   7
HETATM    7  C   UNL     1      -7.371   7.813  67.334  1.00  0.00    -0.092 C  
BRANCH   7   8
HETATM    8  C   UNL     1      -8.820   7.470  67.549  1.00  0.00    -0.127 C  
HETATM    9  C   UNL     1      -9.357   6.237  67.613  1.00  0.00    -0.116 C  
HETATM   10  C   UNL     1      -8.600   4.961  67.370  1.00  0.00    -0.104 C  
HETATM   11  C   UNL     1     -10.815   6.048  67.938  1.00  0.00    -0.378 C  
ENDBRANCH   7   8
ENDBRANCH   6   7
ENDBRANCH   4   6
ENDBRANCH   2   4
TORSDOF 4
ENDMDL
MODEL      278
REMARK 921   NORMALIZED FREE ENERGY PREDICTED BY IDOCK:   -1.20 KCAL/MOL
REMARK 922        TOTAL FREE ENERGY PREDICTED BY IDOCK:   -1.71 KCAL/MOL
REMARK 923 INTER-LIGAND FREE ENERGY PREDICTED BY IDOCK:   -1.40 KCAL/MOL
REMARK 924 INTRA-LIGAND FREE ENERGY PREDICTED BY IDOCK:   -0.32 KCAL/MOL
REMARK 927      BINDING AFFINITY PREDICTED BY RF-SCORE:    0.00 PKD
ROOT
HETATM    1  C   UNL     1      -7.419   7.865  69.893  1.00  0.00    -0.080 C  
HETATM    2  N   UNL     1      -8.285   6.925  69.190  1.00  0.00    -0.120 NA 
HETATM    3  H   UNL     1      -9.228   6.947  69.578  1.00  0.00     0.000 HD 
ENDROOT
BRANCH   2   4
HETATM    4  C   UNL     1      -8.317   7.129  67.730  1.00  0.00    -0.118 C  
HETATM    5  C   UNL     1      -7.991   5.838  66.970  1.00  0.00    -0.102 C  
BRANCH   4   6
HETATM    6  C   UNL     1      -9.719   7.667  67.358  1.00  0.00    -0.208 C  
BRANCH   6   7
HETATM    7  C   UNL     1      -9.671   9.035  66.668  1.00  0.00    -0.295 C  
BRANCH   7   8
HETATM    8  C   UNL     1      -8.391   9.780  66.933  1.00  0.00    -0.120 C  
HETATM    9  C   UNL     1      -7.420  10.058  66.043  1.00  0.00    -0.112 C  
HETATM   10  C   UNL     1      -7.397   9.569  64.621  1.00  0.00    -0.113 C  
HETATM   11  C   UNL     1      -6.238  10.906  66.432  1.00  0.00    -0.130 C  
ENDBRANCH   7   8
ENDBRANCH   6   7
ENDBRANCH   4   6
ENDBRANCH   2   4
TORSDOF 4
ENDMDL
MODEL      279
REMARK 921   NORMALIZED FREE ENERGY PREDICTED BY IDOCK:   -1.20 KCAL/MOL
REMARK 922        TOTAL FREE ENERGY PREDICTED BY IDOCK:   -1.71 KCAL/MOL
REMARK 923 INTER-LIGAND FREE ENERGY PREDICTED BY IDOCK:   -1.44 KCAL/MOL
REMARK 924 INTRA-LIGAND FREE ENERGY PREDICTED BY IDOCK:   -0.27 KCAL/MOL
REMARK 927      BINDING AFFINITY PREDICTED BY RF-SCORE:    0.00 PKD
ROOT
HETATM    1  C   UNL     1      -6.285   3.909  69.483  1.00  0.00    -0.028 C  
HETATM    2  N   UNL     1      -7.457   4.279  70.267  1.00  0.00    -0.045 NA 
HETATM    3  H   UNL     1      -8.027   3.458  70.470  1.00  0.00     0.000 HD 
ENDROOT
BRANCH   2   4
HETATM    4  C   UNL     1      -7.133   5.009  71.507  1.00  0.00    -0.054 C  
HETATM    5  C   UNL     1      -5.682   4.772  71.942  1.00  0.00    -0.012 C  
BRANCH   4   6
HETATM    6  C   UNL     1      -7.413   6.510  71.259  1.00  0.00    -0.089 C  
BRANCH   6   7
HETATM    7  C   UNL     1      -8.539   7.062  72.140  1.00  0.00    -0.117 C  
BRANCH   7   8
HETATM    8  C   UNL     1      -9.191   6.005  72.989  1.00  0.00    -0.133 C  
HETATM    9  C   UNL     1     -10.477   5.610  72.939  1.00  0.00    -0.246 C  
HETATM   10  C   UNL     1     -11.534   6.243  72.078  1.00  0.00    -0.359 C  
HETATM   11  C   UNL     1     -10.963   4.462  73.785  1.00  0.00    -0.357 C  
ENDBRANCH   7   8
ENDBRANCH   6   7
ENDBRANCH   4   6
ENDBRANCH   2   4
TORSDOF 4
ENDMDL
MODEL      280
REMARK 921   NORMALIZED FREE ENERGY PREDICTED BY IDOCK:   -1.19 KCAL/MOL
REMARK 922        TOTAL FREE ENERGY PREDICTED BY IDOCK:   -1.71 KCAL/MOL
REMARK 923 INTER-LIGAND FREE ENERGY PREDICTED BY IDOCK:   -1.49 KCAL/MOL
REMARK 924 INTRA-LIGAND FREE ENERGY PREDICTED BY IDOCK:   -0.22 KCAL/MOL
REMARK 927      BINDING AFFINITY PREDICTED BY RF-SCORE:    0.00 PKD
ROOT
HETATM    1  C   UNL     1      -7.267  11.302  66.836  1.00  0.00    -0.142 C  
HETATM    2  N   UNL     1      -7.165  11.933  68.146  1.00  0.00    -0.078 NA 
HETATM    3  H   UNL     1      -8.076  11.961  68.604  1.00  0.00     0.000 HD 
ENDROOT
BRANCH   2   4
HETATM    4  C   UNL     1      -6.158  11.310  69.026  1.00  0.00    -0.052 C  
HETATM    5  C   UNL     1      -5.919  12.141  70.292  1.00  0.00    -0.137 C  
BRANCH   4   6
HETATM    6  C   UNL     1      -6.647   9.882  69.368  1.00  0.00    -0.051 C  
BRANCH   6   7
HETATM    7  C   UNL     1      -7.659   9.856  70.517  1.00  0.00    -0.034 C  
BRANCH   7   8
HETATM    8  C   UNL     1      -8.915   9.102  70.176  1.00  0.00    -0.219 C  
HETATM    9  C   UNL     1      -9.839   8.637  71.039  1.00  0.00    -0.267 C  
HETATM   10  C   UNL     1      -9.720   8.704  72.536  1.00  0.00    -0.259 C  
HETATM   11  C   UNL     1     -11.102   7.987  70.539  1.00  0.00    -0.251 C  
ENDBRANCH   7   8
ENDBRANCH   6   7
ENDBRANCH   4   6
ENDBRANCH   2   4
TORSDOF 4
ENDMDL
MODEL      281
REMARK 921   NORMALIZED FREE ENERGY PREDICTED BY IDOCK:   -1.15 KCAL/MOL
REMARK 922        TOTAL FREE ENERGY PREDICTED BY IDOCK:   -1.66 KCAL/MOL
REMARK 923 INTER-LIGAND FREE ENERGY PREDICTED BY IDOCK:   -1.49 KCAL/MOL
REMARK 924 INTRA-LIGAND FREE ENERGY PREDICTED BY IDOCK:   -0.16 KCAL/MOL
REMARK 927      BINDING AFFINITY PREDICTED BY RF-SCORE:    0.00 PKD
ROOT
HETATM    1  C   UNL     1      -7.412   4.012  70.354  1.00  0.00    -0.045 C  
HETATM    2  N   UNL     1      -7.675   5.307  69.737  1.00  0.00    -0.072 NA 
HETATM    3  H   UNL     1      -6.959   5.527  69.045  1.00  0.00     0.000 HD 
ENDROOT
BRANCH   2   4
HETATM    4  C   UNL     1      -9.022   5.418  69.148  1.00  0.00    -0.104 C  
HETATM    5  C   UNL     1      -9.558   6.852  69.225  1.00  0.00    -0.149 C  
BRANCH   4   6
HETATM    6  C   UNL     1      -8.942   4.920  67.685  1.00  0.00    -0.116 C  
BRANCH   6   7
HETATM    7  C   UNL     1     -10.045   5.501  66.794  1.00  0.00    -0.242 C  
BRANCH   7   8
HETATM    8  C   UNL     1     -10.499   4.545  65.725  1.00  0.00    -0.268 C  
HETATM    9  C   UNL     1      -9.854   4.246  64.582  1.00  0.00    -0.148 C  
HETATM   10  C   UNL     1      -8.588   4.909  64.115  1.00  0.00    -0.135 C  
HETATM   11  C   UNL     1     -10.385   3.187  63.652  1.00  0.00    -0.216 C  
ENDBRANCH   7   8
ENDBRANCH   6   7
ENDBRANCH   4   6
ENDBRANCH   2   4
TORSDOF 4
ENDMDL
MODEL      282
REMARK 921   NORMALIZED FREE ENERGY PREDICTED BY IDOCK:   -1.12 KCAL/MOL
REMARK 922        TOTAL FREE ENERGY PREDICTED BY IDOCK:   -1.62 KCAL/MOL
REMARK 923 INTER-LIGAND FREE ENERGY PREDICTED BY IDOCK:   -1.48 KCAL/MOL
REMARK 924 INTRA-LIGAND FREE ENERGY PREDICTED BY IDOCK:   -0.14 KCAL/MOL
REMARK 927      BINDING AFFINITY PREDICTED BY RF-SCORE:    0.00 PKD
ROOT
HETATM    1  C   UNL     1      -6.536   9.194  66.748  1.00  0.00    -0.067 C  
HETATM    2  N   UNL     1      -7.137   9.702  67.974  1.00  0.00    -0.079 NA 
HETATM    3  H   UNL     1      -8.132   9.482  68.005  1.00  0.00     0.000 HD 
ENDROOT
BRANCH   2   4
HETATM    4  C   UNL     1      -6.462   9.237  69.201  1.00  0.00    -0.042 C  
HETATM    5  C   UNL     1      -5.203  10.057  69.502  1.00  0.00    -0.038 C  
BRANCH   4   6
HETATM    6  C   UNL     1      -7.483   9.318  70.362  1.00  0.00    -0.124 C  
BRANCH   6   7
HETATM    7  C   UNL     1      -7.481   8.068  71.247  1.00  0.00    -0.072 C  
BRANCH   7   8
HETATM    8  C   UNL     1      -8.560   8.090  72.296  1.00  0.00    -0.212 C  
HETATM    9  C   UNL     1      -9.849   7.733  72.136  1.00  0.00    -0.242 C  
HETATM   10  C   UNL     1     -10.471   7.339  70.825  1.00  0.00    -0.224 C  
HETATM   11  C   UNL     1     -10.793   7.711  73.309  1.00  0.00    -0.379 C  
ENDBRANCH   7   8
ENDBRANCH   6   7
ENDBRANCH   4   6
ENDBRANCH   2   4
TORSDOF 4
ENDMDL
MODEL      283
REMARK 921   NORMALIZED FREE ENERGY PREDICTED BY IDOCK:   -1.10 KCAL/MOL
REMARK 922        TOTAL FREE ENERGY PREDICTED BY IDOCK:   -1.59 KCAL/MOL
REMARK 923 INTER-LIGAND FREE ENERGY PREDICTED BY IDOCK:   -1.46 KCAL/MOL
REMARK 924 INTRA-LIGAND FREE ENERGY PREDICTED BY IDOCK:   -0.13 KCAL/MOL
REMARK 927      BINDING AFFINITY PREDICTED BY RF-SCORE:    0.00 PKD
ROOT
HETATM    1  C   UNL     1      -9.954   5.095  70.828  1.00  0.00    -0.215 C  
HETATM    2  N   UNL     1      -9.787   6.375  71.505  1.00  0.00    -0.169 NA 
HETATM    3  H   UNL     1     -10.440   6.458  72.285  1.00  0.00     0.000 HD 
ENDROOT
BRANCH   2   4
HETATM    4  C   UNL     1      -8.405   6.632  71.954  1.00  0.00    -0.114 C  
HETATM    5  C   UNL     1      -7.880   5.502  72.846  1.00  0.00    -0.098 C  
BRANCH   4   6
HETATM    6  C   UNL     1      -7.526   6.816  70.694  1.00  0.00    -0.083 C  
BRANCH   6   7
HETATM    7  C   UNL     1      -7.911   8.049  69.871  1.00  0.00    -0.111 C  
BRANCH   7   8
HETATM    8  C   UNL     1      -8.586   7.700  68.572  1.00  0.00    -0.129 C  
HETATM    9  C   UNL     1      -9.083   8.561  67.664  1.00  0.00    -0.144 C  
HETATM   10  C   UNL     1      -9.143  10.053  67.842  1.00  0.00    -0.135 C  
HETATM   11  C   UNL     1      -9.642   8.064  66.357  1.00  0.00    -0.267 C  
ENDBRANCH   7   8
ENDBRANCH   6   7
ENDBRANCH   4   6
ENDBRANCH   2   4
TORSDOF 4
ENDMDL
MODEL      284
REMARK 921   NORMALIZED FREE ENERGY PREDICTED BY IDOCK:   -0.99 KCAL/MOL
REMARK 922        TOTAL FREE ENERGY PREDICTED BY IDOCK:   -1.46 KCAL/MOL
REMARK 923 INTER-LIGAND FREE ENERGY PREDICTED BY IDOCK:   -1.27 KCAL/MOL
REMARK 924 INTRA-LIGAND FREE ENERGY PREDICTED BY IDOCK:   -0.19 KCAL/MOL
REMARK 927      BINDING AFFINITY PREDICTED BY RF-SCORE:    0.00 PKD
ROOT
HETATM    1  C   UNL     1      -6.612   7.818  66.846  1.00  0.00    -0.059 C  
HETATM    2  N   UNL     1      -7.912   7.510  67.430  1.00  0.00    -0.114 NA 
HETATM    3  H   UNL     1      -8.641   8.084  67.008  1.00  0.00     0.000 HD 
ENDROOT
BRANCH   2   4
HETATM    4  C   UNL     1      -8.268   6.081  67.361  1.00  0.00    -0.106 C  
HETATM    5  C   UNL     1      -7.054   5.210  67.018  1.00  0.00    -0.069 C  
BRANCH   4   6
HETATM    6  C   UNL     1      -8.887   5.680  68.721  1.00  0.00    -0.108 C  
BRANCH   6   7
HETATM    7  C   UNL     1      -8.088   6.204  69.919  1.00  0.00    -0.119 C  
BRANCH   7   8
HETATM    8  C   UNL     1      -8.950   6.882  70.949  1.00  0.00    -0.149 C  
HETATM    9  C   UNL     1      -8.549   7.764  71.884  1.00  0.00    -0.143 C  
HETATM   10  C   UNL     1      -7.118   8.154  72.134  1.00  0.00    -0.095 C  
HETATM   11  C   UNL     1      -9.549   8.440  72.784  1.00  0.00    -0.308 C  
ENDBRANCH   7   8
ENDBRANCH   6   7
ENDBRANCH   4   6
ENDBRANCH   2   4
TORSDOF 4
ENDMDL
MODEL      285
REMARK 921   NORMALIZED FREE ENERGY PREDICTED BY IDOCK:   -0.97 KCAL/MOL
REMARK 922        TOTAL FREE ENERGY PREDICTED BY IDOCK:   -1.44 KCAL/MOL
REMARK 923 INTER-LIGAND FREE ENERGY PREDICTED BY IDOCK:   -1.40 KCAL/MOL
REMARK 924 INTRA-LIGAND FREE ENERGY PREDICTED BY IDOCK:   -0.04 KCAL/MOL
REMARK 927      BINDING AFFINITY PREDICTED BY RF-SCORE:    0.00 PKD
ROOT
HETATM    1  C   UNL     1      -8.967   4.129  69.360  1.00  0.00    -0.104 C  
HETATM    2  N   UNL     1      -7.808   4.555  68.585  1.00  0.00    -0.074 NA 
HETATM    3  H   UNL     1      -7.866   4.204  67.629  1.00  0.00     0.000 HD 
ENDROOT
BRANCH   2   4
HETATM    4  C   UNL     1      -7.595   6.014  68.593  1.00  0.00    -0.091 C  
HETATM    5  C   UNL     1      -6.649   6.443  69.721  1.00  0.00    -0.048 C  
BRANCH   4   6
HETATM    6  C   UNL     1      -7.044   6.420  67.205  1.00  0.00    -0.073 C  
BRANCH   6   7
HETATM    7  C   UNL     1      -7.710   7.679  66.642  1.00  0.00    -0.098 C  
BRANCH   7   8
HETATM    8  C   UNL     1      -8.459   8.463  67.684  1.00  0.00    -0.130 C  
HETATM    9  C   UNL     1      -9.786   8.440  67.914  1.00  0.00    -0.189 C  
HETATM   10  C   UNL     1     -10.785   7.687  67.080  1.00  0.00    -0.361 C  
HETATM   11  C   UNL     1     -10.382   9.205  69.066  1.00  0.00    -0.229 C  
ENDBRANCH   7   8
ENDBRANCH   6   7
ENDBRANCH   4   6
ENDBRANCH   2   4
TORSDOF 4
ENDMDL
MODEL      286
REMARK 921   NORMALIZED FREE ENERGY PREDICTED BY IDOCK:   -0.95 KCAL/MOL
REMARK 922        TOTAL FREE ENERGY PREDICTED BY IDOCK:   -1.40 KCAL/MOL
REMARK 923 INTER-LIGAND FREE ENERGY PREDICTED BY IDOCK:   -1.08 KCAL/MOL
REMARK 924 INTRA-LIGAND FREE ENERGY PREDICTED BY IDOCK:   -0.32 KCAL/MOL
REMARK 927      BINDING AFFINITY PREDICTED BY RF-SCORE:    0.00 PKD
ROOT
HETATM    1  C   UNL     1      -6.219   8.222  67.622  1.00  0.00    -0.052 C  
HETATM    2  N   UNL     1      -7.278   8.433  68.603  1.00  0.00    -0.078 NA 
HETATM    3  H   UNL     1      -7.332   9.416  68.868  1.00  0.00     0.000 HD 
ENDROOT
BRANCH   2   4
HETATM    4  C   UNL     1      -8.597   7.938  68.164  1.00  0.00    -0.123 C  
HETATM    5  C   UNL     1      -9.703   8.968  68.422  1.00  0.00    -0.170 C  
BRANCH   4   6
HETATM    6  C   UNL     1      -8.493   7.581  66.662  1.00  0.00    -0.130 C  
BRANCH   6   7
HETATM    7  C   UNL     1      -9.370   6.388  66.270  1.00  0.00    -0.149 C  
BRANCH   7   8
HETATM    8  C   UNL     1      -9.235   5.224  67.214  1.00  0.00    -0.114 C  
HETATM    9  C   UNL     1      -8.317   4.241  67.159  1.00  0.00    -0.100 C  
HETATM   10  C   UNL     1      -7.307   4.075  66.058  1.00  0.00    -0.076 C  
HETATM   11  C   UNL     1      -8.243   3.195  68.240  1.00  0.00    -0.085 C  
ENDBRANCH   7   8
ENDBRANCH   6   7
ENDBRANCH   4   6
ENDBRANCH   2   4
TORSDOF 4
ENDMDL
MODEL      287
REMARK 921   NORMALIZED FREE ENERGY PREDICTED BY IDOCK:   -0.94 KCAL/MOL
REMARK 922        TOTAL FREE ENERGY PREDICTED BY IDOCK:   -1.39 KCAL/MOL
REMARK 923 INTER-LIGAND FREE ENERGY PREDICTED BY IDOCK:   -1.22 KCAL/MOL
REMARK 924 INTRA-LIGAND FREE ENERGY PREDICTED BY IDOCK:   -0.17 KCAL/MOL
REMARK 927      BINDING AFFINITY PREDICTED BY RF-SCORE:    0.00 PKD
ROOT
HETATM    1  C   UNL     1      -9.326   7.528  67.310  1.00  0.00    -0.140 C  
HETATM    2  N   UNL     1      -9.732   8.570  66.375  1.00  0.00    -0.272 NA 
HETATM    3  H   UNL     1     -10.582   9.032  66.698  1.00  0.00     0.000 HD 
ENDROOT
BRANCH   2   4
HETATM    4  C   UNL     1      -8.675   9.560  66.097  1.00  0.00    -0.145 C  
HETATM    5  C   UNL     1      -8.968  10.360  64.822  1.00  0.00    -0.228 C  
BRANCH   4   6
HETATM    6  C   UNL     1      -8.555  10.485  67.332  1.00  0.00    -0.122 C  
BRANCH   6   7
HETATM    7  C   UNL     1      -7.207  11.208  67.410  1.00  0.00    -0.107 C  
BRANCH   7   8
HETATM    8  C   UNL     1      -6.591  11.154  68.781  1.00  0.00    -0.059 C  
HETATM    9  C   UNL     1      -5.969  10.102  69.347  1.00  0.00    -0.037 C  
HETATM   10  C   UNL     1      -5.871   8.735  68.731  1.00  0.00    -0.041 C  
HETATM   11  C   UNL     1      -5.309  10.231  70.694  1.00  0.00    -0.067 C  
ENDBRANCH   7   8
ENDBRANCH   6   7
ENDBRANCH   4   6
ENDBRANCH   2   4
TORSDOF 4
ENDMDL
MODEL      288
REMARK 921   NORMALIZED FREE ENERGY PREDICTED BY IDOCK:   -0.85 KCAL/MOL
REMARK 922        TOTAL FREE ENERGY PREDICTED BY IDOCK:   -1.28 KCAL/MOL
REMARK 923 INTER-LIGAND FREE ENERGY PREDICTED BY IDOCK:   -1.28 KCAL/MOL
REMARK 924 INTRA-LIGAND FREE ENERGY PREDICTED BY IDOCK:   -0.01 KCAL/MOL
REMARK 927      BINDING AFFINITY PREDICTED BY RF-SCORE:    0.00 PKD
ROOT
HETATM    1  C   UNL     1      -6.766  15.751  69.414  1.00  0.00    -0.184 C  
HETATM    2  N   UNL     1      -6.919  15.616  67.971  1.00  0.00    -0.119 NA 
HETATM    3  H   UNL     1      -7.597  14.887  67.748  1.00  0.00     0.000 HD 
ENDROOT
BRANCH   2   4
HETATM    4  C   UNL     1      -7.267  16.878  67.292  1.00  0.00    -0.166 C  
HETATM    5  C   UNL     1      -6.158  17.333  66.337  1.00  0.00    -0.241 C  
BRANCH   4   6
HETATM    6  C   UNL     1      -8.605  16.660  66.544  1.00  0.00    -0.320 C  
BRANCH   6   7
HETATM    7  C   UNL     1      -9.278  17.971  66.128  1.00  0.00    -0.132 C  
BRANCH   7   8
HETATM    8  C   UNL     1      -9.060  19.083  67.118  1.00  0.00    -0.311 C  
HETATM    9  C   UNL     1      -8.278  20.167  66.955  1.00  0.00    -0.374 C  
HETATM   10  C   UNL     1      -7.386  20.409  65.769  1.00  0.00    -0.168 C  
HETATM   11  C   UNL     1      -8.240  21.252  67.999  1.00  0.00     0.740 C  
ENDBRANCH   7   8
ENDBRANCH   6   7
ENDBRANCH   4   6
ENDBRANCH   2   4
TORSDOF 4
ENDMDL
MODEL      289
REMARK 921   NORMALIZED FREE ENERGY PREDICTED BY IDOCK:   -0.77 KCAL/MOL
REMARK 922        TOTAL FREE ENERGY PREDICTED BY IDOCK:   -1.19 KCAL/MOL
REMARK 923 INTER-LIGAND FREE ENERGY PREDICTED BY IDOCK:   -1.04 KCAL/MOL
REMARK 924 INTRA-LIGAND FREE ENERGY PREDICTED BY IDOCK:   -0.15 KCAL/MOL
REMARK 927      BINDING AFFINITY PREDICTED BY RF-SCORE:    0.00 PKD
ROOT
HETATM    1  C   UNL     1      -6.776   9.188  67.447  1.00  0.00    -0.069 C  
HETATM    2  N   UNL     1      -7.441   9.208  68.745  1.00  0.00    -0.075 NA 
HETATM    3  H   UNL     1      -8.367   8.786  68.681  1.00  0.00     0.000 HD 
ENDROOT
BRANCH   2   4
HETATM    4  C   UNL     1      -6.654   8.580  69.822  1.00  0.00    -0.039 C  
HETATM    5  C   UNL     1      -5.889   9.620  70.647  1.00  0.00    -0.066 C  
BRANCH   4   6
HETATM    6  C   UNL     1      -7.627   7.761  70.703  1.00  0.00    -0.078 C  
BRANCH   6   7
HETATM    7  C   UNL     1      -7.092   6.369  71.052  1.00  0.00    -0.070 C  
BRANCH   7   8
HETATM    8  C   UNL     1      -8.149   5.457  71.612  1.00  0.00    -0.117 C  
HETATM    9  C   UNL     1      -9.020   4.705  70.913  1.00  0.00    -0.163 C  
HETATM   10  C   UNL     1      -9.159   4.725  69.416  1.00  0.00    -0.152 C  
HETATM   11  C   UNL     1      -9.958   3.758  71.615  1.00  0.00    -0.211 C  
ENDBRANCH   7   8
ENDBRANCH   6   7
ENDBRANCH   4   6
ENDBRANCH   2   4
TORSDOF 4
ENDMDL
MODEL      290
REMARK 921   NORMALIZED FREE ENERGY PREDICTED BY IDOCK:   -0.76 KCAL/MOL
REMARK 922        TOTAL FREE ENERGY PREDICTED BY IDOCK:   -1.17 KCAL/MOL
REMARK 923 INTER-LIGAND FREE ENERGY PREDICTED BY IDOCK:   -0.87 KCAL/MOL
REMARK 924 INTRA-LIGAND FREE ENERGY PREDICTED BY IDOCK:   -0.30 KCAL/MOL
REMARK 927      BINDING AFFINITY PREDICTED BY RF-SCORE:    0.00 PKD
ROOT
HETATM    1  C   UNL     1      -8.326   4.256  62.804  1.00  0.00    -0.087 C  
HETATM    2  N   UNL     1      -7.426   3.850  63.877  1.00  0.00    -0.055 NA 
HETATM    3  H   UNL     1      -6.464   3.799  63.539  1.00  0.00     0.000 HD 
ENDROOT
BRANCH   2   4
HETATM    4  C   UNL     1      -7.512   4.704  65.076  1.00  0.00    -0.076 C  
HETATM    5  C   UNL     1      -8.084   6.088  64.748  1.00  0.00    -0.132 C  
BRANCH   4   6
HETATM    6  C   UNL     1      -8.380   3.964  66.122  1.00  0.00    -0.108 C  
BRANCH   6   7
HETATM    7  C   UNL     1      -8.725   4.833  67.336  1.00  0.00    -0.103 C  
BRANCH   7   8
HETATM    8  C   UNL     1      -7.566   5.011  68.278  1.00  0.00    -0.079 C  
HETATM    9  C   UNL     1      -7.225   6.136  68.935  1.00  0.00    -0.084 C  
HETATM   10  C   UNL     1      -7.898   7.469  68.755  1.00  0.00    -0.121 C  
HETATM   11  C   UNL     1      -6.094   6.135  69.929  1.00  0.00    -0.026 C  
ENDBRANCH   7   8
ENDBRANCH   6   7
ENDBRANCH   4   6
ENDBRANCH   2   4
TORSDOF 4
ENDMDL
MODEL      291
REMARK 921   NORMALIZED FREE ENERGY PREDICTED BY IDOCK:   -0.65 KCAL/MOL
REMARK 922        TOTAL FREE ENERGY PREDICTED BY IDOCK:   -1.04 KCAL/MOL
REMARK 923 INTER-LIGAND FREE ENERGY PREDICTED BY IDOCK:   -0.81 KCAL/MOL
REMARK 924 INTRA-LIGAND FREE ENERGY PREDICTED BY IDOCK:   -0.23 KCAL/MOL
REMARK 927      BINDING AFFINITY PREDICTED BY RF-SCORE:    0.00 PKD
ROOT
HETATM    1  C   UNL     1      -6.718   9.113  67.500  1.00  0.00    -0.069 C  
HETATM    2  N   UNL     1      -7.729   8.065  67.556  1.00  0.00    -0.104 NA 
HETATM    3  H   UNL     1      -8.154   7.925  66.640  1.00  0.00     0.000 HD 
ENDROOT
BRANCH   2   4
HETATM    4  C   UNL     1      -7.229   6.788  68.099  1.00  0.00    -0.091 C  
HETATM    5  C   UNL     1      -6.559   6.975  69.465  1.00  0.00    -0.045 C  
BRANCH   4   6
HETATM    6  C   UNL     1      -8.424   5.808  68.182  1.00  0.00    -0.109 C  
BRANCH   6   7
HETATM    7  C   UNL     1      -8.089   4.409  67.656  1.00  0.00    -0.099 C  
BRANCH   7   8
HETATM    8  C   UNL     1      -8.347   4.260  66.181  1.00  0.00    -0.109 C  
HETATM    9  C   UNL     1      -7.439   3.982  65.227  1.00  0.00    -0.080 C  
HETATM   10  C   UNL     1      -5.958   3.872  65.461  1.00  0.00    -0.023 C  
HETATM   11  C   UNL     1      -7.865   3.760  63.799  1.00  0.00    -0.083 C  
ENDBRANCH   7   8
ENDBRANCH   6   7
ENDBRANCH   4   6
ENDBRANCH   2   4
TORSDOF 4
ENDMDL
MODEL      292
REMARK 921   NORMALIZED FREE ENERGY PREDICTED BY IDOCK:   -0.60 KCAL/MOL
REMARK 922        TOTAL FREE ENERGY PREDICTED BY IDOCK:   -0.98 KCAL/MOL
REMARK 923 INTER-LIGAND FREE ENERGY PREDICTED BY IDOCK:   -0.78 KCAL/MOL
REMARK 924 INTRA-LIGAND FREE ENERGY PREDICTED BY IDOCK:   -0.20 KCAL/MOL
REMARK 927      BINDING AFFINITY PREDICTED BY RF-SCORE:    0.00 PKD
ROOT
HETATM    1  C   UNL     1     -13.251   7.010  71.844  1.00  0.00    -0.194 C  
HETATM    2  N   UNL     1     -12.076   6.181  71.606  1.00  0.00    -0.156 NA 
HETATM    3  H   UNL     1     -11.345   6.717  71.137  1.00  0.00     0.000 HD 
ENDROOT
BRANCH   2   4
HETATM    4  C   UNL     1     -11.549   5.537  72.824  1.00  0.00    -0.235 C  
HETATM    5  C   UNL     1     -12.251   4.205  73.111  1.00  0.00     0.424 C  
BRANCH   4   6
HETATM    6  C   UNL     1     -10.025   5.346  72.638  1.00  0.00    -0.194 C  
BRANCH   6   7
HETATM    7  C   UNL     1      -9.674   4.107  71.807  1.00  0.00    -0.245 C  
BRANCH   7   8
HETATM    8  C   UNL     1      -8.427   3.414  72.285  1.00  0.00    -0.089 C  
HETATM    9  C   UNL     1      -7.261   3.302  71.621  1.00  0.00    -0.039 C  
HETATM   10  C   UNL     1      -7.031   3.770  70.211  1.00  0.00    -0.034 C  
HETATM   11  C   UNL     1      -6.062   2.665  72.273  1.00  0.00    -0.013 C  
ENDBRANCH   7   8
ENDBRANCH   6   7
ENDBRANCH   4   6
ENDBRANCH   2   4
TORSDOF 4
ENDMDL
MODEL      293
REMARK 921   NORMALIZED FREE ENERGY PREDICTED BY IDOCK:   -0.06 KCAL/MOL
REMARK 922        TOTAL FREE ENERGY PREDICTED BY IDOCK:   -0.31 KCAL/MOL
REMARK 923 INTER-LIGAND FREE ENERGY PREDICTED BY IDOCK:   -0.13 KCAL/MOL
REMARK 924 INTRA-LIGAND FREE ENERGY PREDICTED BY IDOCK:   -0.18 KCAL/MOL
REMARK 927      BINDING AFFINITY PREDICTED BY RF-SCORE:    0.00 PKD
ROOT
HETATM    1  C   UNL     1     -10.062  18.331  66.975  1.00  0.00    -0.360 C  
HETATM    2  N   UNL     1      -9.012  17.387  67.341  1.00  0.00    -0.229 NA 
HETATM    3  H   UNL     1      -8.846  17.407  68.347  1.00  0.00     0.000 HD 
ENDROOT
BRANCH   2   4
HETATM    4  C   UNL     1      -9.269  16.010  66.881  1.00  0.00    -0.224 C  
HETATM    5  C   UNL     1      -8.083  15.445  66.091  1.00  0.00     0.670 C  
BRANCH   4   6
HETATM    6  C   UNL     1      -9.583  15.146  68.126  1.00  0.00    -0.205 C  
BRANCH   6   7
HETATM    7  C   UNL     1      -8.346  14.445  68.696  1.00  0.00    -0.147 C  
BRANCH   7   8
HETATM    8  C   UNL     1      -8.508  12.953  68.789  1.00  0.00     0.158 C  
HETATM    9  C   UNL     1      -7.645  12.079  69.342  1.00  0.00     0.373 C  
HETATM   10  C   UNL     1      -6.290  12.442  69.883  1.00  0.00    -0.048 C  
HETATM   11  C   UNL     1      -7.993  10.618  69.454  1.00  0.00    -0.118 C  
ENDBRANCH   7   8
ENDBRANCH   6   7
ENDBRANCH   4   6
ENDBRANCH   2   4
TORSDOF 4
ENDMDL
