MODEL        1
REMARK 921   NORMALIZED FREE ENERGY PREDICTED BY IDOCK:   -5.17 KCAL/MOL
REMARK 922        TOTAL FREE ENERGY PREDICTED BY IDOCK:   -5.52 KCAL/MOL
REMARK 923 INTER-LIGAND FREE ENERGY PREDICTED BY IDOCK:   -5.48 KCAL/MOL
REMARK 924 INTRA-LIGAND FREE ENERGY PREDICTED BY IDOCK:   -0.04 KCAL/MOL
REMARK 927      BINDING AFFINITY PREDICTED BY RF-SCORE:    0.00 PKD
ROOT
HETATM    1  N   UNL     1     -11.539  16.362  63.831  1.00  0.00    -1.602 NA 
HETATM    2  H1  UNL     1     -11.083  17.244  64.066  1.00  0.00     0.000 HD 
HETATM    3  H2  UNL     1     -12.243  16.326  63.095  1.00  0.00     0.000 HD 
HETATM    4  N   UNL     1     -11.184  15.194  64.535  1.00  0.00    -0.655 N  
HETATM    5  C   UNL     1     -11.806  13.990  64.215  1.00  0.00    -0.410 C  
HETATM    6  H   UNL     1     -10.480  15.230  65.271  1.00  0.00     0.000 HD 
HETATM    7  O   UNL     1     -12.709  13.892  63.392  1.00  0.00    -0.806 OA 
ENDROOT
BRANCH   5   8
HETATM    8  C   UNL     1     -11.362  12.796  64.991  1.00  0.00    -0.344 A  
HETATM    9  C   UNL     1     -11.758  12.701  66.326  1.00  0.00    -0.460 A  
HETATM   10  C   UNL     1     -11.311  11.621  67.063  1.00  0.00    -0.305 A  
HETATM   11  N   UNL     1     -10.523  10.646  66.560  1.00  0.00    -0.239 NA 
HETATM   12  C   UNL     1     -10.185  10.741  65.257  1.00  0.00    -0.285 A  
HETATM   13  C   UNL     1     -10.578  11.785  64.435  1.00  0.00    -0.368 A  
ENDBRANCH   5   8
TORSDOF 1
ENDMDL
MODEL        2
REMARK 921   NORMALIZED FREE ENERGY PREDICTED BY IDOCK:   -4.94 KCAL/MOL
REMARK 922        TOTAL FREE ENERGY PREDICTED BY IDOCK:   -5.28 KCAL/MOL
REMARK 923 INTER-LIGAND FREE ENERGY PREDICTED BY IDOCK:   -5.22 KCAL/MOL
REMARK 924 INTRA-LIGAND FREE ENERGY PREDICTED BY IDOCK:   -0.05 KCAL/MOL
REMARK 927      BINDING AFFINITY PREDICTED BY RF-SCORE:    0.00 PKD
ROOT
HETATM    1  N   UNL     1     -11.579  16.341  63.706  1.00  0.00    -1.482 NA 
HETATM    2  H1  UNL     1     -11.151  17.266  63.760  1.00  0.00     0.000 HD 
HETATM    3  H2  UNL     1     -12.136  16.078  62.893  1.00  0.00     0.000 HD 
HETATM    4  N   UNL     1     -11.394  15.432  64.766  1.00  0.00    -0.519 N  
HETATM    5  C   UNL     1     -11.979  14.171  64.694  1.00  0.00    -0.445 C  
HETATM    6  H   UNL     1     -10.837  15.696  65.579  1.00  0.00     0.000 HD 
HETATM    7  O   UNL     1     -12.716  13.818  63.781  1.00  0.00    -0.673 OA 
ENDROOT
BRANCH   5   8
HETATM    8  C   UNL     1     -11.720  13.260  65.847  1.00  0.00    -0.403 A  
HETATM    9  C   UNL     1     -12.015  13.728  67.128  1.00  0.00    -0.442 A  
HETATM   10  C   UNL     1     -11.734  12.907  68.203  1.00  0.00    -0.352 A  
HETATM   11  N   UNL     1     -11.200  11.673  68.082  1.00  0.00    -0.240 NA 
HETATM   12  C   UNL     1     -10.958  11.229  66.831  1.00  0.00    -0.290 A  
HETATM   13  C   UNL     1     -11.201  11.975  65.690  1.00  0.00    -0.377 A  
ENDBRANCH   5   8
TORSDOF 1
ENDMDL
MODEL        3
REMARK 921   NORMALIZED FREE ENERGY PREDICTED BY IDOCK:   -4.76 KCAL/MOL
REMARK 922        TOTAL FREE ENERGY PREDICTED BY IDOCK:   -5.08 KCAL/MOL
REMARK 923 INTER-LIGAND FREE ENERGY PREDICTED BY IDOCK:   -5.03 KCAL/MOL
REMARK 924 INTRA-LIGAND FREE ENERGY PREDICTED BY IDOCK:   -0.05 KCAL/MOL
REMARK 927      BINDING AFFINITY PREDICTED BY RF-SCORE:    0.00 PKD
ROOT
HETATM    1  N   UNL     1     -11.426  16.249  63.831  1.00  0.00    -1.539 NA 
HETATM    2  H1  UNL     1     -10.818  17.051  63.665  1.00  0.00     0.000 HD 
HETATM    3  H2  UNL     1     -12.150  16.004  63.155  1.00  0.00     0.000 HD 
HETATM    4  N   UNL     1     -11.258  15.485  65.002  1.00  0.00    -0.376 N  
HETATM    5  C   UNL     1     -12.089  14.391  65.229  1.00  0.00    -0.380 C  
HETATM    6  H   UNL     1     -10.535  15.731  65.678  1.00  0.00     0.000 HD 
HETATM    7  O   UNL     1     -13.021  14.085  64.494  1.00  0.00    -0.586 OA 
ENDROOT
BRANCH   5   8
HETATM    8  C   UNL     1     -11.834  13.622  66.482  1.00  0.00    -0.441 A  
HETATM    9  C   UNL     1     -11.668  12.241  66.377  1.00  0.00    -0.431 A  
HETATM   10  C   UNL     1     -11.479  11.517  67.539  1.00  0.00    -0.282 A  
HETATM   11  N   UNL     1     -11.434  12.074  68.768  1.00  0.00    -0.274 NA 
HETATM   12  C   UNL     1     -11.560  13.415  68.839  1.00  0.00    -0.314 A  
HETATM   13  C   UNL     1     -11.756  14.229  67.736  1.00  0.00    -0.408 A  
ENDBRANCH   5   8
TORSDOF 1
ENDMDL
MODEL        4
REMARK 921   NORMALIZED FREE ENERGY PREDICTED BY IDOCK:   -4.71 KCAL/MOL
REMARK 922        TOTAL FREE ENERGY PREDICTED BY IDOCK:   -5.03 KCAL/MOL
REMARK 923 INTER-LIGAND FREE ENERGY PREDICTED BY IDOCK:   -4.97 KCAL/MOL
REMARK 924 INTRA-LIGAND FREE ENERGY PREDICTED BY IDOCK:   -0.06 KCAL/MOL
REMARK 927      BINDING AFFINITY PREDICTED BY RF-SCORE:    0.00 PKD
ROOT
HETATM    1  N   UNL     1     -12.315  14.171  63.347  1.00  0.00    -1.144 NA 
HETATM    2  H1  UNL     1     -12.529  13.192  63.159  1.00  0.00     0.000 HD 
HETATM    3  H2  UNL     1     -12.717  14.907  62.766  1.00  0.00     0.000 HD 
HETATM    4  N   UNL     1     -11.460  14.497  64.417  1.00  0.00    -0.605 N  
HETATM    5  C   UNL     1     -11.167  15.834  64.675  1.00  0.00    -0.363 C  
HETATM    6  H   UNL     1     -11.058  13.761  64.998  1.00  0.00     0.000 HD 
HETATM    7  O   UNL     1     -11.558  16.760  63.973  1.00  0.00    -1.195 OA 
ENDROOT
BRANCH   5   8
HETATM    8  C   UNL     1     -10.269  16.097  65.837  1.00  0.00    -0.381 A  
HETATM    9  C   UNL     1     -10.338  17.352  66.444  1.00  0.00    -0.317 A  
HETATM   10  C   UNL     1      -9.476  17.618  67.490  1.00  0.00    -0.256 A  
HETATM   11  N   UNL     1      -8.580  16.727  67.967  1.00  0.00    -0.205 NA 
HETATM   12  C   UNL     1      -8.559  15.508  67.388  1.00  0.00    -0.178 A  
HETATM   13  C   UNL     1      -9.378  15.145  66.332  1.00  0.00    -0.332 A  
ENDBRANCH   5   8
TORSDOF 1
ENDMDL
MODEL        5
REMARK 921   NORMALIZED FREE ENERGY PREDICTED BY IDOCK:   -4.71 KCAL/MOL
REMARK 922        TOTAL FREE ENERGY PREDICTED BY IDOCK:   -5.03 KCAL/MOL
REMARK 923 INTER-LIGAND FREE ENERGY PREDICTED BY IDOCK:   -4.97 KCAL/MOL
REMARK 924 INTRA-LIGAND FREE ENERGY PREDICTED BY IDOCK:   -0.07 KCAL/MOL
REMARK 927      BINDING AFFINITY PREDICTED BY RF-SCORE:    0.00 PKD
ROOT
HETATM    1  N   UNL     1      -9.758  18.104  65.708  1.00  0.00    -0.464 NA 
HETATM    2  H1  UNL     1      -9.167  18.552  66.408  1.00  0.00     0.000 HD 
HETATM    3  H2  UNL     1     -10.013  18.602  64.855  1.00  0.00     0.000 HD 
HETATM    4  N   UNL     1     -10.219  16.792  65.931  1.00  0.00    -0.344 N  
HETATM    5  C   UNL     1     -11.027  16.181  64.976  1.00  0.00    -0.344 C  
HETATM    6  H   UNL     1      -9.964  16.294  66.784  1.00  0.00     0.000 HD 
HETATM    7  O   UNL     1     -11.427  16.747  63.965  1.00  0.00    -1.198 OA 
ENDROOT
BRANCH   5   8
HETATM    8  C   UNL     1     -11.457  14.784  65.277  1.00  0.00    -0.352 A  
HETATM    9  C   UNL     1     -11.323  14.327  66.588  1.00  0.00    -0.356 A  
HETATM   10  C   UNL     1     -11.676  13.020  66.863  1.00  0.00    -0.383 A  
HETATM   11  N   UNL     1     -12.155  12.164  65.936  1.00  0.00    -0.571 NA 
HETATM   12  C   UNL     1     -12.311  12.640  64.683  1.00  0.00    -0.476 A  
HETATM   13  C   UNL     1     -11.983  13.932  64.305  1.00  0.00    -0.477 A  
ENDBRANCH   5   8
TORSDOF 1
ENDMDL
MODEL        6
REMARK 921   NORMALIZED FREE ENERGY PREDICTED BY IDOCK:   -4.63 KCAL/MOL
REMARK 922        TOTAL FREE ENERGY PREDICTED BY IDOCK:   -4.95 KCAL/MOL
REMARK 923 INTER-LIGAND FREE ENERGY PREDICTED BY IDOCK:   -4.88 KCAL/MOL
REMARK 924 INTRA-LIGAND FREE ENERGY PREDICTED BY IDOCK:   -0.07 KCAL/MOL
REMARK 927      BINDING AFFINITY PREDICTED BY RF-SCORE:    0.00 PKD
ROOT
HETATM    1  N   UNL     1     -12.457  13.966  63.129  1.00  0.00    -1.079 NA 
HETATM    2  H1  UNL     1     -12.696  13.000  62.905  1.00  0.00     0.000 HD 
HETATM    3  H2  UNL     1     -12.868  14.734  62.597  1.00  0.00     0.000 HD 
HETATM    4  N   UNL     1     -11.556  14.230  64.178  1.00  0.00    -0.635 N  
HETATM    5  C   UNL     1     -11.230  15.548  64.484  1.00  0.00    -0.315 C  
HETATM    6  H   UNL     1     -11.145  13.462  64.710  1.00  0.00     0.000 HD 
HETATM    7  O   UNL     1     -11.632  16.511  63.840  1.00  0.00    -1.175 OA 
ENDROOT
BRANCH   5   8
HETATM    8  C   UNL     1     -10.284  15.745  65.620  1.00  0.00    -0.407 A  
HETATM    9  C   UNL     1      -9.595  14.629  66.097  1.00  0.00    -0.336 A  
HETATM   10  C   UNL     1      -8.753  14.796  67.180  1.00  0.00    -0.221 A  
HETATM   11  N   UNL     1      -8.551  15.980  67.794  1.00  0.00    -0.162 NA 
HETATM   12  C   UNL     1      -9.199  17.052  67.292  1.00  0.00    -0.221 A  
HETATM   13  C   UNL     1     -10.067  16.989  66.213  1.00  0.00    -0.330 A  
ENDBRANCH   5   8
TORSDOF 1
ENDMDL
MODEL        7
REMARK 921   NORMALIZED FREE ENERGY PREDICTED BY IDOCK:   -4.56 KCAL/MOL
REMARK 922        TOTAL FREE ENERGY PREDICTED BY IDOCK:   -4.87 KCAL/MOL
REMARK 923 INTER-LIGAND FREE ENERGY PREDICTED BY IDOCK:   -4.82 KCAL/MOL
REMARK 924 INTRA-LIGAND FREE ENERGY PREDICTED BY IDOCK:   -0.04 KCAL/MOL
REMARK 927      BINDING AFFINITY PREDICTED BY RF-SCORE:    0.00 PKD
ROOT
HETATM    1  N   UNL     1     -12.820  16.391  74.480  1.00  0.00    -0.951 NA 
HETATM    2  H1  UNL     1     -12.231  16.616  75.281  1.00  0.00     0.000 HD 
HETATM    3  H2  UNL     1     -13.626  16.973  74.254  1.00  0.00     0.000 HD 
HETATM    4  N   UNL     1     -12.509  15.267  73.688  1.00  0.00    -0.533 N  
HETATM    5  C   UNL     1     -13.313  14.960  72.594  1.00  0.00    -0.456 C  
HETATM    6  H   UNL     1     -11.703  14.685  73.915  1.00  0.00     0.000 HD 
HETATM    7  O   UNL     1     -14.335  15.575  72.310  1.00  0.00    -0.562 OA 
ENDROOT
BRANCH   5   8
HETATM    8  C   UNL     1     -12.907  13.767  71.796  1.00  0.00    -0.415 A  
HETATM    9  C   UNL     1     -13.427  12.526  72.165  1.00  0.00    -0.523 A  
HETATM   10  C   UNL     1     -13.018  11.411  71.458  1.00  0.00    -0.399 A  
HETATM   11  N   UNL     1     -12.152  11.458  70.423  1.00  0.00    -0.366 NA 
HETATM   12  C   UNL     1     -11.692  12.674  70.062  1.00  0.00    -0.215 A  
HETATM   13  C   UNL     1     -12.038  13.850  70.707  1.00  0.00    -0.404 A  
ENDBRANCH   5   8
TORSDOF 1
ENDMDL
MODEL        8
REMARK 921   NORMALIZED FREE ENERGY PREDICTED BY IDOCK:   -4.55 KCAL/MOL
REMARK 922        TOTAL FREE ENERGY PREDICTED BY IDOCK:   -4.86 KCAL/MOL
REMARK 923 INTER-LIGAND FREE ENERGY PREDICTED BY IDOCK:   -4.81 KCAL/MOL
REMARK 924 INTRA-LIGAND FREE ENERGY PREDICTED BY IDOCK:   -0.05 KCAL/MOL
REMARK 927      BINDING AFFINITY PREDICTED BY RF-SCORE:    0.00 PKD
ROOT
HETATM    1  N   UNL     1     -12.109  16.046  63.819  1.00  0.00    -1.255 NA 
HETATM    2  H1  UNL     1     -11.829  17.011  63.997  1.00  0.00     0.000 HD 
HETATM    3  H2  UNL     1     -12.972  15.846  63.313  1.00  0.00     0.000 HD 
HETATM    4  N   UNL     1     -11.292  14.994  64.277  1.00  0.00    -0.659 N  
HETATM    5  C   UNL     1     -11.674  13.678  64.034  1.00  0.00    -0.364 C  
HETATM    6  H   UNL     1     -10.429  15.195  64.783  1.00  0.00     0.000 HD 
HETATM    7  O   UNL     1     -12.731  13.368  63.497  1.00  0.00    -0.703 OA 
ENDROOT
BRANCH   5   8
HETATM    8  C   UNL     1     -10.746  12.622  64.535  1.00  0.00    -0.368 A  
HETATM    9  C   UNL     1     -10.405  11.587  63.664  1.00  0.00    -0.467 A  
HETATM   10  C   UNL     1      -9.584  10.581  64.137  1.00  0.00    -0.313 A  
HETATM   11  N   UNL     1      -9.084  10.551  65.390  1.00  0.00    -0.177 NA 
HETATM   12  C   UNL     1      -9.398  11.583  66.202  1.00  0.00    -0.215 A  
HETATM   13  C   UNL     1     -10.215  12.635  65.825  1.00  0.00    -0.288 A  
ENDBRANCH   5   8
TORSDOF 1
ENDMDL
MODEL        9
REMARK 921   NORMALIZED FREE ENERGY PREDICTED BY IDOCK:   -4.52 KCAL/MOL
REMARK 922        TOTAL FREE ENERGY PREDICTED BY IDOCK:   -4.83 KCAL/MOL
REMARK 923 INTER-LIGAND FREE ENERGY PREDICTED BY IDOCK:   -4.79 KCAL/MOL
REMARK 924 INTRA-LIGAND FREE ENERGY PREDICTED BY IDOCK:   -0.04 KCAL/MOL
REMARK 927      BINDING AFFINITY PREDICTED BY RF-SCORE:    0.00 PKD
ROOT
HETATM    1  N   UNL     1     -12.528  13.905  62.957  1.00  0.00    -1.009 NA 
HETATM    2  H1  UNL     1     -13.403  14.012  62.444  1.00  0.00     0.000 HD 
HETATM    3  H2  UNL     1     -11.849  13.199  62.675  1.00  0.00     0.000 HD 
HETATM    4  N   UNL     1     -12.268  14.742  64.060  1.00  0.00    -0.963 N  
HETATM    5  C   UNL     1     -11.074  14.596  64.760  1.00  0.00    -0.384 C  
HETATM    6  H   UNL     1     -12.948  15.448  64.342  1.00  0.00     0.000 HD 
HETATM    7  O   UNL     1     -10.249  13.723  64.518  1.00  0.00    -0.414 OA 
ENDROOT
BRANCH   5   8
HETATM    8  C   UNL     1     -10.865  15.533  65.903  1.00  0.00    -0.317 A  
HETATM    9  C   UNL     1     -11.266  15.115  67.172  1.00  0.00    -0.320 A  
HETATM   10  C   UNL     1     -11.118  15.997  68.226  1.00  0.00    -0.351 A  
HETATM   11  N   UNL     1     -10.595  17.235  68.098  1.00  0.00    -0.379 NA 
HETATM   12  C   UNL     1     -10.181  17.602  66.867  1.00  0.00    -0.334 A  
HETATM   13  C   UNL     1     -10.289  16.794  65.747  1.00  0.00    -0.322 A  
ENDBRANCH   5   8
TORSDOF 1
ENDMDL
MODEL       10
REMARK 921   NORMALIZED FREE ENERGY PREDICTED BY IDOCK:   -4.51 KCAL/MOL
REMARK 922        TOTAL FREE ENERGY PREDICTED BY IDOCK:   -4.82 KCAL/MOL
REMARK 923 INTER-LIGAND FREE ENERGY PREDICTED BY IDOCK:   -4.76 KCAL/MOL
REMARK 924 INTRA-LIGAND FREE ENERGY PREDICTED BY IDOCK:   -0.06 KCAL/MOL
REMARK 927      BINDING AFFINITY PREDICTED BY RF-SCORE:    0.00 PKD
ROOT
HETATM    1  N   UNL     1     -14.302   8.597  72.885  1.00  0.00    -1.063 NA 
HETATM    2  H1  UNL     1     -15.141   8.330  73.398  1.00  0.00     0.000 HD 
HETATM    3  H2  UNL     1     -13.607   7.895  72.632  1.00  0.00     0.000 HD 
HETATM    4  N   UNL     1     -14.111   9.947  72.529  1.00  0.00    -0.411 N  
HETATM    5  C   UNL     1     -12.965  10.313  71.829  1.00  0.00    -0.469 C  
HETATM    6  H   UNL     1     -14.806  10.650  72.782  1.00  0.00     0.000 HD 
HETATM    7  O   UNL     1     -12.060   9.532  71.556  1.00  0.00    -0.338 OA 
ENDROOT
BRANCH   5   8
HETATM    8  C   UNL     1     -12.846  11.757  71.472  1.00  0.00    -0.450 A  
HETATM    9  C   UNL     1     -12.071  12.094  70.361  1.00  0.00    -0.395 A  
HETATM   10  C   UNL     1     -11.919  13.432  70.054  1.00  0.00    -0.337 A  
HETATM   11  N   UNL     1     -12.489  14.431  70.761  1.00  0.00    -0.329 NA 
HETATM   12  C   UNL     1     -13.264  14.078  71.808  1.00  0.00    -0.375 A  
HETATM   13  C   UNL     1     -13.476  12.767  72.200  1.00  0.00    -0.591 A  
ENDBRANCH   5   8
TORSDOF 1
ENDMDL
MODEL       11
REMARK 921   NORMALIZED FREE ENERGY PREDICTED BY IDOCK:   -4.48 KCAL/MOL
REMARK 922        TOTAL FREE ENERGY PREDICTED BY IDOCK:   -4.79 KCAL/MOL
REMARK 923 INTER-LIGAND FREE ENERGY PREDICTED BY IDOCK:   -4.74 KCAL/MOL
REMARK 924 INTRA-LIGAND FREE ENERGY PREDICTED BY IDOCK:   -0.05 KCAL/MOL
REMARK 927      BINDING AFFINITY PREDICTED BY RF-SCORE:    0.00 PKD
ROOT
HETATM    1  N   UNL     1     -12.122  11.469  63.057  1.00  0.00    -0.920 NA 
HETATM    2  H1  UNL     1     -11.900  10.473  63.039  1.00  0.00     0.000 HD 
HETATM    3  H2  UNL     1     -12.632  11.896  62.284  1.00  0.00     0.000 HD 
HETATM    4  N   UNL     1     -11.716  12.247  64.159  1.00  0.00    -0.372 N  
HETATM    5  C   UNL     1     -12.018  13.605  64.183  1.00  0.00    -0.443 C  
HETATM    6  H   UNL     1     -11.206  11.819  64.932  1.00  0.00     0.000 HD 
HETATM    7  O   UNL     1     -12.564  14.194  63.257  1.00  0.00    -0.766 OA 
ENDROOT
BRANCH   5   8
HETATM    8  C   UNL     1     -11.572  14.356  65.393  1.00  0.00    -0.347 A  
HETATM    9  C   UNL     1     -12.067  13.950  66.633  1.00  0.00    -0.485 A  
HETATM   10  C   UNL     1     -11.694  14.670  67.751  1.00  0.00    -0.359 A  
HETATM   11  N   UNL     1     -10.868  15.737  67.713  1.00  0.00    -0.310 NA 
HETATM   12  C   UNL     1     -10.372  16.087  66.508  1.00  0.00    -0.299 A  
HETATM   13  C   UNL     1     -10.687  15.433  65.328  1.00  0.00    -0.439 A  
ENDBRANCH   5   8
TORSDOF 1
ENDMDL
MODEL       12
REMARK 921   NORMALIZED FREE ENERGY PREDICTED BY IDOCK:   -4.47 KCAL/MOL
REMARK 922        TOTAL FREE ENERGY PREDICTED BY IDOCK:   -4.77 KCAL/MOL
REMARK 923 INTER-LIGAND FREE ENERGY PREDICTED BY IDOCK:   -4.70 KCAL/MOL
REMARK 924 INTRA-LIGAND FREE ENERGY PREDICTED BY IDOCK:   -0.07 KCAL/MOL
REMARK 927      BINDING AFFINITY PREDICTED BY RF-SCORE:    0.00 PKD
ROOT
HETATM    1  N   UNL     1     -13.946   8.842  73.312  1.00  0.00    -1.217 NA 
HETATM    2  H1  UNL     1     -14.532   8.918  74.144  1.00  0.00     0.000 HD 
HETATM    3  H2  UNL     1     -13.655   7.927  72.969  1.00  0.00     0.000 HD 
HETATM    4  N   UNL     1     -13.543  10.014  72.642  1.00  0.00    -0.537 N  
HETATM    5  C   UNL     1     -12.744   9.911  71.507  1.00  0.00    -0.415 C  
HETATM    6  H   UNL     1     -13.834  10.929  72.985  1.00  0.00     0.000 HD 
HETATM    7  O   UNL     1     -12.302   8.849  71.085  1.00  0.00    -0.294 OA 
ENDROOT
BRANCH   5   8
HETATM    8  C   UNL     1     -12.377  11.196  70.844  1.00  0.00    -0.500 A  
HETATM    9  C   UNL     1     -12.731  12.385  71.482  1.00  0.00    -0.333 A  
HETATM   10  C   UNL     1     -12.435  13.578  70.851  1.00  0.00    -0.369 A  
HETATM   11  N   UNL     1     -11.811  13.657  69.656  1.00  0.00    -0.317 NA 
HETATM   12  C   UNL     1     -11.446  12.494  69.076  1.00  0.00    -0.304 A  
HETATM   13  C   UNL     1     -11.699  11.248  69.625  1.00  0.00    -0.420 A  
ENDBRANCH   5   8
TORSDOF 1
ENDMDL
MODEL       13
REMARK 921   NORMALIZED FREE ENERGY PREDICTED BY IDOCK:   -4.45 KCAL/MOL
REMARK 922        TOTAL FREE ENERGY PREDICTED BY IDOCK:   -4.75 KCAL/MOL
REMARK 923 INTER-LIGAND FREE ENERGY PREDICTED BY IDOCK:   -4.69 KCAL/MOL
REMARK 924 INTRA-LIGAND FREE ENERGY PREDICTED BY IDOCK:   -0.06 KCAL/MOL
REMARK 927      BINDING AFFINITY PREDICTED BY RF-SCORE:    0.00 PKD
ROOT
HETATM    1  N   UNL     1     -12.785  16.052  74.556  1.00  0.00    -0.984 NA 
HETATM    2  H1  UNL     1     -12.437  16.833  75.113  1.00  0.00     0.000 HD 
HETATM    3  H2  UNL     1     -13.438  15.382  74.961  1.00  0.00     0.000 HD 
HETATM    4  N   UNL     1     -12.355  15.910  73.222  1.00  0.00    -0.469 N  
HETATM    5  C   UNL     1     -12.829  14.844  72.462  1.00  0.00    -0.368 C  
HETATM    6  H   UNL     1     -11.702  16.580  72.817  1.00  0.00     0.000 HD 
HETATM    7  O   UNL     1     -13.558  13.966  72.908  1.00  0.00    -0.680 OA 
ENDROOT
BRANCH   5   8
HETATM    8  C   UNL     1     -12.342  14.774  71.054  1.00  0.00    -0.397 A  
HETATM    9  C   UNL     1     -11.961  15.965  70.434  1.00  0.00    -0.336 A  
HETATM   10  C   UNL     1     -11.553  15.913  69.115  1.00  0.00    -0.379 A  
HETATM   11  N   UNL     1     -11.491  14.772  68.396  1.00  0.00    -0.300 NA 
HETATM   12  C   UNL     1     -11.829  13.629  69.028  1.00  0.00    -0.352 A  
HETATM   13  C   UNL     1     -12.253  13.575  70.346  1.00  0.00    -0.426 A  
ENDBRANCH   5   8
TORSDOF 1
ENDMDL
MODEL       14
REMARK 921   NORMALIZED FREE ENERGY PREDICTED BY IDOCK:   -4.44 KCAL/MOL
REMARK 922        TOTAL FREE ENERGY PREDICTED BY IDOCK:   -4.74 KCAL/MOL
REMARK 923 INTER-LIGAND FREE ENERGY PREDICTED BY IDOCK:   -4.68 KCAL/MOL
REMARK 924 INTRA-LIGAND FREE ENERGY PREDICTED BY IDOCK:   -0.06 KCAL/MOL
REMARK 927      BINDING AFFINITY PREDICTED BY RF-SCORE:    0.00 PKD
ROOT
HETATM    1  N   UNL     1     -12.735  12.176  63.127  1.00  0.00    -0.821 NA 
HETATM    2  H1  UNL     1     -12.907  12.288  62.128  1.00  0.00     0.000 HD 
HETATM    3  H2  UNL     1     -12.878  11.272  63.576  1.00  0.00     0.000 HD 
HETATM    4  N   UNL     1     -12.298  13.283  63.881  1.00  0.00    -0.660 N  
HETATM    5  C   UNL     1     -12.064  13.131  65.244  1.00  0.00    -0.429 C  
HETATM    6  H   UNL     1     -12.155  14.188  63.432  1.00  0.00     0.000 HD 
HETATM    7  O   UNL     1     -12.284  12.092  65.857  1.00  0.00    -0.604 OA 
ENDROOT
BRANCH   5   8
HETATM    8  C   UNL     1     -11.585  14.344  65.968  1.00  0.00    -0.364 A  
HETATM    9  C   UNL     1     -10.912  15.320  65.232  1.00  0.00    -0.403 A  
HETATM   10  C   UNL     1     -10.425  16.424  65.905  1.00  0.00    -0.337 A  
HETATM   11  N   UNL     1     -10.575  16.617  67.233  1.00  0.00    -0.310 NA 
HETATM   12  C   UNL     1     -11.262  15.678  67.916  1.00  0.00    -0.328 A  
HETATM   13  C   UNL     1     -11.786  14.535  67.335  1.00  0.00    -0.425 A  
ENDBRANCH   5   8
TORSDOF 1
ENDMDL
MODEL       15
REMARK 921   NORMALIZED FREE ENERGY PREDICTED BY IDOCK:   -4.44 KCAL/MOL
REMARK 922        TOTAL FREE ENERGY PREDICTED BY IDOCK:   -4.74 KCAL/MOL
REMARK 923 INTER-LIGAND FREE ENERGY PREDICTED BY IDOCK:   -4.68 KCAL/MOL
REMARK 924 INTRA-LIGAND FREE ENERGY PREDICTED BY IDOCK:   -0.06 KCAL/MOL
REMARK 927      BINDING AFFINITY PREDICTED BY RF-SCORE:    0.00 PKD
ROOT
HETATM    1  N   UNL     1     -10.577  14.328  64.435  1.00  0.00    -0.564 NA 
HETATM    2  H1  UNL     1     -10.223  13.381  64.572  1.00  0.00     0.000 HD 
HETATM    3  H2  UNL     1     -11.101  14.565  63.593  1.00  0.00     0.000 HD 
HETATM    4  N   UNL     1     -10.333  15.305  65.420  1.00  0.00    -0.371 N  
HETATM    5  C   UNL     1     -10.816  16.598  65.233  1.00  0.00    -0.183 C  
HETATM    6  H   UNL     1      -9.809  15.069  66.262  1.00  0.00     0.000 HD 
HETATM    7  O   UNL     1     -11.391  16.965  64.214  1.00  0.00    -1.202 OA 
ENDROOT
BRANCH   5   8
HETATM    8  C   UNL     1     -10.534  17.569  66.330  1.00  0.00    -0.283 A  
HETATM    9  C   UNL     1     -10.478  17.081  67.636  1.00  0.00    -0.343 A  
HETATM   10  C   UNL     1     -10.264  17.983  68.660  1.00  0.00    -0.377 A  
HETATM   11  N   UNL     1     -10.094  19.308  68.467  1.00  0.00    -0.418 NA 
HETATM   12  C   UNL     1     -10.115  19.750  67.192  1.00  0.00    -0.424 A  
HETATM   13  C   UNL     1     -10.326  18.929  66.097  1.00  0.00    -0.517 A  
ENDBRANCH   5   8
TORSDOF 1
ENDMDL
MODEL       16
REMARK 921   NORMALIZED FREE ENERGY PREDICTED BY IDOCK:   -4.43 KCAL/MOL
REMARK 922        TOTAL FREE ENERGY PREDICTED BY IDOCK:   -4.74 KCAL/MOL
REMARK 923 INTER-LIGAND FREE ENERGY PREDICTED BY IDOCK:   -4.68 KCAL/MOL
REMARK 924 INTRA-LIGAND FREE ENERGY PREDICTED BY IDOCK:   -0.06 KCAL/MOL
REMARK 927      BINDING AFFINITY PREDICTED BY RF-SCORE:    0.00 PKD
ROOT
HETATM    1  N   UNL     1     -12.503  14.288  63.084  1.00  0.00    -0.930 NA 
HETATM    2  H1  UNL     1     -12.226  15.006  62.414  1.00  0.00     0.000 HD 
HETATM    3  H2  UNL     1     -13.084  13.504  62.788  1.00  0.00     0.000 HD 
HETATM    4  N   UNL     1     -12.074  14.390  64.422  1.00  0.00    -0.524 N  
HETATM    5  C   UNL     1     -12.452  13.411  65.337  1.00  0.00    -0.494 C  
HETATM    6  H   UNL     1     -11.492  15.174  64.718  1.00  0.00     0.000 HD 
HETATM    7  O   UNL     1     -13.206  12.484  65.063  1.00  0.00    -0.700 OA 
ENDROOT
BRANCH   5   8
HETATM    8  C   UNL     1     -11.941  13.580  66.728  1.00  0.00    -0.453 A  
HETATM    9  C   UNL     1     -11.749  12.432  67.498  1.00  0.00    -0.425 A  
HETATM   10  C   UNL     1     -11.321  12.585  68.802  1.00  0.00    -0.293 A  
HETATM   11  N   UNL     1     -11.067  13.783  69.370  1.00  0.00    -0.202 NA 
HETATM   12  C   UNL     1     -11.225  14.876  68.595  1.00  0.00    -0.275 A  
HETATM   13  C   UNL     1     -11.652  14.830  67.278  1.00  0.00    -0.385 A  
ENDBRANCH   5   8
TORSDOF 1
ENDMDL
MODEL       17
REMARK 921   NORMALIZED FREE ENERGY PREDICTED BY IDOCK:   -4.40 KCAL/MOL
REMARK 922        TOTAL FREE ENERGY PREDICTED BY IDOCK:   -4.71 KCAL/MOL
REMARK 923 INTER-LIGAND FREE ENERGY PREDICTED BY IDOCK:   -4.64 KCAL/MOL
REMARK 924 INTRA-LIGAND FREE ENERGY PREDICTED BY IDOCK:   -0.06 KCAL/MOL
REMARK 927      BINDING AFFINITY PREDICTED BY RF-SCORE:    0.00 PKD
ROOT
HETATM    1  N   UNL     1     -12.445  13.718  62.981  1.00  0.00    -1.000 NA 
HETATM    2  H1  UNL     1     -12.415  14.285  62.133  1.00  0.00     0.000 HD 
HETATM    3  H2  UNL     1     -12.768  12.752  62.944  1.00  0.00     0.000 HD 
HETATM    4  N   UNL     1     -12.037  14.285  64.205  1.00  0.00    -0.689 N  
HETATM    5  C   UNL     1     -12.080  13.513  65.362  1.00  0.00    -0.415 C  
HETATM    6  H   UNL     1     -11.715  15.252  64.242  1.00  0.00     0.000 HD 
HETATM    7  O   UNL     1     -12.523  12.371  65.399  1.00  0.00    -0.637 OA 
ENDROOT
BRANCH   5   8
HETATM    8  C   UNL     1     -11.613  14.180  66.613  1.00  0.00    -0.399 A  
HETATM    9  C   UNL     1     -10.770  15.285  66.489  1.00  0.00    -0.311 A  
HETATM   10  C   UNL     1     -10.297  15.877  67.644  1.00  0.00    -0.281 A  
HETATM   11  N   UNL     1     -10.615  15.453  68.887  1.00  0.00    -0.235 NA 
HETATM   12  C   UNL     1     -11.461  14.406  68.980  1.00  0.00    -0.283 A  
HETATM   13  C   UNL     1     -11.987  13.742  67.884  1.00  0.00    -0.391 A  
ENDBRANCH   5   8
TORSDOF 1
ENDMDL
MODEL       18
REMARK 921   NORMALIZED FREE ENERGY PREDICTED BY IDOCK:   -4.39 KCAL/MOL
REMARK 922        TOTAL FREE ENERGY PREDICTED BY IDOCK:   -4.70 KCAL/MOL
REMARK 923 INTER-LIGAND FREE ENERGY PREDICTED BY IDOCK:   -4.63 KCAL/MOL
REMARK 924 INTRA-LIGAND FREE ENERGY PREDICTED BY IDOCK:   -0.06 KCAL/MOL
REMARK 927      BINDING AFFINITY PREDICTED BY RF-SCORE:    0.00 PKD
ROOT
HETATM    1  N   UNL     1     -12.442  13.847  63.015  1.00  0.00    -1.009 NA 
HETATM    2  H1  UNL     1     -12.383  14.468  62.208  1.00  0.00     0.000 HD 
HETATM    3  H2  UNL     1     -12.758  12.884  62.903  1.00  0.00     0.000 HD 
HETATM    4  N   UNL     1     -12.082  14.334  64.287  1.00  0.00    -0.604 N  
HETATM    5  C   UNL     1     -12.163  13.488  65.390  1.00  0.00    -0.447 C  
HETATM    6  H   UNL     1     -11.766  15.297  64.400  1.00  0.00     0.000 HD 
HETATM    7  O   UNL     1     -12.601  12.345  65.335  1.00  0.00    -0.637 OA 
ENDROOT
BRANCH   5   8
HETATM    8  C   UNL     1     -11.746  14.072  66.698  1.00  0.00    -0.420 A  
HETATM    9  C   UNL     1     -12.007  13.337  67.855  1.00  0.00    -0.349 A  
HETATM   10  C   UNL     1     -11.665  13.894  69.072  1.00  0.00    -0.338 A  
HETATM   11  N   UNL     1     -11.083  15.104  69.204  1.00  0.00    -0.243 NA 
HETATM   12  C   UNL     1     -10.806  15.780  68.069  1.00  0.00    -0.309 A  
HETATM   13  C   UNL     1     -11.112  15.311  66.802  1.00  0.00    -0.278 A  
ENDBRANCH   5   8
TORSDOF 1
ENDMDL
MODEL       19
REMARK 921   NORMALIZED FREE ENERGY PREDICTED BY IDOCK:   -4.39 KCAL/MOL
REMARK 922        TOTAL FREE ENERGY PREDICTED BY IDOCK:   -4.69 KCAL/MOL
REMARK 923 INTER-LIGAND FREE ENERGY PREDICTED BY IDOCK:   -4.63 KCAL/MOL
REMARK 924 INTRA-LIGAND FREE ENERGY PREDICTED BY IDOCK:   -0.07 KCAL/MOL
REMARK 927      BINDING AFFINITY PREDICTED BY RF-SCORE:    0.00 PKD
ROOT
HETATM    1  N   UNL     1     -11.533  12.892  69.695  1.00  0.00    -0.462 NA 
HETATM    2  H1  UNL     1     -11.443  13.622  70.403  1.00  0.00     0.000 HD 
HETATM    3  H2  UNL     1     -11.534  11.909  69.966  1.00  0.00     0.000 HD 
HETATM    4  N   UNL     1     -11.653  13.258  68.340  1.00  0.00    -0.314 N  
HETATM    5  C   UNL     1     -11.775  12.263  67.374  1.00  0.00    -0.335 C  
HETATM    6  H   UNL     1     -11.652  14.241  68.069  1.00  0.00     0.000 HD 
HETATM    7  O   UNL     1     -11.713  11.065  67.624  1.00  0.00    -0.576 OA 
ENDROOT
BRANCH   5   8
HETATM    8  C   UNL     1     -11.918  12.731  65.964  1.00  0.00    -0.491 A  
HETATM    9  C   UNL     1     -12.204  14.080  65.750  1.00  0.00    -0.475 A  
HETATM   10  C   UNL     1     -12.384  14.509  64.449  1.00  0.00    -0.413 A  
HETATM   11  N   UNL     1     -12.287  13.699  63.373  1.00  0.00    -0.760 NA 
HETATM   12  C   UNL     1     -11.973  12.407  63.604  1.00  0.00    -0.539 A  
HETATM   13  C   UNL     1     -11.776  11.878  64.869  1.00  0.00    -0.262 A  
ENDBRANCH   5   8
TORSDOF 1
ENDMDL
MODEL       20
REMARK 921   NORMALIZED FREE ENERGY PREDICTED BY IDOCK:   -4.39 KCAL/MOL
REMARK 922        TOTAL FREE ENERGY PREDICTED BY IDOCK:   -4.69 KCAL/MOL
REMARK 923 INTER-LIGAND FREE ENERGY PREDICTED BY IDOCK:   -4.63 KCAL/MOL
REMARK 924 INTRA-LIGAND FREE ENERGY PREDICTED BY IDOCK:   -0.06 KCAL/MOL
REMARK 927      BINDING AFFINITY PREDICTED BY RF-SCORE:    0.00 PKD
ROOT
HETATM    1  N   UNL     1     -11.554  12.823  69.718  1.00  0.00    -0.480 NA 
HETATM    2  H1  UNL     1     -11.416  13.491  70.477  1.00  0.00     0.000 HD 
HETATM    3  H2  UNL     1     -11.578  11.822  69.911  1.00  0.00     0.000 HD 
HETATM    4  N   UNL     1     -11.710  13.298  68.401  1.00  0.00    -0.334 N  
HETATM    5  C   UNL     1     -11.899  12.387  67.365  1.00  0.00    -0.289 C  
HETATM    6  H   UNL     1     -11.686  14.299  68.208  1.00  0.00     0.000 HD 
HETATM    7  O   UNL     1     -11.867  11.171  67.518  1.00  0.00    -0.591 OA 
ENDROOT
BRANCH   5   8
HETATM    8  C   UNL     1     -12.076  12.969  66.003  1.00  0.00    -0.493 A  
HETATM    9  C   UNL     1     -12.024  12.103  64.910  1.00  0.00    -0.356 A  
HETATM   10  C   UNL     1     -12.140  12.643  63.644  1.00  0.00    -0.547 A  
HETATM   11  N   UNL     1     -12.314  13.960  63.405  1.00  0.00    -0.752 NA 
HETATM   12  C   UNL     1     -12.398  14.773  64.479  1.00  0.00    -0.366 A  
HETATM   13  C   UNL     1     -12.290  14.331  65.788  1.00  0.00    -0.420 A  
ENDBRANCH   5   8
TORSDOF 1
ENDMDL
MODEL       21
REMARK 921   NORMALIZED FREE ENERGY PREDICTED BY IDOCK:   -4.36 KCAL/MOL
REMARK 922        TOTAL FREE ENERGY PREDICTED BY IDOCK:   -4.66 KCAL/MOL
REMARK 923 INTER-LIGAND FREE ENERGY PREDICTED BY IDOCK:   -4.59 KCAL/MOL
REMARK 924 INTRA-LIGAND FREE ENERGY PREDICTED BY IDOCK:   -0.07 KCAL/MOL
REMARK 927      BINDING AFFINITY PREDICTED BY RF-SCORE:    0.00 PKD
ROOT
HETATM    1  N   UNL     1      -9.409   9.540  62.339  1.00  0.00    -0.560 NA 
HETATM    2  H1  UNL     1      -9.277   9.417  61.335  1.00  0.00     0.000 HD 
HETATM    3  H2  UNL     1      -8.998   8.880  62.997  1.00  0.00     0.000 HD 
HETATM    4  N   UNL     1     -10.168  10.632  62.805  1.00  0.00    -0.749 N  
HETATM    5  C   UNL     1     -10.350  10.800  64.175  1.00  0.00    -0.311 C  
HETATM    6  H   UNL     1     -10.579  11.293  62.147  1.00  0.00     0.000 HD 
HETATM    7  O   UNL     1      -9.943  10.006  65.015  1.00  0.00    -0.326 OA 
ENDROOT
BRANCH   5   8
HETATM    8  C   UNL     1     -11.148  11.991  64.590  1.00  0.00    -0.375 A  
HETATM    9  C   UNL     1     -11.643  12.827  63.588  1.00  0.00    -0.572 A  
HETATM   10  C   UNL     1     -12.342  13.956  63.968  1.00  0.00    -0.307 A  
HETATM   11  N   UNL     1     -12.584  14.289  65.254  1.00  0.00    -0.535 NA 
HETATM   12  C   UNL     1     -12.127  13.446  66.203  1.00  0.00    -0.429 A  
HETATM   13  C   UNL     1     -11.413  12.292  65.926  1.00  0.00    -0.428 A  
ENDBRANCH   5   8
TORSDOF 1
ENDMDL
MODEL       22
REMARK 921   NORMALIZED FREE ENERGY PREDICTED BY IDOCK:   -4.32 KCAL/MOL
REMARK 922        TOTAL FREE ENERGY PREDICTED BY IDOCK:   -4.61 KCAL/MOL
REMARK 923 INTER-LIGAND FREE ENERGY PREDICTED BY IDOCK:   -4.56 KCAL/MOL
REMARK 924 INTRA-LIGAND FREE ENERGY PREDICTED BY IDOCK:   -0.05 KCAL/MOL
REMARK 927      BINDING AFFINITY PREDICTED BY RF-SCORE:    0.00 PKD
ROOT
HETATM    1  N   UNL     1     -14.327   8.819  73.294  1.00  0.00    -1.130 NA 
HETATM    2  H1  UNL     1     -14.666   7.965  73.737  1.00  0.00     0.000 HD 
HETATM    3  H2  UNL     1     -14.850   9.690  73.389  1.00  0.00     0.000 HD 
HETATM    4  N   UNL     1     -13.131   8.784  72.552  1.00  0.00    -0.573 N  
HETATM    5  C   UNL     1     -12.668   9.949  71.947  1.00  0.00    -0.409 C  
HETATM    6  H   UNL     1     -12.609   7.913  72.457  1.00  0.00     0.000 HD 
HETATM    7  O   UNL     1     -13.283  11.010  71.962  1.00  0.00    -0.499 OA 
ENDROOT
BRANCH   5   8
HETATM    8  C   UNL     1     -11.385   9.834  71.195  1.00  0.00    -0.459 A  
HETATM    9  C   UNL     1     -11.259  10.551  70.004  1.00  0.00    -0.386 A  
HETATM   10  C   UNL     1     -10.091  10.411  69.280  1.00  0.00    -0.230 A  
HETATM   11  N   UNL     1      -9.060   9.630  69.666  1.00  0.00    -0.195 NA 
HETATM   12  C   UNL     1      -9.191   8.976  70.839  1.00  0.00    -0.259 A  
HETATM   13  C   UNL     1     -10.321   9.047  71.637  1.00  0.00    -0.420 A  
ENDBRANCH   5   8
TORSDOF 1
ENDMDL
MODEL       23
REMARK 921   NORMALIZED FREE ENERGY PREDICTED BY IDOCK:   -4.31 KCAL/MOL
REMARK 922        TOTAL FREE ENERGY PREDICTED BY IDOCK:   -4.61 KCAL/MOL
REMARK 923 INTER-LIGAND FREE ENERGY PREDICTED BY IDOCK:   -4.54 KCAL/MOL
REMARK 924 INTRA-LIGAND FREE ENERGY PREDICTED BY IDOCK:   -0.07 KCAL/MOL
REMARK 927      BINDING AFFINITY PREDICTED BY RF-SCORE:    0.00 PKD
ROOT
HETATM    1  N   UNL     1     -13.929  15.492  70.842  1.00  0.00    -0.853 NA 
HETATM    2  H1  UNL     1     -13.798  16.230  70.150  1.00  0.00     0.000 HD 
HETATM    3  H2  UNL     1     -14.502  15.658  71.670  1.00  0.00     0.000 HD 
HETATM    4  N   UNL     1     -13.311  14.242  70.643  1.00  0.00    -0.373 N  
HETATM    5  C   UNL     1     -13.489  13.235  71.588  1.00  0.00    -0.269 C  
HETATM    6  H   UNL     1     -12.738  14.076  69.816  1.00  0.00     0.000 HD 
HETATM    7  O   UNL     1     -14.104  13.390  72.636  1.00  0.00    -0.767 OA 
ENDROOT
BRANCH   5   8
HETATM    8  C   UNL     1     -12.818  11.934  71.295  1.00  0.00    -0.391 A  
HETATM    9  C   UNL     1     -11.815  11.920  70.324  1.00  0.00    -0.368 A  
HETATM   10  C   UNL     1     -11.223  10.711  70.016  1.00  0.00    -0.309 A  
HETATM   11  N   UNL     1     -11.552   9.544  70.610  1.00  0.00    -0.277 NA 
HETATM   12  C   UNL     1     -12.497   9.590  71.572  1.00  0.00    -0.376 A  
HETATM   13  C   UNL     1     -13.153  10.749  71.951  1.00  0.00    -0.557 A  
ENDBRANCH   5   8
TORSDOF 1
ENDMDL
MODEL       24
REMARK 921   NORMALIZED FREE ENERGY PREDICTED BY IDOCK:   -4.31 KCAL/MOL
REMARK 922        TOTAL FREE ENERGY PREDICTED BY IDOCK:   -4.60 KCAL/MOL
REMARK 923 INTER-LIGAND FREE ENERGY PREDICTED BY IDOCK:   -4.55 KCAL/MOL
REMARK 924 INTRA-LIGAND FREE ENERGY PREDICTED BY IDOCK:   -0.06 KCAL/MOL
REMARK 927      BINDING AFFINITY PREDICTED BY RF-SCORE:    0.00 PKD
ROOT
HETATM    1  N   UNL     1     -11.569  14.514  67.119  1.00  0.00    -0.375 NA 
HETATM    2  H1  UNL     1     -11.751  13.689  66.548  1.00  0.00     0.000 HD 
HETATM    3  H2  UNL     1     -11.029  15.292  66.742  1.00  0.00     0.000 HD 
HETATM    4  N   UNL     1     -12.070  14.567  68.435  1.00  0.00    -0.578 N  
HETATM    5  C   UNL     1     -11.821  15.692  69.215  1.00  0.00    -0.363 C  
HETATM    6  H   UNL     1     -12.611  13.788  68.812  1.00  0.00     0.000 HD 
HETATM    7  O   UNL     1     -11.122  16.629  68.849  1.00  0.00    -0.308 OA 
ENDROOT
BRANCH   5   8
HETATM    8  C   UNL     1     -12.403  15.680  70.589  1.00  0.00    -0.457 A  
HETATM    9  C   UNL     1     -13.722  15.250  70.737  1.00  0.00    -0.255 A  
HETATM   10  C   UNL     1     -14.281  15.281  71.999  1.00  0.00    -0.581 A  
HETATM   11  N   UNL     1     -13.618  15.692  73.101  1.00  0.00    -0.528 NA 
HETATM   12  C   UNL     1     -12.332  16.067  72.939  1.00  0.00    -0.508 A  
HETATM   13  C   UNL     1     -11.682  16.076  71.716  1.00  0.00    -0.593 A  
ENDBRANCH   5   8
TORSDOF 1
ENDMDL
MODEL       25
REMARK 921   NORMALIZED FREE ENERGY PREDICTED BY IDOCK:   -4.30 KCAL/MOL
REMARK 922        TOTAL FREE ENERGY PREDICTED BY IDOCK:   -4.60 KCAL/MOL
REMARK 923 INTER-LIGAND FREE ENERGY PREDICTED BY IDOCK:   -4.55 KCAL/MOL
REMARK 924 INTRA-LIGAND FREE ENERGY PREDICTED BY IDOCK:   -0.05 KCAL/MOL
REMARK 927      BINDING AFFINITY PREDICTED BY RF-SCORE:    0.00 PKD
ROOT
HETATM    1  N   UNL     1      -9.161  15.635  69.151  1.00  0.00    -0.237 NA 
HETATM    2  H1  UNL     1      -8.175  15.544  69.396  1.00  0.00     0.000 HD 
HETATM    3  H2  UNL     1      -9.436  16.079  68.275  1.00  0.00     0.000 HD 
HETATM    4  N   UNL     1     -10.140  15.142  70.037  1.00  0.00    -0.493 N  
HETATM    5  C   UNL     1     -11.486  15.266  69.704  1.00  0.00    -0.305 C  
HETATM    6  H   UNL     1      -9.866  14.698  70.913  1.00  0.00     0.000 HD 
HETATM    7  O   UNL     1     -11.885  15.851  68.703  1.00  0.00    -0.388 OA 
ENDROOT
BRANCH   5   8
HETATM    8  C   UNL     1     -12.460  14.702  70.683  1.00  0.00    -0.408 A  
HETATM    9  C   UNL     1     -13.397  15.569  71.246  1.00  0.00    -0.588 A  
HETATM   10  C   UNL     1     -14.271  15.062  72.189  1.00  0.00    -0.540 A  
HETATM   11  N   UNL     1     -14.276  13.772  72.587  1.00  0.00    -0.673 NA 
HETATM   12  C   UNL     1     -13.384  12.945  72.001  1.00  0.00    -0.482 A  
HETATM   13  C   UNL     1     -12.465  13.356  71.050  1.00  0.00    -0.437 A  
ENDBRANCH   5   8
TORSDOF 1
ENDMDL
MODEL       26
REMARK 921   NORMALIZED FREE ENERGY PREDICTED BY IDOCK:   -4.29 KCAL/MOL
REMARK 922        TOTAL FREE ENERGY PREDICTED BY IDOCK:   -4.59 KCAL/MOL
REMARK 923 INTER-LIGAND FREE ENERGY PREDICTED BY IDOCK:   -4.54 KCAL/MOL
REMARK 924 INTRA-LIGAND FREE ENERGY PREDICTED BY IDOCK:   -0.05 KCAL/MOL
REMARK 927      BINDING AFFINITY PREDICTED BY RF-SCORE:    0.00 PKD
ROOT
HETATM    1  N   UNL     1     -11.572  16.429  63.844  1.00  0.00    -1.602 NA 
HETATM    2  H1  UNL     1     -11.837  16.492  62.862  1.00  0.00     0.000 HD 
HETATM    3  H2  UNL     1     -11.546  17.266  64.425  1.00  0.00     0.000 HD 
HETATM    4  N   UNL     1     -11.241  15.173  64.391  1.00  0.00    -0.676 N  
HETATM    5  C   UNL     1     -10.878  15.087  65.732  1.00  0.00    -0.350 C  
HETATM    6  H   UNL     1     -11.267  14.336  63.810  1.00  0.00     0.000 HD 
HETATM    7  O   UNL     1     -10.758  16.062  66.465  1.00  0.00    -0.306 OA 
ENDROOT
BRANCH   5   8
HETATM    8  C   UNL     1     -10.561  13.720  66.240  1.00  0.00    -0.289 A  
HETATM    9  C   UNL     1      -9.295  13.503  66.786  1.00  0.00    -0.262 A  
HETATM   10  C   UNL     1      -8.980  12.228  67.214  1.00  0.00    -0.187 A  
HETATM   11  N   UNL     1      -9.832  11.183  67.145  1.00  0.00    -0.185 NA 
HETATM   12  C   UNL     1     -11.063  11.427  66.648  1.00  0.00    -0.271 A  
HETATM   13  C   UNL     1     -11.475  12.667  66.189  1.00  0.00    -0.413 A  
ENDBRANCH   5   8
TORSDOF 1
ENDMDL
MODEL       27
REMARK 921   NORMALIZED FREE ENERGY PREDICTED BY IDOCK:   -4.29 KCAL/MOL
REMARK 922        TOTAL FREE ENERGY PREDICTED BY IDOCK:   -4.59 KCAL/MOL
REMARK 923 INTER-LIGAND FREE ENERGY PREDICTED BY IDOCK:   -4.53 KCAL/MOL
REMARK 924 INTRA-LIGAND FREE ENERGY PREDICTED BY IDOCK:   -0.06 KCAL/MOL
REMARK 927      BINDING AFFINITY PREDICTED BY RF-SCORE:    0.00 PKD
ROOT
HETATM    1  N   UNL     1     -12.496  14.543  69.049  1.00  0.00    -0.572 NA 
HETATM    2  H1  UNL     1     -12.629  15.524  69.297  1.00  0.00     0.000 HD 
HETATM    3  H2  UNL     1     -12.594  13.815  69.757  1.00  0.00     0.000 HD 
HETATM    4  N   UNL     1     -12.174  14.204  67.720  1.00  0.00    -0.569 N  
HETATM    5  C   UNL     1     -11.992  12.866  67.382  1.00  0.00    -0.300 C  
HETATM    6  H   UNL     1     -12.076  14.932  67.013  1.00  0.00     0.000 HD 
HETATM    7  O   UNL     1     -12.026  11.951  68.197  1.00  0.00    -0.496 OA 
ENDROOT
BRANCH   5   8
HETATM    8  C   UNL     1     -11.674  12.588  65.951  1.00  0.00    -0.480 A  
HETATM    9  C   UNL     1     -12.340  13.333  64.977  1.00  0.00    -0.499 A  
HETATM   10  C   UNL     1     -12.084  13.048  63.650  1.00  0.00    -0.531 A  
HETATM   11  N   UNL     1     -11.216  12.097  63.243  1.00  0.00    -0.380 NA 
HETATM   12  C   UNL     1     -10.556  11.416  64.203  1.00  0.00    -0.369 A  
HETATM   13  C   UNL     1     -10.745  11.624  65.560  1.00  0.00    -0.333 A  
ENDBRANCH   5   8
TORSDOF 1
ENDMDL
MODEL       28
REMARK 921   NORMALIZED FREE ENERGY PREDICTED BY IDOCK:   -4.29 KCAL/MOL
REMARK 922        TOTAL FREE ENERGY PREDICTED BY IDOCK:   -4.59 KCAL/MOL
REMARK 923 INTER-LIGAND FREE ENERGY PREDICTED BY IDOCK:   -4.53 KCAL/MOL
REMARK 924 INTRA-LIGAND FREE ENERGY PREDICTED BY IDOCK:   -0.06 KCAL/MOL
REMARK 927      BINDING AFFINITY PREDICTED BY RF-SCORE:    0.00 PKD
ROOT
HETATM    1  N   UNL     1     -14.379   8.725  73.182  1.00  0.00    -1.126 NA 
HETATM    2  H1  UNL     1     -14.726   7.854  73.584  1.00  0.00     0.000 HD 
HETATM    3  H2  UNL     1     -14.901   9.592  73.303  1.00  0.00     0.000 HD 
HETATM    4  N   UNL     1     -13.170   8.716  72.459  1.00  0.00    -0.607 N  
HETATM    5  C   UNL     1     -12.695   9.904  71.910  1.00  0.00    -0.409 C  
HETATM    6  H   UNL     1     -12.648   7.849  72.338  1.00  0.00     0.000 HD 
HETATM    7  O   UNL     1     -13.308  10.965  71.957  1.00  0.00    -0.448 OA 
ENDROOT
BRANCH   5   8
HETATM    8  C   UNL     1     -11.399   9.816  71.175  1.00  0.00    -0.459 A  
HETATM    9  C   UNL     1     -10.389   9.026  71.725  1.00  0.00    -0.407 A  
HETATM   10  C   UNL     1      -9.172   8.978  71.074  1.00  0.00    -0.264 A  
HETATM   11  N   UNL     1      -8.908   9.644  69.930  1.00  0.00    -0.205 NA 
HETATM   12  C   UNL     1      -9.913  10.371  69.398  1.00  0.00    -0.218 A  
HETATM   13  C   UNL     1     -11.167  10.487  69.974  1.00  0.00    -0.386 A  
ENDBRANCH   5   8
TORSDOF 1
ENDMDL
MODEL       29
REMARK 921   NORMALIZED FREE ENERGY PREDICTED BY IDOCK:   -4.26 KCAL/MOL
REMARK 922        TOTAL FREE ENERGY PREDICTED BY IDOCK:   -4.56 KCAL/MOL
REMARK 923 INTER-LIGAND FREE ENERGY PREDICTED BY IDOCK:   -4.50 KCAL/MOL
REMARK 924 INTRA-LIGAND FREE ENERGY PREDICTED BY IDOCK:   -0.06 KCAL/MOL
REMARK 927      BINDING AFFINITY PREDICTED BY RF-SCORE:    0.00 PKD
ROOT
HETATM    1  N   UNL     1     -11.690  10.336  68.434  1.00  0.00    -0.698 NA 
HETATM    2  H1  UNL     1     -11.575  10.268  67.423  1.00  0.00     0.000 HD 
HETATM    3  H2  UNL     1     -11.559   9.514  69.023  1.00  0.00     0.000 HD 
HETATM    4  N   UNL     1     -12.033  11.576  69.007  1.00  0.00    -0.333 N  
HETATM    5  C   UNL     1     -12.191  11.669  70.387  1.00  0.00    -0.347 C  
HETATM    6  H   UNL     1     -12.164  12.397  68.418  1.00  0.00     0.000 HD 
HETATM    7  O   UNL     1     -12.118  10.707  71.144  1.00  0.00    -0.349 OA 
ENDROOT
BRANCH   5   8
HETATM    8  C   UNL     1     -12.535  13.020  70.919  1.00  0.00    -0.396 A  
HETATM    9  C   UNL     1     -13.373  13.090  72.033  1.00  0.00    -0.588 A  
HETATM   10  C   UNL     1     -13.733  14.338  72.501  1.00  0.00    -0.505 A  
HETATM   11  N   UNL     1     -13.309  15.495  71.949  1.00  0.00    -0.452 NA 
HETATM   12  C   UNL     1     -12.470  15.401  70.896  1.00  0.00    -0.418 A  
HETATM   13  C   UNL     1     -12.053  14.199  70.350  1.00  0.00    -0.417 A  
ENDBRANCH   5   8
TORSDOF 1
ENDMDL
MODEL       30
REMARK 921   NORMALIZED FREE ENERGY PREDICTED BY IDOCK:   -4.24 KCAL/MOL
REMARK 922        TOTAL FREE ENERGY PREDICTED BY IDOCK:   -4.53 KCAL/MOL
REMARK 923 INTER-LIGAND FREE ENERGY PREDICTED BY IDOCK:   -4.48 KCAL/MOL
REMARK 924 INTRA-LIGAND FREE ENERGY PREDICTED BY IDOCK:   -0.05 KCAL/MOL
REMARK 927      BINDING AFFINITY PREDICTED BY RF-SCORE:    0.00 PKD
ROOT
HETATM    1  N   UNL     1     -10.638  10.970  62.927  1.00  0.00    -0.803 NA 
HETATM    2  H1  UNL     1      -9.795  10.479  62.628  1.00  0.00     0.000 HD 
HETATM    3  H2  UNL     1     -11.414  11.103  62.278  1.00  0.00     0.000 HD 
HETATM    4  N   UNL     1     -10.720  11.462  64.244  1.00  0.00    -0.343 N  
HETATM    5  C   UNL     1     -11.870  12.132  64.652  1.00  0.00    -0.328 C  
HETATM    6  H   UNL     1      -9.944  11.329  64.893  1.00  0.00     0.000 HD 
HETATM    7  O   UNL     1     -12.806  12.388  63.904  1.00  0.00    -0.718 OA 
ENDROOT
BRANCH   5   8
HETATM    8  C   UNL     1     -11.886  12.606  66.067  1.00  0.00    -0.492 A  
HETATM    9  C   UNL     1     -12.171  13.951  66.303  1.00  0.00    -0.498 A  
HETATM   10  C   UNL     1     -12.142  14.405  67.607  1.00  0.00    -0.277 A  
HETATM   11  N   UNL     1     -11.865  13.617  68.668  1.00  0.00    -0.358 NA 
HETATM   12  C   UNL     1     -11.630  12.312  68.418  1.00  0.00    -0.326 A  
HETATM   13  C   UNL     1     -11.632  11.760  67.147  1.00  0.00    -0.342 A  
ENDBRANCH   5   8
TORSDOF 1
ENDMDL
MODEL       31
REMARK 921   NORMALIZED FREE ENERGY PREDICTED BY IDOCK:   -4.21 KCAL/MOL
REMARK 922        TOTAL FREE ENERGY PREDICTED BY IDOCK:   -4.50 KCAL/MOL
REMARK 923 INTER-LIGAND FREE ENERGY PREDICTED BY IDOCK:   -4.45 KCAL/MOL
REMARK 924 INTRA-LIGAND FREE ENERGY PREDICTED BY IDOCK:   -0.05 KCAL/MOL
REMARK 927      BINDING AFFINITY PREDICTED BY RF-SCORE:    0.00 PKD
ROOT
HETATM    1  N   UNL     1     -12.372  15.078  68.675  1.00  0.00    -0.589 NA 
HETATM    2  H1  UNL     1     -12.601  16.071  68.709  1.00  0.00     0.000 HD 
HETATM    3  H2  UNL     1     -12.293  14.538  69.536  1.00  0.00     0.000 HD 
HETATM    4  N   UNL     1     -12.165  14.460  67.426  1.00  0.00    -0.617 N  
HETATM    5  C   UNL     1     -11.852  13.104  67.379  1.00  0.00    -0.361 C  
HETATM    6  H   UNL     1     -12.244  15.000  66.565  1.00  0.00     0.000 HD 
HETATM    7  O   UNL     1     -11.673  12.415  68.377  1.00  0.00    -0.303 OA 
ENDROOT
BRANCH   5   8
HETATM    8  C   UNL     1     -11.668  12.520  66.018  1.00  0.00    -0.472 A  
HETATM    9  C   UNL     1     -10.646  11.587  65.841  1.00  0.00    -0.318 A  
HETATM   10  C   UNL     1     -10.440  11.077  64.574  1.00  0.00    -0.342 A  
HETATM   11  N   UNL     1     -11.181  11.423  63.499  1.00  0.00    -0.340 NA 
HETATM   12  C   UNL     1     -12.187  12.299  63.703  1.00  0.00    -0.567 A  
HETATM   13  C   UNL     1     -12.472  12.869  64.933  1.00  0.00    -0.540 A  
ENDBRANCH   5   8
TORSDOF 1
ENDMDL
MODEL       32
REMARK 921   NORMALIZED FREE ENERGY PREDICTED BY IDOCK:   -4.21 KCAL/MOL
REMARK 922        TOTAL FREE ENERGY PREDICTED BY IDOCK:   -4.49 KCAL/MOL
REMARK 923 INTER-LIGAND FREE ENERGY PREDICTED BY IDOCK:   -4.43 KCAL/MOL
REMARK 924 INTRA-LIGAND FREE ENERGY PREDICTED BY IDOCK:   -0.06 KCAL/MOL
REMARK 927      BINDING AFFINITY PREDICTED BY RF-SCORE:    0.00 PKD
ROOT
HETATM    1  N   UNL     1     -14.214   8.850  73.292  1.00  0.00    -1.237 NA 
HETATM    2  H1  UNL     1     -15.165   9.130  73.535  1.00  0.00     0.000 HD 
HETATM    3  H2  UNL     1     -13.749   8.104  73.808  1.00  0.00     0.000 HD 
HETATM    4  N   UNL     1     -13.552   9.506  72.235  1.00  0.00    -0.563 N  
HETATM    5  C   UNL     1     -12.255   9.125  71.903  1.00  0.00    -0.379 C  
HETATM    6  H   UNL     1     -14.017  10.252  71.719  1.00  0.00     0.000 HD 
HETATM    7  O   UNL     1     -11.614   8.286  72.527  1.00  0.00    -0.383 OA 
ENDROOT
BRANCH   5   8
HETATM    8  C   UNL     1     -11.629   9.853  70.761  1.00  0.00    -0.430 A  
HETATM    9  C   UNL     1     -12.156  11.097  70.412  1.00  0.00    -0.475 A  
HETATM   10  C   UNL     1     -11.612  11.754  69.326  1.00  0.00    -0.315 A  
HETATM   11  N   UNL     1     -10.590  11.266  68.591  1.00  0.00    -0.193 NA 
HETATM   12  C   UNL     1     -10.073  10.079  68.971  1.00  0.00    -0.200 A  
HETATM   13  C   UNL     1     -10.549   9.340  70.041  1.00  0.00    -0.256 A  
ENDBRANCH   5   8
TORSDOF 1
ENDMDL
MODEL       33
REMARK 921   NORMALIZED FREE ENERGY PREDICTED BY IDOCK:   -4.19 KCAL/MOL
REMARK 922        TOTAL FREE ENERGY PREDICTED BY IDOCK:   -4.48 KCAL/MOL
REMARK 923 INTER-LIGAND FREE ENERGY PREDICTED BY IDOCK:   -4.42 KCAL/MOL
REMARK 924 INTRA-LIGAND FREE ENERGY PREDICTED BY IDOCK:   -0.06 KCAL/MOL
REMARK 927      BINDING AFFINITY PREDICTED BY RF-SCORE:    0.00 PKD
ROOT
HETATM    1  N   UNL     1      -9.578   9.483  62.404  1.00  0.00    -0.551 NA 
HETATM    2  H1  UNL     1      -9.549   9.322  61.397  1.00  0.00     0.000 HD 
HETATM    3  H2  UNL     1      -9.121   8.833  63.043  1.00  0.00     0.000 HD 
HETATM    4  N   UNL     1     -10.258  10.612  62.903  1.00  0.00    -0.723 N  
HETATM    5  C   UNL     1     -10.298  10.832  64.277  1.00  0.00    -0.331 C  
HETATM    6  H   UNL     1     -10.715  11.262  62.264  1.00  0.00     0.000 HD 
HETATM    7  O   UNL     1      -9.831  10.055  65.101  1.00  0.00    -0.302 OA 
ENDROOT
BRANCH   5   8
HETATM    8  C   UNL     1     -11.020  12.060  64.724  1.00  0.00    -0.361 A  
HETATM    9  C   UNL     1     -11.116  12.297  66.095  1.00  0.00    -0.349 A  
HETATM   10  C   UNL     1     -11.823  13.407  66.517  1.00  0.00    -0.396 A  
HETATM   11  N   UNL     1     -12.416  14.280  65.675  1.00  0.00    -0.440 NA 
HETATM   12  C   UNL     1     -12.277  14.049  64.353  1.00  0.00    -0.426 A  
HETATM   13  C   UNL     1     -11.592  12.965  63.830  1.00  0.00    -0.538 A  
ENDBRANCH   5   8
TORSDOF 1
ENDMDL
MODEL       34
REMARK 921   NORMALIZED FREE ENERGY PREDICTED BY IDOCK:   -4.12 KCAL/MOL
REMARK 922        TOTAL FREE ENERGY PREDICTED BY IDOCK:   -4.40 KCAL/MOL
REMARK 923 INTER-LIGAND FREE ENERGY PREDICTED BY IDOCK:   -4.34 KCAL/MOL
REMARK 924 INTRA-LIGAND FREE ENERGY PREDICTED BY IDOCK:   -0.06 KCAL/MOL
REMARK 927      BINDING AFFINITY PREDICTED BY RF-SCORE:    0.00 PKD
ROOT
HETATM    1  N   UNL     1     -13.627  10.489  72.228  1.00  0.00    -0.506 NA 
HETATM    2  H1  UNL     1     -13.392   9.527  71.983  1.00  0.00     0.000 HD 
HETATM    3  H2  UNL     1     -14.333  10.681  72.939  1.00  0.00     0.000 HD 
HETATM    4  N   UNL     1     -12.968  11.548  71.575  1.00  0.00    -0.430 N  
HETATM    5  C   UNL     1     -13.289  12.861  71.909  1.00  0.00    -0.435 C  
HETATM    6  H   UNL     1     -12.263  11.356  70.864  1.00  0.00     0.000 HD 
HETATM    7  O   UNL     1     -14.175  13.161  72.701  1.00  0.00    -0.677 OA 
ENDROOT
BRANCH   5   8
HETATM    8  C   UNL     1     -12.533  13.926  71.186  1.00  0.00    -0.450 A  
HETATM    9  C   UNL     1     -12.052  13.634  69.910  1.00  0.00    -0.406 A  
HETATM   10  C   UNL     1     -11.311  14.598  69.255  1.00  0.00    -0.286 A  
HETATM   11  N   UNL     1     -11.037  15.813  69.777  1.00  0.00    -0.292 NA 
HETATM   12  C   UNL     1     -11.544  16.085  70.998  1.00  0.00    -0.431 A  
HETATM   13  C   UNL     1     -12.295  15.186  71.736  1.00  0.00    -0.424 A  
ENDBRANCH   5   8
TORSDOF 1
ENDMDL
MODEL       35
REMARK 921   NORMALIZED FREE ENERGY PREDICTED BY IDOCK:   -4.09 KCAL/MOL
REMARK 922        TOTAL FREE ENERGY PREDICTED BY IDOCK:   -4.38 KCAL/MOL
REMARK 923 INTER-LIGAND FREE ENERGY PREDICTED BY IDOCK:   -4.33 KCAL/MOL
REMARK 924 INTRA-LIGAND FREE ENERGY PREDICTED BY IDOCK:   -0.05 KCAL/MOL
REMARK 927      BINDING AFFINITY PREDICTED BY RF-SCORE:    0.00 PKD
ROOT
HETATM    1  N   UNL     1     -14.120   9.065  73.170  1.00  0.00    -1.223 NA 
HETATM    2  H1  UNL     1     -13.994   9.726  73.936  1.00  0.00     0.000 HD 
HETATM    3  H2  UNL     1     -15.031   8.958  72.725  1.00  0.00     0.000 HD 
HETATM    4  N   UNL     1     -13.021   8.299  72.732  1.00  0.00    -0.603 N  
HETATM    5  C   UNL     1     -13.192   7.396  71.687  1.00  0.00    -0.362 C  
HETATM    6  H   UNL     1     -12.109   8.406  73.176  1.00  0.00     0.000 HD 
HETATM    7  O   UNL     1     -14.274   7.169  71.158  1.00  0.00    -0.304 OA 
ENDROOT
BRANCH   5   8
HETATM    8  C   UNL     1     -11.976   6.638  71.269  1.00  0.00    -0.409 A  
HETATM    9  C   UNL     1     -11.641   6.637  69.914  1.00  0.00    -0.393 A  
HETATM   10  C   UNL     1     -10.544   5.898  69.515  1.00  0.00    -0.308 A  
HETATM   11  N   UNL     1      -9.771   5.188  70.364  1.00  0.00    -0.185 NA 
HETATM   12  C   UNL     1     -10.094   5.235  71.673  1.00  0.00    -0.199 A  
HETATM   13  C   UNL     1     -11.175   5.942  72.174  1.00  0.00    -0.342 A  
ENDBRANCH   5   8
TORSDOF 1
ENDMDL
MODEL       36
REMARK 921   NORMALIZED FREE ENERGY PREDICTED BY IDOCK:   -4.09 KCAL/MOL
REMARK 922        TOTAL FREE ENERGY PREDICTED BY IDOCK:   -4.37 KCAL/MOL
REMARK 923 INTER-LIGAND FREE ENERGY PREDICTED BY IDOCK:   -4.33 KCAL/MOL
REMARK 924 INTRA-LIGAND FREE ENERGY PREDICTED BY IDOCK:   -0.04 KCAL/MOL
REMARK 927      BINDING AFFINITY PREDICTED BY RF-SCORE:    0.00 PKD
ROOT
HETATM    1  N   UNL     1     -11.276  13.706  69.245  1.00  0.00    -0.334 NA 
HETATM    2  H1  UNL     1     -10.951  14.618  69.564  1.00  0.00     0.000 HD 
HETATM    3  H2  UNL     1     -11.497  13.552  68.262  1.00  0.00     0.000 HD 
HETATM    4  N   UNL     1     -11.417  12.659  70.178  1.00  0.00    -0.526 N  
HETATM    5  C   UNL     1     -11.861  11.413  69.743  1.00  0.00    -0.364 C  
HETATM    6  H   UNL     1     -11.196  12.812  71.161  1.00  0.00     0.000 HD 
HETATM    7  O   UNL     1     -12.210  11.183  68.591  1.00  0.00    -0.582 OA 
ENDROOT
BRANCH   5   8
HETATM    8  C   UNL     1     -11.964  10.352  70.787  1.00  0.00    -0.462 A  
HETATM    9  C   UNL     1     -10.818   9.614  71.085  1.00  0.00    -0.404 A  
HETATM   10  C   UNL     1     -10.920   8.600  72.017  1.00  0.00    -0.362 A  
HETATM   11  N   UNL     1     -12.063   8.290  72.664  1.00  0.00    -0.343 NA 
HETATM   12  C   UNL     1     -13.149   9.042  72.387  1.00  0.00    -0.423 A  
HETATM   13  C   UNL     1     -13.151  10.078  71.467  1.00  0.00    -0.531 A  
ENDBRANCH   5   8
TORSDOF 1
ENDMDL
MODEL       37
REMARK 921   NORMALIZED FREE ENERGY PREDICTED BY IDOCK:   -4.08 KCAL/MOL
REMARK 922        TOTAL FREE ENERGY PREDICTED BY IDOCK:   -4.36 KCAL/MOL
REMARK 923 INTER-LIGAND FREE ENERGY PREDICTED BY IDOCK:   -4.30 KCAL/MOL
REMARK 924 INTRA-LIGAND FREE ENERGY PREDICTED BY IDOCK:   -0.06 KCAL/MOL
REMARK 927      BINDING AFFINITY PREDICTED BY RF-SCORE:    0.00 PKD
ROOT
HETATM    1  N   UNL     1     -11.740  13.412  70.362  1.00  0.00    -0.541 NA 
HETATM    2  H1  UNL     1     -11.092  13.852  69.708  1.00  0.00     0.000 HD 
HETATM    3  H2  UNL     1     -12.355  13.983  70.940  1.00  0.00     0.000 HD 
HETATM    4  N   UNL     1     -11.777  12.007  70.457  1.00  0.00    -0.487 N  
HETATM    5  C   UNL     1     -12.661  11.406  71.348  1.00  0.00    -0.384 C  
HETATM    6  H   UNL     1     -11.162  11.435  69.878  1.00  0.00     0.000 HD 
HETATM    7  O   UNL     1     -13.375  12.035  72.121  1.00  0.00    -0.510 OA 
ENDROOT
BRANCH   5   8
HETATM    8  C   UNL     1     -12.654   9.914  71.376  1.00  0.00    -0.497 A  
HETATM    9  C   UNL     1     -11.476   9.260  71.012  1.00  0.00    -0.387 A  
HETATM   10  C   UNL     1     -11.477   7.879  70.990  1.00  0.00    -0.280 A  
HETATM   11  N   UNL     1     -12.550   7.126  71.313  1.00  0.00    -0.381 NA 
HETATM   12  C   UNL     1     -13.666   7.781  71.697  1.00  0.00    -0.364 A  
HETATM   13  C   UNL     1     -13.768   9.162  71.748  1.00  0.00    -0.465 A  
ENDBRANCH   5   8
TORSDOF 1
ENDMDL
MODEL       38
REMARK 921   NORMALIZED FREE ENERGY PREDICTED BY IDOCK:   -4.03 KCAL/MOL
REMARK 922        TOTAL FREE ENERGY PREDICTED BY IDOCK:   -4.31 KCAL/MOL
REMARK 923 INTER-LIGAND FREE ENERGY PREDICTED BY IDOCK:   -4.25 KCAL/MOL
REMARK 924 INTRA-LIGAND FREE ENERGY PREDICTED BY IDOCK:   -0.06 KCAL/MOL
REMARK 927      BINDING AFFINITY PREDICTED BY RF-SCORE:    0.00 PKD
ROOT
HETATM    1  N   UNL     1     -11.344  10.344  68.842  1.00  0.00    -0.386 NA 
HETATM    2  H1  UNL     1     -11.202   9.339  68.945  1.00  0.00     0.000 HD 
HETATM    3  H2  UNL     1     -11.356  10.949  69.663  1.00  0.00     0.000 HD 
HETATM    4  N   UNL     1     -11.523  10.887  67.555  1.00  0.00    -0.243 N  
HETATM    5  C   UNL     1     -11.717  12.258  67.414  1.00  0.00    -0.335 C  
HETATM    6  H   UNL     1     -11.511  10.282  66.734  1.00  0.00     0.000 HD 
HETATM    7  O   UNL     1     -11.813  13.030  68.361  1.00  0.00    -0.323 OA 
ENDROOT
BRANCH   5   8
HETATM    8  C   UNL     1     -11.879  12.758  66.017  1.00  0.00    -0.495 A  
HETATM    9  C   UNL     1     -12.318  14.071  65.840  1.00  0.00    -0.515 A  
HETATM   10  C   UNL     1     -12.516  14.524  64.550  1.00  0.00    -0.324 A  
HETATM   11  N   UNL     1     -12.296  13.772  63.451  1.00  0.00    -0.765 NA 
HETATM   12  C   UNL     1     -11.836  12.518  63.647  1.00  0.00    -0.530 A  
HETATM   13  C   UNL     1     -11.610  11.969  64.898  1.00  0.00    -0.332 A  
ENDBRANCH   5   8
TORSDOF 1
ENDMDL
MODEL       39
REMARK 921   NORMALIZED FREE ENERGY PREDICTED BY IDOCK:   -4.00 KCAL/MOL
REMARK 922        TOTAL FREE ENERGY PREDICTED BY IDOCK:   -4.28 KCAL/MOL
REMARK 923 INTER-LIGAND FREE ENERGY PREDICTED BY IDOCK:   -4.23 KCAL/MOL
REMARK 924 INTRA-LIGAND FREE ENERGY PREDICTED BY IDOCK:   -0.05 KCAL/MOL
REMARK 927      BINDING AFFINITY PREDICTED BY RF-SCORE:    0.00 PKD
ROOT
HETATM    1  N   UNL     1     -11.761  10.917  67.854  1.00  0.00    -0.682 NA 
HETATM    2  H1  UNL     1     -11.633   9.958  67.531  1.00  0.00     0.000 HD 
HETATM    3  H2  UNL     1     -11.983  11.106  68.831  1.00  0.00     0.000 HD 
HETATM    4  N   UNL     1     -11.629  11.978  66.936  1.00  0.00    -0.343 N  
HETATM    5  C   UNL     1     -11.804  13.287  67.376  1.00  0.00    -0.366 C  
HETATM    6  H   UNL     1     -11.407  11.788  65.959  1.00  0.00     0.000 HD 
HETATM    7  O   UNL     1     -12.140  13.578  68.518  1.00  0.00    -0.359 OA 
ENDROOT
BRANCH   5   8
HETATM    8  C   UNL     1     -11.628  14.354  66.348  1.00  0.00    -0.383 A  
HETATM    9  C   UNL     1     -12.449  14.316  65.220  1.00  0.00    -0.428 A  
HETATM   10  C   UNL     1     -12.259  15.274  64.243  1.00  0.00    -0.189 A  
HETATM   11  N   UNL     1     -11.331  16.252  64.324  1.00  0.00    -0.823 NA 
HETATM   12  C   UNL     1     -10.575  16.289  65.441  1.00  0.00    -0.352 A  
HETATM   13  C   UNL     1     -10.685  15.374  66.475  1.00  0.00    -0.308 A  
ENDBRANCH   5   8
TORSDOF 1
ENDMDL
MODEL       40
REMARK 921   NORMALIZED FREE ENERGY PREDICTED BY IDOCK:   -3.98 KCAL/MOL
REMARK 922        TOTAL FREE ENERGY PREDICTED BY IDOCK:   -4.26 KCAL/MOL
REMARK 923 INTER-LIGAND FREE ENERGY PREDICTED BY IDOCK:   -4.22 KCAL/MOL
REMARK 924 INTRA-LIGAND FREE ENERGY PREDICTED BY IDOCK:   -0.04 KCAL/MOL
REMARK 927      BINDING AFFINITY PREDICTED BY RF-SCORE:    0.00 PKD
ROOT
HETATM    1  N   UNL     1     -13.298  15.216  70.804  1.00  0.00    -0.663 NA 
HETATM    2  H1  UNL     1     -14.309  15.155  70.922  1.00  0.00     0.000 HD 
HETATM    3  H2  UNL     1     -12.673  14.936  71.561  1.00  0.00     0.000 HD 
HETATM    4  N   UNL     1     -12.773  15.690  69.586  1.00  0.00    -0.530 N  
HETATM    5  C   UNL     1     -11.393  15.774  69.425  1.00  0.00    -0.348 C  
HETATM    6  H   UNL     1     -13.397  15.970  68.830  1.00  0.00     0.000 HD 
HETATM    7  O   UNL     1     -10.590  15.522  70.316  1.00  0.00    -0.306 OA 
ENDROOT
BRANCH   5   8
HETATM    8  C   UNL     1     -10.915  16.268  68.100  1.00  0.00    -0.343 A  
HETATM    9  C   UNL     1     -10.571  17.615  67.990  1.00  0.00    -0.379 A  
HETATM   10  C   UNL     1     -10.174  18.088  66.755  1.00  0.00    -0.364 A  
HETATM   11  N   UNL     1     -10.088  17.317  65.650  1.00  0.00    -0.591 NA 
HETATM   12  C   UNL     1     -10.390  16.009  65.791  1.00  0.00    -0.378 A  
HETATM   13  C   UNL     1     -10.802  15.439  66.984  1.00  0.00    -0.320 A  
ENDBRANCH   5   8
TORSDOF 1
ENDMDL
MODEL       41
REMARK 921   NORMALIZED FREE ENERGY PREDICTED BY IDOCK:   -3.98 KCAL/MOL
REMARK 922        TOTAL FREE ENERGY PREDICTED BY IDOCK:   -4.26 KCAL/MOL
REMARK 923 INTER-LIGAND FREE ENERGY PREDICTED BY IDOCK:   -4.20 KCAL/MOL
REMARK 924 INTRA-LIGAND FREE ENERGY PREDICTED BY IDOCK:   -0.06 KCAL/MOL
REMARK 927      BINDING AFFINITY PREDICTED BY RF-SCORE:    0.00 PKD
ROOT
HETATM    1  N   UNL     1     -11.491  10.103  68.066  1.00  0.00    -0.643 NA 
HETATM    2  H1  UNL     1     -11.837   9.158  67.897  1.00  0.00     0.000 HD 
HETATM    3  H2  UNL     1     -10.693  10.460  67.541  1.00  0.00     0.000 HD 
HETATM    4  N   UNL     1     -12.127  10.909  69.030  1.00  0.00    -0.488 N  
HETATM    5  C   UNL     1     -11.654  12.198  69.261  1.00  0.00    -0.318 C  
HETATM    6  H   UNL     1     -12.925  10.552  69.555  1.00  0.00     0.000 HD 
HETATM    7  O   UNL     1     -10.658  12.662  68.717  1.00  0.00    -0.237 OA 
ENDROOT
BRANCH   5   8
HETATM    8  C   UNL     1     -12.393  12.995  70.284  1.00  0.00    -0.311 A  
HETATM    9  C   UNL     1     -12.442  14.380  70.122  1.00  0.00    -0.395 A  
HETATM   10  C   UNL     1     -13.084  15.127  71.091  1.00  0.00    -0.450 A  
HETATM   11  N   UNL     1     -13.677  14.590  72.179  1.00  0.00    -0.408 NA 
HETATM   12  C   UNL     1     -13.648  13.246  72.293  1.00  0.00    -0.605 A  
HETATM   13  C   UNL     1     -13.028  12.410  71.380  1.00  0.00    -0.348 A  
ENDBRANCH   5   8
TORSDOF 1
ENDMDL
MODEL       42
REMARK 921   NORMALIZED FREE ENERGY PREDICTED BY IDOCK:   -3.98 KCAL/MOL
REMARK 922        TOTAL FREE ENERGY PREDICTED BY IDOCK:   -4.26 KCAL/MOL
REMARK 923 INTER-LIGAND FREE ENERGY PREDICTED BY IDOCK:   -4.20 KCAL/MOL
REMARK 924 INTRA-LIGAND FREE ENERGY PREDICTED BY IDOCK:   -0.05 KCAL/MOL
REMARK 927      BINDING AFFINITY PREDICTED BY RF-SCORE:    0.00 PKD
ROOT
HETATM    1  N   UNL     1     -10.823   9.354  68.316  1.00  0.00    -0.435 NA 
HETATM    2  H1  UNL     1     -11.388   8.961  69.069  1.00  0.00     0.000 HD 
HETATM    3  H2  UNL     1      -9.863   9.041  68.176  1.00  0.00     0.000 HD 
HETATM    4  N   UNL     1     -11.381  10.336  67.474  1.00  0.00    -0.339 N  
HETATM    5  C   UNL     1     -10.610  10.873  66.448  1.00  0.00    -0.229 C  
HETATM    6  H   UNL     1     -12.341  10.650  67.615  1.00  0.00     0.000 HD 
HETATM    7  O   UNL     1      -9.430  10.593  66.268  1.00  0.00    -0.168 OA 
ENDROOT
BRANCH   5   8
HETATM    8  C   UNL     1     -11.280  11.893  65.588  1.00  0.00    -0.360 A  
HETATM    9  C   UNL     1     -11.978  12.923  66.219  1.00  0.00    -0.472 A  
HETATM   10  C   UNL     1     -12.639  13.843  65.429  1.00  0.00    -0.507 A  
HETATM   11  N   UNL     1     -12.637  13.807  64.079  1.00  0.00    -0.692 NA 
HETATM   12  C   UNL     1     -11.925  12.823  63.492  1.00  0.00    -0.555 A  
HETATM   13  C   UNL     1     -11.231  11.852  64.194  1.00  0.00    -0.446 A  
ENDBRANCH   5   8
TORSDOF 1
ENDMDL
MODEL       43
REMARK 921   NORMALIZED FREE ENERGY PREDICTED BY IDOCK:   -3.97 KCAL/MOL
REMARK 922        TOTAL FREE ENERGY PREDICTED BY IDOCK:   -4.25 KCAL/MOL
REMARK 923 INTER-LIGAND FREE ENERGY PREDICTED BY IDOCK:   -4.19 KCAL/MOL
REMARK 924 INTRA-LIGAND FREE ENERGY PREDICTED BY IDOCK:   -0.06 KCAL/MOL
REMARK 927      BINDING AFFINITY PREDICTED BY RF-SCORE:    0.00 PKD
ROOT
HETATM    1  N   UNL     1     -11.630  12.034  70.323  1.00  0.00    -0.527 NA 
HETATM    2  H1  UNL     1     -11.527  12.419  71.262  1.00  0.00     0.000 HD 
HETATM    3  H2  UNL     1     -11.788  11.035  70.190  1.00  0.00     0.000 HD 
HETATM    4  N   UNL     1     -11.551  12.896  69.211  1.00  0.00    -0.296 N  
HETATM    5  C   UNL     1     -11.691  12.371  67.930  1.00  0.00    -0.360 C  
HETATM    6  H   UNL     1     -11.393  13.895  69.344  1.00  0.00     0.000 HD 
HETATM    7  O   UNL     1     -11.812  11.174  67.698  1.00  0.00    -0.612 OA 
ENDROOT
BRANCH   5   8
HETATM    8  C   UNL     1     -11.614  13.351  66.807  1.00  0.00    -0.404 A  
HETATM    9  C   UNL     1     -10.766  14.449  66.955  1.00  0.00    -0.292 A  
HETATM   10  C   UNL     1     -10.726  15.384  65.939  1.00  0.00    -0.336 A  
HETATM   11  N   UNL     1     -11.454  15.289  64.806  1.00  0.00    -0.397 NA 
HETATM   12  C   UNL     1     -12.239  14.200  64.670  1.00  0.00    -0.445 A  
HETATM   13  C   UNL     1     -12.351  13.208  65.631  1.00  0.00    -0.519 A  
ENDBRANCH   5   8
TORSDOF 1
ENDMDL
MODEL       44
REMARK 921   NORMALIZED FREE ENERGY PREDICTED BY IDOCK:   -3.96 KCAL/MOL
REMARK 922        TOTAL FREE ENERGY PREDICTED BY IDOCK:   -4.23 KCAL/MOL
REMARK 923 INTER-LIGAND FREE ENERGY PREDICTED BY IDOCK:   -4.18 KCAL/MOL
REMARK 924 INTRA-LIGAND FREE ENERGY PREDICTED BY IDOCK:   -0.05 KCAL/MOL
REMARK 927      BINDING AFFINITY PREDICTED BY RF-SCORE:    0.00 PKD
ROOT
HETATM    1  N   UNL     1     -12.410  14.559  67.627  1.00  0.00    -0.585 NA 
HETATM    2  H1  UNL     1     -12.136  14.833  68.571  1.00  0.00     0.000 HD 
HETATM    3  H2  UNL     1     -13.241  14.962  67.195  1.00  0.00     0.000 HD 
HETATM    4  N   UNL     1     -11.628  13.619  66.928  1.00  0.00    -0.348 N  
HETATM    5  C   UNL     1     -12.001  13.244  65.640  1.00  0.00    -0.412 C  
HETATM    6  H   UNL     1     -10.797  13.216  67.360  1.00  0.00     0.000 HD 
HETATM    7  O   UNL     1     -13.025  13.635  65.090  1.00  0.00    -0.734 OA 
ENDROOT
BRANCH   5   8
HETATM    8  C   UNL     1     -11.111  12.259  64.959  1.00  0.00    -0.359 A  
HETATM    9  C   UNL     1     -10.820  12.465  63.610  1.00  0.00    -0.509 A  
HETATM   10  C   UNL     1     -10.035  11.531  62.962  1.00  0.00    -0.322 A  
HETATM   11  N   UNL     1      -9.524  10.436  63.564  1.00  0.00    -0.292 NA 
HETATM   12  C   UNL     1      -9.789  10.278  64.878  1.00  0.00    -0.336 A  
HETATM   13  C   UNL     1     -10.567  11.155  65.616  1.00  0.00    -0.286 A  
ENDBRANCH   5   8
TORSDOF 1
ENDMDL
MODEL       45
REMARK 921   NORMALIZED FREE ENERGY PREDICTED BY IDOCK:   -3.85 KCAL/MOL
REMARK 922        TOTAL FREE ENERGY PREDICTED BY IDOCK:   -4.12 KCAL/MOL
REMARK 923 INTER-LIGAND FREE ENERGY PREDICTED BY IDOCK:   -4.08 KCAL/MOL
REMARK 924 INTRA-LIGAND FREE ENERGY PREDICTED BY IDOCK:   -0.05 KCAL/MOL
REMARK 927      BINDING AFFINITY PREDICTED BY RF-SCORE:    0.00 PKD
ROOT
HETATM    1  N   UNL     1     -11.692   5.196  73.105  1.00  0.00    -0.514 NA 
HETATM    2  H1  UNL     1     -12.244   4.363  72.899  1.00  0.00     0.000 HD 
HETATM    3  H2  UNL     1     -10.949   5.161  73.802  1.00  0.00     0.000 HD 
HETATM    4  N   UNL     1     -11.965   6.393  72.415  1.00  0.00    -0.502 N  
HETATM    5  C   UNL     1     -11.212   7.530  72.695  1.00  0.00    -0.348 C  
HETATM    6  H   UNL     1     -12.708   6.428  71.717  1.00  0.00     0.000 HD 
HETATM    7  O   UNL     1     -10.354   7.575  73.570  1.00  0.00    -0.345 OA 
ENDROOT
BRANCH   5   8
HETATM    8  C   UNL     1     -11.550   8.752  71.909  1.00  0.00    -0.432 A  
HETATM    9  C   UNL     1     -12.808   9.325  72.101  1.00  0.00    -0.485 A  
HETATM   10  C   UNL     1     -13.144  10.429  71.342  1.00  0.00    -0.413 A  
HETATM   11  N   UNL     1     -12.319  10.992  70.433  1.00  0.00    -0.344 NA 
HETATM   12  C   UNL     1     -11.095  10.442  70.293  1.00  0.00    -0.307 A  
HETATM   13  C   UNL     1     -10.663   9.334  71.003  1.00  0.00    -0.387 A  
ENDBRANCH   5   8
TORSDOF 1
ENDMDL
MODEL       46
REMARK 921   NORMALIZED FREE ENERGY PREDICTED BY IDOCK:   -3.85 KCAL/MOL
REMARK 922        TOTAL FREE ENERGY PREDICTED BY IDOCK:   -4.12 KCAL/MOL
REMARK 923 INTER-LIGAND FREE ENERGY PREDICTED BY IDOCK:   -4.06 KCAL/MOL
REMARK 924 INTRA-LIGAND FREE ENERGY PREDICTED BY IDOCK:   -0.05 KCAL/MOL
REMARK 927      BINDING AFFINITY PREDICTED BY RF-SCORE:    0.00 PKD
ROOT
HETATM    1  N   UNL     1     -12.502  13.941  63.396  1.00  0.00    -1.110 NA 
HETATM    2  H1  UNL     1     -12.623  14.271  62.438  1.00  0.00     0.000 HD 
HETATM    3  H2  UNL     1     -13.215  13.355  63.832  1.00  0.00     0.000 HD 
HETATM    4  N   UNL     1     -11.343  14.302  64.109  1.00  0.00    -0.608 N  
HETATM    5  C   UNL     1     -11.178  13.852  65.416  1.00  0.00    -0.306 C  
HETATM    6  H   UNL     1     -10.631  14.887  63.673  1.00  0.00     0.000 HD 
HETATM    7  O   UNL     1     -12.026  13.206  66.022  1.00  0.00    -0.391 OA 
ENDROOT
BRANCH   5   8
HETATM    8  C   UNL     1      -9.915  14.261  66.097  1.00  0.00    -0.330 A  
HETATM    9  C   UNL     1      -9.516  15.594  65.988  1.00  0.00    -0.390 A  
HETATM   10  C   UNL     1      -8.324  15.968  66.577  1.00  0.00    -0.313 A  
HETATM   11  N   UNL     1      -7.529  15.118  67.262  1.00  0.00    -0.205 NA 
HETATM   12  C   UNL     1      -7.955  13.844  67.386  1.00  0.00    -0.170 A  
HETATM   13  C   UNL     1      -9.132  13.369  66.830  1.00  0.00    -0.237 A  
ENDBRANCH   5   8
TORSDOF 1
ENDMDL
MODEL       47
REMARK 921   NORMALIZED FREE ENERGY PREDICTED BY IDOCK:   -3.82 KCAL/MOL
REMARK 922        TOTAL FREE ENERGY PREDICTED BY IDOCK:   -4.08 KCAL/MOL
REMARK 923 INTER-LIGAND FREE ENERGY PREDICTED BY IDOCK:   -4.03 KCAL/MOL
REMARK 924 INTRA-LIGAND FREE ENERGY PREDICTED BY IDOCK:   -0.05 KCAL/MOL
REMARK 927      BINDING AFFINITY PREDICTED BY RF-SCORE:    0.00 PKD
ROOT
HETATM    1  N   UNL     1     -14.101   8.866  73.297  1.00  0.00    -1.248 NA 
HETATM    2  H1  UNL     1     -14.747   8.310  73.858  1.00  0.00     0.000 HD 
HETATM    3  H2  UNL     1     -14.213   9.877  73.234  1.00  0.00     0.000 HD 
HETATM    4  N   UNL     1     -13.054   8.221  72.610  1.00  0.00    -0.600 N  
HETATM    5  C   UNL     1     -12.173   8.979  71.844  1.00  0.00    -0.381 C  
HETATM    6  H   UNL     1     -12.942   7.209  72.673  1.00  0.00     0.000 HD 
HETATM    7  O   UNL     1     -12.293  10.186  71.669  1.00  0.00    -0.387 OA 
ENDROOT
BRANCH   5   8
HETATM    8  C   UNL     1     -11.079   8.225  71.163  1.00  0.00    -0.289 A  
HETATM    9  C   UNL     1     -11.429   7.098  70.419  1.00  0.00    -0.317 A  
HETATM   10  C   UNL     1     -10.416   6.369  69.825  1.00  0.00    -0.215 A  
HETATM   11  N   UNL     1      -9.109   6.694  69.915  1.00  0.00    -0.144 NA 
HETATM   12  C   UNL     1      -8.800   7.809  70.610  1.00  0.00    -0.144 A  
HETATM   13  C   UNL     1      -9.739   8.605  71.244  1.00  0.00    -0.305 A  
ENDBRANCH   5   8
TORSDOF 1
ENDMDL
MODEL       48
REMARK 921   NORMALIZED FREE ENERGY PREDICTED BY IDOCK:   -3.81 KCAL/MOL
REMARK 922        TOTAL FREE ENERGY PREDICTED BY IDOCK:   -4.08 KCAL/MOL
REMARK 923 INTER-LIGAND FREE ENERGY PREDICTED BY IDOCK:   -4.02 KCAL/MOL
REMARK 924 INTRA-LIGAND FREE ENERGY PREDICTED BY IDOCK:   -0.06 KCAL/MOL
REMARK 927      BINDING AFFINITY PREDICTED BY RF-SCORE:    0.00 PKD
ROOT
HETATM    1  N   UNL     1     -13.264  15.638  70.614  1.00  0.00    -0.755 NA 
HETATM    2  H1  UNL     1     -13.624  16.589  70.696  1.00  0.00     0.000 HD 
HETATM    3  H2  UNL     1     -13.349  14.986  71.394  1.00  0.00     0.000 HD 
HETATM    4  N   UNL     1     -12.649  15.234  69.413  1.00  0.00    -0.599 N  
HETATM    5  C   UNL     1     -12.157  13.936  69.301  1.00  0.00    -0.339 C  
HETATM    6  H   UNL     1     -12.564  15.886  68.633  1.00  0.00     0.000 HD 
HETATM    7  O   UNL     1     -12.164  13.128  70.222  1.00  0.00    -0.338 OA 
ENDROOT
BRANCH   5   8
HETATM    8  C   UNL     1     -11.538  13.580  67.991  1.00  0.00    -0.372 A  
HETATM    9  C   UNL     1     -10.985  14.610  67.228  1.00  0.00    -0.317 A  
HETATM   10  C   UNL     1     -10.452  14.293  65.994  1.00  0.00    -0.301 A  
HETATM   11  N   UNL     1     -10.425  13.041  65.489  1.00  0.00    -0.281 NA 
HETATM   12  C   UNL     1     -10.931  12.057  66.262  1.00  0.00    -0.299 A  
HETATM   13  C   UNL     1     -11.491  12.271  67.511  1.00  0.00    -0.414 A  
ENDBRANCH   5   8
TORSDOF 1
ENDMDL
MODEL       49
REMARK 921   NORMALIZED FREE ENERGY PREDICTED BY IDOCK:   -3.80 KCAL/MOL
REMARK 922        TOTAL FREE ENERGY PREDICTED BY IDOCK:   -4.07 KCAL/MOL
REMARK 923 INTER-LIGAND FREE ENERGY PREDICTED BY IDOCK:   -4.01 KCAL/MOL
REMARK 924 INTRA-LIGAND FREE ENERGY PREDICTED BY IDOCK:   -0.06 KCAL/MOL
REMARK 927      BINDING AFFINITY PREDICTED BY RF-SCORE:    0.00 PKD
ROOT
HETATM    1  N   UNL     1     -11.844  12.054  70.515  1.00  0.00    -0.510 NA 
HETATM    2  H1  UNL     1     -11.686  12.499  71.420  1.00  0.00     0.000 HD 
HETATM    3  H2  UNL     1     -12.214  11.105  70.466  1.00  0.00     0.000 HD 
HETATM    4  N   UNL     1     -11.545  12.763  69.336  1.00  0.00    -0.320 N  
HETATM    5  C   UNL     1     -11.760  12.157  68.101  1.00  0.00    -0.341 C  
HETATM    6  H   UNL     1     -11.175  13.712  69.385  1.00  0.00     0.000 HD 
HETATM    7  O   UNL     1     -12.135  10.997  67.973  1.00  0.00    -0.615 OA 
ENDROOT
BRANCH   5   8
HETATM    8  C   UNL     1     -11.438  12.981  66.900  1.00  0.00    -0.387 A  
HETATM    9  C   UNL     1     -11.042  12.315  65.739  1.00  0.00    -0.362 A  
HETATM   10  C   UNL     1     -10.698  13.075  64.637  1.00  0.00    -0.367 A  
HETATM   11  N   UNL     1     -10.734  14.424  64.618  1.00  0.00    -0.388 NA 
HETATM   12  C   UNL     1     -11.156  15.043  65.741  1.00  0.00    -0.346 A  
HETATM   13  C   UNL     1     -11.519  14.373  66.897  1.00  0.00    -0.379 A  
ENDBRANCH   5   8
TORSDOF 1
ENDMDL
MODEL       50
REMARK 921   NORMALIZED FREE ENERGY PREDICTED BY IDOCK:   -3.80 KCAL/MOL
REMARK 922        TOTAL FREE ENERGY PREDICTED BY IDOCK:   -4.07 KCAL/MOL
REMARK 923 INTER-LIGAND FREE ENERGY PREDICTED BY IDOCK:   -4.02 KCAL/MOL
REMARK 924 INTRA-LIGAND FREE ENERGY PREDICTED BY IDOCK:   -0.05 KCAL/MOL
REMARK 927      BINDING AFFINITY PREDICTED BY RF-SCORE:    0.00 PKD
ROOT
HETATM    1  N   UNL     1     -11.802   5.497  72.870  1.00  0.00    -0.529 NA 
HETATM    2  H1  UNL     1     -11.704   5.143  73.822  1.00  0.00     0.000 HD 
HETATM    3  H2  UNL     1     -11.817   4.852  72.081  1.00  0.00     0.000 HD 
HETATM    4  N   UNL     1     -11.917   6.884  72.658  1.00  0.00    -0.498 N  
HETATM    5  C   UNL     1     -12.051   7.367  71.359  1.00  0.00    -0.327 C  
HETATM    6  H   UNL     1     -11.902   7.529  73.447  1.00  0.00     0.000 HD 
HETATM    7  O   UNL     1     -12.005   6.654  70.363  1.00  0.00    -0.396 OA 
ENDROOT
BRANCH   5   8
HETATM    8  C   UNL     1     -12.187   8.846  71.219  1.00  0.00    -0.351 A  
HETATM    9  C   UNL     1     -11.317   9.503  70.348  1.00  0.00    -0.318 A  
HETATM   10  C   UNL     1     -11.407  10.878  70.250  1.00  0.00    -0.256 A  
HETATM   11  N   UNL     1     -12.298  11.621  70.940  1.00  0.00    -0.371 NA 
HETATM   12  C   UNL     1     -13.153  10.959  71.748  1.00  0.00    -0.459 A  
HETATM   13  C   UNL     1     -13.142   9.585  71.919  1.00  0.00    -0.517 A  
ENDBRANCH   5   8
TORSDOF 1
ENDMDL
MODEL       51
REMARK 921   NORMALIZED FREE ENERGY PREDICTED BY IDOCK:   -3.80 KCAL/MOL
REMARK 922        TOTAL FREE ENERGY PREDICTED BY IDOCK:   -4.07 KCAL/MOL
REMARK 923 INTER-LIGAND FREE ENERGY PREDICTED BY IDOCK:   -4.01 KCAL/MOL
REMARK 924 INTRA-LIGAND FREE ENERGY PREDICTED BY IDOCK:   -0.05 KCAL/MOL
REMARK 927      BINDING AFFINITY PREDICTED BY RF-SCORE:    0.00 PKD
ROOT
HETATM    1  N   UNL     1     -12.017  15.170  63.998  1.00  0.00    -0.913 NA 
HETATM    2  H1  UNL     1     -12.582  15.195  63.149  1.00  0.00     0.000 HD 
HETATM    3  H2  UNL     1     -11.952  14.314  64.549  1.00  0.00     0.000 HD 
HETATM    4  N   UNL     1     -11.328  16.331  64.402  1.00  0.00    -0.630 N  
HETATM    5  C   UNL     1     -10.558  16.298  65.561  1.00  0.00    -0.353 C  
HETATM    6  H   UNL     1     -11.394  17.187  63.852  1.00  0.00     0.000 HD 
HETATM    7  O   UNL     1     -10.493  15.326  66.305  1.00  0.00    -0.287 OA 
ENDROOT
BRANCH   5   8
HETATM    8  C   UNL     1      -9.844  17.561  65.911  1.00  0.00    -0.113 A  
HETATM    9  C   UNL     1     -10.584  18.744  65.934  1.00  0.00    -0.405 A  
HETATM   10  C   UNL     1      -9.919  19.923  66.211  1.00  0.00    -0.486 A  
HETATM   11  N   UNL     1      -8.596  19.993  66.472  1.00  0.00    -0.323 NA 
HETATM   12  C   UNL     1      -7.910  18.831  66.480  1.00  0.00    -0.269 A  
HETATM   13  C   UNL     1      -8.482  17.598  66.212  1.00  0.00    -0.237 A  
ENDBRANCH   5   8
TORSDOF 1
ENDMDL
MODEL       52
REMARK 921   NORMALIZED FREE ENERGY PREDICTED BY IDOCK:   -3.77 KCAL/MOL
REMARK 922        TOTAL FREE ENERGY PREDICTED BY IDOCK:   -4.03 KCAL/MOL
REMARK 923 INTER-LIGAND FREE ENERGY PREDICTED BY IDOCK:   -3.97 KCAL/MOL
REMARK 924 INTRA-LIGAND FREE ENERGY PREDICTED BY IDOCK:   -0.06 KCAL/MOL
REMARK 927      BINDING AFFINITY PREDICTED BY RF-SCORE:    0.00 PKD
ROOT
HETATM    1  N   UNL     1     -10.707   8.846  67.686  1.00  0.00    -0.459 NA 
HETATM    2  H1  UNL     1     -10.390   7.887  67.830  1.00  0.00     0.000 HD 
HETATM    3  H2  UNL     1     -10.672   9.265  66.757  1.00  0.00     0.000 HD 
HETATM    4  N   UNL     1     -11.194   9.584  68.782  1.00  0.00    -0.466 N  
HETATM    5  C   UNL     1     -11.627  10.892  68.586  1.00  0.00    -0.303 C  
HETATM    6  H   UNL     1     -11.229   9.164  69.711  1.00  0.00     0.000 HD 
HETATM    7  O   UNL     1     -11.546  11.479  67.513  1.00  0.00    -0.477 OA 
ENDROOT
BRANCH   5   8
HETATM    8  C   UNL     1     -12.146  11.600  69.793  1.00  0.00    -0.357 A  
HETATM    9  C   UNL     1     -11.994  12.986  69.853  1.00  0.00    -0.381 A  
HETATM   10  C   UNL     1     -12.430  13.640  70.989  1.00  0.00    -0.377 A  
HETATM   11  N   UNL     1     -13.007  13.016  72.038  1.00  0.00    -0.320 NA 
HETATM   12  C   UNL     1     -13.177  11.681  71.939  1.00  0.00    -0.369 A  
HETATM   13  C   UNL     1     -12.771  10.933  70.847  1.00  0.00    -0.464 A  
ENDBRANCH   5   8
TORSDOF 1
ENDMDL
MODEL       53
REMARK 921   NORMALIZED FREE ENERGY PREDICTED BY IDOCK:   -3.76 KCAL/MOL
REMARK 922        TOTAL FREE ENERGY PREDICTED BY IDOCK:   -4.03 KCAL/MOL
REMARK 923 INTER-LIGAND FREE ENERGY PREDICTED BY IDOCK:   -3.98 KCAL/MOL
REMARK 924 INTRA-LIGAND FREE ENERGY PREDICTED BY IDOCK:   -0.05 KCAL/MOL
REMARK 927      BINDING AFFINITY PREDICTED BY RF-SCORE:    0.00 PKD
ROOT
HETATM    1  N   UNL     1     -12.442  13.928  63.218  1.00  0.00    -1.112 NA 
HETATM    2  H1  UNL     1     -13.091  13.721  62.459  1.00  0.00     0.000 HD 
HETATM    3  H2  UNL     1     -11.905  14.795  63.215  1.00  0.00     0.000 HD 
HETATM    4  N   UNL     1     -12.295  13.004  64.271  1.00  0.00    -0.550 N  
HETATM    5  C   UNL     1     -11.410  13.286  65.308  1.00  0.00    -0.295 C  
HETATM    6  H   UNL     1     -12.832  12.137  64.275  1.00  0.00     0.000 HD 
HETATM    7  O   UNL     1     -10.684  14.274  65.329  1.00  0.00    -0.321 OA 
ENDROOT
BRANCH   5   8
HETATM    8  C   UNL     1     -11.326  12.268  66.395  1.00  0.00    -0.405 A  
HETATM    9  C   UNL     1     -10.832  11.004  66.069  1.00  0.00    -0.189 A  
HETATM   10  C   UNL     1     -10.796  10.043  67.061  1.00  0.00    -0.126 A  
HETATM   11  N   UNL     1     -11.201  10.261  68.330  1.00  0.00    -0.254 NA 
HETATM   12  C   UNL     1     -11.639  11.502  68.630  1.00  0.00    -0.313 A  
HETATM   13  C   UNL     1     -11.718  12.533  67.708  1.00  0.00    -0.419 A  
ENDBRANCH   5   8
TORSDOF 1
ENDMDL
MODEL       54
REMARK 921   NORMALIZED FREE ENERGY PREDICTED BY IDOCK:   -3.76 KCAL/MOL
REMARK 922        TOTAL FREE ENERGY PREDICTED BY IDOCK:   -4.02 KCAL/MOL
REMARK 923 INTER-LIGAND FREE ENERGY PREDICTED BY IDOCK:   -3.96 KCAL/MOL
REMARK 924 INTRA-LIGAND FREE ENERGY PREDICTED BY IDOCK:   -0.06 KCAL/MOL
REMARK 927      BINDING AFFINITY PREDICTED BY RF-SCORE:    0.00 PKD
ROOT
HETATM    1  N   UNL     1     -12.161  10.516  68.678  1.00  0.00    -0.791 NA 
HETATM    2  H1  UNL     1     -12.140   9.830  69.434  1.00  0.00     0.000 HD 
HETATM    3  H2  UNL     1     -12.412  10.232  67.732  1.00  0.00     0.000 HD 
HETATM    4  N   UNL     1     -11.840  11.859  68.957  1.00  0.00    -0.310 N  
HETATM    5  C   UNL     1     -11.868  12.795  67.926  1.00  0.00    -0.339 C  
HETATM    6  H   UNL     1     -11.589  12.143  69.903  1.00  0.00     0.000 HD 
HETATM    7  O   UNL     1     -12.092  12.507  66.756  1.00  0.00    -0.546 OA 
ENDROOT
BRANCH   5   8
HETATM    8  C   UNL     1     -11.534  14.199  68.305  1.00  0.00    -0.335 A  
HETATM    9  C   UNL     1     -11.697  14.571  69.640  1.00  0.00    -0.356 A  
HETATM   10  C   UNL     1     -11.435  15.882  69.988  1.00  0.00    -0.354 A  
HETATM   11  N   UNL     1     -11.018  16.820  69.111  1.00  0.00    -0.274 NA 
HETATM   12  C   UNL     1     -10.832  16.426  67.833  1.00  0.00    -0.328 A  
HETATM   13  C   UNL     1     -11.070  15.138  67.384  1.00  0.00    -0.325 A  
ENDBRANCH   5   8
TORSDOF 1
ENDMDL
MODEL       55
REMARK 921   NORMALIZED FREE ENERGY PREDICTED BY IDOCK:   -3.74 KCAL/MOL
REMARK 922        TOTAL FREE ENERGY PREDICTED BY IDOCK:   -4.01 KCAL/MOL
REMARK 923 INTER-LIGAND FREE ENERGY PREDICTED BY IDOCK:   -3.95 KCAL/MOL
REMARK 924 INTRA-LIGAND FREE ENERGY PREDICTED BY IDOCK:   -0.05 KCAL/MOL
REMARK 927      BINDING AFFINITY PREDICTED BY RF-SCORE:    0.00 PKD
ROOT
HETATM    1  N   UNL     1     -11.923  10.486  68.379  1.00  0.00    -0.788 NA 
HETATM    2  H1  UNL     1     -11.705   9.933  69.208  1.00  0.00     0.000 HD 
HETATM    3  H2  UNL     1     -12.401  10.059  67.586  1.00  0.00     0.000 HD 
HETATM    4  N   UNL     1     -11.555  11.845  68.341  1.00  0.00    -0.294 N  
HETATM    5  C   UNL     1     -11.852  12.600  67.210  1.00  0.00    -0.328 C  
HETATM    6  H   UNL     1     -11.077  12.272  69.133  1.00  0.00     0.000 HD 
HETATM    7  O   UNL     1     -12.361  12.133  66.197  1.00  0.00    -0.536 OA 
ENDROOT
BRANCH   5   8
HETATM    8  C   UNL     1     -11.448  14.036  67.254  1.00  0.00    -0.372 A  
HETATM    9  C   UNL     1     -11.006  14.627  66.070  1.00  0.00    -0.325 A  
HETATM   10  C   UNL     1     -10.586  15.943  66.115  1.00  0.00    -0.305 A  
HETATM   11  N   UNL     1     -10.592  16.692  67.239  1.00  0.00    -0.310 NA 
HETATM   12  C   UNL     1     -11.059  16.109  68.363  1.00  0.00    -0.359 A  
HETATM   13  C   UNL     1     -11.499  14.797  68.423  1.00  0.00    -0.336 A  
ENDBRANCH   5   8
TORSDOF 1
ENDMDL
MODEL       56
REMARK 921   NORMALIZED FREE ENERGY PREDICTED BY IDOCK:   -3.72 KCAL/MOL
REMARK 922        TOTAL FREE ENERGY PREDICTED BY IDOCK:   -3.98 KCAL/MOL
REMARK 923 INTER-LIGAND FREE ENERGY PREDICTED BY IDOCK:   -3.94 KCAL/MOL
REMARK 924 INTRA-LIGAND FREE ENERGY PREDICTED BY IDOCK:   -0.04 KCAL/MOL
REMARK 927      BINDING AFFINITY PREDICTED BY RF-SCORE:    0.00 PKD
ROOT
HETATM    1  N   UNL     1     -13.053   8.978  71.004  1.00  0.00    -0.531 NA 
HETATM    2  H1  UNL     1     -13.965   8.595  71.254  1.00  0.00     0.000 HD 
HETATM    3  H2  UNL     1     -12.198   8.487  71.268  1.00  0.00     0.000 HD 
HETATM    4  N   UNL     1     -12.985  10.191  70.291  1.00  0.00    -0.577 N  
HETATM    5  C   UNL     1     -11.741  10.714  69.951  1.00  0.00    -0.317 C  
HETATM    6  H   UNL     1     -13.839  10.682  70.027  1.00  0.00     0.000 HD 
HETATM    7  O   UNL     1     -10.678  10.213  70.297  1.00  0.00    -0.284 OA 
ENDROOT
BRANCH   5   8
HETATM    8  C   UNL     1     -11.754  11.992  69.179  1.00  0.00    -0.389 A  
HETATM    9  C   UNL     1     -11.916  13.182  69.890  1.00  0.00    -0.387 A  
HETATM   10  C   UNL     1     -11.976  14.364  69.177  1.00  0.00    -0.322 A  
HETATM   11  N   UNL     1     -11.876  14.432  67.832  1.00  0.00    -0.358 NA 
HETATM   12  C   UNL     1     -11.683  13.272  67.171  1.00  0.00    -0.376 A  
HETATM   13  C   UNL     1     -11.612  12.036  67.792  1.00  0.00    -0.400 A  
ENDBRANCH   5   8
TORSDOF 1
ENDMDL
MODEL       57
REMARK 921   NORMALIZED FREE ENERGY PREDICTED BY IDOCK:   -3.72 KCAL/MOL
REMARK 922        TOTAL FREE ENERGY PREDICTED BY IDOCK:   -3.98 KCAL/MOL
REMARK 923 INTER-LIGAND FREE ENERGY PREDICTED BY IDOCK:   -3.93 KCAL/MOL
REMARK 924 INTRA-LIGAND FREE ENERGY PREDICTED BY IDOCK:   -0.04 KCAL/MOL
REMARK 927      BINDING AFFINITY PREDICTED BY RF-SCORE:    0.00 PKD
ROOT
HETATM    1  N   UNL     1     -11.325   4.117  64.656  1.00  0.00    -0.917 NA 
HETATM    2  H1  UNL     1     -12.075   4.057  63.968  1.00  0.00     0.000 HD 
HETATM    3  H2  UNL     1     -10.526   3.485  64.604  1.00  0.00     0.000 HD 
HETATM    4  N   UNL     1     -11.403   5.082  65.680  1.00  0.00    -0.874 N  
HETATM    5  C   UNL     1     -10.380   5.164  66.620  1.00  0.00    -0.281 C  
HETATM    6  H   UNL     1     -12.201   5.714  65.731  1.00  0.00     0.000 HD 
HETATM    7  O   UNL     1      -9.430   4.390  66.656  1.00  0.00    -0.151 OA 
ENDROOT
BRANCH   5   8
HETATM    8  C   UNL     1     -10.527   6.225  67.659  1.00  0.00    -0.288 A  
HETATM    9  C   UNL     1     -10.317   7.549  67.275  1.00  0.00    -0.366 A  
HETATM   10  C   UNL     1     -10.406   8.531  68.243  1.00  0.00    -0.201 A  
HETATM   11  N   UNL     1     -10.695   8.281  69.538  1.00  0.00    -0.210 NA 
HETATM   12  C   UNL     1     -10.930   6.996  69.877  1.00  0.00    -0.263 A  
HETATM   13  C   UNL     1     -10.863   5.940  68.983  1.00  0.00    -0.383 A  
ENDBRANCH   5   8
TORSDOF 1
ENDMDL
MODEL       58
REMARK 921   NORMALIZED FREE ENERGY PREDICTED BY IDOCK:   -3.72 KCAL/MOL
REMARK 922        TOTAL FREE ENERGY PREDICTED BY IDOCK:   -3.98 KCAL/MOL
REMARK 923 INTER-LIGAND FREE ENERGY PREDICTED BY IDOCK:   -3.93 KCAL/MOL
REMARK 924 INTRA-LIGAND FREE ENERGY PREDICTED BY IDOCK:   -0.05 KCAL/MOL
REMARK 927      BINDING AFFINITY PREDICTED BY RF-SCORE:    0.00 PKD
ROOT
HETATM    1  N   UNL     1     -12.242  10.969  68.420  1.00  0.00    -0.780 NA 
HETATM    2  H1  UNL     1     -12.142  10.865  67.410  1.00  0.00     0.000 HD 
HETATM    3  H2  UNL     1     -12.795  11.734  68.806  1.00  0.00     0.000 HD 
HETATM    4  N   UNL     1     -11.608  10.047  69.275  1.00  0.00    -0.464 N  
HETATM    5  C   UNL     1     -11.744  10.189  70.653  1.00  0.00    -0.338 C  
HETATM    6  H   UNL     1     -11.055   9.282  68.889  1.00  0.00     0.000 HD 
HETATM    7  O   UNL     1     -12.334  11.124  71.182  1.00  0.00    -0.365 OA 
ENDROOT
BRANCH   5   8
HETATM    8  C   UNL     1     -11.059   9.161  71.490  1.00  0.00    -0.436 A  
HETATM    9  C   UNL     1      -9.668   9.082  71.419  1.00  0.00    -0.369 A  
HETATM   10  C   UNL     1      -9.032   8.102  72.155  1.00  0.00    -0.184 A  
HETATM   11  N   UNL     1      -9.680   7.224  72.950  1.00  0.00    -0.156 NA 
HETATM   12  C   UNL     1     -11.022   7.344  73.031  1.00  0.00    -0.374 A  
HETATM   13  C   UNL     1     -11.753   8.290  72.331  1.00  0.00    -0.463 A  
ENDBRANCH   5   8
TORSDOF 1
ENDMDL
MODEL       59
REMARK 921   NORMALIZED FREE ENERGY PREDICTED BY IDOCK:   -3.70 KCAL/MOL
REMARK 922        TOTAL FREE ENERGY PREDICTED BY IDOCK:   -3.96 KCAL/MOL
REMARK 923 INTER-LIGAND FREE ENERGY PREDICTED BY IDOCK:   -3.91 KCAL/MOL
REMARK 924 INTRA-LIGAND FREE ENERGY PREDICTED BY IDOCK:   -0.06 KCAL/MOL
REMARK 927      BINDING AFFINITY PREDICTED BY RF-SCORE:    0.00 PKD
ROOT
HETATM    1  N   UNL     1      -9.081  12.424  68.723  1.00  0.00    -0.391 NA 
HETATM    2  H1  UNL     1      -9.187  12.820  69.657  1.00  0.00     0.000 HD 
HETATM    3  H2  UNL     1      -8.358  11.730  68.537  1.00  0.00     0.000 HD 
HETATM    4  N   UNL     1      -9.945  12.847  67.693  1.00  0.00    -0.214 N  
HETATM    5  C   UNL     1      -9.801  12.307  66.418  1.00  0.00    -0.230 C  
HETATM    6  H   UNL     1     -10.668  13.541  67.880  1.00  0.00     0.000 HD 
HETATM    7  O   UNL     1      -8.910  11.523  66.111  1.00  0.00    -0.198 OA 
ENDROOT
BRANCH   5   8
HETATM    8  C   UNL     1     -10.766  12.791  65.388  1.00  0.00    -0.309 A  
HETATM    9  C   UNL     1     -11.131  14.137  65.416  1.00  0.00    -0.321 A  
HETATM   10  C   UNL     1     -12.060  14.581  64.495  1.00  0.00    -0.484 A  
HETATM   11  N   UNL     1     -12.624  13.787  63.560  1.00  0.00    -0.808 NA 
HETATM   12  C   UNL     1     -12.227  12.497  63.529  1.00  0.00    -0.558 A  
HETATM   13  C   UNL     1     -11.307  11.955  64.411  1.00  0.00    -0.395 A  
ENDBRANCH   5   8
TORSDOF 1
ENDMDL
MODEL       60
REMARK 921   NORMALIZED FREE ENERGY PREDICTED BY IDOCK:   -3.69 KCAL/MOL
REMARK 922        TOTAL FREE ENERGY PREDICTED BY IDOCK:   -3.95 KCAL/MOL
REMARK 923 INTER-LIGAND FREE ENERGY PREDICTED BY IDOCK:   -3.91 KCAL/MOL
REMARK 924 INTRA-LIGAND FREE ENERGY PREDICTED BY IDOCK:   -0.05 KCAL/MOL
REMARK 927      BINDING AFFINITY PREDICTED BY RF-SCORE:    0.00 PKD
ROOT
HETATM    1  N   UNL     1     -10.293  14.956  69.977  1.00  0.00    -0.473 NA 
HETATM    2  H1  UNL     1     -10.677  15.612  70.658  1.00  0.00     0.000 HD 
HETATM    3  H2  UNL     1      -9.452  14.421  70.195  1.00  0.00     0.000 HD 
HETATM    4  N   UNL     1     -10.935  14.797  68.733  1.00  0.00    -0.248 N  
HETATM    5  C   UNL     1     -10.411  13.903  67.804  1.00  0.00    -0.240 C  
HETATM    6  H   UNL     1     -11.775  15.332  68.515  1.00  0.00     0.000 HD 
HETATM    7  O   UNL     1      -9.367  13.283  67.975  1.00  0.00    -0.204 OA 
ENDROOT
BRANCH   5   8
HETATM    8  C   UNL     1     -11.159  13.777  66.520  1.00  0.00    -0.309 A  
HETATM    9  C   UNL     1     -11.187  14.883  65.669  1.00  0.00    -0.347 A  
HETATM   10  C   UNL     1     -11.917  14.788  64.500  1.00  0.00    -0.440 A  
HETATM   11  N   UNL     1     -12.595  13.681  64.129  1.00  0.00    -0.674 NA 
HETATM   12  C   UNL     1     -12.521  12.613  64.950  1.00  0.00    -0.494 A  
HETATM   13  C   UNL     1     -11.820  12.607  66.144  1.00  0.00    -0.477 A  
ENDBRANCH   5   8
TORSDOF 1
ENDMDL
MODEL       61
REMARK 921   NORMALIZED FREE ENERGY PREDICTED BY IDOCK:   -3.67 KCAL/MOL
REMARK 922        TOTAL FREE ENERGY PREDICTED BY IDOCK:   -3.93 KCAL/MOL
REMARK 923 INTER-LIGAND FREE ENERGY PREDICTED BY IDOCK:   -3.88 KCAL/MOL
REMARK 924 INTRA-LIGAND FREE ENERGY PREDICTED BY IDOCK:   -0.05 KCAL/MOL
REMARK 927      BINDING AFFINITY PREDICTED BY RF-SCORE:    0.00 PKD
ROOT
HETATM    1  N   UNL     1     -11.203   5.776  66.392  1.00  0.00    -0.744 NA 
HETATM    2  H1  UNL     1     -11.557   6.067  65.481  1.00  0.00     0.000 HD 
HETATM    3  H2  UNL     1     -10.711   4.889  66.494  1.00  0.00     0.000 HD 
HETATM    4  N   UNL     1     -11.402   6.612  67.509  1.00  0.00    -0.732 N  
HETATM    5  C   UNL     1     -10.919   6.215  68.753  1.00  0.00    -0.348 C  
HETATM    6  H   UNL     1     -11.894   7.499  67.407  1.00  0.00     0.000 HD 
HETATM    7  O   UNL     1     -10.382   5.132  68.957  1.00  0.00    -0.199 OA 
ENDROOT
BRANCH   5   8
HETATM    8  C   UNL     1     -11.152   7.164  69.880  1.00  0.00    -0.264 A  
HETATM    9  C   UNL     1     -11.772   6.673  71.030  1.00  0.00    -0.415 A  
HETATM   10  C   UNL     1     -12.033   7.557  72.059  1.00  0.00    -0.294 A  
HETATM   11  N   UNL     1     -11.710   8.868  72.019  1.00  0.00    -0.367 NA 
HETATM   12  C   UNL     1     -11.077   9.311  70.912  1.00  0.00    -0.306 A  
HETATM   13  C   UNL     1     -10.775   8.506  69.826  1.00  0.00    -0.213 A  
ENDBRANCH   5   8
TORSDOF 1
ENDMDL
MODEL       62
REMARK 921   NORMALIZED FREE ENERGY PREDICTED BY IDOCK:   -3.66 KCAL/MOL
REMARK 922        TOTAL FREE ENERGY PREDICTED BY IDOCK:   -3.92 KCAL/MOL
REMARK 923 INTER-LIGAND FREE ENERGY PREDICTED BY IDOCK:   -3.87 KCAL/MOL
REMARK 924 INTRA-LIGAND FREE ENERGY PREDICTED BY IDOCK:   -0.05 KCAL/MOL
REMARK 927      BINDING AFFINITY PREDICTED BY RF-SCORE:    0.00 PKD
ROOT
HETATM    1  N   UNL     1     -11.647   9.987  68.297  1.00  0.00    -0.632 NA 
HETATM    2  H1  UNL     1     -11.386   9.172  68.853  1.00  0.00     0.000 HD 
HETATM    3  H2  UNL     1     -11.991   9.872  67.344  1.00  0.00     0.000 HD 
HETATM    4  N   UNL     1     -11.526  11.273  68.860  1.00  0.00    -0.267 N  
HETATM    5  C   UNL     1     -11.881  12.386  68.103  1.00  0.00    -0.315 C  
HETATM    6  H   UNL     1     -11.182  11.388  69.813  1.00  0.00     0.000 HD 
HETATM    7  O   UNL     1     -12.234  12.322  66.930  1.00  0.00    -0.530 OA 
ENDROOT
BRANCH   5   8
HETATM    8  C   UNL     1     -11.744  13.710  68.776  1.00  0.00    -0.383 A  
HETATM    9  C   UNL     1     -11.211  14.767  68.037  1.00  0.00    -0.311 A  
HETATM   10  C   UNL     1     -11.037  15.982  68.669  1.00  0.00    -0.349 A  
HETATM   11  N   UNL     1     -11.366  16.209  69.959  1.00  0.00    -0.341 NA 
HETATM   12  C   UNL     1     -11.915  15.182  70.642  1.00  0.00    -0.324 A  
HETATM   13  C   UNL     1     -12.126  13.925  70.101  1.00  0.00    -0.418 A  
ENDBRANCH   5   8
TORSDOF 1
ENDMDL
MODEL       63
REMARK 921   NORMALIZED FREE ENERGY PREDICTED BY IDOCK:   -3.65 KCAL/MOL
REMARK 922        TOTAL FREE ENERGY PREDICTED BY IDOCK:   -3.91 KCAL/MOL
REMARK 923 INTER-LIGAND FREE ENERGY PREDICTED BY IDOCK:   -3.85 KCAL/MOL
REMARK 924 INTRA-LIGAND FREE ENERGY PREDICTED BY IDOCK:   -0.06 KCAL/MOL
REMARK 927      BINDING AFFINITY PREDICTED BY RF-SCORE:    0.00 PKD
ROOT
HETATM    1  N   UNL     1     -10.311  17.147  65.520  1.00  0.00    -0.631 NA 
HETATM    2  H1  UNL     1      -9.994  17.366  64.575  1.00  0.00     0.000 HD 
HETATM    3  H2  UNL     1     -10.426  17.890  66.209  1.00  0.00     0.000 HD 
HETATM    4  N   UNL     1     -10.588  15.809  65.861  1.00  0.00    -0.329 N  
HETATM    5  C   UNL     1     -11.021  15.510  67.150  1.00  0.00    -0.295 C  
HETATM    6  H   UNL     1     -10.473  15.067  65.172  1.00  0.00     0.000 HD 
HETATM    7  O   UNL     1     -11.112  16.343  68.045  1.00  0.00    -0.348 OA 
ENDROOT
BRANCH   5   8
HETATM    8  C   UNL     1     -11.312  14.073  67.428  1.00  0.00    -0.350 A  
HETATM    9  C   UNL     1     -11.636  13.713  68.737  1.00  0.00    -0.359 A  
HETATM   10  C   UNL     1     -11.861  12.378  69.009  1.00  0.00    -0.300 A  
HETATM   11  N   UNL     1     -11.796  11.403  68.077  1.00  0.00    -0.622 NA 
HETATM   12  C   UNL     1     -11.518  11.780  66.812  1.00  0.00    -0.281 A  
HETATM   13  C   UNL     1     -11.274  13.091  66.437  1.00  0.00    -0.332 A  
ENDBRANCH   5   8
TORSDOF 1
ENDMDL
MODEL       64
REMARK 921   NORMALIZED FREE ENERGY PREDICTED BY IDOCK:   -3.64 KCAL/MOL
REMARK 922        TOTAL FREE ENERGY PREDICTED BY IDOCK:   -3.90 KCAL/MOL
REMARK 923 INTER-LIGAND FREE ENERGY PREDICTED BY IDOCK:   -3.85 KCAL/MOL
REMARK 924 INTRA-LIGAND FREE ENERGY PREDICTED BY IDOCK:   -0.06 KCAL/MOL
REMARK 927      BINDING AFFINITY PREDICTED BY RF-SCORE:    0.00 PKD
ROOT
HETATM    1  N   UNL     1     -10.144  13.907  64.877  1.00  0.00    -0.606 NA 
HETATM    2  H1  UNL     1      -9.505  14.475  64.321  1.00  0.00     0.000 HD 
HETATM    3  H2  UNL     1     -10.536  13.047  64.492  1.00  0.00     0.000 HD 
HETATM    4  N   UNL     1     -10.481  14.321  66.180  1.00  0.00    -0.285 N  
HETATM    5  C   UNL     1     -11.354  13.547  66.939  1.00  0.00    -0.326 C  
HETATM    6  H   UNL     1     -10.088  15.181  66.565  1.00  0.00     0.000 HD 
HETATM    7  O   UNL     1     -11.914  12.544  66.512  1.00  0.00    -0.522 OA 
ENDROOT
BRANCH   5   8
HETATM    8  C   UNL     1     -11.644  14.043  68.316  1.00  0.00    -0.364 A  
HETATM    9  C   UNL     1     -11.897  13.098  69.311  1.00  0.00    -0.377 A  
HETATM   10  C   UNL     1     -12.212  13.553  70.577  1.00  0.00    -0.361 A  
HETATM   11  N   UNL     1     -12.279  14.860  70.907  1.00  0.00    -0.301 NA 
HETATM   12  C   UNL     1     -11.995  15.754  69.937  1.00  0.00    -0.332 A  
HETATM   13  C   UNL     1     -11.671  15.400  68.637  1.00  0.00    -0.371 A  
ENDBRANCH   5   8
TORSDOF 1
ENDMDL
MODEL       65
REMARK 921   NORMALIZED FREE ENERGY PREDICTED BY IDOCK:   -3.61 KCAL/MOL
REMARK 922        TOTAL FREE ENERGY PREDICTED BY IDOCK:   -3.86 KCAL/MOL
REMARK 923 INTER-LIGAND FREE ENERGY PREDICTED BY IDOCK:   -3.81 KCAL/MOL
REMARK 924 INTRA-LIGAND FREE ENERGY PREDICTED BY IDOCK:   -0.05 KCAL/MOL
REMARK 927      BINDING AFFINITY PREDICTED BY RF-SCORE:    0.00 PKD
ROOT
HETATM    1  N   UNL     1     -12.285   9.502  70.305  1.00  0.00    -0.466 NA 
HETATM    2  H1  UNL     1     -12.909   9.364  71.100  1.00  0.00     0.000 HD 
HETATM    3  H2  UNL     1     -11.629   8.771  70.033  1.00  0.00     0.000 HD 
HETATM    4  N   UNL     1     -12.338  10.714  69.588  1.00  0.00    -0.531 N  
HETATM    5  C   UNL     1     -11.485  10.902  68.504  1.00  0.00    -0.310 C  
HETATM    6  H   UNL     1     -12.994  11.445  69.860  1.00  0.00     0.000 HD 
HETATM    7  O   UNL     1     -10.626  10.094  68.169  1.00  0.00    -0.193 OA 
ENDROOT
BRANCH   5   8
HETATM    8  C   UNL     1     -11.616  12.203  67.785  1.00  0.00    -0.410 A  
HETATM    9  C   UNL     1     -11.535  12.190  66.392  1.00  0.00    -0.430 A  
HETATM   10  C   UNL     1     -11.608  13.397  65.723  1.00  0.00    -0.332 A  
HETATM   11  N   UNL     1     -11.766  14.587  66.342  1.00  0.00    -0.376 NA 
HETATM   12  C   UNL     1     -11.879  14.569  67.686  1.00  0.00    -0.364 A  
HETATM   13  C   UNL     1     -11.815  13.414  68.448  1.00  0.00    -0.401 A  
ENDBRANCH   5   8
TORSDOF 1
ENDMDL
MODEL       66
REMARK 921   NORMALIZED FREE ENERGY PREDICTED BY IDOCK:   -3.59 KCAL/MOL
REMARK 922        TOTAL FREE ENERGY PREDICTED BY IDOCK:   -3.84 KCAL/MOL
REMARK 923 INTER-LIGAND FREE ENERGY PREDICTED BY IDOCK:   -3.78 KCAL/MOL
REMARK 924 INTRA-LIGAND FREE ENERGY PREDICTED BY IDOCK:   -0.06 KCAL/MOL
REMARK 927      BINDING AFFINITY PREDICTED BY RF-SCORE:    0.00 PKD
ROOT
HETATM    1  N   UNL     1      -7.171  11.754  66.763  1.00  0.00    -0.326 NA 
HETATM    2  H1  UNL     1      -6.545  11.001  66.478  1.00  0.00     0.000 HD 
HETATM    3  H2  UNL     1      -6.921  12.365  67.540  1.00  0.00     0.000 HD 
HETATM    4  N   UNL     1      -8.384  11.941  66.072  1.00  0.00    -0.376 N  
HETATM    5  C   UNL     1      -9.240  12.968  66.461  1.00  0.00    -0.181 C  
HETATM    6  H   UNL     1      -8.634  11.329  65.295  1.00  0.00     0.000 HD 
HETATM    7  O   UNL     1      -9.033  13.692  67.428  1.00  0.00    -0.197 OA 
ENDROOT
BRANCH   5   8
HETATM    8  C   UNL     1     -10.495  13.113  65.667  1.00  0.00    -0.290 A  
HETATM    9  C   UNL     1     -10.514  12.590  64.374  1.00  0.00    -0.384 A  
HETATM   10  C   UNL     1     -11.657  12.763  63.618  1.00  0.00    -0.506 A  
HETATM   11  N   UNL     1     -12.762  13.397  64.065  1.00  0.00    -0.659 NA 
HETATM   12  C   UNL     1     -12.732  13.861  65.332  1.00  0.00    -0.490 A  
HETATM   13  C   UNL     1     -11.635  13.742  66.169  1.00  0.00    -0.369 A  
ENDBRANCH   5   8
TORSDOF 1
ENDMDL
MODEL       67
REMARK 921   NORMALIZED FREE ENERGY PREDICTED BY IDOCK:   -3.59 KCAL/MOL
REMARK 922        TOTAL FREE ENERGY PREDICTED BY IDOCK:   -3.84 KCAL/MOL
REMARK 923 INTER-LIGAND FREE ENERGY PREDICTED BY IDOCK:   -3.78 KCAL/MOL
REMARK 924 INTRA-LIGAND FREE ENERGY PREDICTED BY IDOCK:   -0.06 KCAL/MOL
REMARK 927      BINDING AFFINITY PREDICTED BY RF-SCORE:    0.00 PKD
ROOT
HETATM    1  N   UNL     1     -11.976   9.816  69.813  1.00  0.00    -0.448 NA 
HETATM    2  H1  UNL     1     -11.973   8.800  69.906  1.00  0.00     0.000 HD 
HETATM    3  H2  UNL     1     -12.121  10.407  70.631  1.00  0.00     0.000 HD 
HETATM    4  N   UNL     1     -11.779  10.393  68.544  1.00  0.00    -0.508 N  
HETATM    5  C   UNL     1     -11.783  11.779  68.416  1.00  0.00    -0.325 C  
HETATM    6  H   UNL     1     -11.634   9.801  67.726  1.00  0.00     0.000 HD 
HETATM    7  O   UNL     1     -12.021  12.544  69.344  1.00  0.00    -0.298 OA 
ENDROOT
BRANCH   5   8
HETATM    8  C   UNL     1     -11.547  12.313  67.043  1.00  0.00    -0.418 A  
HETATM    9  C   UNL     1     -10.677  11.610  66.209  1.00  0.00    -0.317 A  
HETATM   10  C   UNL     1     -10.419  12.124  64.953  1.00  0.00    -0.288 A  
HETATM   11  N   UNL     1     -10.971  13.263  64.483  1.00  0.00    -0.362 NA 
HETATM   12  C   UNL     1     -11.837  13.905  65.294  1.00  0.00    -0.357 A  
HETATM   13  C   UNL     1     -12.160  13.474  66.570  1.00  0.00    -0.460 A  
ENDBRANCH   5   8
TORSDOF 1
ENDMDL
MODEL       68
REMARK 921   NORMALIZED FREE ENERGY PREDICTED BY IDOCK:   -3.58 KCAL/MOL
REMARK 922        TOTAL FREE ENERGY PREDICTED BY IDOCK:   -3.83 KCAL/MOL
REMARK 923 INTER-LIGAND FREE ENERGY PREDICTED BY IDOCK:   -3.78 KCAL/MOL
REMARK 924 INTRA-LIGAND FREE ENERGY PREDICTED BY IDOCK:   -0.05 KCAL/MOL
REMARK 927      BINDING AFFINITY PREDICTED BY RF-SCORE:    0.00 PKD
ROOT
HETATM    1  N   UNL     1      -9.386  17.924  66.110  1.00  0.00    -0.503 NA 
HETATM    2  H1  UNL     1      -8.784  18.338  65.398  1.00  0.00     0.000 HD 
HETATM    3  H2  UNL     1      -9.626  18.449  66.951  1.00  0.00     0.000 HD 
HETATM    4  N   UNL     1      -9.881  16.619  65.920  1.00  0.00    -0.300 N  
HETATM    5  C   UNL     1     -10.702  16.052  66.891  1.00  0.00    -0.262 C  
HETATM    6  H   UNL     1      -9.640  16.094  65.080  1.00  0.00     0.000 HD 
HETATM    7  O   UNL     1     -10.971  16.600  67.954  1.00  0.00    -0.342 OA 
ENDROOT
BRANCH   5   8
HETATM    8  C   UNL     1     -11.201  14.675  66.607  1.00  0.00    -0.349 A  
HETATM    9  C   UNL     1     -11.854  14.454  65.394  1.00  0.00    -0.366 A  
HETATM   10  C   UNL     1     -12.360  13.193  65.145  1.00  0.00    -0.473 A  
HETATM   11  N   UNL     1     -12.246  12.159  66.006  1.00  0.00    -0.525 NA 
HETATM   12  C   UNL     1     -11.578  12.387  67.156  1.00  0.00    -0.365 A  
HETATM   13  C   UNL     1     -11.038  13.615  67.500  1.00  0.00    -0.296 A  
ENDBRANCH   5   8
TORSDOF 1
ENDMDL
MODEL       69
REMARK 921   NORMALIZED FREE ENERGY PREDICTED BY IDOCK:   -3.57 KCAL/MOL
REMARK 922        TOTAL FREE ENERGY PREDICTED BY IDOCK:   -3.83 KCAL/MOL
REMARK 923 INTER-LIGAND FREE ENERGY PREDICTED BY IDOCK:   -3.78 KCAL/MOL
REMARK 924 INTRA-LIGAND FREE ENERGY PREDICTED BY IDOCK:   -0.05 KCAL/MOL
REMARK 927      BINDING AFFINITY PREDICTED BY RF-SCORE:    0.00 PKD
ROOT
HETATM    1  N   UNL     1     -13.802  15.449  70.777  1.00  0.00    -0.860 NA 
HETATM    2  H1  UNL     1     -14.384  16.057  71.353  1.00  0.00     0.000 HD 
HETATM    3  H2  UNL     1     -13.889  14.435  70.847  1.00  0.00     0.000 HD 
HETATM    4  N   UNL     1     -12.876  16.024  69.884  1.00  0.00    -0.555 N  
HETATM    5  C   UNL     1     -12.081  15.195  69.098  1.00  0.00    -0.224 C  
HETATM    6  H   UNL     1     -12.789  17.038  69.814  1.00  0.00     0.000 HD 
HETATM    7  O   UNL     1     -12.085  13.972  69.184  1.00  0.00    -0.346 OA 
ENDROOT
BRANCH   5   8
HETATM    8  C   UNL     1     -11.140  15.881  68.164  1.00  0.00    -0.338 A  
HETATM    9  C   UNL     1     -11.057  15.405  66.855  1.00  0.00    -0.256 A  
HETATM   10  C   UNL     1     -10.154  16.005  66.000  1.00  0.00    -0.341 A  
HETATM   11  N   UNL     1      -9.356  17.035  66.356  1.00  0.00    -0.265 NA 
HETATM   12  C   UNL     1      -9.482  17.501  67.616  1.00  0.00    -0.256 A  
HETATM   13  C   UNL     1     -10.354  16.966  68.550  1.00  0.00    -0.336 A  
ENDBRANCH   5   8
TORSDOF 1
ENDMDL
MODEL       70
REMARK 921   NORMALIZED FREE ENERGY PREDICTED BY IDOCK:   -3.52 KCAL/MOL
REMARK 922        TOTAL FREE ENERGY PREDICTED BY IDOCK:   -3.77 KCAL/MOL
REMARK 923 INTER-LIGAND FREE ENERGY PREDICTED BY IDOCK:   -3.72 KCAL/MOL
REMARK 924 INTRA-LIGAND FREE ENERGY PREDICTED BY IDOCK:   -0.05 KCAL/MOL
REMARK 927      BINDING AFFINITY PREDICTED BY RF-SCORE:    0.00 PKD
ROOT
HETATM    1  N   UNL     1     -14.000   8.745  73.161  1.00  0.00    -1.162 NA 
HETATM    2  H1  UNL     1     -14.979   9.006  73.048  1.00  0.00     0.000 HD 
HETATM    3  H2  UNL     1     -13.557   8.788  74.078  1.00  0.00     0.000 HD 
HETATM    4  N   UNL     1     -13.264   8.324  72.035  1.00  0.00    -0.413 N  
HETATM    5  C   UNL     1     -11.927   7.967  72.188  1.00  0.00    -0.348 C  
HETATM    6  H   UNL     1     -13.706   8.280  71.117  1.00  0.00     0.000 HD 
HETATM    7  O   UNL     1     -11.317   8.064  73.247  1.00  0.00    -0.270 OA 
ENDROOT
BRANCH   5   8
HETATM    8  C   UNL     1     -11.223   7.514  70.953  1.00  0.00    -0.286 A  
HETATM    9  C   UNL     1      -9.965   8.054  70.683  1.00  0.00    -0.198 A  
HETATM   10  C   UNL     1      -9.329   7.674  69.517  1.00  0.00    -0.153 A  
HETATM   11  N   UNL     1      -9.851   6.799  68.631  1.00  0.00    -0.141 NA 
HETATM   12  C   UNL     1     -11.052   6.262  68.933  1.00  0.00    -0.362 A  
HETATM   13  C   UNL     1     -11.771   6.580  70.073  1.00  0.00    -0.388 A  
ENDBRANCH   5   8
TORSDOF 1
ENDMDL
MODEL       71
REMARK 921   NORMALIZED FREE ENERGY PREDICTED BY IDOCK:   -3.52 KCAL/MOL
REMARK 922        TOTAL FREE ENERGY PREDICTED BY IDOCK:   -3.77 KCAL/MOL
REMARK 923 INTER-LIGAND FREE ENERGY PREDICTED BY IDOCK:   -3.72 KCAL/MOL
REMARK 924 INTRA-LIGAND FREE ENERGY PREDICTED BY IDOCK:   -0.04 KCAL/MOL
REMARK 927      BINDING AFFINITY PREDICTED BY RF-SCORE:    0.00 PKD
ROOT
HETATM    1  N   UNL     1     -12.311  15.306  69.924  1.00  0.00    -0.510 NA 
HETATM    2  H1  UNL     1     -12.652  15.203  70.880  1.00  0.00     0.000 HD 
HETATM    3  H2  UNL     1     -12.520  14.595  69.223  1.00  0.00     0.000 HD 
HETATM    4  N   UNL     1     -11.548  16.440  69.582  1.00  0.00    -0.299 N  
HETATM    5  C   UNL     1     -11.082  16.580  68.277  1.00  0.00    -0.321 C  
HETATM    6  H   UNL     1     -11.338  17.150  70.282  1.00  0.00     0.000 HD 
HETATM    7  O   UNL     1     -11.237  15.731  67.408  1.00  0.00    -0.286 OA 
ENDROOT
BRANCH   5   8
HETATM    8  C   UNL     1     -10.298  17.817  67.990  1.00  0.00    -0.395 A  
HETATM    9  C   UNL     1      -9.029  17.933  68.560  1.00  0.00    -0.291 A  
HETATM   10  C   UNL     1      -8.318  19.096  68.335  1.00  0.00    -0.349 A  
HETATM   11  N   UNL     1      -8.777  20.121  67.586  1.00  0.00    -0.323 NA 
HETATM   12  C   UNL     1      -9.991  19.969  67.015  1.00  0.00    -0.445 A  
HETATM   13  C   UNL     1     -10.783  18.845  67.181  1.00  0.00    -0.506 A  
ENDBRANCH   5   8
TORSDOF 1
ENDMDL
MODEL       72
REMARK 921   NORMALIZED FREE ENERGY PREDICTED BY IDOCK:   -3.48 KCAL/MOL
REMARK 922        TOTAL FREE ENERGY PREDICTED BY IDOCK:   -3.72 KCAL/MOL
REMARK 923 INTER-LIGAND FREE ENERGY PREDICTED BY IDOCK:   -3.66 KCAL/MOL
REMARK 924 INTRA-LIGAND FREE ENERGY PREDICTED BY IDOCK:   -0.06 KCAL/MOL
REMARK 927      BINDING AFFINITY PREDICTED BY RF-SCORE:    0.00 PKD
ROOT
HETATM    1  N   UNL     1      -9.935  20.049  67.835  1.00  0.00    -0.407 NA 
HETATM    2  H1  UNL     1      -9.700  20.454  68.741  1.00  0.00     0.000 HD 
HETATM    3  H2  UNL     1     -10.073  20.649  67.023  1.00  0.00     0.000 HD 
HETATM    4  N   UNL     1     -10.065  18.651  67.718  1.00  0.00    -0.351 N  
HETATM    5  C   UNL     1     -10.385  18.096  66.482  1.00  0.00    -0.386 C  
HETATM    6  H   UNL     1      -9.926  18.051  68.531  1.00  0.00     0.000 HD 
HETATM    7  O   UNL     1     -10.634  18.764  65.485  1.00  0.00    -0.596 OA 
ENDROOT
BRANCH   5   8
HETATM    8  C   UNL     1     -10.486  16.608  66.436  1.00  0.00    -0.266 A  
HETATM    9  C   UNL     1     -10.737  16.009  65.202  1.00  0.00    -0.429 A  
HETATM   10  C   UNL     1     -10.878  14.635  65.161  1.00  0.00    -0.401 A  
HETATM   11  N   UNL     1     -10.774  13.839  66.246  1.00  0.00    -0.284 NA 
HETATM   12  C   UNL     1     -10.493  14.439  67.422  1.00  0.00    -0.261 A  
HETATM   13  C   UNL     1     -10.338  15.808  67.569  1.00  0.00    -0.280 A  
ENDBRANCH   5   8
TORSDOF 1
ENDMDL
MODEL       73
REMARK 921   NORMALIZED FREE ENERGY PREDICTED BY IDOCK:   -3.47 KCAL/MOL
REMARK 922        TOTAL FREE ENERGY PREDICTED BY IDOCK:   -3.72 KCAL/MOL
REMARK 923 INTER-LIGAND FREE ENERGY PREDICTED BY IDOCK:   -3.68 KCAL/MOL
REMARK 924 INTRA-LIGAND FREE ENERGY PREDICTED BY IDOCK:   -0.04 KCAL/MOL
REMARK 927      BINDING AFFINITY PREDICTED BY RF-SCORE:    0.00 PKD
ROOT
HETATM    1  N   UNL     1     -10.865   5.661  69.364  1.00  0.00    -0.313 NA 
HETATM    2  H1  UNL     1     -11.337   5.038  68.709  1.00  0.00     0.000 HD 
HETATM    3  H2  UNL     1      -9.979   5.389  69.787  1.00  0.00     0.000 HD 
HETATM    4  N   UNL     1     -11.452   6.903  69.679  1.00  0.00    -0.555 N  
HETATM    5  C   UNL     1     -10.809   7.754  70.573  1.00  0.00    -0.241 C  
HETATM    6  H   UNL     1     -12.339   7.176  69.255  1.00  0.00     0.000 HD 
HETATM    7  O   UNL     1      -9.780   7.458  71.170  1.00  0.00    -0.164 OA 
ENDROOT
BRANCH   5   8
HETATM    8  C   UNL     1     -11.484   9.058  70.839  1.00  0.00    -0.347 A  
HETATM    9  C   UNL     1     -12.434   9.106  71.860  1.00  0.00    -0.459 A  
HETATM   10  C   UNL     1     -13.096  10.298  72.080  1.00  0.00    -0.425 A  
HETATM   11  N   UNL     1     -12.866  11.423  71.370  1.00  0.00    -0.422 NA 
HETATM   12  C   UNL     1     -11.916  11.362  70.413  1.00  0.00    -0.374 A  
HETATM   13  C   UNL     1     -11.200  10.215  70.113  1.00  0.00    -0.377 A  
ENDBRANCH   5   8
TORSDOF 1
ENDMDL
MODEL       74
REMARK 921   NORMALIZED FREE ENERGY PREDICTED BY IDOCK:   -3.47 KCAL/MOL
REMARK 922        TOTAL FREE ENERGY PREDICTED BY IDOCK:   -3.72 KCAL/MOL
REMARK 923 INTER-LIGAND FREE ENERGY PREDICTED BY IDOCK:   -3.68 KCAL/MOL
REMARK 924 INTRA-LIGAND FREE ENERGY PREDICTED BY IDOCK:   -0.04 KCAL/MOL
REMARK 927      BINDING AFFINITY PREDICTED BY RF-SCORE:    0.00 PKD
ROOT
HETATM    1  N   UNL     1      -8.709  10.310  70.056  1.00  0.00    -0.358 NA 
HETATM    2  H1  UNL     1      -8.511  10.831  69.202  1.00  0.00     0.000 HD 
HETATM    3  H2  UNL     1      -7.963  10.109  70.722  1.00  0.00     0.000 HD 
HETATM    4  N   UNL     1     -10.024   9.871  70.307  1.00  0.00    -0.350 N  
HETATM    5  C   UNL     1     -10.295   9.160  71.473  1.00  0.00    -0.344 C  
HETATM    6  H   UNL     1     -10.770  10.072  69.642  1.00  0.00     0.000 HD 
HETATM    7  O   UNL     1      -9.434   8.825  72.278  1.00  0.00    -0.293 OA 
ENDROOT
BRANCH   5   8
HETATM    8  C   UNL     1     -11.715   8.748  71.675  1.00  0.00    -0.402 A  
HETATM    9  C   UNL     1     -12.074   7.447  71.323  1.00  0.00    -0.359 A  
HETATM   10  C   UNL     1     -13.397   7.074  71.463  1.00  0.00    -0.294 A  
HETATM   11  N   UNL     1     -14.359   7.895  71.935  1.00  0.00    -0.429 NA 
HETATM   12  C   UNL     1     -13.980   9.137  72.304  1.00  0.00    -0.420 A  
HETATM   13  C   UNL     1     -12.682   9.607  72.199  1.00  0.00    -0.427 A  
ENDBRANCH   5   8
TORSDOF 1
ENDMDL
MODEL       75
REMARK 921   NORMALIZED FREE ENERGY PREDICTED BY IDOCK:   -3.47 KCAL/MOL
REMARK 922        TOTAL FREE ENERGY PREDICTED BY IDOCK:   -3.72 KCAL/MOL
REMARK 923 INTER-LIGAND FREE ENERGY PREDICTED BY IDOCK:   -3.66 KCAL/MOL
REMARK 924 INTRA-LIGAND FREE ENERGY PREDICTED BY IDOCK:   -0.06 KCAL/MOL
REMARK 927      BINDING AFFINITY PREDICTED BY RF-SCORE:    0.00 PKD
ROOT
HETATM    1  N   UNL     1     -14.018  13.142  72.738  1.00  0.00    -0.688 NA 
HETATM    2  H1  UNL     1     -14.249  12.261  73.196  1.00  0.00     0.000 HD 
HETATM    3  H2  UNL     1     -14.401  14.020  73.087  1.00  0.00     0.000 HD 
HETATM    4  N   UNL     1     -13.165  13.134  71.616  1.00  0.00    -0.375 N  
HETATM    5  C   UNL     1     -12.850  14.337  70.990  1.00  0.00    -0.357 C  
HETATM    6  H   UNL     1     -12.782  12.256  71.267  1.00  0.00     0.000 HD 
HETATM    7  O   UNL     1     -13.331  15.416  71.316  1.00  0.00    -0.466 OA 
ENDROOT
BRANCH   5   8
HETATM    8  C   UNL     1     -11.926  14.247  69.822  1.00  0.00    -0.394 A  
HETATM    9  C   UNL     1     -11.195  15.384  69.478  1.00  0.00    -0.289 A  
HETATM   10  C   UNL     1     -10.373  15.321  68.370  1.00  0.00    -0.227 A  
HETATM   11  N   UNL     1     -10.228  14.216  67.608  1.00  0.00    -0.239 NA 
HETATM   12  C   UNL     1     -10.917  13.117  67.983  1.00  0.00    -0.247 A  
HETATM   13  C   UNL     1     -11.768  13.079  69.074  1.00  0.00    -0.376 A  
ENDBRANCH   5   8
TORSDOF 1
ENDMDL
MODEL       76
REMARK 921   NORMALIZED FREE ENERGY PREDICTED BY IDOCK:   -3.46 KCAL/MOL
REMARK 922        TOTAL FREE ENERGY PREDICTED BY IDOCK:   -3.70 KCAL/MOL
REMARK 923 INTER-LIGAND FREE ENERGY PREDICTED BY IDOCK:   -3.66 KCAL/MOL
REMARK 924 INTRA-LIGAND FREE ENERGY PREDICTED BY IDOCK:   -0.05 KCAL/MOL
REMARK 927      BINDING AFFINITY PREDICTED BY RF-SCORE:    0.00 PKD
ROOT
HETATM    1  N   UNL     1      -9.179  14.864  69.484  1.00  0.00    -0.428 NA 
HETATM    2  H1  UNL     1      -9.269  15.595  70.190  1.00  0.00     0.000 HD 
HETATM    3  H2  UNL     1      -8.491  14.120  69.599  1.00  0.00     0.000 HD 
HETATM    4  N   UNL     1     -10.013  14.894  68.349  1.00  0.00    -0.217 N  
HETATM    5  C   UNL     1      -9.889  13.897  67.385  1.00  0.00    -0.237 C  
HETATM    6  H   UNL     1     -10.700  15.638  68.235  1.00  0.00     0.000 HD 
HETATM    7  O   UNL     1      -9.037  13.017  67.427  1.00  0.00    -0.184 OA 
ENDROOT
BRANCH   5   8
HETATM    8  C   UNL     1     -10.821  13.988  66.224  1.00  0.00    -0.291 A  
HETATM    9  C   UNL     1     -11.616  12.878  65.936  1.00  0.00    -0.423 A  
HETATM   10  C   UNL     1     -12.447  12.939  64.834  1.00  0.00    -0.478 A  
HETATM   11  N   UNL     1     -12.541  14.017  64.027  1.00  0.00    -0.678 NA 
HETATM   12  C   UNL     1     -11.790  15.092  64.348  1.00  0.00    -0.339 A  
HETATM   13  C   UNL     1     -10.924  15.129  65.428  1.00  0.00    -0.381 A  
ENDBRANCH   5   8
TORSDOF 1
ENDMDL
MODEL       77
REMARK 921   NORMALIZED FREE ENERGY PREDICTED BY IDOCK:   -3.44 KCAL/MOL
REMARK 922        TOTAL FREE ENERGY PREDICTED BY IDOCK:   -3.69 KCAL/MOL
REMARK 923 INTER-LIGAND FREE ENERGY PREDICTED BY IDOCK:   -3.63 KCAL/MOL
REMARK 924 INTRA-LIGAND FREE ENERGY PREDICTED BY IDOCK:   -0.06 KCAL/MOL
REMARK 927      BINDING AFFINITY PREDICTED BY RF-SCORE:    0.00 PKD
ROOT
HETATM    1  N   UNL     1     -11.892  12.756  63.623  1.00  0.00    -0.493 NA 
HETATM    2  H1  UNL     1     -12.172  12.103  62.891  1.00  0.00     0.000 HD 
HETATM    3  H2  UNL     1     -11.545  13.684  63.381  1.00  0.00     0.000 HD 
HETATM    4  N   UNL     1     -11.988  12.362  64.972  1.00  0.00    -0.404 N  
HETATM    5  C   UNL     1     -11.606  13.252  65.972  1.00  0.00    -0.349 C  
HETATM    6  H   UNL     1     -12.335  11.434  65.214  1.00  0.00     0.000 HD 
HETATM    7  O   UNL     1     -11.115  14.353  65.747  1.00  0.00    -0.303 OA 
ENDROOT
BRANCH   5   8
HETATM    8  C   UNL     1     -11.756  12.768  67.375  1.00  0.00    -0.425 A  
HETATM    9  C   UNL     1     -12.009  13.713  68.369  1.00  0.00    -0.391 A  
HETATM   10  C   UNL     1     -12.103  13.277  69.676  1.00  0.00    -0.270 A  
HETATM   11  N   UNL     1     -11.975  11.984  70.044  1.00  0.00    -0.339 NA 
HETATM   12  C   UNL     1     -11.767  11.084  69.060  1.00  0.00    -0.333 A  
HETATM   13  C   UNL     1     -11.655  11.420  67.721  1.00  0.00    -0.325 A  
ENDBRANCH   5   8
TORSDOF 1
ENDMDL
MODEL       78
REMARK 921   NORMALIZED FREE ENERGY PREDICTED BY IDOCK:   -3.44 KCAL/MOL
REMARK 922        TOTAL FREE ENERGY PREDICTED BY IDOCK:   -3.69 KCAL/MOL
REMARK 923 INTER-LIGAND FREE ENERGY PREDICTED BY IDOCK:   -3.64 KCAL/MOL
REMARK 924 INTRA-LIGAND FREE ENERGY PREDICTED BY IDOCK:   -0.05 KCAL/MOL
REMARK 927      BINDING AFFINITY PREDICTED BY RF-SCORE:    0.00 PKD
ROOT
HETATM    1  N   UNL     1     -14.391   8.463  71.172  1.00  0.00    -0.653 NA 
HETATM    2  H1  UNL     1     -15.253   8.536  70.633  1.00  0.00     0.000 HD 
HETATM    3  H2  UNL     1     -14.190   9.133  71.915  1.00  0.00     0.000 HD 
HETATM    4  N   UNL     1     -13.480   7.429  70.881  1.00  0.00    -0.592 N  
HETATM    5  C   UNL     1     -12.302   7.329  71.617  1.00  0.00    -0.352 C  
HETATM    6  H   UNL     1     -13.681   6.759  70.139  1.00  0.00     0.000 HD 
HETATM    7  O   UNL     1     -11.968   8.141  72.472  1.00  0.00    -0.376 OA 
ENDROOT
BRANCH   5   8
HETATM    8  C   UNL     1     -11.400   6.195  71.261  1.00  0.00    -0.335 A  
HETATM    9  C   UNL     1     -10.947   5.373  72.293  1.00  0.00    -0.277 A  
HETATM   10  C   UNL     1     -10.074   4.350  71.976  1.00  0.00    -0.186 A  
HETATM   11  N   UNL     1      -9.644   4.095  70.722  1.00  0.00    -0.176 NA 
HETATM   12  C   UNL     1     -10.126   4.881  69.736  1.00  0.00    -0.249 A  
HETATM   13  C   UNL     1     -11.001   5.933  69.950  1.00  0.00    -0.444 A  
ENDBRANCH   5   8
TORSDOF 1
ENDMDL
MODEL       79
REMARK 921   NORMALIZED FREE ENERGY PREDICTED BY IDOCK:   -3.44 KCAL/MOL
REMARK 922        TOTAL FREE ENERGY PREDICTED BY IDOCK:   -3.69 KCAL/MOL
REMARK 923 INTER-LIGAND FREE ENERGY PREDICTED BY IDOCK:   -3.64 KCAL/MOL
REMARK 924 INTRA-LIGAND FREE ENERGY PREDICTED BY IDOCK:   -0.04 KCAL/MOL
REMARK 927      BINDING AFFINITY PREDICTED BY RF-SCORE:    0.00 PKD
ROOT
HETATM    1  N   UNL     1     -10.542   5.981  68.090  1.00  0.00    -0.237 NA 
HETATM    2  H1  UNL     1     -10.416   6.148  67.091  1.00  0.00     0.000 HD 
HETATM    3  H2  UNL     1     -10.127   5.161  68.531  1.00  0.00     0.000 HD 
HETATM    4  N   UNL     1     -11.296   6.895  68.852  1.00  0.00    -0.533 N  
HETATM    5  C   UNL     1     -11.469   6.668  70.215  1.00  0.00    -0.391 C  
HETATM    6  H   UNL     1     -11.711   7.715  68.411  1.00  0.00     0.000 HD 
HETATM    7  O   UNL     1     -11.058   5.667  70.792  1.00  0.00    -0.241 OA 
ENDROOT
BRANCH   5   8
HETATM    8  C   UNL     1     -12.263   7.691  70.955  1.00  0.00    -0.261 A  
HETATM    9  C   UNL     1     -13.486   7.299  71.502  1.00  0.00    -0.439 A  
HETATM   10  C   UNL     1     -14.247   8.253  72.148  1.00  0.00    -0.374 A  
HETATM   11  N   UNL     1     -13.868   9.542  72.291  1.00  0.00    -0.376 NA 
HETATM   12  C   UNL     1     -12.665   9.887  71.787  1.00  0.00    -0.428 A  
HETATM   13  C   UNL     1     -11.830   9.007  71.119  1.00  0.00    -0.362 A  
ENDBRANCH   5   8
TORSDOF 1
ENDMDL
MODEL       80
REMARK 921   NORMALIZED FREE ENERGY PREDICTED BY IDOCK:   -3.44 KCAL/MOL
REMARK 922        TOTAL FREE ENERGY PREDICTED BY IDOCK:   -3.68 KCAL/MOL
REMARK 923 INTER-LIGAND FREE ENERGY PREDICTED BY IDOCK:   -3.64 KCAL/MOL
REMARK 924 INTRA-LIGAND FREE ENERGY PREDICTED BY IDOCK:   -0.04 KCAL/MOL
REMARK 927      BINDING AFFINITY PREDICTED BY RF-SCORE:    0.00 PKD
ROOT
HETATM    1  N   UNL     1     -12.863  10.163  70.320  1.00  0.00    -0.572 NA 
HETATM    2  H1  UNL     1     -13.130   9.183  70.219  1.00  0.00     0.000 HD 
HETATM    3  H2  UNL     1     -13.030  10.654  71.198  1.00  0.00     0.000 HD 
HETATM    4  N   UNL     1     -12.263  10.829  69.234  1.00  0.00    -0.525 N  
HETATM    5  C   UNL     1     -11.899  12.166  69.370  1.00  0.00    -0.309 C  
HETATM    6  H   UNL     1     -12.097  10.338  68.356  1.00  0.00     0.000 HD 
HETATM    7  O   UNL     1     -12.135  12.833  70.371  1.00  0.00    -0.363 OA 
ENDROOT
BRANCH   5   8
HETATM    8  C   UNL     1     -11.251  12.795  68.182  1.00  0.00    -0.310 A  
HETATM    9  C   UNL     1     -11.995  13.717  67.445  1.00  0.00    -0.423 A  
HETATM   10  C   UNL     1     -11.417  14.267  66.317  1.00  0.00    -0.357 A  
HETATM   11  N   UNL     1     -10.169  13.971  65.895  1.00  0.00    -0.310 NA 
HETATM   12  C   UNL     1      -9.457  13.105  66.646  1.00  0.00    -0.260 A  
HETATM   13  C   UNL     1      -9.946  12.497  67.790  1.00  0.00    -0.210 A  
ENDBRANCH   5   8
TORSDOF 1
ENDMDL
MODEL       81
REMARK 921   NORMALIZED FREE ENERGY PREDICTED BY IDOCK:   -3.42 KCAL/MOL
REMARK 922        TOTAL FREE ENERGY PREDICTED BY IDOCK:   -3.66 KCAL/MOL
REMARK 923 INTER-LIGAND FREE ENERGY PREDICTED BY IDOCK:   -3.61 KCAL/MOL
REMARK 924 INTRA-LIGAND FREE ENERGY PREDICTED BY IDOCK:   -0.05 KCAL/MOL
REMARK 927      BINDING AFFINITY PREDICTED BY RF-SCORE:    0.00 PKD
ROOT
HETATM    1  N   UNL     1     -10.685  16.509  68.468  1.00  0.00    -0.318 NA 
HETATM    2  H1  UNL     1     -10.087  17.335  68.461  1.00  0.00     0.000 HD 
HETATM    3  H2  UNL     1     -11.233  16.278  69.296  1.00  0.00     0.000 HD 
HETATM    4  N   UNL     1     -10.747  15.692  67.322  1.00  0.00    -0.304 N  
HETATM    5  C   UNL     1     -11.564  14.565  67.332  1.00  0.00    -0.385 C  
HETATM    6  H   UNL     1     -10.199  15.923  66.494  1.00  0.00     0.000 HD 
HETATM    7  O   UNL     1     -12.192  14.191  68.316  1.00  0.00    -0.317 OA 
ENDROOT
BRANCH   5   8
HETATM    8  C   UNL     1     -11.590  13.762  66.074  1.00  0.00    -0.361 A  
HETATM    9  C   UNL     1     -11.923  14.417  64.888  1.00  0.00    -0.430 A  
HETATM   10  C   UNL     1     -11.995  13.670  63.729  1.00  0.00    -0.377 A  
HETATM   11  N   UNL     1     -11.748  12.343  63.677  1.00  0.00    -0.472 NA 
HETATM   12  C   UNL     1     -11.391  11.740  64.830  1.00  0.00    -0.249 A  
HETATM   13  C   UNL     1     -11.295  12.399  66.045  1.00  0.00    -0.397 A  
ENDBRANCH   5   8
TORSDOF 1
ENDMDL
MODEL       82
REMARK 921   NORMALIZED FREE ENERGY PREDICTED BY IDOCK:   -3.40 KCAL/MOL
REMARK 922        TOTAL FREE ENERGY PREDICTED BY IDOCK:   -3.64 KCAL/MOL
REMARK 923 INTER-LIGAND FREE ENERGY PREDICTED BY IDOCK:   -3.57 KCAL/MOL
REMARK 924 INTRA-LIGAND FREE ENERGY PREDICTED BY IDOCK:   -0.07 KCAL/MOL
REMARK 927      BINDING AFFINITY PREDICTED BY RF-SCORE:    0.00 PKD
ROOT
HETATM    1  N   UNL     1      -5.939  17.654  69.899  1.00  0.00    -0.245 NA 
HETATM    2  H1  UNL     1      -5.523  16.760  70.160  1.00  0.00     0.000 HD 
HETATM    3  H2  UNL     1      -5.594  18.522  70.308  1.00  0.00     0.000 HD 
HETATM    4  N   UNL     1      -6.996  17.677  68.968  1.00  0.00    -0.244 N  
HETATM    5  C   UNL     1      -7.565  18.897  68.612  1.00  0.00    -0.331 C  
HETATM    6  H   UNL     1      -7.341  16.810  68.559  1.00  0.00     0.000 HD 
HETATM    7  O   UNL     1      -7.245  19.967  69.118  1.00  0.00    -0.312 OA 
ENDROOT
BRANCH   5   8
HETATM    8  C   UNL     1      -8.665  18.839  67.606  1.00  0.00    -0.300 A  
HETATM    9  C   UNL     1      -9.081  17.583  67.163  1.00  0.00    -0.247 A  
HETATM   10  C   UNL     1     -10.067  17.525  66.198  1.00  0.00    -0.310 A  
HETATM   11  N   UNL     1     -10.660  18.616  65.667  1.00  0.00    -0.587 NA 
HETATM   12  C   UNL     1     -10.267  19.818  66.138  1.00  0.00    -0.516 A  
HETATM   13  C   UNL     1      -9.285  19.983  67.101  1.00  0.00    -0.483 A  
ENDBRANCH   5   8
TORSDOF 1
ENDMDL
MODEL       83
REMARK 921   NORMALIZED FREE ENERGY PREDICTED BY IDOCK:   -3.37 KCAL/MOL
REMARK 922        TOTAL FREE ENERGY PREDICTED BY IDOCK:   -3.61 KCAL/MOL
REMARK 923 INTER-LIGAND FREE ENERGY PREDICTED BY IDOCK:   -3.56 KCAL/MOL
REMARK 924 INTRA-LIGAND FREE ENERGY PREDICTED BY IDOCK:   -0.04 KCAL/MOL
REMARK 927      BINDING AFFINITY PREDICTED BY RF-SCORE:    0.00 PKD
ROOT
HETATM    1  N   UNL     1     -14.048   9.551  72.794  1.00  0.00    -0.799 NA 
HETATM    2  H1  UNL     1     -14.976   9.372  73.179  1.00  0.00     0.000 HD 
HETATM    3  H2  UNL     1     -13.747  10.505  72.597  1.00  0.00     0.000 HD 
HETATM    4  N   UNL     1     -13.187   8.466  72.536  1.00  0.00    -0.598 N  
HETATM    5  C   UNL     1     -11.922   8.709  72.010  1.00  0.00    -0.372 C  
HETATM    6  H   UNL     1     -13.488   7.512  72.733  1.00  0.00     0.000 HD 
HETATM    7  O   UNL     1     -11.525   9.822  71.685  1.00  0.00    -0.364 OA 
ENDROOT
BRANCH   5   8
HETATM    8  C   UNL     1     -11.063   7.509  71.784  1.00  0.00    -0.276 A  
HETATM    9  C   UNL     1      -9.852   7.434  72.473  1.00  0.00    -0.213 A  
HETATM   10  C   UNL     1      -9.032   6.349  72.233  1.00  0.00    -0.139 A  
HETATM   11  N   UNL     1      -9.342   5.351  71.377  1.00  0.00    -0.146 NA 
HETATM   12  C   UNL     1     -10.535   5.428  70.752  1.00  0.00    -0.247 A  
HETATM   13  C   UNL     1     -11.426   6.475  70.921  1.00  0.00    -0.408 A  
ENDBRANCH   5   8
TORSDOF 1
ENDMDL
MODEL       84
REMARK 921   NORMALIZED FREE ENERGY PREDICTED BY IDOCK:   -3.32 KCAL/MOL
REMARK 922        TOTAL FREE ENERGY PREDICTED BY IDOCK:   -3.56 KCAL/MOL
REMARK 923 INTER-LIGAND FREE ENERGY PREDICTED BY IDOCK:   -3.49 KCAL/MOL
REMARK 924 INTRA-LIGAND FREE ENERGY PREDICTED BY IDOCK:   -0.07 KCAL/MOL
REMARK 927      BINDING AFFINITY PREDICTED BY RF-SCORE:    0.00 PKD
ROOT
HETATM    1  N   UNL     1      -8.994   7.516  65.290  1.00  0.00    -0.367 NA 
HETATM    2  H1  UNL     1      -8.819   6.605  65.713  1.00  0.00     0.000 HD 
HETATM    3  H2  UNL     1      -8.684   7.711  64.339  1.00  0.00     0.000 HD 
HETATM    4  N   UNL     1      -9.669   8.504  66.034  1.00  0.00    -0.451 N  
HETATM    5  C   UNL     1      -9.908   9.749  65.457  1.00  0.00    -0.308 C  
HETATM    6  H   UNL     1      -9.980   8.310  66.986  1.00  0.00     0.000 HD 
HETATM    7  O   UNL     1      -9.500  10.070  64.347  1.00  0.00    -0.277 OA 
ENDROOT
BRANCH   5   8
HETATM    8  C   UNL     1     -10.645  10.733  66.302  1.00  0.00    -0.257 A  
HETATM    9  C   UNL     1     -10.875  10.404  67.638  1.00  0.00    -0.361 A  
HETATM   10  C   UNL     1     -11.598  11.291  68.413  1.00  0.00    -0.308 A  
HETATM   11  N   UNL     1     -12.083  12.464  67.952  1.00  0.00    -0.404 NA 
HETATM   12  C   UNL     1     -11.815  12.776  66.667  1.00  0.00    -0.393 A  
HETATM   13  C   UNL     1     -11.103  11.955  65.809  1.00  0.00    -0.367 A  
ENDBRANCH   5   8
TORSDOF 1
ENDMDL
MODEL       85
REMARK 921   NORMALIZED FREE ENERGY PREDICTED BY IDOCK:   -3.30 KCAL/MOL
REMARK 922        TOTAL FREE ENERGY PREDICTED BY IDOCK:   -3.54 KCAL/MOL
REMARK 923 INTER-LIGAND FREE ENERGY PREDICTED BY IDOCK:   -3.48 KCAL/MOL
REMARK 924 INTRA-LIGAND FREE ENERGY PREDICTED BY IDOCK:   -0.06 KCAL/MOL
REMARK 927      BINDING AFFINITY PREDICTED BY RF-SCORE:    0.00 PKD
ROOT
HETATM    1  N   UNL     1     -10.809   7.616  67.623  1.00  0.00    -0.502 NA 
HETATM    2  H1  UNL     1     -11.128   6.831  68.192  1.00  0.00     0.000 HD 
HETATM    3  H2  UNL     1     -10.250   7.452  66.786  1.00  0.00     0.000 HD 
HETATM    4  N   UNL     1     -11.149   8.928  68.006  1.00  0.00    -0.468 N  
HETATM    5  C   UNL     1     -10.715  10.000  67.230  1.00  0.00    -0.244 C  
HETATM    6  H   UNL     1     -11.708   9.092  68.843  1.00  0.00     0.000 HD 
HETATM    7  O   UNL     1      -9.983   9.877  66.255  1.00  0.00    -0.227 OA 
ENDROOT
BRANCH   5   8
HETATM    8  C   UNL     1     -11.132  11.356  67.691  1.00  0.00    -0.325 A  
HETATM    9  C   UNL     1     -11.101  12.399  66.765  1.00  0.00    -0.333 A  
HETATM   10  C   UNL     1     -11.442  13.666  67.197  1.00  0.00    -0.342 A  
HETATM   11  N   UNL     1     -11.815  13.949  68.464  1.00  0.00    -0.351 NA 
HETATM   12  C   UNL     1     -11.873  12.917  69.332  1.00  0.00    -0.312 A  
HETATM   13  C   UNL     1     -11.548  11.613  68.998  1.00  0.00    -0.379 A  
ENDBRANCH   5   8
TORSDOF 1
ENDMDL
MODEL       86
REMARK 921   NORMALIZED FREE ENERGY PREDICTED BY IDOCK:   -3.30 KCAL/MOL
REMARK 922        TOTAL FREE ENERGY PREDICTED BY IDOCK:   -3.54 KCAL/MOL
REMARK 923 INTER-LIGAND FREE ENERGY PREDICTED BY IDOCK:   -3.49 KCAL/MOL
REMARK 924 INTRA-LIGAND FREE ENERGY PREDICTED BY IDOCK:   -0.06 KCAL/MOL
REMARK 927      BINDING AFFINITY PREDICTED BY RF-SCORE:    0.00 PKD
ROOT
HETATM    1  N   UNL     1      -9.727  17.374  65.734  1.00  0.00    -0.543 NA 
HETATM    2  H1  UNL     1     -10.612  16.924  65.969  1.00  0.00     0.000 HD 
HETATM    3  H2  UNL     1      -9.354  17.314  64.787  1.00  0.00     0.000 HD 
HETATM    4  N   UNL     1      -9.025  18.079  66.732  1.00  0.00    -0.262 N  
HETATM    5  C   UNL     1      -7.817  18.692  66.412  1.00  0.00    -0.283 C  
HETATM    6  H   UNL     1      -9.398  18.139  67.679  1.00  0.00     0.000 HD 
HETATM    7  O   UNL     1      -7.280  18.599  65.315  1.00  0.00    -0.493 OA 
ENDROOT
BRANCH   5   8
HETATM    8  C   UNL     1      -7.145  19.435  67.518  1.00  0.00    -0.240 A  
HETATM    9  C   UNL     1      -6.348  20.529  67.180  1.00  0.00    -0.280 A  
HETATM   10  C   UNL     1      -5.686  21.192  68.196  1.00  0.00    -0.331 A  
HETATM   11  N   UNL     1      -5.777  20.847  69.498  1.00  0.00    -0.367 NA 
HETATM   12  C   UNL     1      -6.583  19.809  69.803  1.00  0.00    -0.322 A  
HETATM   13  C   UNL     1      -7.286  19.078  68.860  1.00  0.00    -0.364 A  
ENDBRANCH   5   8
TORSDOF 1
ENDMDL
MODEL       87
REMARK 921   NORMALIZED FREE ENERGY PREDICTED BY IDOCK:   -3.30 KCAL/MOL
REMARK 922        TOTAL FREE ENERGY PREDICTED BY IDOCK:   -3.53 KCAL/MOL
REMARK 923 INTER-LIGAND FREE ENERGY PREDICTED BY IDOCK:   -3.48 KCAL/MOL
REMARK 924 INTRA-LIGAND FREE ENERGY PREDICTED BY IDOCK:   -0.06 KCAL/MOL
REMARK 927      BINDING AFFINITY PREDICTED BY RF-SCORE:    0.00 PKD
ROOT
HETATM    1  N   UNL     1     -12.583  14.981  69.225  1.00  0.00    -0.551 NA 
HETATM    2  H1  UNL     1     -13.234  15.288  69.949  1.00  0.00     0.000 HD 
HETATM    3  H2  UNL     1     -12.573  14.008  68.922  1.00  0.00     0.000 HD 
HETATM    4  N   UNL     1     -11.699  15.915  68.650  1.00  0.00    -0.404 N  
HETATM    5  C   UNL     1     -10.811  15.496  67.664  1.00  0.00    -0.306 C  
HETATM    6  H   UNL     1     -11.709  16.889  68.954  1.00  0.00     0.000 HD 
HETATM    7  O   UNL     1     -10.699  14.330  67.304  1.00  0.00    -0.273 OA 
ENDROOT
BRANCH   5   8
HETATM    8  C   UNL     1      -9.922  16.549  67.091  1.00  0.00    -0.266 A  
HETATM    9  C   UNL     1      -8.723  16.143  66.505  1.00  0.00    -0.337 A  
HETATM   10  C   UNL     1      -7.873  17.116  66.015  1.00  0.00    -0.158 A  
HETATM   11  N   UNL     1      -8.145  18.438  66.062  1.00  0.00    -0.498 NA 
HETATM   12  C   UNL     1      -9.327  18.803  66.600  1.00  0.00    -0.329 A  
HETATM   13  C   UNL     1     -10.244  17.906  67.121  1.00  0.00    -0.355 A  
ENDBRANCH   5   8
TORSDOF 1
ENDMDL
MODEL       88
REMARK 921   NORMALIZED FREE ENERGY PREDICTED BY IDOCK:   -3.29 KCAL/MOL
REMARK 922        TOTAL FREE ENERGY PREDICTED BY IDOCK:   -3.52 KCAL/MOL
REMARK 923 INTER-LIGAND FREE ENERGY PREDICTED BY IDOCK:   -3.46 KCAL/MOL
REMARK 924 INTRA-LIGAND FREE ENERGY PREDICTED BY IDOCK:   -0.07 KCAL/MOL
REMARK 927      BINDING AFFINITY PREDICTED BY RF-SCORE:    0.00 PKD
ROOT
HETATM    1  N   UNL     1      -7.436  17.098  68.107  1.00  0.00    -0.198 NA 
HETATM    2  H1  UNL     1      -6.975  16.902  68.995  1.00  0.00     0.000 HD 
HETATM    3  H2  UNL     1      -7.105  17.856  67.511  1.00  0.00     0.000 HD 
HETATM    4  N   UNL     1      -8.536  16.311  67.712  1.00  0.00    -0.170 N  
HETATM    5  C   UNL     1      -9.167  16.578  66.500  1.00  0.00    -0.272 C  
HETATM    6  H   UNL     1      -8.867  15.553  68.309  1.00  0.00     0.000 HD 
HETATM    7  O   UNL     1      -8.864  17.516  65.772  1.00  0.00    -0.514 OA 
ENDROOT
BRANCH   5   8
HETATM    8  C   UNL     1     -10.310  15.688  66.145  1.00  0.00    -0.329 A  
HETATM    9  C   UNL     1     -10.677  14.699  67.059  1.00  0.00    -0.290 A  
HETATM   10  C   UNL     1     -11.704  13.842  66.715  1.00  0.00    -0.391 A  
HETATM   11  N   UNL     1     -12.381  13.915  65.550  1.00  0.00    -0.451 NA 
HETATM   12  C   UNL     1     -12.033  14.903  64.699  1.00  0.00    -0.401 A  
HETATM   13  C   UNL     1     -11.016  15.810  64.948  1.00  0.00    -0.443 A  
ENDBRANCH   5   8
TORSDOF 1
ENDMDL
MODEL       89
REMARK 921   NORMALIZED FREE ENERGY PREDICTED BY IDOCK:   -3.28 KCAL/MOL
REMARK 922        TOTAL FREE ENERGY PREDICTED BY IDOCK:   -3.52 KCAL/MOL
REMARK 923 INTER-LIGAND FREE ENERGY PREDICTED BY IDOCK:   -3.47 KCAL/MOL
REMARK 924 INTRA-LIGAND FREE ENERGY PREDICTED BY IDOCK:   -0.04 KCAL/MOL
REMARK 927      BINDING AFFINITY PREDICTED BY RF-SCORE:    0.00 PKD
ROOT
HETATM    1  N   UNL     1      -8.767  10.134  70.320  1.00  0.00    -0.318 NA 
HETATM    2  H1  UNL     1      -7.760  10.125  70.485  1.00  0.00     0.000 HD 
HETATM    3  H2  UNL     1      -9.376   9.486  70.819  1.00  0.00     0.000 HD 
HETATM    4  N   UNL     1      -9.306  11.049  69.395  1.00  0.00    -0.403 N  
HETATM    5  C   UNL     1     -10.680  11.061  69.169  1.00  0.00    -0.234 C  
HETATM    6  H   UNL     1      -8.697  11.697  68.896  1.00  0.00     0.000 HD 
HETATM    7  O   UNL     1     -11.457  10.264  69.681  1.00  0.00    -0.248 OA 
ENDROOT
BRANCH   5   8
HETATM    8  C   UNL     1     -11.175  12.072  68.191  1.00  0.00    -0.316 A  
HETATM    9  C   UNL     1     -11.339  13.385  68.634  1.00  0.00    -0.322 A  
HETATM   10  C   UNL     1     -11.842  14.316  67.746  1.00  0.00    -0.379 A  
HETATM   11  N   UNL     1     -12.172  14.029  66.469  1.00  0.00    -0.459 NA 
HETATM   12  C   UNL     1     -11.970  12.761  66.052  1.00  0.00    -0.432 A  
HETATM   13  C   UNL     1     -11.475  11.755  66.865  1.00  0.00    -0.364 A  
ENDBRANCH   5   8
TORSDOF 1
ENDMDL
MODEL       90
REMARK 921   NORMALIZED FREE ENERGY PREDICTED BY IDOCK:   -3.26 KCAL/MOL
REMARK 922        TOTAL FREE ENERGY PREDICTED BY IDOCK:   -3.50 KCAL/MOL
REMARK 923 INTER-LIGAND FREE ENERGY PREDICTED BY IDOCK:   -3.44 KCAL/MOL
REMARK 924 INTRA-LIGAND FREE ENERGY PREDICTED BY IDOCK:   -0.06 KCAL/MOL
REMARK 927      BINDING AFFINITY PREDICTED BY RF-SCORE:    0.00 PKD
ROOT
HETATM    1  N   UNL     1     -11.226   6.820  70.225  1.00  0.00    -0.309 NA 
HETATM    2  H1  UNL     1     -11.063   6.116  69.505  1.00  0.00     0.000 HD 
HETATM    3  H2  UNL     1     -11.273   6.551  71.207  1.00  0.00     0.000 HD 
HETATM    4  N   UNL     1     -11.387   8.168  69.847  1.00  0.00    -0.455 N  
HETATM    5  C   UNL     1     -11.612   9.129  70.828  1.00  0.00    -0.276 C  
HETATM    6  H   UNL     1     -11.340   8.436  68.864  1.00  0.00     0.000 HD 
HETATM    7  O   UNL     1     -11.749   8.864  72.017  1.00  0.00    -0.350 OA 
ENDROOT
BRANCH   5   8
HETATM    8  C   UNL     1     -11.752  10.535  70.349  1.00  0.00    -0.434 A  
HETATM    9  C   UNL     1     -12.360  11.458  71.201  1.00  0.00    -0.404 A  
HETATM   10  C   UNL     1     -12.535  12.750  70.745  1.00  0.00    -0.271 A  
HETATM   11  N   UNL     1     -12.140  13.173  69.526  1.00  0.00    -0.275 NA 
HETATM   12  C   UNL     1     -11.521  12.272  68.734  1.00  0.00    -0.311 A  
HETATM   13  C   UNL     1     -11.301  10.953  69.097  1.00  0.00    -0.350 A  
ENDBRANCH   5   8
TORSDOF 1
ENDMDL
MODEL       91
REMARK 921   NORMALIZED FREE ENERGY PREDICTED BY IDOCK:   -3.22 KCAL/MOL
REMARK 922        TOTAL FREE ENERGY PREDICTED BY IDOCK:   -3.45 KCAL/MOL
REMARK 923 INTER-LIGAND FREE ENERGY PREDICTED BY IDOCK:   -3.41 KCAL/MOL
REMARK 924 INTRA-LIGAND FREE ENERGY PREDICTED BY IDOCK:   -0.04 KCAL/MOL
REMARK 927      BINDING AFFINITY PREDICTED BY RF-SCORE:    0.00 PKD
ROOT
HETATM    1  N   UNL     1     -11.711  11.190  67.875  1.00  0.00    -0.593 NA 
HETATM    2  H1  UNL     1     -12.563  11.506  67.411  1.00  0.00     0.000 HD 
HETATM    3  H2  UNL     1     -10.814  11.624  67.656  1.00  0.00     0.000 HD 
HETATM    4  N   UNL     1     -11.785  10.149  68.821  1.00  0.00    -0.507 N  
HETATM    5  C   UNL     1     -10.623   9.718  69.454  1.00  0.00    -0.228 C  
HETATM    6  H   UNL     1     -12.682   9.716  69.040  1.00  0.00     0.000 HD 
HETATM    7  O   UNL     1      -9.507  10.147  69.186  1.00  0.00    -0.183 OA 
ENDROOT
BRANCH   5   8
HETATM    8  C   UNL     1     -10.788   8.626  70.457  1.00  0.00    -0.257 A  
HETATM    9  C   UNL     1     -10.931   7.321  69.984  1.00  0.00    -0.273 A  
HETATM   10  C   UNL     1     -11.132   6.311  70.905  1.00  0.00    -0.306 A  
HETATM   11  N   UNL     1     -11.185   6.515  72.239  1.00  0.00    -0.261 NA 
HETATM   12  C   UNL     1     -11.007   7.780  72.674  1.00  0.00    -0.364 A  
HETATM   13  C   UNL     1     -10.803   8.861  71.832  1.00  0.00    -0.433 A  
ENDBRANCH   5   8
TORSDOF 1
ENDMDL
MODEL       92
REMARK 921   NORMALIZED FREE ENERGY PREDICTED BY IDOCK:   -3.21 KCAL/MOL
REMARK 922        TOTAL FREE ENERGY PREDICTED BY IDOCK:   -3.44 KCAL/MOL
REMARK 923 INTER-LIGAND FREE ENERGY PREDICTED BY IDOCK:   -3.37 KCAL/MOL
REMARK 924 INTRA-LIGAND FREE ENERGY PREDICTED BY IDOCK:   -0.07 KCAL/MOL
REMARK 927      BINDING AFFINITY PREDICTED BY RF-SCORE:    0.00 PKD
ROOT
HETATM    1  N   UNL     1      -9.780  12.269  68.940  1.00  0.00    -0.417 NA 
HETATM    2  H1  UNL     1      -9.978  13.263  68.826  1.00  0.00     0.000 HD 
HETATM    3  H2  UNL     1      -8.916  11.870  68.573  1.00  0.00     0.000 HD 
HETATM    4  N   UNL     1     -10.712  11.452  69.611  1.00  0.00    -0.455 N  
HETATM    5  C   UNL     1     -10.442  10.095  69.767  1.00  0.00    -0.263 C  
HETATM    6  H   UNL     1     -11.575  11.850  69.978  1.00  0.00     0.000 HD 
HETATM    7  O   UNL     1      -9.458   9.541  69.289  1.00  0.00    -0.155 OA 
ENDROOT
BRANCH   5   8
HETATM    8  C   UNL     1     -11.468   9.302  70.505  1.00  0.00    -0.296 A  
HETATM    9  C   UNL     1     -12.529   9.993  71.092  1.00  0.00    -0.480 A  
HETATM   10  C   UNL     1     -13.456   9.269  71.816  1.00  0.00    -0.415 A  
HETATM   11  N   UNL     1     -13.400   7.930  71.978  1.00  0.00    -0.260 NA 
HETATM   12  C   UNL     1     -12.385   7.281  71.370  1.00  0.00    -0.368 A  
HETATM   13  C   UNL     1     -11.404   7.914  70.626  1.00  0.00    -0.267 A  
ENDBRANCH   5   8
TORSDOF 1
ENDMDL
MODEL       93
REMARK 921   NORMALIZED FREE ENERGY PREDICTED BY IDOCK:   -3.15 KCAL/MOL
REMARK 922        TOTAL FREE ENERGY PREDICTED BY IDOCK:   -3.38 KCAL/MOL
REMARK 923 INTER-LIGAND FREE ENERGY PREDICTED BY IDOCK:   -3.32 KCAL/MOL
REMARK 924 INTRA-LIGAND FREE ENERGY PREDICTED BY IDOCK:   -0.06 KCAL/MOL
REMARK 927      BINDING AFFINITY PREDICTED BY RF-SCORE:    0.00 PKD
ROOT
HETATM    1  N   UNL     1     -13.375  10.244  69.941  1.00  0.00    -0.302 NA 
HETATM    2  H1  UNL     1     -14.334  10.312  69.602  1.00  0.00     0.000 HD 
HETATM    3  H2  UNL     1     -12.697  10.973  69.720  1.00  0.00     0.000 HD 
HETATM    4  N   UNL     1     -12.995   9.131  70.717  1.00  0.00    -0.500 N  
HETATM    5  C   UNL     1     -11.685   9.037  71.180  1.00  0.00    -0.302 C  
HETATM    6  H   UNL     1     -13.672   8.402  70.938  1.00  0.00     0.000 HD 
HETATM    7  O   UNL     1     -10.806   9.841  70.892  1.00  0.00    -0.310 OA 
ENDROOT
BRANCH   5   8
HETATM    8  C   UNL     1     -11.367   7.839  72.011  1.00  0.00    -0.332 A  
HETATM    9  C   UNL     1     -12.016   6.642  71.706  1.00  0.00    -0.391 A  
HETATM   10  C   UNL     1     -11.761   5.542  72.501  1.00  0.00    -0.158 A  
HETATM   11  N   UNL     1     -10.909   5.557  73.549  1.00  0.00    -0.282 NA 
HETATM   12  C   UNL     1     -10.266   6.716  73.800  1.00  0.00    -0.329 A  
HETATM   13  C   UNL     1     -10.455   7.875  73.066  1.00  0.00    -0.410 A  
ENDBRANCH   5   8
TORSDOF 1
ENDMDL
MODEL       94
REMARK 921   NORMALIZED FREE ENERGY PREDICTED BY IDOCK:   -3.15 KCAL/MOL
REMARK 922        TOTAL FREE ENERGY PREDICTED BY IDOCK:   -3.37 KCAL/MOL
REMARK 923 INTER-LIGAND FREE ENERGY PREDICTED BY IDOCK:   -3.33 KCAL/MOL
REMARK 924 INTRA-LIGAND FREE ENERGY PREDICTED BY IDOCK:   -0.04 KCAL/MOL
REMARK 927      BINDING AFFINITY PREDICTED BY RF-SCORE:    0.00 PKD
ROOT
HETATM    1  N   UNL     1     -10.109   8.005  66.230  1.00  0.00    -0.481 NA 
HETATM    2  H1  UNL     1     -10.578   8.265  65.362  1.00  0.00     0.000 HD 
HETATM    3  H2  UNL     1      -9.140   7.687  66.217  1.00  0.00     0.000 HD 
HETATM    4  N   UNL     1     -10.814   8.088  67.447  1.00  0.00    -0.516 N  
HETATM    5  C   UNL     1     -10.175   7.733  68.631  1.00  0.00    -0.201 C  
HETATM    6  H   UNL     1     -11.783   8.406  67.460  1.00  0.00     0.000 HD 
HETATM    7  O   UNL     1      -9.038   7.277  68.677  1.00  0.00    -0.135 OA 
ENDROOT
BRANCH   5   8
HETATM    8  C   UNL     1     -10.982   7.868  69.879  1.00  0.00    -0.179 A  
HETATM    9  C   UNL     1     -11.009   9.112  70.509  1.00  0.00    -0.307 A  
HETATM   10  C   UNL     1     -11.717   9.231  71.689  1.00  0.00    -0.392 A  
HETATM   11  N   UNL     1     -12.394   8.213  72.261  1.00  0.00    -0.336 NA 
HETATM   12  C   UNL     1     -12.384   7.029  71.614  1.00  0.00    -0.368 A  
HETATM   13  C   UNL     1     -11.703   6.806  70.428  1.00  0.00    -0.418 A  
ENDBRANCH   5   8
TORSDOF 1
ENDMDL
MODEL       95
REMARK 921   NORMALIZED FREE ENERGY PREDICTED BY IDOCK:   -3.14 KCAL/MOL
REMARK 922        TOTAL FREE ENERGY PREDICTED BY IDOCK:   -3.37 KCAL/MOL
REMARK 923 INTER-LIGAND FREE ENERGY PREDICTED BY IDOCK:   -3.31 KCAL/MOL
REMARK 924 INTRA-LIGAND FREE ENERGY PREDICTED BY IDOCK:   -0.06 KCAL/MOL
REMARK 927      BINDING AFFINITY PREDICTED BY RF-SCORE:    0.00 PKD
ROOT
HETATM    1  N   UNL     1      -8.380   6.905  73.623  1.00  0.00    -0.118 NA 
HETATM    2  H1  UNL     1      -8.377   6.177  74.337  1.00  0.00     0.000 HD 
HETATM    3  H2  UNL     1      -7.504   7.219  73.204  1.00  0.00     0.000 HD 
HETATM    4  N   UNL     1      -9.604   7.473  73.220  1.00  0.00    -0.229 N  
HETATM    5  C   UNL     1      -9.608   8.467  72.246  1.00  0.00    -0.307 C  
HETATM    6  H   UNL     1     -10.480   7.159  73.638  1.00  0.00     0.000 HD 
HETATM    7  O   UNL     1      -8.589   8.939  71.755  1.00  0.00    -0.318 OA 
ENDROOT
BRANCH   5   8
HETATM    8  C   UNL     1     -10.946   9.004  71.861  1.00  0.00    -0.423 A  
HETATM    9  C   UNL     1     -11.009   9.894  70.788  1.00  0.00    -0.407 A  
HETATM   10  C   UNL     1     -12.238  10.430  70.456  1.00  0.00    -0.323 A  
HETATM   11  N   UNL     1     -13.384  10.132  71.105  1.00  0.00    -0.351 NA 
HETATM   12  C   UNL     1     -13.303   9.240  72.115  1.00  0.00    -0.468 A  
HETATM   13  C   UNL     1     -12.120   8.650  72.526  1.00  0.00    -0.368 A  
ENDBRANCH   5   8
TORSDOF 1
ENDMDL
MODEL       96
REMARK 921   NORMALIZED FREE ENERGY PREDICTED BY IDOCK:   -3.13 KCAL/MOL
REMARK 922        TOTAL FREE ENERGY PREDICTED BY IDOCK:   -3.35 KCAL/MOL
REMARK 923 INTER-LIGAND FREE ENERGY PREDICTED BY IDOCK:   -3.31 KCAL/MOL
REMARK 924 INTRA-LIGAND FREE ENERGY PREDICTED BY IDOCK:   -0.05 KCAL/MOL
REMARK 927      BINDING AFFINITY PREDICTED BY RF-SCORE:    0.00 PKD
ROOT
HETATM    1  N   UNL     1     -10.217   8.042  66.789  1.00  0.00    -0.345 NA 
HETATM    2  H1  UNL     1     -10.444   7.984  65.796  1.00  0.00     0.000 HD 
HETATM    3  H2  UNL     1      -9.485   7.453  67.185  1.00  0.00     0.000 HD 
HETATM    4  N   UNL     1     -10.924   8.945  67.607  1.00  0.00    -0.475 N  
HETATM    5  C   UNL     1     -10.615   9.025  68.962  1.00  0.00    -0.190 C  
HETATM    6  H   UNL     1     -11.656   9.535  67.210  1.00  0.00     0.000 HD 
HETATM    7  O   UNL     1      -9.798   8.296  69.514  1.00  0.00    -0.176 OA 
ENDROOT
BRANCH   5   8
HETATM    8  C   UNL     1     -11.395  10.018  69.756  1.00  0.00    -0.281 A  
HETATM    9  C   UNL     1     -11.367  11.351  69.343  1.00  0.00    -0.365 A  
HETATM   10  C   UNL     1     -12.048  12.283  70.102  1.00  0.00    -0.287 A  
HETATM   11  N   UNL     1     -12.750  11.974  71.213  1.00  0.00    -0.344 NA 
HETATM   12  C   UNL     1     -12.793  10.673  71.570  1.00  0.00    -0.462 A  
HETATM   13  C   UNL     1     -12.141   9.665  70.880  1.00  0.00    -0.383 A  
ENDBRANCH   5   8
TORSDOF 1
ENDMDL
MODEL       97
REMARK 921   NORMALIZED FREE ENERGY PREDICTED BY IDOCK:   -3.11 KCAL/MOL
REMARK 922        TOTAL FREE ENERGY PREDICTED BY IDOCK:   -3.33 KCAL/MOL
REMARK 923 INTER-LIGAND FREE ENERGY PREDICTED BY IDOCK:   -3.29 KCAL/MOL
REMARK 924 INTRA-LIGAND FREE ENERGY PREDICTED BY IDOCK:   -0.04 KCAL/MOL
REMARK 927      BINDING AFFINITY PREDICTED BY RF-SCORE:    0.00 PKD
ROOT
HETATM    1  N   UNL     1     -10.764  17.377  68.260  1.00  0.00    -0.360 NA 
HETATM    2  H1  UNL     1     -10.134  18.121  67.957  1.00  0.00     0.000 HD 
HETATM    3  H2  UNL     1     -11.270  17.458  69.141  1.00  0.00     0.000 HD 
HETATM    4  N   UNL     1     -10.925  16.237  67.448  1.00  0.00    -0.236 N  
HETATM    5  C   UNL     1     -11.784  15.222  67.861  1.00  0.00    -0.217 C  
HETATM    6  H   UNL     1     -10.419  16.156  66.567  1.00  0.00     0.000 HD 
HETATM    7  O   UNL     1     -12.366  15.225  68.940  1.00  0.00    -0.141 OA 
ENDROOT
BRANCH   5   8
HETATM    8  C   UNL     1     -11.916  14.058  66.938  1.00  0.00    -0.479 A  
HETATM    9  C   UNL     1     -11.199  12.899  67.240  1.00  0.00    -0.329 A  
HETATM   10  C   UNL     1     -11.280  11.835  66.364  1.00  0.00    -0.323 A  
HETATM   11  N   UNL     1     -12.024  11.848  65.238  1.00  0.00    -0.313 NA 
HETATM   12  C   UNL     1     -12.738  12.965  64.986  1.00  0.00    -0.404 A  
HETATM   13  C   UNL     1     -12.722  14.087  65.799  1.00  0.00    -0.487 A  
ENDBRANCH   5   8
TORSDOF 1
ENDMDL
MODEL       98
REMARK 921   NORMALIZED FREE ENERGY PREDICTED BY IDOCK:   -3.08 KCAL/MOL
REMARK 922        TOTAL FREE ENERGY PREDICTED BY IDOCK:   -3.31 KCAL/MOL
REMARK 923 INTER-LIGAND FREE ENERGY PREDICTED BY IDOCK:   -3.25 KCAL/MOL
REMARK 924 INTRA-LIGAND FREE ENERGY PREDICTED BY IDOCK:   -0.06 KCAL/MOL
REMARK 927      BINDING AFFINITY PREDICTED BY RF-SCORE:    0.00 PKD
ROOT
HETATM    1  N   UNL     1      -9.025  14.939  66.301  1.00  0.00    -0.473 NA 
HETATM    2  H1  UNL     1      -8.338  15.688  66.224  1.00  0.00     0.000 HD 
HETATM    3  H2  UNL     1      -9.185  14.304  65.519  1.00  0.00     0.000 HD 
HETATM    4  N   UNL     1      -9.752  14.789  67.499  1.00  0.00    -0.212 N  
HETATM    5  C   UNL     1     -10.690  13.766  67.604  1.00  0.00    -0.249 C  
HETATM    6  H   UNL     1      -9.592  15.423  68.281  1.00  0.00     0.000 HD 
HETATM    7  O   UNL     1     -10.980  13.015  66.679  1.00  0.00    -0.272 OA 
ENDROOT
BRANCH   5   8
HETATM    8  C   UNL     1     -11.404  13.662  68.910  1.00  0.00    -0.332 A  
HETATM    9  C   UNL     1     -11.699  14.844  69.589  1.00  0.00    -0.356 A  
HETATM   10  C   UNL     1     -12.318  14.751  70.821  1.00  0.00    -0.330 A  
HETATM   11  N   UNL     1     -12.663  13.581  71.399  1.00  0.00    -0.350 NA 
HETATM   12  C   UNL     1     -12.400  12.453  70.706  1.00  0.00    -0.286 A  
HETATM   13  C   UNL     1     -11.781  12.439  69.467  1.00  0.00    -0.388 A  
ENDBRANCH   5   8
TORSDOF 1
ENDMDL
MODEL       99
REMARK 921   NORMALIZED FREE ENERGY PREDICTED BY IDOCK:   -3.08 KCAL/MOL
REMARK 922        TOTAL FREE ENERGY PREDICTED BY IDOCK:   -3.30 KCAL/MOL
REMARK 923 INTER-LIGAND FREE ENERGY PREDICTED BY IDOCK:   -3.25 KCAL/MOL
REMARK 924 INTRA-LIGAND FREE ENERGY PREDICTED BY IDOCK:   -0.06 KCAL/MOL
REMARK 927      BINDING AFFINITY PREDICTED BY RF-SCORE:    0.00 PKD
ROOT
HETATM    1  N   UNL     1     -11.225   6.656  73.697  1.00  0.00    -0.379 NA 
HETATM    2  H1  UNL     1     -11.415   6.689  74.698  1.00  0.00     0.000 HD 
HETATM    3  H2  UNL     1     -11.001   5.771  73.244  1.00  0.00     0.000 HD 
HETATM    4  N   UNL     1     -11.275   7.847  72.946  1.00  0.00    -0.437 N  
HETATM    5  C   UNL     1     -11.016   7.803  71.579  1.00  0.00    -0.233 C  
HETATM    6  H   UNL     1     -11.500   8.733  73.399  1.00  0.00     0.000 HD 
HETATM    7  O   UNL     1     -10.672   6.787  70.987  1.00  0.00    -0.223 OA 
ENDROOT
BRANCH   5   8
HETATM    8  C   UNL     1     -11.108   9.103  70.851  1.00  0.00    -0.356 A  
HETATM    9  C   UNL     1     -12.158   9.962  71.178  1.00  0.00    -0.466 A  
HETATM   10  C   UNL     1     -12.276  11.145  70.475  1.00  0.00    -0.384 A  
HETATM   11  N   UNL     1     -11.425  11.522  69.497  1.00  0.00    -0.290 NA 
HETATM   12  C   UNL     1     -10.397  10.692  69.225  1.00  0.00    -0.218 A  
HETATM   13  C   UNL     1     -10.193   9.483  69.869  1.00  0.00    -0.261 A  
ENDBRANCH   5   8
TORSDOF 1
ENDMDL
MODEL      100
REMARK 921   NORMALIZED FREE ENERGY PREDICTED BY IDOCK:   -3.08 KCAL/MOL
REMARK 922        TOTAL FREE ENERGY PREDICTED BY IDOCK:   -3.30 KCAL/MOL
REMARK 923 INTER-LIGAND FREE ENERGY PREDICTED BY IDOCK:   -3.24 KCAL/MOL
REMARK 924 INTRA-LIGAND FREE ENERGY PREDICTED BY IDOCK:   -0.07 KCAL/MOL
REMARK 927      BINDING AFFINITY PREDICTED BY RF-SCORE:    0.00 PKD
ROOT
HETATM    1  N   UNL     1     -11.677  13.007  66.798  1.00  0.00    -0.364 NA 
HETATM    2  H1  UNL     1     -12.286  13.802  66.602  1.00  0.00     0.000 HD 
HETATM    3  H2  UNL     1     -10.953  12.737  66.133  1.00  0.00     0.000 HD 
HETATM    4  N   UNL     1     -11.848  12.285  67.996  1.00  0.00    -0.348 N  
HETATM    5  C   UNL     1     -11.018  11.200  68.263  1.00  0.00    -0.226 C  
HETATM    6  H   UNL     1     -12.572  12.555  68.661  1.00  0.00     0.000 HD 
HETATM    7  O   UNL     1     -10.177  10.780  67.476  1.00  0.00    -0.183 OA 
ENDROOT
BRANCH   5   8
HETATM    8  C   UNL     1     -11.250  10.500  69.560  1.00  0.00    -0.329 A  
HETATM    9  C   UNL     1     -12.449  10.746  70.231  1.00  0.00    -0.395 A  
HETATM   10  C   UNL     1     -12.648  10.138  71.455  1.00  0.00    -0.422 A  
HETATM   11  N   UNL     1     -11.753   9.309  72.033  1.00  0.00    -0.333 NA 
HETATM   12  C   UNL     1     -10.617   9.058  71.349  1.00  0.00    -0.323 A  
HETATM   13  C   UNL     1     -10.322   9.620  70.118  1.00  0.00    -0.315 A  
ENDBRANCH   5   8
TORSDOF 1
ENDMDL
MODEL      101
REMARK 921   NORMALIZED FREE ENERGY PREDICTED BY IDOCK:   -3.06 KCAL/MOL
REMARK 922        TOTAL FREE ENERGY PREDICTED BY IDOCK:   -3.28 KCAL/MOL
REMARK 923 INTER-LIGAND FREE ENERGY PREDICTED BY IDOCK:   -3.23 KCAL/MOL
REMARK 924 INTRA-LIGAND FREE ENERGY PREDICTED BY IDOCK:   -0.05 KCAL/MOL
REMARK 927      BINDING AFFINITY PREDICTED BY RF-SCORE:    0.00 PKD
ROOT
HETATM    1  N   UNL     1     -12.668  14.534  64.203  1.00  0.00    -0.707 NA 
HETATM    2  H1  UNL     1     -12.689  15.397  63.659  1.00  0.00     0.000 HD 
HETATM    3  H2  UNL     1     -13.517  13.982  64.325  1.00  0.00     0.000 HD 
HETATM    4  N   UNL     1     -11.456  14.112  64.783  1.00  0.00    -0.365 N  
HETATM    5  C   UNL     1     -11.428  12.935  65.525  1.00  0.00    -0.326 C  
HETATM    6  H   UNL     1     -10.607  14.664  64.661  1.00  0.00     0.000 HD 
HETATM    7  O   UNL     1     -12.424  12.264  65.769  1.00  0.00    -0.564 OA 
ENDROOT
BRANCH   5   8
HETATM    8  C   UNL     1     -10.102  12.547  66.090  1.00  0.00    -0.265 A  
HETATM    9  C   UNL     1      -9.657  11.242  65.875  1.00  0.00    -0.249 A  
HETATM   10  C   UNL     1      -8.453  10.863  66.435  1.00  0.00    -0.163 A  
HETATM   11  N   UNL     1      -7.676  11.688  67.169  1.00  0.00    -0.152 NA 
HETATM   12  C   UNL     1      -8.110  12.955  67.331  1.00  0.00    -0.181 A  
HETATM   13  C   UNL     1      -9.303  13.432  66.814  1.00  0.00    -0.260 A  
ENDBRANCH   5   8
TORSDOF 1
ENDMDL
MODEL      102
REMARK 921   NORMALIZED FREE ENERGY PREDICTED BY IDOCK:   -3.05 KCAL/MOL
REMARK 922        TOTAL FREE ENERGY PREDICTED BY IDOCK:   -3.27 KCAL/MOL
REMARK 923 INTER-LIGAND FREE ENERGY PREDICTED BY IDOCK:   -3.21 KCAL/MOL
REMARK 924 INTRA-LIGAND FREE ENERGY PREDICTED BY IDOCK:   -0.06 KCAL/MOL
REMARK 927      BINDING AFFINITY PREDICTED BY RF-SCORE:    0.00 PKD
ROOT
HETATM    1  N   UNL     1     -10.011   9.280  65.592  1.00  0.00    -0.427 NA 
HETATM    2  H1  UNL     1      -9.684   8.428  65.137  1.00  0.00     0.000 HD 
HETATM    3  H2  UNL     1     -10.069  10.154  65.070  1.00  0.00     0.000 HD 
HETATM    4  N   UNL     1     -10.382   9.238  66.951  1.00  0.00    -0.254 N  
HETATM    5  C   UNL     1     -10.829  10.401  67.573  1.00  0.00    -0.301 C  
HETATM    6  H   UNL     1     -10.325   8.364  67.474  1.00  0.00     0.000 HD 
HETATM    7  O   UNL     1     -10.855  11.496  67.022  1.00  0.00    -0.244 OA 
ENDROOT
BRANCH   5   8
HETATM    8  C   UNL     1     -11.221  10.269  69.006  1.00  0.00    -0.260 A  
HETATM    9  C   UNL     1     -10.565   9.310  69.778  1.00  0.00    -0.244 A  
HETATM   10  C   UNL     1     -10.957   9.151  71.093  1.00  0.00    -0.320 A  
HETATM   11  N   UNL     1     -11.931   9.881  71.677  1.00  0.00    -0.388 NA 
HETATM   12  C   UNL     1     -12.525  10.828  70.921  1.00  0.00    -0.402 A  
HETATM   13  C   UNL     1     -12.207  11.063  69.593  1.00  0.00    -0.370 A  
ENDBRANCH   5   8
TORSDOF 1
ENDMDL
MODEL      103
REMARK 921   NORMALIZED FREE ENERGY PREDICTED BY IDOCK:   -3.05 KCAL/MOL
REMARK 922        TOTAL FREE ENERGY PREDICTED BY IDOCK:   -3.27 KCAL/MOL
REMARK 923 INTER-LIGAND FREE ENERGY PREDICTED BY IDOCK:   -3.23 KCAL/MOL
REMARK 924 INTRA-LIGAND FREE ENERGY PREDICTED BY IDOCK:   -0.04 KCAL/MOL
REMARK 927      BINDING AFFINITY PREDICTED BY RF-SCORE:    0.00 PKD
ROOT
HETATM    1  N   UNL     1     -11.227   5.215  65.857  1.00  0.00    -0.790 NA 
HETATM    2  H1  UNL     1     -12.068   4.860  65.401  1.00  0.00     0.000 HD 
HETATM    3  H2  UNL     1     -10.330   4.753  65.714  1.00  0.00     0.000 HD 
HETATM    4  N   UNL     1     -11.319   6.350  66.687  1.00  0.00    -0.715 N  
HETATM    5  C   UNL     1     -10.172   6.834  67.309  1.00  0.00    -0.210 C  
HETATM    6  H   UNL     1     -12.217   6.811  66.830  1.00  0.00     0.000 HD 
HETATM    7  O   UNL     1      -9.079   6.286  67.236  1.00  0.00    -0.116 OA 
ENDROOT
BRANCH   5   8
HETATM    8  C   UNL     1     -10.349   8.050  68.156  1.00  0.00    -0.250 A  
HETATM    9  C   UNL     1     -10.772   7.873  69.473  1.00  0.00    -0.195 A  
HETATM   10  C   UNL     1     -10.982   8.998  70.247  1.00  0.00    -0.244 A  
HETATM   11  N   UNL     1     -10.790  10.258  69.804  1.00  0.00    -0.267 NA 
HETATM   12  C   UNL     1     -10.345  10.402  68.538  1.00  0.00    -0.176 A  
HETATM   13  C   UNL     1     -10.107   9.340  67.681  1.00  0.00    -0.266 A  
ENDBRANCH   5   8
TORSDOF 1
ENDMDL
MODEL      104
REMARK 921   NORMALIZED FREE ENERGY PREDICTED BY IDOCK:   -3.03 KCAL/MOL
REMARK 922        TOTAL FREE ENERGY PREDICTED BY IDOCK:   -3.25 KCAL/MOL
REMARK 923 INTER-LIGAND FREE ENERGY PREDICTED BY IDOCK:   -3.21 KCAL/MOL
REMARK 924 INTRA-LIGAND FREE ENERGY PREDICTED BY IDOCK:   -0.05 KCAL/MOL
REMARK 927      BINDING AFFINITY PREDICTED BY RF-SCORE:    0.00 PKD
ROOT
HETATM    1  N   UNL     1     -11.307   6.418  68.408  1.00  0.00    -0.525 NA 
HETATM    2  H1  UNL     1     -11.786   5.552  68.160  1.00  0.00     0.000 HD 
HETATM    3  H2  UNL     1     -10.968   6.565  69.358  1.00  0.00     0.000 HD 
HETATM    4  N   UNL     1     -11.118   7.409  67.424  1.00  0.00    -0.561 N  
HETATM    5  C   UNL     1     -10.465   8.591  67.762  1.00  0.00    -0.223 C  
HETATM    6  H   UNL     1     -11.457   7.262  66.474  1.00  0.00     0.000 HD 
HETATM    7  O   UNL     1     -10.097   8.860  68.900  1.00  0.00    -0.186 OA 
ENDROOT
BRANCH   5   8
HETATM    8  C   UNL     1     -10.288   9.581  66.660  1.00  0.00    -0.280 A  
HETATM    9  C   UNL     1     -10.834  10.853  66.831  1.00  0.00    -0.307 A  
HETATM   10  C   UNL     1     -10.714  11.759  65.795  1.00  0.00    -0.280 A  
HETATM   11  N   UNL     1     -10.087  11.486  64.631  1.00  0.00    -0.257 NA 
HETATM   12  C   UNL     1      -9.534  10.261  64.504  1.00  0.00    -0.298 A  
HETATM   13  C   UNL     1      -9.603   9.282  65.482  1.00  0.00    -0.291 A  
ENDBRANCH   5   8
TORSDOF 1
ENDMDL
MODEL      105
REMARK 921   NORMALIZED FREE ENERGY PREDICTED BY IDOCK:   -3.02 KCAL/MOL
REMARK 922        TOTAL FREE ENERGY PREDICTED BY IDOCK:   -3.24 KCAL/MOL
REMARK 923 INTER-LIGAND FREE ENERGY PREDICTED BY IDOCK:   -3.19 KCAL/MOL
REMARK 924 INTRA-LIGAND FREE ENERGY PREDICTED BY IDOCK:   -0.06 KCAL/MOL
REMARK 927      BINDING AFFINITY PREDICTED BY RF-SCORE:    0.00 PKD
ROOT
HETATM    1  N   UNL     1      -9.781   9.771  63.840  1.00  0.00    -0.457 NA 
HETATM    2  H1  UNL     1     -10.020   9.589  62.865  1.00  0.00     0.000 HD 
HETATM    3  H2  UNL     1      -9.211   9.107  64.364  1.00  0.00     0.000 HD 
HETATM    4  N   UNL     1     -10.246  10.950  64.456  1.00  0.00    -0.335 N  
HETATM    5  C   UNL     1      -9.921  11.199  65.786  1.00  0.00    -0.245 C  
HETATM    6  H   UNL     1     -10.816  11.614  63.932  1.00  0.00     0.000 HD 
HETATM    7  O   UNL     1      -9.301  10.410  66.491  1.00  0.00    -0.158 OA 
ENDROOT
BRANCH   5   8
HETATM    8  C   UNL     1     -10.434  12.477  66.359  1.00  0.00    -0.269 A  
HETATM    9  C   UNL     1     -11.757  12.830  66.088  1.00  0.00    -0.458 A  
HETATM   10  C   UNL     1     -12.224  14.034  66.577  1.00  0.00    -0.451 A  
HETATM   11  N   UNL     1     -11.475  14.884  67.313  1.00  0.00    -0.352 NA 
HETATM   12  C   UNL     1     -10.211  14.503  67.593  1.00  0.00    -0.225 A  
HETATM   13  C   UNL     1      -9.649  13.319  67.147  1.00  0.00    -0.240 A  
ENDBRANCH   5   8
TORSDOF 1
ENDMDL
MODEL      106
REMARK 921   NORMALIZED FREE ENERGY PREDICTED BY IDOCK:   -3.02 KCAL/MOL
REMARK 922        TOTAL FREE ENERGY PREDICTED BY IDOCK:   -3.24 KCAL/MOL
REMARK 923 INTER-LIGAND FREE ENERGY PREDICTED BY IDOCK:   -3.18 KCAL/MOL
REMARK 924 INTRA-LIGAND FREE ENERGY PREDICTED BY IDOCK:   -0.06 KCAL/MOL
REMARK 927      BINDING AFFINITY PREDICTED BY RF-SCORE:    0.00 PKD
ROOT
HETATM    1  N   UNL     1     -11.006   8.689  68.031  1.00  0.00    -0.474 NA 
HETATM    2  H1  UNL     1     -10.837   9.644  67.716  1.00  0.00     0.000 HD 
HETATM    3  H2  UNL     1     -11.294   7.970  67.367  1.00  0.00     0.000 HD 
HETATM    4  N   UNL     1     -10.837   8.372  69.393  1.00  0.00    -0.397 N  
HETATM    5  C   UNL     1     -11.067   7.068  69.824  1.00  0.00    -0.241 C  
HETATM    6  H   UNL     1     -10.549   9.090  70.057  1.00  0.00     0.000 HD 
HETATM    7  O   UNL     1     -11.482   6.177  69.093  1.00  0.00    -0.379 OA 
ENDROOT
BRANCH   5   8
HETATM    8  C   UNL     1     -10.848   6.809  71.277  1.00  0.00    -0.266 A  
HETATM    9  C   UNL     1     -10.680   5.485  71.686  1.00  0.00    -0.296 A  
HETATM   10  C   UNL     1     -10.523   5.235  73.036  1.00  0.00    -0.210 A  
HETATM   11  N   UNL     1     -10.511   6.200  73.979  1.00  0.00    -0.285 NA 
HETATM   12  C   UNL     1     -10.638   7.475  73.555  1.00  0.00    -0.292 A  
HETATM   13  C   UNL     1     -10.803   7.830  72.227  1.00  0.00    -0.339 A  
ENDBRANCH   5   8
TORSDOF 1
ENDMDL
MODEL      107
REMARK 921   NORMALIZED FREE ENERGY PREDICTED BY IDOCK:   -3.00 KCAL/MOL
REMARK 922        TOTAL FREE ENERGY PREDICTED BY IDOCK:   -3.22 KCAL/MOL
REMARK 923 INTER-LIGAND FREE ENERGY PREDICTED BY IDOCK:   -3.18 KCAL/MOL
REMARK 924 INTRA-LIGAND FREE ENERGY PREDICTED BY IDOCK:   -0.04 KCAL/MOL
REMARK 927      BINDING AFFINITY PREDICTED BY RF-SCORE:    0.00 PKD
ROOT
HETATM    1  N   UNL     1      -9.340   8.778  72.267  1.00  0.00    -0.360 NA 
HETATM    2  H1  UNL     1      -8.373   8.677  72.575  1.00  0.00     0.000 HD 
HETATM    3  H2  UNL     1     -10.096   8.338  72.791  1.00  0.00     0.000 HD 
HETATM    4  N   UNL     1      -9.620   9.531  71.109  1.00  0.00    -0.246 N  
HETATM    5  C   UNL     1     -10.940   9.668  70.688  1.00  0.00    -0.320 C  
HETATM    6  H   UNL     1      -8.864   9.971  70.585  1.00  0.00     0.000 HD 
HETATM    7  O   UNL     1     -11.886   9.108  71.230  1.00  0.00    -0.288 OA 
ENDROOT
BRANCH   5   8
HETATM    8  C   UNL     1     -11.156  10.497  69.466  1.00  0.00    -0.320 A  
HETATM    9  C   UNL     1     -11.547  11.825  69.638  1.00  0.00    -0.393 A  
HETATM   10  C   UNL     1     -11.794  12.584  68.510  1.00  0.00    -0.295 A  
HETATM   11  N   UNL     1     -11.666  12.115  67.250  1.00  0.00    -0.521 NA 
HETATM   12  C   UNL     1     -11.251  10.838  67.110  1.00  0.00    -0.147 A  
HETATM   13  C   UNL     1     -10.982   9.996  68.176  1.00  0.00    -0.289 A  
ENDBRANCH   5   8
TORSDOF 1
ENDMDL
MODEL      108
REMARK 921   NORMALIZED FREE ENERGY PREDICTED BY IDOCK:   -3.00 KCAL/MOL
REMARK 922        TOTAL FREE ENERGY PREDICTED BY IDOCK:   -3.22 KCAL/MOL
REMARK 923 INTER-LIGAND FREE ENERGY PREDICTED BY IDOCK:   -3.16 KCAL/MOL
REMARK 924 INTRA-LIGAND FREE ENERGY PREDICTED BY IDOCK:   -0.06 KCAL/MOL
REMARK 927      BINDING AFFINITY PREDICTED BY RF-SCORE:    0.00 PKD
ROOT
HETATM    1  N   UNL     1     -10.776   7.789  67.800  1.00  0.00    -0.454 NA 
HETATM    2  H1  UNL     1     -10.732   6.782  67.955  1.00  0.00     0.000 HD 
HETATM    3  H2  UNL     1     -11.107   8.410  68.537  1.00  0.00     0.000 HD 
HETATM    4  N   UNL     1     -10.373   8.313  66.556  1.00  0.00    -0.423 N  
HETATM    5  C   UNL     1     -10.433   9.688  66.343  1.00  0.00    -0.111 C  
HETATM    6  H   UNL     1     -10.041   7.692  65.818  1.00  0.00     0.000 HD 
HETATM    7  O   UNL     1     -10.887  10.480  67.160  1.00  0.00    -0.279 OA 
ENDROOT
BRANCH   5   8
HETATM    8  C   UNL     1      -9.971  10.166  65.007  1.00  0.00    -0.375 A  
HETATM    9  C   UNL     1      -8.833   9.573  64.459  1.00  0.00    -0.249 A  
HETATM   10  C   UNL     1      -8.373  10.044  63.244  1.00  0.00    -0.168 A  
HETATM   11  N   UNL     1      -8.971  11.038  62.552  1.00  0.00    -0.318 NA 
HETATM   12  C   UNL     1     -10.091  11.570  63.086  1.00  0.00    -0.359 A  
HETATM   13  C   UNL     1     -10.629  11.170  64.298  1.00  0.00    -0.425 A  
ENDBRANCH   5   8
TORSDOF 1
ENDMDL
MODEL      109
REMARK 921   NORMALIZED FREE ENERGY PREDICTED BY IDOCK:   -2.98 KCAL/MOL
REMARK 922        TOTAL FREE ENERGY PREDICTED BY IDOCK:   -3.20 KCAL/MOL
REMARK 923 INTER-LIGAND FREE ENERGY PREDICTED BY IDOCK:   -3.16 KCAL/MOL
REMARK 924 INTRA-LIGAND FREE ENERGY PREDICTED BY IDOCK:   -0.04 KCAL/MOL
REMARK 927      BINDING AFFINITY PREDICTED BY RF-SCORE:    0.00 PKD
ROOT
HETATM    1  N   UNL     1      -9.689  12.596  68.853  1.00  0.00    -0.403 NA 
HETATM    2  H1  UNL     1     -10.177  12.373  69.721  1.00  0.00     0.000 HD 
HETATM    3  H2  UNL     1      -8.857  12.073  68.581  1.00  0.00     0.000 HD 
HETATM    4  N   UNL     1     -10.176  13.635  68.035  1.00  0.00    -0.242 N  
HETATM    5  C   UNL     1      -9.510  13.940  66.851  1.00  0.00    -0.258 C  
HETATM    6  H   UNL     1     -11.007  14.158  68.307  1.00  0.00     0.000 HD 
HETATM    7  O   UNL     1      -8.467  13.399  66.502  1.00  0.00     0.062 OA 
ENDROOT
BRANCH   5   8
HETATM    8  C   UNL     1     -10.098  15.039  66.032  1.00  0.00    -0.322 A  
HETATM    9  C   UNL     1     -11.017  14.694  65.040  1.00  0.00    -0.415 A  
HETATM   10  C   UNL     1     -11.530  15.702  64.247  1.00  0.00    -0.193 A  
HETATM   11  N   UNL     1     -11.201  17.004  64.386  1.00  0.00    -1.077 NA 
HETATM   12  C   UNL     1     -10.339  17.317  65.376  1.00  0.00     0.024 A  
HETATM   13  C   UNL     1      -9.767  16.381  66.221  1.00  0.00    -0.332 A  
ENDBRANCH   5   8
TORSDOF 1
ENDMDL
MODEL      110
REMARK 921   NORMALIZED FREE ENERGY PREDICTED BY IDOCK:   -2.95 KCAL/MOL
REMARK 922        TOTAL FREE ENERGY PREDICTED BY IDOCK:   -3.16 KCAL/MOL
REMARK 923 INTER-LIGAND FREE ENERGY PREDICTED BY IDOCK:   -3.12 KCAL/MOL
REMARK 924 INTRA-LIGAND FREE ENERGY PREDICTED BY IDOCK:   -0.04 KCAL/MOL
REMARK 927      BINDING AFFINITY PREDICTED BY RF-SCORE:    0.00 PKD
ROOT
HETATM    1  N   UNL     1     -11.086   6.197  69.002  1.00  0.00    -0.379 NA 
HETATM    2  H1  UNL     1     -11.849   5.520  69.003  1.00  0.00     0.000 HD 
HETATM    3  H2  UNL     1     -10.268   6.053  69.594  1.00  0.00     0.000 HD 
HETATM    4  N   UNL     1     -11.174   7.334  68.175  1.00  0.00    -0.448 N  
HETATM    5  C   UNL     1     -10.134   8.259  68.173  1.00  0.00    -0.200 C  
HETATM    6  H   UNL     1     -11.992   7.478  67.583  1.00  0.00     0.000 HD 
HETATM    7  O   UNL     1      -9.158   8.183  68.911  1.00  0.00    -0.147 OA 
ENDROOT
BRANCH   5   8
HETATM    8  C   UNL     1     -10.294   9.425  67.255  1.00  0.00    -0.325 A  
HETATM    9  C   UNL     1      -9.721   9.341  65.986  1.00  0.00    -0.359 A  
HETATM   10  C   UNL     1      -9.825  10.435  65.149  1.00  0.00    -0.313 A  
HETATM   11  N   UNL     1     -10.461  11.577  65.487  1.00  0.00    -0.267 NA 
HETATM   12  C   UNL     1     -11.039  11.620  66.706  1.00  0.00    -0.309 A  
HETATM   13  C   UNL     1     -10.988  10.579  67.618  1.00  0.00    -0.375 A  
ENDBRANCH   5   8
TORSDOF 1
ENDMDL
MODEL      111
REMARK 921   NORMALIZED FREE ENERGY PREDICTED BY IDOCK:   -2.89 KCAL/MOL
REMARK 922        TOTAL FREE ENERGY PREDICTED BY IDOCK:   -3.10 KCAL/MOL
REMARK 923 INTER-LIGAND FREE ENERGY PREDICTED BY IDOCK:   -3.06 KCAL/MOL
REMARK 924 INTRA-LIGAND FREE ENERGY PREDICTED BY IDOCK:   -0.04 KCAL/MOL
REMARK 927      BINDING AFFINITY PREDICTED BY RF-SCORE:    0.00 PKD
ROOT
HETATM    1  N   UNL     1      -5.675  12.214  66.548  1.00  0.00    -0.485 NA 
HETATM    2  H1  UNL     1      -5.031  11.524  66.161  1.00  0.00     0.000 HD 
HETATM    3  H2  UNL     1      -5.335  13.130  66.839  1.00  0.00     0.000 HD 
HETATM    4  N   UNL     1      -7.039  11.887  66.677  1.00  0.00    -0.376 N  
HETATM    5  C   UNL     1      -7.919  12.828  67.206  1.00  0.00    -0.156 C  
HETATM    6  H   UNL     1      -7.380  10.971  66.386  1.00  0.00     0.000 HD 
HETATM    7  O   UNL     1      -7.564  13.918  67.640  1.00  0.00    -0.149 OA 
ENDROOT
BRANCH   5   8
HETATM    8  C   UNL     1      -9.350  12.414  67.292  1.00  0.00    -0.184 A  
HETATM    9  C   UNL     1      -9.719  11.549  68.323  1.00  0.00    -0.198 A  
HETATM   10  C   UNL     1     -11.032  11.125  68.379  1.00  0.00    -0.227 A  
HETATM   11  N   UNL     1     -11.981  11.510  67.499  1.00  0.00    -0.622 NA 
HETATM   12  C   UNL     1     -11.608  12.375  66.534  1.00  0.00    -0.387 A  
HETATM   13  C   UNL     1     -10.317  12.856  66.389  1.00  0.00    -0.277 A  
ENDBRANCH   5   8
TORSDOF 1
ENDMDL
MODEL      112
REMARK 921   NORMALIZED FREE ENERGY PREDICTED BY IDOCK:   -2.88 KCAL/MOL
REMARK 922        TOTAL FREE ENERGY PREDICTED BY IDOCK:   -3.09 KCAL/MOL
REMARK 923 INTER-LIGAND FREE ENERGY PREDICTED BY IDOCK:   -3.05 KCAL/MOL
REMARK 924 INTRA-LIGAND FREE ENERGY PREDICTED BY IDOCK:   -0.04 KCAL/MOL
REMARK 927      BINDING AFFINITY PREDICTED BY RF-SCORE:    0.00 PKD
ROOT
HETATM    1  N   UNL     1     -11.813  12.638  70.021  1.00  0.00    -0.481 NA 
HETATM    2  H1  UNL     1     -12.698  12.467  70.499  1.00  0.00     0.000 HD 
HETATM    3  H2  UNL     1     -11.039  13.081  70.515  1.00  0.00     0.000 HD 
HETATM    4  N   UNL     1     -11.672  12.257  68.672  1.00  0.00    -0.313 N  
HETATM    5  C   UNL     1     -10.465  12.491  68.020  1.00  0.00    -0.219 C  
HETATM    6  H   UNL     1     -12.447  11.814  68.178  1.00  0.00     0.000 HD 
HETATM    7  O   UNL     1      -9.521  13.081  68.533  1.00  0.00    -0.190 OA 
ENDROOT
BRANCH   5   8
HETATM    8  C   UNL     1     -10.388  12.041  66.599  1.00  0.00    -0.237 A  
HETATM    9  C   UNL     1     -10.595  12.993  65.601  1.00  0.00    -0.297 A  
HETATM   10  C   UNL     1     -10.572  12.573  64.285  1.00  0.00    -0.369 A  
HETATM   11  N   UNL     1     -10.348  11.295  63.911  1.00  0.00    -0.348 NA 
HETATM   12  C   UNL     1     -10.114  10.400  64.893  1.00  0.00    -0.312 A  
HETATM   13  C   UNL     1     -10.119  10.720  66.241  1.00  0.00    -0.285 A  
ENDBRANCH   5   8
TORSDOF 1
ENDMDL
MODEL      113
REMARK 921   NORMALIZED FREE ENERGY PREDICTED BY IDOCK:   -2.85 KCAL/MOL
REMARK 922        TOTAL FREE ENERGY PREDICTED BY IDOCK:   -3.06 KCAL/MOL
REMARK 923 INTER-LIGAND FREE ENERGY PREDICTED BY IDOCK:   -3.00 KCAL/MOL
REMARK 924 INTRA-LIGAND FREE ENERGY PREDICTED BY IDOCK:   -0.07 KCAL/MOL
REMARK 927      BINDING AFFINITY PREDICTED BY RF-SCORE:    0.00 PKD
ROOT
HETATM    1  N   UNL     1     -11.304  12.332  69.743  1.00  0.00    -0.494 NA 
HETATM    2  H1  UNL     1     -11.676  12.232  70.687  1.00  0.00     0.000 HD 
HETATM    3  H2  UNL     1     -11.353  11.554  69.085  1.00  0.00     0.000 HD 
HETATM    4  N   UNL     1     -10.722  13.555  69.356  1.00  0.00    -0.444 N  
HETATM    5  C   UNL     1     -10.214  13.692  68.068  1.00  0.00    -0.248 C  
HETATM    6  H   UNL     1     -10.673  14.333  70.014  1.00  0.00     0.000 HD 
HETATM    7  O   UNL     1     -10.177  12.777  67.254  1.00  0.00    -0.229 OA 
ENDROOT
BRANCH   5   8
HETATM    8  C   UNL     1      -9.631  15.024  67.729  1.00  0.00    -0.203 A  
HETATM    9  C   UNL     1      -9.562  15.982  68.741  1.00  0.00    -0.221 A  
HETATM   10  C   UNL     1      -9.068  17.232  68.422  1.00  0.00    -0.265 A  
HETATM   11  N   UNL     1      -8.636  17.574  67.189  1.00  0.00    -0.220 NA 
HETATM   12  C   UNL     1      -8.679  16.619  66.237  1.00  0.00    -0.324 A  
HETATM   13  C   UNL     1      -9.160  15.338  66.455  1.00  0.00    -0.347 A  
ENDBRANCH   5   8
TORSDOF 1
ENDMDL
MODEL      114
REMARK 921   NORMALIZED FREE ENERGY PREDICTED BY IDOCK:   -2.85 KCAL/MOL
REMARK 922        TOTAL FREE ENERGY PREDICTED BY IDOCK:   -3.06 KCAL/MOL
REMARK 923 INTER-LIGAND FREE ENERGY PREDICTED BY IDOCK:   -3.02 KCAL/MOL
REMARK 924 INTRA-LIGAND FREE ENERGY PREDICTED BY IDOCK:   -0.04 KCAL/MOL
REMARK 927      BINDING AFFINITY PREDICTED BY RF-SCORE:    0.00 PKD
ROOT
HETATM    1  N   UNL     1      -9.322  10.531  69.610  1.00  0.00    -0.414 NA 
HETATM    2  H1  UNL     1      -8.515  10.702  69.008  1.00  0.00     0.000 HD 
HETATM    3  H2  UNL     1     -10.045  11.242  69.714  1.00  0.00     0.000 HD 
HETATM    4  N   UNL     1      -9.426   9.305  70.294  1.00  0.00    -0.219 N  
HETATM    5  C   UNL     1     -10.526   9.072  71.115  1.00  0.00    -0.293 C  
HETATM    6  H   UNL     1      -8.702   8.594  70.190  1.00  0.00     0.000 HD 
HETATM    7  O   UNL     1     -11.392   9.909  71.339  1.00  0.00    -0.364 OA 
ENDROOT
BRANCH   5   8
HETATM    8  C   UNL     1     -10.572   7.742  71.789  1.00  0.00    -0.260 A  
HETATM    9  C   UNL     1     -10.521   7.714  73.184  1.00  0.00    -0.433 A  
HETATM   10  C   UNL     1     -10.516   6.484  73.812  1.00  0.00    -0.315 A  
HETATM   11  N   UNL     1     -10.571   5.307  73.152  1.00  0.00    -0.213 NA 
HETATM   12  C   UNL     1     -10.657   5.361  71.807  1.00  0.00    -0.222 A  
HETATM   13  C   UNL     1     -10.665   6.542  71.083  1.00  0.00    -0.285 A  
ENDBRANCH   5   8
TORSDOF 1
ENDMDL
MODEL      115
REMARK 921   NORMALIZED FREE ENERGY PREDICTED BY IDOCK:   -2.85 KCAL/MOL
REMARK 922        TOTAL FREE ENERGY PREDICTED BY IDOCK:   -3.06 KCAL/MOL
REMARK 923 INTER-LIGAND FREE ENERGY PREDICTED BY IDOCK:   -3.01 KCAL/MOL
REMARK 924 INTRA-LIGAND FREE ENERGY PREDICTED BY IDOCK:   -0.05 KCAL/MOL
REMARK 927      BINDING AFFINITY PREDICTED BY RF-SCORE:    0.00 PKD
ROOT
HETATM    1  N   UNL     1     -11.454   6.522  68.397  1.00  0.00    -0.527 NA 
HETATM    2  H1  UNL     1     -11.096   6.055  67.564  1.00  0.00     0.000 HD 
HETATM    3  H2  UNL     1     -12.129   7.282  68.312  1.00  0.00     0.000 HD 
HETATM    4  N   UNL     1     -11.007   6.106  69.667  1.00  0.00    -0.354 N  
HETATM    5  C   UNL     1     -11.495   6.742  70.805  1.00  0.00    -0.342 C  
HETATM    6  H   UNL     1     -10.333   5.345  69.752  1.00  0.00     0.000 HD 
HETATM    7  O   UNL     1     -12.251   7.707  70.770  1.00  0.00    -0.213 OA 
ENDROOT
BRANCH   5   8
HETATM    8  C   UNL     1     -10.989   6.231  72.112  1.00  0.00    -0.298 A  
HETATM    9  C   UNL     1     -10.469   7.156  73.018  1.00  0.00    -0.331 A  
HETATM   10  C   UNL     1      -9.955   6.683  74.210  1.00  0.00    -0.345 A  
HETATM   11  N   UNL     1      -9.939   5.377  74.552  1.00  0.00    -0.221 NA 
HETATM   12  C   UNL     1     -10.481   4.506  73.675  1.00  0.00    -0.222 A  
HETATM   13  C   UNL     1     -11.018   4.879  72.454  1.00  0.00    -0.159 A  
ENDBRANCH   5   8
TORSDOF 1
ENDMDL
MODEL      116
REMARK 921   NORMALIZED FREE ENERGY PREDICTED BY IDOCK:   -2.83 KCAL/MOL
REMARK 922        TOTAL FREE ENERGY PREDICTED BY IDOCK:   -3.04 KCAL/MOL
REMARK 923 INTER-LIGAND FREE ENERGY PREDICTED BY IDOCK:   -2.98 KCAL/MOL
REMARK 924 INTRA-LIGAND FREE ENERGY PREDICTED BY IDOCK:   -0.06 KCAL/MOL
REMARK 927      BINDING AFFINITY PREDICTED BY RF-SCORE:    0.00 PKD
ROOT
HETATM    1  N   UNL     1     -11.240   6.508  70.516  1.00  0.00    -0.317 NA 
HETATM    2  H1  UNL     1     -11.420   5.560  70.185  1.00  0.00     0.000 HD 
HETATM    3  H2  UNL     1     -10.968   6.671  71.485  1.00  0.00     0.000 HD 
HETATM    4  N   UNL     1     -11.372   7.588  69.621  1.00  0.00    -0.461 N  
HETATM    5  C   UNL     1     -11.127   8.882  70.073  1.00  0.00    -0.170 C  
HETATM    6  H   UNL     1     -11.644   7.424  68.652  1.00  0.00     0.000 HD 
HETATM    7  O   UNL     1     -10.866   9.154  71.239  1.00  0.00    -0.275 OA 
ENDROOT
BRANCH   5   8
HETATM    8  C   UNL     1     -11.268   9.968  69.060  1.00  0.00    -0.180 A  
HETATM    9  C   UNL     1     -10.810   9.719  67.766  1.00  0.00    -0.306 A  
HETATM   10  C   UNL     1     -10.895  10.737  66.837  1.00  0.00    -0.229 A  
HETATM   11  N   UNL     1     -11.409  11.956  67.107  1.00  0.00    -0.329 NA 
HETATM   12  C   UNL     1     -11.880  12.161  68.355  1.00  0.00    -0.303 A  
HETATM   13  C   UNL     1     -11.837  11.207  69.359  1.00  0.00    -0.415 A  
ENDBRANCH   5   8
TORSDOF 1
ENDMDL
MODEL      117
REMARK 921   NORMALIZED FREE ENERGY PREDICTED BY IDOCK:   -2.78 KCAL/MOL
REMARK 922        TOTAL FREE ENERGY PREDICTED BY IDOCK:   -2.99 KCAL/MOL
REMARK 923 INTER-LIGAND FREE ENERGY PREDICTED BY IDOCK:   -2.95 KCAL/MOL
REMARK 924 INTRA-LIGAND FREE ENERGY PREDICTED BY IDOCK:   -0.04 KCAL/MOL
REMARK 927      BINDING AFFINITY PREDICTED BY RF-SCORE:    0.00 PKD
ROOT
HETATM    1  N   UNL     1      -9.891  20.056  67.824  1.00  0.00    -0.391 NA 
HETATM    2  H1  UNL     1      -9.593  20.780  68.478  1.00  0.00     0.000 HD 
HETATM    3  H2  UNL     1     -10.020  20.275  66.837  1.00  0.00     0.000 HD 
HETATM    4  N   UNL     1     -10.124  18.750  68.299  1.00  0.00    -0.367 N  
HETATM    5  C   UNL     1     -10.532  17.762  67.407  1.00  0.00    -0.364 C  
HETATM    6  H   UNL     1      -9.996  18.531  69.287  1.00  0.00     0.000 HD 
HETATM    7  O   UNL     1     -10.773  17.975  66.224  1.00  0.00    -0.288 OA 
ENDROOT
BRANCH   5   8
HETATM    8  C   UNL     1     -10.739  16.402  67.984  1.00  0.00    -0.334 A  
HETATM    9  C   UNL     1      -9.749  15.443  67.766  1.00  0.00    -0.211 A  
HETATM   10  C   UNL     1      -9.957  14.168  68.258  1.00  0.00    -0.241 A  
HETATM   11  N   UNL     1     -11.058  13.803  68.948  1.00  0.00    -0.258 NA 
HETATM   12  C   UNL     1     -11.984  14.758  69.177  1.00  0.00    -0.282 A  
HETATM   13  C   UNL     1     -11.872  16.062  68.724  1.00  0.00    -0.210 A  
ENDBRANCH   5   8
TORSDOF 1
ENDMDL
MODEL      118
REMARK 921   NORMALIZED FREE ENERGY PREDICTED BY IDOCK:   -2.76 KCAL/MOL
REMARK 922        TOTAL FREE ENERGY PREDICTED BY IDOCK:   -2.97 KCAL/MOL
REMARK 923 INTER-LIGAND FREE ENERGY PREDICTED BY IDOCK:   -2.91 KCAL/MOL
REMARK 924 INTRA-LIGAND FREE ENERGY PREDICTED BY IDOCK:   -0.05 KCAL/MOL
REMARK 927      BINDING AFFINITY PREDICTED BY RF-SCORE:    0.00 PKD
ROOT
HETATM    1  N   UNL     1      -9.337   9.596  64.053  1.00  0.00    -0.415 NA 
HETATM    2  H1  UNL     1      -9.313  10.212  63.240  1.00  0.00     0.000 HD 
HETATM    3  H2  UNL     1      -9.028   8.628  63.975  1.00  0.00     0.000 HD 
HETATM    4  N   UNL     1      -9.801  10.098  65.284  1.00  0.00    -0.302 N  
HETATM    5  C   UNL     1      -9.834   9.259  66.394  1.00  0.00    -0.277 C  
HETATM    6  H   UNL     1     -10.110  11.067  65.362  1.00  0.00     0.000 HD 
HETATM    7  O   UNL     1      -9.545   8.068  66.352  1.00  0.00    -0.212 OA 
ENDROOT
BRANCH   5   8
HETATM    8  C   UNL     1     -10.320   9.870  67.666  1.00  0.00    -0.275 A  
HETATM    9  C   UNL     1      -9.779   9.403  68.864  1.00  0.00    -0.166 A  
HETATM   10  C   UNL     1     -10.258   9.932  70.046  1.00  0.00    -0.271 A  
HETATM   11  N   UNL     1     -11.213  10.885  70.107  1.00  0.00    -0.274 NA 
HETATM   12  C   UNL     1     -11.694  11.347  68.934  1.00  0.00    -0.343 A  
HETATM   13  C   UNL     1     -11.282  10.880  67.696  1.00  0.00    -0.379 A  
ENDBRANCH   5   8
TORSDOF 1
ENDMDL
MODEL      119
REMARK 921   NORMALIZED FREE ENERGY PREDICTED BY IDOCK:   -2.73 KCAL/MOL
REMARK 922        TOTAL FREE ENERGY PREDICTED BY IDOCK:   -2.93 KCAL/MOL
REMARK 923 INTER-LIGAND FREE ENERGY PREDICTED BY IDOCK:   -2.87 KCAL/MOL
REMARK 924 INTRA-LIGAND FREE ENERGY PREDICTED BY IDOCK:   -0.07 KCAL/MOL
REMARK 927      BINDING AFFINITY PREDICTED BY RF-SCORE:    0.00 PKD
ROOT
HETATM    1  N   UNL     1     -10.155  12.942  68.914  1.00  0.00    -0.431 NA 
HETATM    2  H1  UNL     1      -9.893  13.470  69.746  1.00  0.00     0.000 HD 
HETATM    3  H2  UNL     1     -10.370  13.426  68.043  1.00  0.00     0.000 HD 
HETATM    4  N   UNL     1     -10.218  11.536  68.980  1.00  0.00    -0.384 N  
HETATM    5  C   UNL     1     -10.576  10.814  67.845  1.00  0.00    -0.221 C  
HETATM    6  H   UNL     1     -10.002  11.051  69.851  1.00  0.00     0.000 HD 
HETATM    7  O   UNL     1     -10.915  11.337  66.790  1.00  0.00    -0.282 OA 
ENDROOT
BRANCH   5   8
HETATM    8  C   UNL     1     -10.600   9.329  67.992  1.00  0.00    -0.262 A  
HETATM    9  C   UNL     1     -10.653   8.801  69.282  1.00  0.00    -0.210 A  
HETATM   10  C   UNL     1     -10.628   7.427  69.426  1.00  0.00    -0.226 A  
HETATM   11  N   UNL     1     -10.568   6.567  68.387  1.00  0.00    -0.220 NA 
HETATM   12  C   UNL     1     -10.555   7.102  67.147  1.00  0.00    -0.347 A  
HETATM   13  C   UNL     1     -10.573   8.464  66.898  1.00  0.00    -0.285 A  
ENDBRANCH   5   8
TORSDOF 1
ENDMDL
MODEL      120
REMARK 921   NORMALIZED FREE ENERGY PREDICTED BY IDOCK:   -2.73 KCAL/MOL
REMARK 922        TOTAL FREE ENERGY PREDICTED BY IDOCK:   -2.93 KCAL/MOL
REMARK 923 INTER-LIGAND FREE ENERGY PREDICTED BY IDOCK:   -2.87 KCAL/MOL
REMARK 924 INTRA-LIGAND FREE ENERGY PREDICTED BY IDOCK:   -0.07 KCAL/MOL
REMARK 927      BINDING AFFINITY PREDICTED BY RF-SCORE:    0.00 PKD
ROOT
HETATM    1  N   UNL     1     -11.520   6.473  68.264  1.00  0.00    -0.543 NA 
HETATM    2  H1  UNL     1     -11.082   6.300  67.360  1.00  0.00     0.000 HD 
HETATM    3  H2  UNL     1     -12.452   6.885  68.315  1.00  0.00     0.000 HD 
HETATM    4  N   UNL     1     -10.826   6.138  69.443  1.00  0.00    -0.315 N  
HETATM    5  C   UNL     1     -11.423   6.374  70.678  1.00  0.00    -0.362 C  
HETATM    6  H   UNL     1      -9.894   5.726  69.392  1.00  0.00     0.000 HD 
HETATM    7  O   UNL     1     -12.507   6.929  70.811  1.00  0.00    -0.356 OA 
ENDROOT
BRANCH   5   8
HETATM    8  C   UNL     1     -10.632   5.973  71.878  1.00  0.00    -0.272 A  
HETATM    9  C   UNL     1      -9.577   5.077  71.695  1.00  0.00    -0.210 A  
HETATM   10  C   UNL     1      -8.870   4.666  72.809  1.00  0.00    -0.117 A  
HETATM   11  N   UNL     1      -9.135   5.092  74.062  1.00  0.00    -0.112 NA 
HETATM   12  C   UNL     1     -10.136   5.986  74.208  1.00  0.00    -0.297 A  
HETATM   13  C   UNL     1     -10.905   6.457  73.157  1.00  0.00    -0.282 A  
ENDBRANCH   5   8
TORSDOF 1
ENDMDL
MODEL      121
REMARK 921   NORMALIZED FREE ENERGY PREDICTED BY IDOCK:   -2.72 KCAL/MOL
REMARK 922        TOTAL FREE ENERGY PREDICTED BY IDOCK:   -2.92 KCAL/MOL
REMARK 923 INTER-LIGAND FREE ENERGY PREDICTED BY IDOCK:   -2.88 KCAL/MOL
REMARK 924 INTRA-LIGAND FREE ENERGY PREDICTED BY IDOCK:   -0.04 KCAL/MOL
REMARK 927      BINDING AFFINITY PREDICTED BY RF-SCORE:    0.00 PKD
ROOT
HETATM    1  N   UNL     1     -11.933  11.013  68.262  1.00  0.00    -0.757 NA 
HETATM    2  H1  UNL     1     -12.591  11.247  67.518  1.00  0.00     0.000 HD 
HETATM    3  H2  UNL     1     -11.586  11.737  68.889  1.00  0.00     0.000 HD 
HETATM    4  N   UNL     1     -11.511   9.677  68.413  1.00  0.00    -0.402 N  
HETATM    5  C   UNL     1     -10.613   9.357  69.428  1.00  0.00    -0.221 C  
HETATM    6  H   UNL     1     -11.859   8.953  67.786  1.00  0.00     0.000 HD 
HETATM    7  O   UNL     1     -10.103  10.189  70.169  1.00  0.00    -0.246 OA 
ENDROOT
BRANCH   5   8
HETATM    8  C   UNL     1     -10.229   7.919  69.534  1.00  0.00    -0.208 A  
HETATM    9  C   UNL     1     -11.119   7.050  70.168  1.00  0.00    -0.323 A  
HETATM   10  C   UNL     1     -10.749   5.727  70.311  1.00  0.00    -0.309 A  
HETATM   11  N   UNL     1      -9.579   5.225  69.862  1.00  0.00    -0.164 NA 
HETATM   12  C   UNL     1      -8.751   6.076  69.220  1.00  0.00    -0.117 A  
HETATM   13  C   UNL     1      -9.029   7.420  69.029  1.00  0.00    -0.131 A  
ENDBRANCH   5   8
TORSDOF 1
ENDMDL
MODEL      122
REMARK 921   NORMALIZED FREE ENERGY PREDICTED BY IDOCK:   -2.71 KCAL/MOL
REMARK 922        TOTAL FREE ENERGY PREDICTED BY IDOCK:   -2.91 KCAL/MOL
REMARK 923 INTER-LIGAND FREE ENERGY PREDICTED BY IDOCK:   -2.86 KCAL/MOL
REMARK 924 INTRA-LIGAND FREE ENERGY PREDICTED BY IDOCK:   -0.06 KCAL/MOL
REMARK 927      BINDING AFFINITY PREDICTED BY RF-SCORE:    0.00 PKD
ROOT
HETATM    1  N   UNL     1     -11.888  13.501  70.479  1.00  0.00    -0.524 NA 
HETATM    2  H1  UNL     1     -11.515  14.436  70.317  1.00  0.00     0.000 HD 
HETATM    3  H2  UNL     1     -12.698  13.368  71.085  1.00  0.00     0.000 HD 
HETATM    4  N   UNL     1     -11.275  12.395  69.858  1.00  0.00    -0.486 N  
HETATM    5  C   UNL     1     -11.784  11.119  70.079  1.00  0.00    -0.356 C  
HETATM    6  H   UNL     1     -10.465  12.529  69.253  1.00  0.00     0.000 HD 
HETATM    7  O   UNL     1     -12.708  10.882  70.849  1.00  0.00    -0.348 OA 
ENDROOT
BRANCH   5   8
HETATM    8  C   UNL     1     -11.091  10.004  69.371  1.00  0.00    -0.265 A  
HETATM    9  C   UNL     1     -11.148   8.731  69.941  1.00  0.00    -0.129 A  
HETATM   10  C   UNL     1     -10.469   7.705  69.315  1.00  0.00    -0.218 A  
HETATM   11  N   UNL     1      -9.763   7.861  68.175  1.00  0.00    -0.155 NA 
HETATM   12  C   UNL     1      -9.753   9.092  67.622  1.00  0.00    -0.156 A  
HETATM   13  C   UNL     1     -10.398  10.187  68.174  1.00  0.00    -0.217 A  
ENDBRANCH   5   8
TORSDOF 1
ENDMDL
MODEL      123
REMARK 921   NORMALIZED FREE ENERGY PREDICTED BY IDOCK:   -2.65 KCAL/MOL
REMARK 922        TOTAL FREE ENERGY PREDICTED BY IDOCK:   -2.85 KCAL/MOL
REMARK 923 INTER-LIGAND FREE ENERGY PREDICTED BY IDOCK:   -2.80 KCAL/MOL
REMARK 924 INTRA-LIGAND FREE ENERGY PREDICTED BY IDOCK:   -0.05 KCAL/MOL
REMARK 927      BINDING AFFINITY PREDICTED BY RF-SCORE:    0.00 PKD
ROOT
HETATM    1  N   UNL     1     -11.384   4.603  65.174  1.00  0.00    -1.090 NA 
HETATM    2  H1  UNL     1     -12.192   5.091  64.787  1.00  0.00     0.000 HD 
HETATM    3  H2  UNL     1     -10.973   3.813  64.677  1.00  0.00     0.000 HD 
HETATM    4  N   UNL     1     -10.842   5.031  66.402  1.00  0.00    -0.460 N  
HETATM    5  C   UNL     1      -9.739   4.365  66.930  1.00  0.00    -0.210 C  
HETATM    6  H   UNL     1     -11.253   5.821  66.899  1.00  0.00     0.000 HD 
HETATM    7  O   UNL     1      -9.242   3.367  66.421  1.00  0.00    -0.154 OA 
ENDROOT
BRANCH   5   8
HETATM    8  C   UNL     1      -9.212   4.891  68.223  1.00  0.00    -0.154 A  
HETATM    9  C   UNL     1      -7.831   5.040  68.354  1.00  0.00    -0.082 A  
HETATM   10  C   UNL     1      -7.335   5.482  69.565  1.00  0.00    -0.066 A  
HETATM   11  N   UNL     1      -8.112   5.790  70.625  1.00  0.00    -0.115 NA 
HETATM   12  C   UNL     1      -9.446   5.674  70.462  1.00  0.00    -0.163 A  
HETATM   13  C   UNL     1     -10.042   5.236  69.290  1.00  0.00    -0.300 A  
ENDBRANCH   5   8
TORSDOF 1
ENDMDL
MODEL      124
REMARK 921   NORMALIZED FREE ENERGY PREDICTED BY IDOCK:   -2.61 KCAL/MOL
REMARK 922        TOTAL FREE ENERGY PREDICTED BY IDOCK:   -2.81 KCAL/MOL
REMARK 923 INTER-LIGAND FREE ENERGY PREDICTED BY IDOCK:   -2.75 KCAL/MOL
REMARK 924 INTRA-LIGAND FREE ENERGY PREDICTED BY IDOCK:   -0.05 KCAL/MOL
REMARK 927      BINDING AFFINITY PREDICTED BY RF-SCORE:    0.00 PKD
ROOT
HETATM    1  N   UNL     1      -6.313  11.989  66.500  1.00  0.00    -0.464 NA 
HETATM    2  H1  UNL     1      -6.266  11.013  66.208  1.00  0.00     0.000 HD 
HETATM    3  H2  UNL     1      -5.462  12.548  66.568  1.00  0.00     0.000 HD 
HETATM    4  N   UNL     1      -7.564  12.558  66.810  1.00  0.00    -0.381 N  
HETATM    5  C   UNL     1      -7.628  13.890  67.210  1.00  0.00    -0.057 C  
HETATM    6  H   UNL     1      -8.414  11.999  66.742  1.00  0.00     0.000 HD 
HETATM    7  O   UNL     1      -6.640  14.594  67.380  1.00  0.00    -0.283 OA 
ENDROOT
BRANCH   5   8
HETATM    8  C   UNL     1      -8.991  14.423  67.500  1.00  0.00    -0.192 A  
HETATM    9  C   UNL     1      -9.243  15.765  67.212  1.00  0.00    -0.217 A  
HETATM   10  C   UNL     1     -10.488  16.276  67.523  1.00  0.00    -0.302 A  
HETATM   11  N   UNL     1     -11.479  15.546  68.078  1.00  0.00    -0.335 NA 
HETATM   12  C   UNL     1     -11.224  14.242  68.313  1.00  0.00    -0.276 A  
HETATM   13  C   UNL     1     -10.008  13.636  68.042  1.00  0.00    -0.247 A  
ENDBRANCH   5   8
TORSDOF 1
ENDMDL
MODEL      125
REMARK 921   NORMALIZED FREE ENERGY PREDICTED BY IDOCK:   -2.59 KCAL/MOL
REMARK 922        TOTAL FREE ENERGY PREDICTED BY IDOCK:   -2.78 KCAL/MOL
REMARK 923 INTER-LIGAND FREE ENERGY PREDICTED BY IDOCK:   -2.74 KCAL/MOL
REMARK 924 INTRA-LIGAND FREE ENERGY PREDICTED BY IDOCK:   -0.04 KCAL/MOL
REMARK 927      BINDING AFFINITY PREDICTED BY RF-SCORE:    0.00 PKD
ROOT
HETATM    1  N   UNL     1     -10.373  16.046  68.964  1.00  0.00    -0.227 NA 
HETATM    2  H1  UNL     1     -11.378  16.052  69.138  1.00  0.00     0.000 HD 
HETATM    3  H2  UNL     1      -9.842  15.179  69.042  1.00  0.00     0.000 HD 
HETATM    4  N   UNL     1      -9.726  17.248  68.617  1.00  0.00    -0.289 N  
HETATM    5  C   UNL     1      -8.354  17.241  68.380  1.00  0.00    -0.261 C  
HETATM    6  H   UNL     1     -10.257  18.115  68.539  1.00  0.00     0.000 HD 
HETATM    7  O   UNL     1      -7.647  16.250  68.525  1.00  0.00    -0.161 OA 
ENDROOT
BRANCH   5   8
HETATM    8  C   UNL     1      -7.747  18.549  67.998  1.00  0.00    -0.281 A  
HETATM    9  C   UNL     1      -7.021  19.241  68.969  1.00  0.00    -0.381 A  
HETATM   10  C   UNL     1      -6.497  20.474  68.635  1.00  0.00    -0.260 A  
HETATM   11  N   UNL     1      -6.636  21.042  67.418  1.00  0.00    -0.351 NA 
HETATM   12  C   UNL     1      -7.310  20.337  66.485  1.00  0.00    -0.261 A  
HETATM   13  C   UNL     1      -7.877  19.095  66.721  1.00  0.00    -0.270 A  
ENDBRANCH   5   8
TORSDOF 1
ENDMDL
MODEL      126
REMARK 921   NORMALIZED FREE ENERGY PREDICTED BY IDOCK:   -2.56 KCAL/MOL
REMARK 922        TOTAL FREE ENERGY PREDICTED BY IDOCK:   -2.75 KCAL/MOL
REMARK 923 INTER-LIGAND FREE ENERGY PREDICTED BY IDOCK:   -2.71 KCAL/MOL
REMARK 924 INTRA-LIGAND FREE ENERGY PREDICTED BY IDOCK:   -0.04 KCAL/MOL
REMARK 927      BINDING AFFINITY PREDICTED BY RF-SCORE:    0.00 PKD
ROOT
HETATM    1  N   UNL     1     -13.630   9.890  70.865  1.00  0.00    -0.488 NA 
HETATM    2  H1  UNL     1     -14.532   9.935  71.339  1.00  0.00     0.000 HD 
HETATM    3  H2  UNL     1     -13.302  10.677  70.306  1.00  0.00     0.000 HD 
HETATM    4  N   UNL     1     -12.843   8.728  70.989  1.00  0.00    -0.499 N  
HETATM    5  C   UNL     1     -11.612   8.665  70.341  1.00  0.00    -0.078 C  
HETATM    6  H   UNL     1     -13.171   7.941  71.548  1.00  0.00     0.000 HD 
HETATM    7  O   UNL     1     -11.192   9.546  69.598  1.00  0.00    -0.206 OA 
ENDROOT
BRANCH   5   8
HETATM    8  C   UNL     1     -10.830   7.410  70.537  1.00  0.00    -0.259 A  
HETATM    9  C   UNL     1     -11.119   6.324  69.710  1.00  0.00    -0.473 A  
HETATM   10  C   UNL     1     -10.431   5.145  69.918  1.00  0.00    -0.226 A  
HETATM   11  N   UNL     1      -9.486   4.988  70.870  1.00  0.00    -0.154 NA 
HETATM   12  C   UNL     1      -9.198   6.063  71.633  1.00  0.00    -0.145 A  
HETATM   13  C   UNL     1      -9.833   7.288  71.506  1.00  0.00    -0.182 A  
ENDBRANCH   5   8
TORSDOF 1
ENDMDL
MODEL      127
REMARK 921   NORMALIZED FREE ENERGY PREDICTED BY IDOCK:   -2.55 KCAL/MOL
REMARK 922        TOTAL FREE ENERGY PREDICTED BY IDOCK:   -2.75 KCAL/MOL
REMARK 923 INTER-LIGAND FREE ENERGY PREDICTED BY IDOCK:   -2.69 KCAL/MOL
REMARK 924 INTRA-LIGAND FREE ENERGY PREDICTED BY IDOCK:   -0.06 KCAL/MOL
REMARK 927      BINDING AFFINITY PREDICTED BY RF-SCORE:    0.00 PKD
ROOT
HETATM    1  N   UNL     1     -11.528  14.066  67.862  1.00  0.00    -0.298 NA 
HETATM    2  H1  UNL     1     -11.583  14.748  68.619  1.00  0.00     0.000 HD 
HETATM    3  H2  UNL     1     -11.718  14.348  66.901  1.00  0.00     0.000 HD 
HETATM    4  N   UNL     1     -11.188  12.732  68.159  1.00  0.00    -0.253 N  
HETATM    5  C   UNL     1     -11.114  11.801  67.126  1.00  0.00    -0.296 C  
HETATM    6  H   UNL     1     -10.998  12.450  69.120  1.00  0.00     0.000 HD 
HETATM    7  O   UNL     1     -11.398  12.057  65.962  1.00  0.00    -0.329 OA 
ENDROOT
BRANCH   5   8
HETATM    8  C   UNL     1     -10.728  10.414  67.519  1.00  0.00    -0.339 A  
HETATM    9  C   UNL     1     -10.217   9.573  66.529  1.00  0.00    -0.307 A  
HETATM   10  C   UNL     1      -9.902   8.274  66.877  1.00  0.00    -0.247 A  
HETATM   11  N   UNL     1     -10.050   7.775  68.122  1.00  0.00    -0.179 NA 
HETATM   12  C   UNL     1     -10.512   8.618  69.070  1.00  0.00    -0.199 A  
HETATM   13  C   UNL     1     -10.859   9.937  68.823  1.00  0.00    -0.240 A  
ENDBRANCH   5   8
TORSDOF 1
ENDMDL
MODEL      128
REMARK 921   NORMALIZED FREE ENERGY PREDICTED BY IDOCK:   -2.50 KCAL/MOL
REMARK 922        TOTAL FREE ENERGY PREDICTED BY IDOCK:   -2.69 KCAL/MOL
REMARK 923 INTER-LIGAND FREE ENERGY PREDICTED BY IDOCK:   -2.64 KCAL/MOL
REMARK 924 INTRA-LIGAND FREE ENERGY PREDICTED BY IDOCK:   -0.06 KCAL/MOL
REMARK 927      BINDING AFFINITY PREDICTED BY RF-SCORE:    0.00 PKD
ROOT
HETATM    1  N   UNL     1      -8.205   8.993  67.378  1.00  0.00    -0.108 NA 
HETATM    2  H1  UNL     1      -7.453   9.678  67.300  1.00  0.00     0.000 HD 
HETATM    3  H2  UNL     1      -8.360   8.313  66.634  1.00  0.00     0.000 HD 
HETATM    4  N   UNL     1      -9.026   8.996  68.523  1.00  0.00    -0.133 N  
HETATM    5  C   UNL     1     -10.052   8.061  68.629  1.00  0.00    -0.199 C  
HETATM    6  H   UNL     1      -8.870   9.676  69.266  1.00  0.00     0.000 HD 
HETATM    7  O   UNL     1     -10.337   7.264  67.742  1.00  0.00    -0.181 OA 
ENDROOT
BRANCH   5   8
HETATM    8  C   UNL     1     -10.864   8.117  69.880  1.00  0.00    -0.215 A  
HETATM    9  C   UNL     1     -11.423   6.928  70.349  1.00  0.00    -0.387 A  
HETATM   10  C   UNL     1     -12.214   6.981  71.480  1.00  0.00    -0.368 A  
HETATM   11  N   UNL     1     -12.466   8.118  72.164  1.00  0.00    -0.327 NA 
HETATM   12  C   UNL     1     -11.884   9.248  71.712  1.00  0.00    -0.384 A  
HETATM   13  C   UNL     1     -11.078   9.300  70.587  1.00  0.00    -0.335 A  
ENDBRANCH   5   8
TORSDOF 1
ENDMDL
MODEL      129
REMARK 921   NORMALIZED FREE ENERGY PREDICTED BY IDOCK:   -2.49 KCAL/MOL
REMARK 922        TOTAL FREE ENERGY PREDICTED BY IDOCK:   -2.68 KCAL/MOL
REMARK 923 INTER-LIGAND FREE ENERGY PREDICTED BY IDOCK:   -2.62 KCAL/MOL
REMARK 924 INTRA-LIGAND FREE ENERGY PREDICTED BY IDOCK:   -0.07 KCAL/MOL
REMARK 927      BINDING AFFINITY PREDICTED BY RF-SCORE:    0.00 PKD
ROOT
HETATM    1  N   UNL     1     -11.404   4.358  64.962  1.00  0.00    -1.102 NA 
HETATM    2  H1  UNL     1     -11.328   3.625  64.257  1.00  0.00     0.000 HD 
HETATM    3  H2  UNL     1     -12.312   4.762  65.189  1.00  0.00     0.000 HD 
HETATM    4  N   UNL     1     -10.241   4.807  65.619  1.00  0.00    -0.378 N  
HETATM    5  C   UNL     1     -10.344   5.807  66.582  1.00  0.00    -0.243 C  
HETATM    6  H   UNL     1      -9.333   4.403  65.392  1.00  0.00     0.000 HD 
HETATM    7  O   UNL     1     -11.393   6.383  66.850  1.00  0.00    -0.304 OA 
ENDROOT
BRANCH   5   8
HETATM    8  C   UNL     1      -9.072   6.213  67.246  1.00  0.00    -0.115 A  
HETATM    9  C   UNL     1      -7.994   5.327  67.190  1.00  0.00    -0.101 A  
HETATM   10  C   UNL     1      -6.828   5.677  67.843  1.00  0.00    -0.064 A  
HETATM   11  N   UNL     1      -6.669   6.833  68.522  1.00  0.00    -0.062 NA 
HETATM   12  C   UNL     1      -7.712   7.689  68.530  1.00  0.00    -0.119 A  
HETATM   13  C   UNL     1      -8.923   7.431  67.910  1.00  0.00    -0.131 A  
ENDBRANCH   5   8
TORSDOF 1
ENDMDL
MODEL      130
REMARK 921   NORMALIZED FREE ENERGY PREDICTED BY IDOCK:   -2.44 KCAL/MOL
REMARK 922        TOTAL FREE ENERGY PREDICTED BY IDOCK:   -2.63 KCAL/MOL
REMARK 923 INTER-LIGAND FREE ENERGY PREDICTED BY IDOCK:   -2.57 KCAL/MOL
REMARK 924 INTRA-LIGAND FREE ENERGY PREDICTED BY IDOCK:   -0.05 KCAL/MOL
REMARK 927      BINDING AFFINITY PREDICTED BY RF-SCORE:    0.00 PKD
ROOT
HETATM    1  N   UNL     1     -12.000   5.686  72.928  1.00  0.00    -0.538 NA 
HETATM    2  H1  UNL     1     -12.941   5.291  72.913  1.00  0.00     0.000 HD 
HETATM    3  H2  UNL     1     -11.311   5.350  73.600  1.00  0.00     0.000 HD 
HETATM    4  N   UNL     1     -11.664   6.701  72.010  1.00  0.00    -0.300 N  
HETATM    5  C   UNL     1     -10.380   7.240  72.029  1.00  0.00    -0.192 C  
HETATM    6  H   UNL     1     -12.353   7.037  71.338  1.00  0.00     0.000 HD 
HETATM    7  O   UNL     1      -9.529   6.932  72.855  1.00  0.00    -0.138 OA 
ENDROOT
BRANCH   5   8
HETATM    8  C   UNL     1     -10.096   8.296  71.014  1.00  0.00    -0.230 A  
HETATM    9  C   UNL     1     -10.972   9.380  70.936  1.00  0.00    -0.391 A  
HETATM   10  C   UNL     1     -10.741  10.336  69.967  1.00  0.00    -0.292 A  
HETATM   11  N   UNL     1      -9.708  10.287  69.098  1.00  0.00    -0.207 NA 
HETATM   12  C   UNL     1      -8.855   9.248  69.217  1.00  0.00    -0.146 A  
HETATM   13  C   UNL     1      -9.001   8.237  70.152  1.00  0.00    -0.142 A  
ENDBRANCH   5   8
TORSDOF 1
ENDMDL
MODEL      131
REMARK 921   NORMALIZED FREE ENERGY PREDICTED BY IDOCK:   -2.44 KCAL/MOL
REMARK 922        TOTAL FREE ENERGY PREDICTED BY IDOCK:   -2.63 KCAL/MOL
REMARK 923 INTER-LIGAND FREE ENERGY PREDICTED BY IDOCK:   -2.56 KCAL/MOL
REMARK 924 INTRA-LIGAND FREE ENERGY PREDICTED BY IDOCK:   -0.06 KCAL/MOL
REMARK 927      BINDING AFFINITY PREDICTED BY RF-SCORE:    0.00 PKD
ROOT
HETATM    1  N   UNL     1      -9.914  14.546  65.754  1.00  0.00    -0.325 NA 
HETATM    2  H1  UNL     1      -9.881  15.559  65.871  1.00  0.00     0.000 HD 
HETATM    3  H2  UNL     1      -9.737  14.127  64.842  1.00  0.00     0.000 HD 
HETATM    4  N   UNL     1     -10.208  13.732  66.866  1.00  0.00    -0.258 N  
HETATM    5  C   UNL     1     -10.255  12.350  66.707  1.00  0.00    -0.219 C  
HETATM    6  H   UNL     1     -10.386  14.151  67.778  1.00  0.00     0.000 HD 
HETATM    7  O   UNL     1     -10.121  11.788  65.626  1.00  0.00    -0.227 OA 
ENDROOT
BRANCH   5   8
HETATM    8  C   UNL     1     -10.553  11.557  67.935  1.00  0.00    -0.224 A  
HETATM    9  C   UNL     1     -11.387  12.131  68.896  1.00  0.00    -0.335 A  
HETATM   10  C   UNL     1     -11.629  11.421  70.056  1.00  0.00    -0.299 A  
HETATM   11  N   UNL     1     -11.114  10.199  70.307  1.00  0.00    -0.296 NA 
HETATM   12  C   UNL     1     -10.340   9.650  69.347  1.00  0.00    -0.213 A  
HETATM   13  C   UNL     1     -10.035  10.280  68.152  1.00  0.00    -0.168 A  
ENDBRANCH   5   8
TORSDOF 1
ENDMDL
MODEL      132
REMARK 921   NORMALIZED FREE ENERGY PREDICTED BY IDOCK:   -2.40 KCAL/MOL
REMARK 922        TOTAL FREE ENERGY PREDICTED BY IDOCK:   -2.58 KCAL/MOL
REMARK 923 INTER-LIGAND FREE ENERGY PREDICTED BY IDOCK:   -2.54 KCAL/MOL
REMARK 924 INTRA-LIGAND FREE ENERGY PREDICTED BY IDOCK:   -0.04 KCAL/MOL
REMARK 927      BINDING AFFINITY PREDICTED BY RF-SCORE:    0.00 PKD
ROOT
HETATM    1  N   UNL     1     -12.774   7.722  70.856  1.00  0.00    -0.533 NA 
HETATM    2  H1  UNL     1     -13.410   7.727  70.058  1.00  0.00     0.000 HD 
HETATM    3  H2  UNL     1     -12.682   8.549  71.446  1.00  0.00     0.000 HD 
HETATM    4  N   UNL     1     -12.027   6.562  71.136  1.00  0.00    -0.347 N  
HETATM    5  C   UNL     1     -11.159   6.555  72.225  1.00  0.00    -0.263 C  
HETATM    6  H   UNL     1     -12.119   5.734  70.547  1.00  0.00     0.000 HD 
HETATM    7  O   UNL     1     -10.948   7.536  72.929  1.00  0.00    -0.323 OA 
ENDROOT
BRANCH   5   8
HETATM    8  C   UNL     1     -10.418   5.282  72.466  1.00  0.00    -0.266 A  
HETATM    9  C   UNL     1      -9.354   4.975  71.617  1.00  0.00    -0.188 A  
HETATM   10  C   UNL     1      -8.694   3.776  71.806  1.00  0.00    -0.094 A  
HETATM   11  N   UNL     1      -9.014   2.891  72.774  1.00  0.00    -0.085 NA 
HETATM   12  C   UNL     1     -10.022   3.228  73.605  1.00  0.00    -0.113 A  
HETATM   13  C   UNL     1     -10.747   4.403  73.498  1.00  0.00    -0.327 A  
ENDBRANCH   5   8
TORSDOF 1
ENDMDL
MODEL      133
REMARK 921   NORMALIZED FREE ENERGY PREDICTED BY IDOCK:   -2.39 KCAL/MOL
REMARK 922        TOTAL FREE ENERGY PREDICTED BY IDOCK:   -2.58 KCAL/MOL
REMARK 923 INTER-LIGAND FREE ENERGY PREDICTED BY IDOCK:   -2.52 KCAL/MOL
REMARK 924 INTRA-LIGAND FREE ENERGY PREDICTED BY IDOCK:   -0.06 KCAL/MOL
REMARK 927      BINDING AFFINITY PREDICTED BY RF-SCORE:    0.00 PKD
ROOT
HETATM    1  N   UNL     1      -8.660  11.590  66.279  1.00  0.00    -0.278 NA 
HETATM    2  H1  UNL     1      -9.131  11.909  65.432  1.00  0.00     0.000 HD 
HETATM    3  H2  UNL     1      -7.641  11.569  66.325  1.00  0.00     0.000 HD 
HETATM    4  N   UNL     1      -9.431  11.178  67.383  1.00  0.00    -0.164 N  
HETATM    5  C   UNL     1      -8.789  10.742  68.539  1.00  0.00    -0.149 C  
HETATM    6  H   UNL     1     -10.450  11.199  67.337  1.00  0.00     0.000 HD 
HETATM    7  O   UNL     1      -7.573  10.625  68.635  1.00  0.00    -0.089 OA 
ENDROOT
BRANCH   5   8
HETATM    8  C   UNL     1      -9.675  10.342  69.671  1.00  0.00    -0.216 A  
HETATM    9  C   UNL     1      -9.218   9.351  70.540  1.00  0.00    -0.314 A  
HETATM   10  C   UNL     1     -10.053   8.943  71.562  1.00  0.00    -0.324 A  
HETATM   11  N   UNL     1     -11.283   9.458  71.774  1.00  0.00    -0.360 NA 
HETATM   12  C   UNL     1     -11.688  10.442  70.943  1.00  0.00    -0.360 A  
HETATM   13  C   UNL     1     -10.927  10.918  69.888  1.00  0.00    -0.266 A  
ENDBRANCH   5   8
TORSDOF 1
ENDMDL
MODEL      134
REMARK 921   NORMALIZED FREE ENERGY PREDICTED BY IDOCK:   -2.38 KCAL/MOL
REMARK 922        TOTAL FREE ENERGY PREDICTED BY IDOCK:   -2.56 KCAL/MOL
REMARK 923 INTER-LIGAND FREE ENERGY PREDICTED BY IDOCK:   -2.50 KCAL/MOL
REMARK 924 INTRA-LIGAND FREE ENERGY PREDICTED BY IDOCK:   -0.06 KCAL/MOL
REMARK 927      BINDING AFFINITY PREDICTED BY RF-SCORE:    0.00 PKD
ROOT
HETATM    1  N   UNL     1     -12.404   9.423  72.178  1.00  0.00    -0.333 NA 
HETATM    2  H1  UNL     1     -12.225   8.679  72.853  1.00  0.00     0.000 HD 
HETATM    3  H2  UNL     1     -13.176  10.073  72.321  1.00  0.00     0.000 HD 
HETATM    4  N   UNL     1     -11.574   9.542  71.046  1.00  0.00    -0.316 N  
HETATM    5  C   UNL     1     -11.819  10.556  70.124  1.00  0.00    -0.320 C  
HETATM    6  H   UNL     1     -10.802   8.891  70.902  1.00  0.00     0.000 HD 
HETATM    7  O   UNL     1     -12.770  11.325  70.200  1.00  0.00    -0.166 OA 
ENDROOT
BRANCH   5   8
HETATM    8  C   UNL     1     -10.884  10.627  68.963  1.00  0.00    -0.277 A  
HETATM    9  C   UNL     1     -11.322  11.282  67.811  1.00  0.00    -0.354 A  
HETATM   10  C   UNL     1     -10.480  11.310  66.717  1.00  0.00    -0.248 A  
HETATM   11  N   UNL     1      -9.251  10.750  66.703  1.00  0.00    -0.163 NA 
HETATM   12  C   UNL     1      -8.836  10.155  67.841  1.00  0.00    -0.125 A  
HETATM   13  C   UNL     1      -9.605  10.070  68.990  1.00  0.00    -0.200 A  
ENDBRANCH   5   8
TORSDOF 1
ENDMDL
MODEL      135
REMARK 921   NORMALIZED FREE ENERGY PREDICTED BY IDOCK:   -2.36 KCAL/MOL
REMARK 922        TOTAL FREE ENERGY PREDICTED BY IDOCK:   -2.55 KCAL/MOL
REMARK 923 INTER-LIGAND FREE ENERGY PREDICTED BY IDOCK:   -2.49 KCAL/MOL
REMARK 924 INTRA-LIGAND FREE ENERGY PREDICTED BY IDOCK:   -0.06 KCAL/MOL
REMARK 927      BINDING AFFINITY PREDICTED BY RF-SCORE:    0.00 PKD
ROOT
HETATM    1  N   UNL     1     -10.351  11.624  65.766  1.00  0.00    -0.240 NA 
HETATM    2  H1  UNL     1     -11.133  11.222  65.249  1.00  0.00     0.000 HD 
HETATM    3  H2  UNL     1      -9.487  11.096  65.886  1.00  0.00     0.000 HD 
HETATM    4  N   UNL     1     -10.478  12.916  66.315  1.00  0.00    -0.266 N  
HETATM    5  C   UNL     1      -9.412  13.465  67.022  1.00  0.00    -0.247 C  
HETATM    6  H   UNL     1     -11.342  13.444  66.195  1.00  0.00     0.000 HD 
HETATM    7  O   UNL     1      -8.375  12.857  67.262  1.00  0.00    -0.178 OA 
ENDROOT
BRANCH   5   8
HETATM    8  C   UNL     1      -9.617  14.843  67.554  1.00  0.00    -0.204 A  
HETATM    9  C   UNL     1      -8.486  15.613  67.829  1.00  0.00    -0.158 A  
HETATM   10  C   UNL     1      -8.669  16.872  68.366  1.00  0.00    -0.244 A  
HETATM   11  N   UNL     1      -9.881  17.405  68.628  1.00  0.00    -0.307 NA 
HETATM   12  C   UNL     1     -10.961  16.657  68.319  1.00  0.00    -0.341 A  
HETATM   13  C   UNL     1     -10.884  15.382  67.781  1.00  0.00    -0.302 A  
ENDBRANCH   5   8
TORSDOF 1
ENDMDL
MODEL      136
REMARK 921   NORMALIZED FREE ENERGY PREDICTED BY IDOCK:   -2.35 KCAL/MOL
REMARK 922        TOTAL FREE ENERGY PREDICTED BY IDOCK:   -2.53 KCAL/MOL
REMARK 923 INTER-LIGAND FREE ENERGY PREDICTED BY IDOCK:   -2.47 KCAL/MOL
REMARK 924 INTRA-LIGAND FREE ENERGY PREDICTED BY IDOCK:   -0.06 KCAL/MOL
REMARK 927      BINDING AFFINITY PREDICTED BY RF-SCORE:    0.00 PKD
ROOT
HETATM    1  N   UNL     1     -11.706   6.609  69.776  1.00  0.00    -0.650 NA 
HETATM    2  H1  UNL     1     -12.661   6.262  69.689  1.00  0.00     0.000 HD 
HETATM    3  H2  UNL     1     -11.131   6.337  70.573  1.00  0.00     0.000 HD 
HETATM    4  N   UNL     1     -11.190   7.466  68.785  1.00  0.00    -0.418 N  
HETATM    5  C   UNL     1      -9.886   7.940  68.904  1.00  0.00    -0.173 C  
HETATM    6  H   UNL     1     -11.765   7.738  67.988  1.00  0.00     0.000 HD 
HETATM    7  O   UNL     1      -9.167   7.710  69.870  1.00  0.00    -0.148 OA 
ENDROOT
BRANCH   5   8
HETATM    8  C   UNL     1      -9.406   8.827  67.804  1.00  0.00    -0.157 A  
HETATM    9  C   UNL     1      -8.060   9.193  67.801  1.00  0.00    -0.105 A  
HETATM   10  C   UNL     1      -7.621  10.052  66.812  1.00  0.00    -0.103 A  
HETATM   11  N   UNL     1      -8.419  10.547  65.842  1.00  0.00    -0.157 NA 
HETATM   12  C   UNL     1      -9.708  10.148  65.845  1.00  0.00    -0.232 A  
HETATM   13  C   UNL     1     -10.246   9.294  66.793  1.00  0.00    -0.325 A  
ENDBRANCH   5   8
TORSDOF 1
ENDMDL
MODEL      137
REMARK 921   NORMALIZED FREE ENERGY PREDICTED BY IDOCK:   -2.31 KCAL/MOL
REMARK 922        TOTAL FREE ENERGY PREDICTED BY IDOCK:   -2.49 KCAL/MOL
REMARK 923 INTER-LIGAND FREE ENERGY PREDICTED BY IDOCK:   -2.43 KCAL/MOL
REMARK 924 INTRA-LIGAND FREE ENERGY PREDICTED BY IDOCK:   -0.06 KCAL/MOL
REMARK 927      BINDING AFFINITY PREDICTED BY RF-SCORE:    0.00 PKD
ROOT
HETATM    1  N   UNL     1      -7.405  17.345  68.923  1.00  0.00    -0.255 NA 
HETATM    2  H1  UNL     1      -6.494  17.342  69.381  1.00  0.00     0.000 HD 
HETATM    3  H2  UNL     1      -7.847  18.226  68.662  1.00  0.00     0.000 HD 
HETATM    4  N   UNL     1      -8.047  16.120  68.655  1.00  0.00    -0.191 N  
HETATM    5  C   UNL     1      -9.291  16.124  68.031  1.00  0.00    -0.203 C  
HETATM    6  H   UNL     1      -7.605  15.239  68.916  1.00  0.00     0.000 HD 
HETATM    7  O   UNL     1      -9.908  17.147  67.756  1.00  0.00    -0.261 OA 
ENDROOT
BRANCH   5   8
HETATM    8  C   UNL     1      -9.895  14.786  67.764  1.00  0.00    -0.214 A  
HETATM    9  C   UNL     1     -10.843  14.689  66.744  1.00  0.00    -0.312 A  
HETATM   10  C   UNL     1     -11.440  13.463  66.524  1.00  0.00    -0.341 A  
HETATM   11  N   UNL     1     -11.150  12.351  67.232  1.00  0.00    -0.266 NA 
HETATM   12  C   UNL     1     -10.204  12.462  68.188  1.00  0.00    -0.225 A  
HETATM   13  C   UNL     1      -9.550  13.645  68.489  1.00  0.00    -0.165 A  
ENDBRANCH   5   8
TORSDOF 1
ENDMDL
MODEL      138
REMARK 921   NORMALIZED FREE ENERGY PREDICTED BY IDOCK:   -2.30 KCAL/MOL
REMARK 922        TOTAL FREE ENERGY PREDICTED BY IDOCK:   -2.47 KCAL/MOL
REMARK 923 INTER-LIGAND FREE ENERGY PREDICTED BY IDOCK:   -2.41 KCAL/MOL
REMARK 924 INTRA-LIGAND FREE ENERGY PREDICTED BY IDOCK:   -0.07 KCAL/MOL
REMARK 927      BINDING AFFINITY PREDICTED BY RF-SCORE:    0.00 PKD
ROOT
HETATM    1  N   UNL     1     -11.746   4.703  65.066  1.00  0.00    -0.891 NA 
HETATM    2  H1  UNL     1     -11.935   4.162  64.222  1.00  0.00     0.000 HD 
HETATM    3  H2  UNL     1     -12.272   5.556  65.260  1.00  0.00     0.000 HD 
HETATM    4  N   UNL     1     -10.752   4.262  65.961  1.00  0.00    -0.401 N  
HETATM    5  C   UNL     1     -10.493   5.001  67.112  1.00  0.00    -0.117 C  
HETATM    6  H   UNL     1     -10.226   3.410  65.767  1.00  0.00     0.000 HD 
HETATM    7  O   UNL     1     -11.038   6.069  67.368  1.00  0.00    -0.302 OA 
ENDROOT
BRANCH   5   8
HETATM    8  C   UNL     1      -9.440   4.457  68.018  1.00  0.00    -0.208 A  
HETATM    9  C   UNL     1      -9.080   3.117  67.871  1.00  0.00    -0.221 A  
HETATM   10  C   UNL     1      -8.139   2.596  68.738  1.00  0.00    -0.052 A  
HETATM   11  N   UNL     1      -7.539   3.314  69.712  1.00  0.00    -0.044 NA 
HETATM   12  C   UNL     1      -7.877   4.616  69.810  1.00  0.00    -0.061 A  
HETATM   13  C   UNL     1      -8.810   5.232  68.993  1.00  0.00    -0.111 A  
ENDBRANCH   5   8
TORSDOF 1
ENDMDL
MODEL      139
REMARK 921   NORMALIZED FREE ENERGY PREDICTED BY IDOCK:   -2.29 KCAL/MOL
REMARK 922        TOTAL FREE ENERGY PREDICTED BY IDOCK:   -2.47 KCAL/MOL
REMARK 923 INTER-LIGAND FREE ENERGY PREDICTED BY IDOCK:   -2.41 KCAL/MOL
REMARK 924 INTRA-LIGAND FREE ENERGY PREDICTED BY IDOCK:   -0.06 KCAL/MOL
REMARK 927      BINDING AFFINITY PREDICTED BY RF-SCORE:    0.00 PKD
ROOT
HETATM    1  N   UNL     1      -9.580   5.778  73.066  1.00  0.00    -0.150 NA 
HETATM    2  H1  UNL     1      -9.413   6.585  73.667  1.00  0.00     0.000 HD 
HETATM    3  H2  UNL     1      -9.640   4.842  73.467  1.00  0.00     0.000 HD 
HETATM    4  N   UNL     1      -9.728   5.970  71.679  1.00  0.00    -0.159 N  
HETATM    5  C   UNL     1      -9.956   4.868  70.858  1.00  0.00    -0.217 C  
HETATM    6  H   UNL     1      -9.668   6.906  71.278  1.00  0.00     0.000 HD 
HETATM    7  O   UNL     1      -9.968   3.712  71.265  1.00  0.00    -0.170 OA 
ENDROOT
BRANCH   5   8
HETATM    8  C   UNL     1     -10.121   5.156  69.404  1.00  0.00    -0.305 A  
HETATM    9  C   UNL     1     -10.931   6.232  69.038  1.00  0.00    -0.437 A  
HETATM   10  C   UNL     1     -11.125   6.474  67.692  1.00  0.00    -0.287 A  
HETATM   11  N   UNL     1     -10.565   5.736  66.710  1.00  0.00    -0.291 NA 
HETATM   12  C   UNL     1      -9.756   4.724  67.089  1.00  0.00    -0.184 A  
HETATM   13  C   UNL     1      -9.500   4.398  68.411  1.00  0.00    -0.213 A  
ENDBRANCH   5   8
TORSDOF 1
ENDMDL
MODEL      140
REMARK 921   NORMALIZED FREE ENERGY PREDICTED BY IDOCK:   -2.27 KCAL/MOL
REMARK 922        TOTAL FREE ENERGY PREDICTED BY IDOCK:   -2.45 KCAL/MOL
REMARK 923 INTER-LIGAND FREE ENERGY PREDICTED BY IDOCK:   -2.40 KCAL/MOL
REMARK 924 INTRA-LIGAND FREE ENERGY PREDICTED BY IDOCK:   -0.05 KCAL/MOL
REMARK 927      BINDING AFFINITY PREDICTED BY RF-SCORE:    0.00 PKD
ROOT
HETATM    1  N   UNL     1      -9.095   5.439  64.460  1.00  0.00    -0.360 NA 
HETATM    2  H1  UNL     1      -9.200   4.538  63.992  1.00  0.00     0.000 HD 
HETATM    3  H2  UNL     1      -8.716   6.240  63.956  1.00  0.00     0.000 HD 
HETATM    4  N   UNL     1      -9.478   5.564  65.810  1.00  0.00    -0.312 N  
HETATM    5  C   UNL     1      -9.334   6.792  66.449  1.00  0.00    -0.136 C  
HETATM    6  H   UNL     1      -9.857   4.763  66.314  1.00  0.00     0.000 HD 
HETATM    7  O   UNL     1      -8.821   7.773  65.923  1.00  0.00    -0.167 OA 
ENDROOT
BRANCH   5   8
HETATM    8  C   UNL     1      -9.781   6.848  67.872  1.00  0.00    -0.136 A  
HETATM    9  C   UNL     1     -11.014   6.279  68.192  1.00  0.00    -0.412 A  
HETATM   10  C   UNL     1     -11.454   6.370  69.499  1.00  0.00    -0.343 A  
HETATM   11  N   UNL     1     -10.752   6.967  70.485  1.00  0.00    -0.231 NA 
HETATM   12  C   UNL     1      -9.546   7.477  70.158  1.00  0.00    -0.168 A  
HETATM   13  C   UNL     1      -9.017   7.440  68.878  1.00  0.00    -0.130 A  
ENDBRANCH   5   8
TORSDOF 1
ENDMDL
MODEL      141
REMARK 921   NORMALIZED FREE ENERGY PREDICTED BY IDOCK:   -2.27 KCAL/MOL
REMARK 922        TOTAL FREE ENERGY PREDICTED BY IDOCK:   -2.45 KCAL/MOL
REMARK 923 INTER-LIGAND FREE ENERGY PREDICTED BY IDOCK:   -2.40 KCAL/MOL
REMARK 924 INTRA-LIGAND FREE ENERGY PREDICTED BY IDOCK:   -0.05 KCAL/MOL
REMARK 927      BINDING AFFINITY PREDICTED BY RF-SCORE:    0.00 PKD
ROOT
HETATM    1  N   UNL     1     -11.519  11.649  67.105  1.00  0.00    -0.478 NA 
HETATM    2  H1  UNL     1     -12.461  11.681  66.715  1.00  0.00     0.000 HD 
HETATM    3  H2  UNL     1     -10.803  12.296  66.774  1.00  0.00     0.000 HD 
HETATM    4  N   UNL     1     -11.216  10.702  68.103  1.00  0.00    -0.291 N  
HETATM    5  C   UNL     1      -9.930  10.658  68.634  1.00  0.00    -0.181 C  
HETATM    6  H   UNL     1     -11.932  10.055  68.433  1.00  0.00     0.000 HD 
HETATM    7  O   UNL     1      -9.007  11.357  68.233  1.00  0.00    -0.162 OA 
ENDROOT
BRANCH   5   8
HETATM    8  C   UNL     1      -9.695   9.641  69.701  1.00  0.00    -0.230 A  
HETATM    9  C   UNL     1      -8.580   8.812  69.578  1.00  0.00    -0.130 A  
HETATM   10  C   UNL     1      -8.383   7.837  70.537  1.00  0.00    -0.125 A  
HETATM   11  N   UNL     1      -9.203   7.651  71.594  1.00  0.00    -0.133 NA 
HETATM   12  C   UNL     1     -10.253   8.490  71.711  1.00  0.00    -0.282 A  
HETATM   13  C   UNL     1     -10.540   9.495  70.802  1.00  0.00    -0.387 A  
ENDBRANCH   5   8
TORSDOF 1
ENDMDL
MODEL      142
REMARK 921   NORMALIZED FREE ENERGY PREDICTED BY IDOCK:   -2.27 KCAL/MOL
REMARK 922        TOTAL FREE ENERGY PREDICTED BY IDOCK:   -2.44 KCAL/MOL
REMARK 923 INTER-LIGAND FREE ENERGY PREDICTED BY IDOCK:   -2.38 KCAL/MOL
REMARK 924 INTRA-LIGAND FREE ENERGY PREDICTED BY IDOCK:   -0.06 KCAL/MOL
REMARK 927      BINDING AFFINITY PREDICTED BY RF-SCORE:    0.00 PKD
ROOT
HETATM    1  N   UNL     1     -12.252   6.517  72.353  1.00  0.00    -0.531 NA 
HETATM    2  H1  UNL     1     -12.991   6.708  73.029  1.00  0.00     0.000 HD 
HETATM    3  H2  UNL     1     -11.857   5.580  72.274  1.00  0.00     0.000 HD 
HETATM    4  N   UNL     1     -11.784   7.559  71.529  1.00  0.00    -0.270 N  
HETATM    5  C   UNL     1     -10.775   7.299  70.606  1.00  0.00    -0.235 C  
HETATM    6  H   UNL     1     -12.180   8.496  71.608  1.00  0.00     0.000 HD 
HETATM    7  O   UNL     1     -10.209   6.216  70.509  1.00  0.00    -0.186 OA 
ENDROOT
BRANCH   5   8
HETATM    8  C   UNL     1     -10.348   8.449  69.758  1.00  0.00    -0.216 A  
HETATM    9  C   UNL     1      -9.380   8.217  68.780  1.00  0.00    -0.143 A  
HETATM   10  C   UNL     1      -8.947   9.288  68.024  1.00  0.00    -0.128 A  
HETATM   11  N   UNL     1      -9.416  10.546  68.169  1.00  0.00    -0.148 NA 
HETATM   12  C   UNL     1     -10.378  10.738  69.096  1.00  0.00    -0.217 A  
HETATM   13  C   UNL     1     -10.877   9.732  69.906  1.00  0.00    -0.306 A  
ENDBRANCH   5   8
TORSDOF 1
ENDMDL
MODEL      143
REMARK 921   NORMALIZED FREE ENERGY PREDICTED BY IDOCK:   -2.17 KCAL/MOL
REMARK 922        TOTAL FREE ENERGY PREDICTED BY IDOCK:   -2.34 KCAL/MOL
REMARK 923 INTER-LIGAND FREE ENERGY PREDICTED BY IDOCK:   -2.29 KCAL/MOL
REMARK 924 INTRA-LIGAND FREE ENERGY PREDICTED BY IDOCK:   -0.05 KCAL/MOL
REMARK 927      BINDING AFFINITY PREDICTED BY RF-SCORE:    0.00 PKD
ROOT
HETATM    1  N   UNL     1     -10.858  13.353  69.512  1.00  0.00    -0.449 NA 
HETATM    2  H1  UNL     1     -10.618  14.340  69.609  1.00  0.00     0.000 HD 
HETATM    3  H2  UNL     1     -11.680  12.975  69.983  1.00  0.00     0.000 HD 
HETATM    4  N   UNL     1     -10.042  12.519  68.723  1.00  0.00    -0.412 N  
HETATM    5  C   UNL     1     -10.370  11.172  68.590  1.00  0.00    -0.203 C  
HETATM    6  H   UNL     1      -9.221  12.897  68.252  1.00  0.00     0.000 HD 
HETATM    7  O   UNL     1     -11.300  10.640  69.184  1.00  0.00    -0.240 OA 
ENDROOT
BRANCH   5   8
HETATM    8  C   UNL     1      -9.468  10.360  67.722  1.00  0.00    -0.159 A  
HETATM    9  C   UNL     1     -10.055   9.547  66.751  1.00  0.00    -0.312 A  
HETATM   10  C   UNL     1      -9.228   8.758  65.975  1.00  0.00    -0.222 A  
HETATM   11  N   UNL     1      -7.884   8.737  66.096  1.00  0.00    -0.100 NA 
HETATM   12  C   UNL     1      -7.338   9.560  67.017  1.00  0.00    -0.087 A  
HETATM   13  C   UNL     1      -8.079  10.386  67.845  1.00  0.00    -0.102 A  
ENDBRANCH   5   8
TORSDOF 1
ENDMDL
MODEL      144
REMARK 921   NORMALIZED FREE ENERGY PREDICTED BY IDOCK:   -2.16 KCAL/MOL
REMARK 922        TOTAL FREE ENERGY PREDICTED BY IDOCK:   -2.33 KCAL/MOL
REMARK 923 INTER-LIGAND FREE ENERGY PREDICTED BY IDOCK:   -2.29 KCAL/MOL
REMARK 924 INTRA-LIGAND FREE ENERGY PREDICTED BY IDOCK:   -0.04 KCAL/MOL
REMARK 927      BINDING AFFINITY PREDICTED BY RF-SCORE:    0.00 PKD
ROOT
HETATM    1  N   UNL     1      -5.431  16.418  68.512  1.00  0.00    -0.104 NA 
HETATM    2  H1  UNL     1      -4.827  16.069  69.256  1.00  0.00     0.000 HD 
HETATM    3  H2  UNL     1      -5.076  17.091  67.832  1.00  0.00     0.000 HD 
HETATM    4  N   UNL     1      -6.762  15.962  68.433  1.00  0.00    -0.113 N  
HETATM    5  C   UNL     1      -7.587  16.438  67.418  1.00  0.00    -0.158 C  
HETATM    6  H   UNL     1      -7.117  15.290  69.112  1.00  0.00     0.000 HD 
HETATM    7  O   UNL     1      -7.245  17.298  66.614  1.00  0.00    -0.191 OA 
ENDROOT
BRANCH   5   8
HETATM    8  C   UNL     1      -8.976  15.893  67.391  1.00  0.00    -0.203 A  
HETATM    9  C   UNL     1      -9.220  14.766  66.604  1.00  0.00    -0.300 A  
HETATM   10  C   UNL     1     -10.513  14.285  66.538  1.00  0.00    -0.287 A  
HETATM   11  N   UNL     1     -11.551  14.836  67.201  1.00  0.00    -0.374 NA 
HETATM   12  C   UNL     1     -11.283  15.901  67.985  1.00  0.00    -0.319 A  
HETATM   13  C   UNL     1     -10.023  16.461  68.116  1.00  0.00    -0.242 A  
ENDBRANCH   5   8
TORSDOF 1
ENDMDL
MODEL      145
REMARK 921   NORMALIZED FREE ENERGY PREDICTED BY IDOCK:   -2.15 KCAL/MOL
REMARK 922        TOTAL FREE ENERGY PREDICTED BY IDOCK:   -2.32 KCAL/MOL
REMARK 923 INTER-LIGAND FREE ENERGY PREDICTED BY IDOCK:   -2.26 KCAL/MOL
REMARK 924 INTRA-LIGAND FREE ENERGY PREDICTED BY IDOCK:   -0.06 KCAL/MOL
REMARK 927      BINDING AFFINITY PREDICTED BY RF-SCORE:    0.00 PKD
ROOT
HETATM    1  N   UNL     1      -9.521   9.187  68.352  1.00  0.00    -0.142 NA 
HETATM    2  H1  UNL     1     -10.112   8.415  68.661  1.00  0.00     0.000 HD 
HETATM    3  H2  UNL     1      -8.555   9.016  68.073  1.00  0.00     0.000 HD 
HETATM    4  N   UNL     1     -10.052  10.491  68.314  1.00  0.00    -0.156 N  
HETATM    5  C   UNL     1      -9.246  11.545  67.893  1.00  0.00    -0.168 C  
HETATM    6  H   UNL     1     -11.018  10.662  68.593  1.00  0.00     0.000 HD 
HETATM    7  O   UNL     1      -8.059  11.419  67.612  1.00  0.00    -0.117 OA 
ENDROOT
BRANCH   5   8
HETATM    8  C   UNL     1      -9.888  12.891  67.863  1.00  0.00    -0.227 A  
HETATM    9  C   UNL     1     -11.178  12.989  67.339  1.00  0.00    -0.325 A  
HETATM   10  C   UNL     1     -11.759  14.240  67.265  1.00  0.00    -0.395 A  
HETATM   11  N   UNL     1     -11.153  15.372  67.683  1.00  0.00    -0.313 NA 
HETATM   12  C   UNL     1      -9.921  15.247  68.219  1.00  0.00    -0.222 A  
HETATM   13  C   UNL     1      -9.252  14.040  68.335  1.00  0.00    -0.196 A  
ENDBRANCH   5   8
TORSDOF 1
ENDMDL
MODEL      146
REMARK 921   NORMALIZED FREE ENERGY PREDICTED BY IDOCK:   -2.14 KCAL/MOL
REMARK 922        TOTAL FREE ENERGY PREDICTED BY IDOCK:   -2.31 KCAL/MOL
REMARK 923 INTER-LIGAND FREE ENERGY PREDICTED BY IDOCK:   -2.24 KCAL/MOL
REMARK 924 INTRA-LIGAND FREE ENERGY PREDICTED BY IDOCK:   -0.07 KCAL/MOL
REMARK 927      BINDING AFFINITY PREDICTED BY RF-SCORE:    0.00 PKD
ROOT
HETATM    1  N   UNL     1     -12.266   7.480  70.712  1.00  0.00    -0.514 NA 
HETATM    2  H1  UNL     1     -12.770   7.517  71.598  1.00  0.00     0.000 HD 
HETATM    3  H2  UNL     1     -12.384   8.221  70.021  1.00  0.00     0.000 HD 
HETATM    4  N   UNL     1     -11.405   6.396  70.452  1.00  0.00    -0.365 N  
HETATM    5  C   UNL     1     -10.718   6.344  69.243  1.00  0.00    -0.292 C  
HETATM    6  H   UNL     1     -11.287   5.655  71.143  1.00  0.00     0.000 HD 
HETATM    7  O   UNL     1     -10.869   7.163  68.343  1.00  0.00    -0.178 OA 
ENDROOT
BRANCH   5   8
HETATM    8  C   UNL     1      -9.811   5.175  69.052  1.00  0.00    -0.246 A  
HETATM    9  C   UNL     1      -9.675   4.275  70.110  1.00  0.00    -0.282 A  
HETATM   10  C   UNL     1      -8.801   3.216  69.956  1.00  0.00    -0.088 A  
HETATM   11  N   UNL     1      -8.082   2.996  68.835  1.00  0.00    -0.056 NA 
HETATM   12  C   UNL     1      -8.259   3.859  67.813  1.00  0.00    -0.093 A  
HETATM   13  C   UNL     1      -9.108   4.952  67.868  1.00  0.00    -0.127 A  
ENDBRANCH   5   8
TORSDOF 1
ENDMDL
MODEL      147
REMARK 921   NORMALIZED FREE ENERGY PREDICTED BY IDOCK:   -2.07 KCAL/MOL
REMARK 922        TOTAL FREE ENERGY PREDICTED BY IDOCK:   -2.23 KCAL/MOL
REMARK 923 INTER-LIGAND FREE ENERGY PREDICTED BY IDOCK:   -2.18 KCAL/MOL
REMARK 924 INTRA-LIGAND FREE ENERGY PREDICTED BY IDOCK:   -0.05 KCAL/MOL
REMARK 927      BINDING AFFINITY PREDICTED BY RF-SCORE:    0.00 PKD
ROOT
HETATM    1  N   UNL     1      -7.828   7.094  64.035  1.00  0.00    -0.152 NA 
HETATM    2  H1  UNL     1      -7.950   6.690  63.106  1.00  0.00     0.000 HD 
HETATM    3  H2  UNL     1      -7.287   6.600  64.744  1.00  0.00     0.000 HD 
HETATM    4  N   UNL     1      -8.417   8.340  64.328  1.00  0.00    -0.384 N  
HETATM    5  C   UNL     1      -8.251   8.891  65.596  1.00  0.00    -0.125 C  
HETATM    6  H   UNL     1      -8.959   8.833  63.619  1.00  0.00     0.000 HD 
HETATM    7  O   UNL     1      -7.674   8.318  66.513  1.00  0.00    -0.090 OA 
ENDROOT
BRANCH   5   8
HETATM    8  C   UNL     1      -8.888  10.221  65.822  1.00  0.00    -0.179 A  
HETATM    9  C   UNL     1      -8.196  11.154  66.595  1.00  0.00    -0.158 A  
HETATM   10  C   UNL     1      -8.802  12.370  66.847  1.00  0.00    -0.205 A  
HETATM   11  N   UNL     1     -10.020  12.711  66.376  1.00  0.00    -0.249 NA 
HETATM   12  C   UNL     1     -10.653  11.806  65.600  1.00  0.00    -0.268 A  
HETATM   13  C   UNL     1     -10.134  10.560  65.292  1.00  0.00    -0.369 A  
ENDBRANCH   5   8
TORSDOF 1
ENDMDL
MODEL      148
REMARK 921   NORMALIZED FREE ENERGY PREDICTED BY IDOCK:   -1.99 KCAL/MOL
REMARK 922        TOTAL FREE ENERGY PREDICTED BY IDOCK:   -2.15 KCAL/MOL
REMARK 923 INTER-LIGAND FREE ENERGY PREDICTED BY IDOCK:   -2.09 KCAL/MOL
REMARK 924 INTRA-LIGAND FREE ENERGY PREDICTED BY IDOCK:   -0.06 KCAL/MOL
REMARK 927      BINDING AFFINITY PREDICTED BY RF-SCORE:    0.00 PKD
ROOT
HETATM    1  N   UNL     1      -8.848   4.116  70.004  1.00  0.00    -0.074 NA 
HETATM    2  H1  UNL     1      -9.272   3.190  69.945  1.00  0.00     0.000 HD 
HETATM    3  H2  UNL     1      -7.841   4.229  69.890  1.00  0.00     0.000 HD 
HETATM    4  N   UNL     1      -9.667   5.237  70.244  1.00  0.00    -0.180 N  
HETATM    5  C   UNL     1      -9.088   6.500  70.325  1.00  0.00    -0.155 C  
HETATM    6  H   UNL     1     -10.674   5.124  70.358  1.00  0.00     0.000 HD 
HETATM    7  O   UNL     1      -7.880   6.697  70.268  1.00  0.00    -0.102 OA 
ENDROOT
BRANCH   5   8
HETATM    8  C   UNL     1     -10.025   7.637  70.562  1.00  0.00    -0.184 A  
HETATM    9  C   UNL     1     -11.097   7.430  71.431  1.00  0.00    -0.263 A  
HETATM   10  C   UNL     1     -11.994   8.464  71.618  1.00  0.00    -0.307 A  
HETATM   11  N   UNL     1     -11.884   9.668  71.016  1.00  0.00    -0.322 NA 
HETATM   12  C   UNL     1     -10.819   9.856  70.209  1.00  0.00    -0.310 A  
HETATM   13  C   UNL     1      -9.867   8.883  69.954  1.00  0.00    -0.190 A  
ENDBRANCH   5   8
TORSDOF 1
ENDMDL
MODEL      149
REMARK 921   NORMALIZED FREE ENERGY PREDICTED BY IDOCK:   -1.98 KCAL/MOL
REMARK 922        TOTAL FREE ENERGY PREDICTED BY IDOCK:   -2.14 KCAL/MOL
REMARK 923 INTER-LIGAND FREE ENERGY PREDICTED BY IDOCK:   -2.10 KCAL/MOL
REMARK 924 INTRA-LIGAND FREE ENERGY PREDICTED BY IDOCK:   -0.04 KCAL/MOL
REMARK 927      BINDING AFFINITY PREDICTED BY RF-SCORE:    0.00 PKD
ROOT
HETATM    1  N   UNL     1     -11.012   5.233  65.681  1.00  0.00    -0.679 NA 
HETATM    2  H1  UNL     1     -11.936   5.253  65.249  1.00  0.00     0.000 HD 
HETATM    3  H2  UNL     1     -10.432   4.397  65.617  1.00  0.00     0.000 HD 
HETATM    4  N   UNL     1     -10.547   6.372  66.367  1.00  0.00    -0.490 N  
HETATM    5  C   UNL     1      -9.287   6.346  66.957  1.00  0.00    -0.131 C  
HETATM    6  H   UNL     1     -11.128   7.208  66.431  1.00  0.00     0.000 HD 
HETATM    7  O   UNL     1      -8.569   5.353  66.978  1.00  0.00    -0.110 OA 
ENDROOT
BRANCH   5   8
HETATM    8  C   UNL     1      -8.859   7.598  67.648  1.00  0.00    -0.125 A  
HETATM    9  C   UNL     1      -8.028   8.476  66.952  1.00  0.00    -0.095 A  
HETATM   10  C   UNL     1      -7.590   9.614  67.602  1.00  0.00    -0.091 A  
HETATM   11  N   UNL     1      -7.932   9.929  68.870  1.00  0.00    -0.091 NA 
HETATM   12  C   UNL     1      -8.767   9.083  69.509  1.00  0.00    -0.144 A  
HETATM   13  C   UNL     1      -9.258   7.916  68.946  1.00  0.00    -0.144 A  
ENDBRANCH   5   8
TORSDOF 1
ENDMDL
MODEL      150
REMARK 921   NORMALIZED FREE ENERGY PREDICTED BY IDOCK:   -1.93 KCAL/MOL
REMARK 922        TOTAL FREE ENERGY PREDICTED BY IDOCK:   -2.08 KCAL/MOL
REMARK 923 INTER-LIGAND FREE ENERGY PREDICTED BY IDOCK:   -2.03 KCAL/MOL
REMARK 924 INTRA-LIGAND FREE ENERGY PREDICTED BY IDOCK:   -0.05 KCAL/MOL
REMARK 927      BINDING AFFINITY PREDICTED BY RF-SCORE:    0.00 PKD
ROOT
HETATM    1  N   UNL     1      -8.911   8.713  67.570  1.00  0.00    -0.134 NA 
HETATM    2  H1  UNL     1      -9.458   8.843  66.719  1.00  0.00     0.000 HD 
HETATM    3  H2  UNL     1      -7.929   8.988  67.598  1.00  0.00     0.000 HD 
HETATM    4  N   UNL     1      -9.525   8.152  68.706  1.00  0.00    -0.147 N  
HETATM    5  C   UNL     1      -8.779   7.975  69.868  1.00  0.00    -0.139 C  
HETATM    6  H   UNL     1     -10.507   7.877  68.679  1.00  0.00     0.000 HD 
HETATM    7  O   UNL     1      -7.580   8.217  69.946  1.00  0.00    -0.084 OA 
ENDROOT
BRANCH   5   8
HETATM    8  C   UNL     1      -9.506   7.392  71.033  1.00  0.00    -0.157 A  
HETATM    9  C   UNL     1     -10.022   6.102  70.903  1.00  0.00    -0.223 A  
HETATM   10  C   UNL     1     -10.737   5.576  71.961  1.00  0.00    -0.234 A  
HETATM   11  N   UNL     1     -10.954   6.235  73.120  1.00  0.00    -0.248 NA 
HETATM   12  C   UNL     1     -10.413   7.466  73.236  1.00  0.00    -0.374 A  
HETATM   13  C   UNL     1      -9.684   8.083  72.232  1.00  0.00    -0.294 A  
ENDBRANCH   5   8
TORSDOF 1
ENDMDL
MODEL      151
REMARK 921   NORMALIZED FREE ENERGY PREDICTED BY IDOCK:   -1.90 KCAL/MOL
REMARK 922        TOTAL FREE ENERGY PREDICTED BY IDOCK:   -2.05 KCAL/MOL
REMARK 923 INTER-LIGAND FREE ENERGY PREDICTED BY IDOCK:   -2.01 KCAL/MOL
REMARK 924 INTRA-LIGAND FREE ENERGY PREDICTED BY IDOCK:   -0.04 KCAL/MOL
REMARK 927      BINDING AFFINITY PREDICTED BY RF-SCORE:    0.00 PKD
ROOT
HETATM    1  N   UNL     1     -12.130   6.104  72.666  1.00  0.00    -0.530 NA 
HETATM    2  H1  UNL     1     -12.533   6.686  73.401  1.00  0.00     0.000 HD 
HETATM    3  H2  UNL     1     -12.142   5.088  72.750  1.00  0.00     0.000 HD 
HETATM    4  N   UNL     1     -11.557   6.719  71.536  1.00  0.00    -0.283 N  
HETATM    5  C   UNL     1     -11.007   5.925  70.533  1.00  0.00    -0.292 C  
HETATM    6  H   UNL     1     -11.545   7.735  71.452  1.00  0.00     0.000 HD 
HETATM    7  O   UNL     1     -10.925   4.704  70.604  1.00  0.00     0.442 OA 
ENDROOT
BRANCH   5   8
HETATM    8  C   UNL     1     -10.437   6.651  69.360  1.00  0.00    -0.254 A  
HETATM    9  C   UNL     1     -11.072   6.499  68.127  1.00  0.00    -0.332 A  
HETATM   10  C   UNL     1     -10.522   7.130  67.028  1.00  0.00    -0.322 A  
HETATM   11  N   UNL     1      -9.412   7.896  67.083  1.00  0.00    -0.150 NA 
HETATM   12  C   UNL     1      -8.837   8.058  68.293  1.00  0.00    -0.133 A  
HETATM   13  C   UNL     1      -9.308   7.465  69.453  1.00  0.00    -0.155 A  
ENDBRANCH   5   8
TORSDOF 1
ENDMDL
MODEL      152
REMARK 921   NORMALIZED FREE ENERGY PREDICTED BY IDOCK:   -1.88 KCAL/MOL
REMARK 922        TOTAL FREE ENERGY PREDICTED BY IDOCK:   -2.03 KCAL/MOL
REMARK 923 INTER-LIGAND FREE ENERGY PREDICTED BY IDOCK:   -1.99 KCAL/MOL
REMARK 924 INTRA-LIGAND FREE ENERGY PREDICTED BY IDOCK:   -0.04 KCAL/MOL
REMARK 927      BINDING AFFINITY PREDICTED BY RF-SCORE:    0.00 PKD
ROOT
HETATM    1  N   UNL     1     -12.020   6.865  70.074  1.00  0.00    -0.644 NA 
HETATM    2  H1  UNL     1     -12.881   6.320  70.031  1.00  0.00     0.000 HD 
HETATM    3  H2  UNL     1     -11.883   7.662  69.452  1.00  0.00     0.000 HD 
HETATM    4  N   UNL     1     -11.022   6.507  71.002  1.00  0.00    -0.252 N  
HETATM    5  C   UNL     1      -9.846   7.251  71.060  1.00  0.00    -0.183 C  
HETATM    6  H   UNL     1     -11.158   5.711  71.623  1.00  0.00     0.000 HD 
HETATM    7  O   UNL     1      -9.590   8.173  70.295  1.00  0.00    -0.169 OA 
ENDROOT
BRANCH   5   8
HETATM    8  C   UNL     1      -8.847   6.820  72.081  1.00  0.00    -0.134 A  
HETATM    9  C   UNL     1      -8.064   5.701  71.797  1.00  0.00    -0.118 A  
HETATM   10  C   UNL     1      -7.170   5.270  72.758  1.00  0.00    -0.090 A  
HETATM   11  N   UNL     1      -7.004   5.877  73.952  1.00  0.00    -0.081 NA 
HETATM   12  C   UNL     1      -7.746   6.979  74.188  1.00  0.00    -0.108 A  
HETATM   13  C   UNL     1      -8.672   7.489  73.293  1.00  0.00    -0.211 A  
ENDBRANCH   5   8
TORSDOF 1
ENDMDL
MODEL      153
REMARK 921   NORMALIZED FREE ENERGY PREDICTED BY IDOCK:   -1.85 KCAL/MOL
REMARK 922        TOTAL FREE ENERGY PREDICTED BY IDOCK:   -2.00 KCAL/MOL
REMARK 923 INTER-LIGAND FREE ENERGY PREDICTED BY IDOCK:   -1.96 KCAL/MOL
REMARK 924 INTRA-LIGAND FREE ENERGY PREDICTED BY IDOCK:   -0.04 KCAL/MOL
REMARK 927      BINDING AFFINITY PREDICTED BY RF-SCORE:    0.00 PKD
ROOT
HETATM    1  N   UNL     1     -11.552   4.344  64.725  1.00  0.00    -0.944 NA 
HETATM    2  H1  UNL     1     -11.946   3.911  63.890  1.00  0.00     0.000 HD 
HETATM    3  H2  UNL     1     -12.161   4.795  65.407  1.00  0.00     0.000 HD 
HETATM    4  N   UNL     1     -10.158   4.310  64.928  1.00  0.00    -0.307 N  
HETATM    5  C   UNL     1      -9.620   4.901  66.068  1.00  0.00    -0.176 C  
HETATM    6  H   UNL     1      -9.549   3.859  64.246  1.00  0.00     0.000 HD 
HETATM    7  O   UNL     1     -10.287   5.520  66.889  1.00  0.00    -0.209 OA 
ENDROOT
BRANCH   5   8
HETATM    8  C   UNL     1      -8.139   4.806  66.219  1.00  0.00    -0.107 A  
HETATM    9  C   UNL     1      -7.608   3.618  66.723  1.00  0.00    -0.080 A  
HETATM   10  C   UNL     1      -6.241   3.541  66.909  1.00  0.00    -0.028 A  
HETATM   11  N   UNL     1      -5.389   4.548  66.620  1.00  0.00    -0.012 NA 
HETATM   12  C   UNL     1      -5.923   5.673  66.100  1.00  0.00    -0.022 A  
HETATM   13  C   UNL     1      -7.279   5.850  65.878  1.00  0.00    -0.075 A  
ENDBRANCH   5   8
TORSDOF 1
ENDMDL
MODEL      154
REMARK 921   NORMALIZED FREE ENERGY PREDICTED BY IDOCK:   -1.84 KCAL/MOL
REMARK 922        TOTAL FREE ENERGY PREDICTED BY IDOCK:   -1.99 KCAL/MOL
REMARK 923 INTER-LIGAND FREE ENERGY PREDICTED BY IDOCK:   -1.93 KCAL/MOL
REMARK 924 INTRA-LIGAND FREE ENERGY PREDICTED BY IDOCK:   -0.07 KCAL/MOL
REMARK 927      BINDING AFFINITY PREDICTED BY RF-SCORE:    0.00 PKD
ROOT
HETATM    1  N   UNL     1     -10.985   7.739  67.240  1.00  0.00    -0.524 NA 
HETATM    2  H1  UNL     1     -11.988   7.572  67.321  1.00  0.00     0.000 HD 
HETATM    3  H2  UNL     1     -10.341   6.957  67.124  1.00  0.00     0.000 HD 
HETATM    4  N   UNL     1     -10.499   9.060  67.289  1.00  0.00    -0.276 N  
HETATM    5  C   UNL     1      -9.130   9.288  67.179  1.00  0.00    -0.130 C  
HETATM    6  H   UNL     1     -11.143   9.842  67.405  1.00  0.00     0.000 HD 
HETATM    7  O   UNL     1      -8.298   8.391  67.110  1.00  0.00    -0.120 OA 
ENDROOT
BRANCH   5   8
HETATM    8  C   UNL     1      -8.697  10.715  67.222  1.00  0.00    -0.129 A  
HETATM    9  C   UNL     1      -9.682  11.693  67.368  1.00  0.00    -0.186 A  
HETATM   10  C   UNL     1      -9.291  13.018  67.361  1.00  0.00    -0.209 A  
HETATM   11  N   UNL     1      -8.008  13.419  67.232  1.00  0.00    -0.153 NA 
HETATM   12  C   UNL     1      -7.071  12.454  67.129  1.00  0.00    -0.077 A  
HETATM   13  C   UNL     1      -7.359  11.100  67.123  1.00  0.00    -0.121 A  
ENDBRANCH   5   8
TORSDOF 1
ENDMDL
MODEL      155
REMARK 921   NORMALIZED FREE ENERGY PREDICTED BY IDOCK:   -1.84 KCAL/MOL
REMARK 922        TOTAL FREE ENERGY PREDICTED BY IDOCK:   -1.99 KCAL/MOL
REMARK 923 INTER-LIGAND FREE ENERGY PREDICTED BY IDOCK:   -1.93 KCAL/MOL
REMARK 924 INTRA-LIGAND FREE ENERGY PREDICTED BY IDOCK:   -0.06 KCAL/MOL
REMARK 927      BINDING AFFINITY PREDICTED BY RF-SCORE:    0.00 PKD
ROOT
HETATM    1  N   UNL     1     -10.123   4.701  68.101  1.00  0.00    -0.058 NA 
HETATM    2  H1  UNL     1     -10.777   4.885  67.340  1.00  0.00     0.000 HD 
HETATM    3  H2  UNL     1      -9.290   4.135  67.939  1.00  0.00     0.000 HD 
HETATM    4  N   UNL     1     -10.382   5.236  69.378  1.00  0.00    -0.255 N  
HETATM    5  C   UNL     1      -9.490   4.984  70.417  1.00  0.00    -0.169 C  
HETATM    6  H   UNL     1     -11.214   5.802  69.541  1.00  0.00     0.000 HD 
HETATM    7  O   UNL     1      -8.511   4.256  70.308  1.00  0.00    -0.068 OA 
ENDROOT
BRANCH   5   8
HETATM    8  C   UNL     1      -9.824   5.602  71.734  1.00  0.00    -0.208 A  
HETATM    9  C   UNL     1      -9.379   4.959  72.889  1.00  0.00    -0.145 A  
HETATM   10  C   UNL     1      -9.725   5.501  74.112  1.00  0.00    -0.168 A  
HETATM   11  N   UNL     1     -10.461   6.625  74.251  1.00  0.00    -0.274 NA 
HETATM   12  C   UNL     1     -10.848   7.249  73.119  1.00  0.00    -0.357 A  
HETATM   13  C   UNL     1     -10.556   6.785  71.847  1.00  0.00    -0.234 A  
ENDBRANCH   5   8
TORSDOF 1
ENDMDL
MODEL      156
REMARK 921   NORMALIZED FREE ENERGY PREDICTED BY IDOCK:   -1.81 KCAL/MOL
REMARK 922        TOTAL FREE ENERGY PREDICTED BY IDOCK:   -1.96 KCAL/MOL
REMARK 923 INTER-LIGAND FREE ENERGY PREDICTED BY IDOCK:   -1.92 KCAL/MOL
REMARK 924 INTRA-LIGAND FREE ENERGY PREDICTED BY IDOCK:   -0.04 KCAL/MOL
REMARK 927      BINDING AFFINITY PREDICTED BY RF-SCORE:    0.00 PKD
ROOT
HETATM    1  N   UNL     1     -10.357   9.819  66.485  1.00  0.00    -0.219 NA 
HETATM    2  H1  UNL     1     -10.933  10.477  65.961  1.00  0.00     0.000 HD 
HETATM    3  H2  UNL     1      -9.928  10.098  67.367  1.00  0.00     0.000 HD 
HETATM    4  N   UNL     1     -10.159   8.519  65.978  1.00  0.00    -0.425 N  
HETATM    5  C   UNL     1      -9.372   7.620  66.692  1.00  0.00    -0.190 C  
HETATM    6  H   UNL     1     -10.588   8.240  65.096  1.00  0.00     0.000 HD 
HETATM    7  O   UNL     1      -8.772   7.913  67.720  1.00  0.00    -0.127 OA 
ENDROOT
BRANCH   5   8
HETATM    8  C   UNL     1      -9.227   6.259  66.098  1.00  0.00    -0.143 A  
HETATM    9  C   UNL     1      -8.236   6.068  65.135  1.00  0.00    -0.142 A  
HETATM   10  C   UNL     1      -8.127   4.823  64.548  1.00  0.00    -0.109 A  
HETATM   11  N   UNL     1      -8.920   3.776  64.863  1.00  0.00    -0.121 NA 
HETATM   12  C   UNL     1      -9.847   3.975  65.823  1.00  0.00    -0.176 A  
HETATM   13  C   UNL     1     -10.038   5.185  66.469  1.00  0.00    -0.269 A  
ENDBRANCH   5   8
TORSDOF 1
ENDMDL
MODEL      157
REMARK 921   NORMALIZED FREE ENERGY PREDICTED BY IDOCK:   -1.73 KCAL/MOL
REMARK 922        TOTAL FREE ENERGY PREDICTED BY IDOCK:   -1.87 KCAL/MOL
REMARK 923 INTER-LIGAND FREE ENERGY PREDICTED BY IDOCK:   -1.81 KCAL/MOL
REMARK 924 INTRA-LIGAND FREE ENERGY PREDICTED BY IDOCK:   -0.07 KCAL/MOL
REMARK 927      BINDING AFFINITY PREDICTED BY RF-SCORE:    0.00 PKD
ROOT
HETATM    1  N   UNL     1      -8.254   6.617  63.520  1.00  0.00    -0.316 NA 
HETATM    2  H1  UNL     1      -8.204   7.155  62.655  1.00  0.00     0.000 HD 
HETATM    3  H2  UNL     1      -7.846   5.683  63.570  1.00  0.00     0.000 HD 
HETATM    4  N   UNL     1      -8.893   7.176  64.644  1.00  0.00    -0.141 N  
HETATM    5  C   UNL     1      -8.962   6.442  65.825  1.00  0.00    -0.052 C  
HETATM    6  H   UNL     1      -9.301   8.109  64.594  1.00  0.00     0.000 HD 
HETATM    7  O   UNL     1      -8.556   5.290  65.931  1.00  0.00    -0.119 OA 
ENDROOT
BRANCH   5   8
HETATM    8  C   UNL     1      -9.637   7.111  66.975  1.00  0.00    -0.204 A  
HETATM    9  C   UNL     1      -9.759   8.500  66.943  1.00  0.00    -0.286 A  
HETATM   10  C   UNL     1     -10.340   9.129  68.026  1.00  0.00    -0.222 A  
HETATM   11  N   UNL     1     -10.808   8.473  69.110  1.00  0.00    -0.102 NA 
HETATM   12  C   UNL     1     -10.713   7.127  69.101  1.00  0.00    -0.198 A  
HETATM   13  C   UNL     1     -10.144   6.404  68.066  1.00  0.00    -0.168 A  
ENDBRANCH   5   8
TORSDOF 1
ENDMDL
MODEL      158
REMARK 921   NORMALIZED FREE ENERGY PREDICTED BY IDOCK:   -1.67 KCAL/MOL
REMARK 922        TOTAL FREE ENERGY PREDICTED BY IDOCK:   -1.81 KCAL/MOL
REMARK 923 INTER-LIGAND FREE ENERGY PREDICTED BY IDOCK:   -1.75 KCAL/MOL
REMARK 924 INTRA-LIGAND FREE ENERGY PREDICTED BY IDOCK:   -0.07 KCAL/MOL
REMARK 927      BINDING AFFINITY PREDICTED BY RF-SCORE:    0.00 PKD
ROOT
HETATM    1  N   UNL     1     -10.813   8.316  68.772  1.00  0.00    -0.428 NA 
HETATM    2  H1  UNL     1     -10.690   7.364  69.119  1.00  0.00     0.000 HD 
HETATM    3  H2  UNL     1     -11.715   8.617  68.403  1.00  0.00     0.000 HD 
HETATM    4  N   UNL     1      -9.725   9.209  68.807  1.00  0.00    -0.159 N  
HETATM    5  C   UNL     1      -9.892  10.507  68.334  1.00  0.00    -0.161 C  
HETATM    6  H   UNL     1      -8.823   8.908  69.176  1.00  0.00     0.000 HD 
HETATM    7  O   UNL     1     -10.926  10.911  67.814  1.00  0.00    -0.239 OA 
ENDROOT
BRANCH   5   8
HETATM    8  C   UNL     1      -8.698  11.398  68.424  1.00  0.00    -0.157 A  
HETATM    9  C   UNL     1      -7.654  11.008  69.264  1.00  0.00    -0.090 A  
HETATM   10  C   UNL     1      -6.567  11.852  69.387  1.00  0.00    -0.108 A  
HETATM   11  N   UNL     1      -6.453  13.026  68.731  1.00  0.00    -0.079 NA 
HETATM   12  C   UNL     1      -7.458  13.363  67.896  1.00  0.00    -0.149 A  
HETATM   13  C   UNL     1      -8.591  12.589  67.705  1.00  0.00    -0.178 A  
ENDBRANCH   5   8
TORSDOF 1
ENDMDL
MODEL      159
REMARK 921   NORMALIZED FREE ENERGY PREDICTED BY IDOCK:   -1.66 KCAL/MOL
REMARK 922        TOTAL FREE ENERGY PREDICTED BY IDOCK:   -1.80 KCAL/MOL
REMARK 923 INTER-LIGAND FREE ENERGY PREDICTED BY IDOCK:   -1.74 KCAL/MOL
REMARK 924 INTRA-LIGAND FREE ENERGY PREDICTED BY IDOCK:   -0.06 KCAL/MOL
REMARK 927      BINDING AFFINITY PREDICTED BY RF-SCORE:    0.00 PKD
ROOT
HETATM    1  N   UNL     1     -10.662   3.603  63.546  1.00  0.00    -0.258 NA 
HETATM    2  H1  UNL     1     -11.554   3.628  63.050  1.00  0.00     0.000 HD 
HETATM    3  H2  UNL     1      -9.990   2.859  63.360  1.00  0.00     0.000 HD 
HETATM    4  N   UNL     1     -10.370   4.606  64.491  1.00  0.00    -0.400 N  
HETATM    5  C   UNL     1      -9.154   4.573  65.168  1.00  0.00    -0.150 C  
HETATM    6  H   UNL     1     -11.043   5.350  64.677  1.00  0.00     0.000 HD 
HETATM    7  O   UNL     1      -8.334   3.670  65.043  1.00  0.00    -0.096 OA 
ENDROOT
BRANCH   5   8
HETATM    8  C   UNL     1      -8.912   5.681  66.137  1.00  0.00    -0.153 A  
HETATM    9  C   UNL     1     -10.021   6.355  66.649  1.00  0.00    -0.207 A  
HETATM   10  C   UNL     1      -9.801   7.412  67.511  1.00  0.00    -0.158 A  
HETATM   11  N   UNL     1      -8.573   7.822  67.894  1.00  0.00    -0.122 NA 
HETATM   12  C   UNL     1      -7.518   7.130  67.415  1.00  0.00    -0.100 A  
HETATM   13  C   UNL     1      -7.632   6.059  66.544  1.00  0.00    -0.094 A  
ENDBRANCH   5   8
TORSDOF 1
ENDMDL
MODEL      160
REMARK 921   NORMALIZED FREE ENERGY PREDICTED BY IDOCK:   -1.65 KCAL/MOL
REMARK 922        TOTAL FREE ENERGY PREDICTED BY IDOCK:   -1.79 KCAL/MOL
REMARK 923 INTER-LIGAND FREE ENERGY PREDICTED BY IDOCK:   -1.74 KCAL/MOL
REMARK 924 INTRA-LIGAND FREE ENERGY PREDICTED BY IDOCK:   -0.05 KCAL/MOL
REMARK 927      BINDING AFFINITY PREDICTED BY RF-SCORE:    0.00 PKD
ROOT
HETATM    1  N   UNL     1      -8.443   6.069  65.299  1.00  0.00    -0.185 NA 
HETATM    2  H1  UNL     1      -8.607   5.808  64.327  1.00  0.00     0.000 HD 
HETATM    3  H2  UNL     1      -8.009   5.407  65.943  1.00  0.00     0.000 HD 
HETATM    4  N   UNL     1      -8.821   7.351  65.744  1.00  0.00    -0.315 N  
HETATM    5  C   UNL     1      -8.597   7.707  67.071  1.00  0.00    -0.122 C  
HETATM    6  H   UNL     1      -9.254   8.012  65.100  1.00  0.00     0.000 HD 
HETATM    7  O   UNL     1      -8.146   6.937  67.912  1.00  0.00    -0.112 OA 
ENDROOT
BRANCH   5   8
HETATM    8  C   UNL     1      -9.007   9.088  67.459  1.00  0.00    -0.131 A  
HETATM    9  C   UNL     1      -9.722   9.248  68.646  1.00  0.00    -0.158 A  
HETATM   10  C   UNL     1     -10.145  10.518  68.986  1.00  0.00    -0.217 A  
HETATM   11  N   UNL     1      -9.894  11.615  68.240  1.00  0.00    -0.194 NA 
HETATM   12  C   UNL     1      -9.169  11.440  67.116  1.00  0.00    -0.166 A  
HETATM   13  C   UNL     1      -8.703  10.209  66.686  1.00  0.00    -0.134 A  
ENDBRANCH   5   8
TORSDOF 1
ENDMDL
MODEL      161
REMARK 921   NORMALIZED FREE ENERGY PREDICTED BY IDOCK:   -1.55 KCAL/MOL
REMARK 922        TOTAL FREE ENERGY PREDICTED BY IDOCK:   -1.69 KCAL/MOL
REMARK 923 INTER-LIGAND FREE ENERGY PREDICTED BY IDOCK:   -1.62 KCAL/MOL
REMARK 924 INTRA-LIGAND FREE ENERGY PREDICTED BY IDOCK:   -0.07 KCAL/MOL
REMARK 927      BINDING AFFINITY PREDICTED BY RF-SCORE:    0.00 PKD
ROOT
HETATM    1  N   UNL     1     -11.608   8.677  71.272  1.00  0.00    -0.273 NA 
HETATM    2  H1  UNL     1     -11.671   7.947  71.982  1.00  0.00     0.000 HD 
HETATM    3  H2  UNL     1     -12.321   9.404  71.216  1.00  0.00     0.000 HD 
HETATM    4  N   UNL     1     -10.526   8.671  70.370  1.00  0.00    -0.202 N  
HETATM    5  C   UNL     1     -10.439   9.667  69.401  1.00  0.00    -0.220 C  
HETATM    6  H   UNL     1      -9.813   7.945  70.426  1.00  0.00     0.000 HD 
HETATM    7  O   UNL     1     -11.297  10.526  69.235  1.00  0.00    -0.240 OA 
ENDROOT
BRANCH   5   8
HETATM    8  C   UNL     1      -9.254   9.603  68.497  1.00  0.00    -0.137 A  
HETATM    9  C   UNL     1      -8.348   8.557  68.681  1.00  0.00    -0.123 A  
HETATM   10  C   UNL     1      -7.225   8.519  67.879  1.00  0.00    -0.088 A  
HETATM   11  N   UNL     1      -6.960   9.429  66.917  1.00  0.00    -0.081 NA 
HETATM   12  C   UNL     1      -7.870  10.409  66.734  1.00  0.00    -0.117 A  
HETATM   13  C   UNL     1      -9.025  10.538  67.488  1.00  0.00    -0.137 A  
ENDBRANCH   5   8
TORSDOF 1
ENDMDL
MODEL      162
REMARK 921   NORMALIZED FREE ENERGY PREDICTED BY IDOCK:   -1.51 KCAL/MOL
REMARK 922        TOTAL FREE ENERGY PREDICTED BY IDOCK:   -1.64 KCAL/MOL
REMARK 923 INTER-LIGAND FREE ENERGY PREDICTED BY IDOCK:   -1.59 KCAL/MOL
REMARK 924 INTRA-LIGAND FREE ENERGY PREDICTED BY IDOCK:   -0.05 KCAL/MOL
REMARK 927      BINDING AFFINITY PREDICTED BY RF-SCORE:    0.00 PKD
ROOT
HETATM    1  N   UNL     1      -9.881   6.263  68.066  1.00  0.00    -0.121 NA 
HETATM    2  H1  UNL     1     -10.559   5.769  67.486  1.00  0.00     0.000 HD 
HETATM    3  H2  UNL     1      -9.092   6.746  67.639  1.00  0.00     0.000 HD 
HETATM    4  N   UNL     1     -10.048   6.272  69.465  1.00  0.00    -0.169 N  
HETATM    5  C   UNL     1      -9.123   6.946  70.258  1.00  0.00    -0.153 C  
HETATM    6  H   UNL     1     -10.838   5.789  69.893  1.00  0.00     0.000 HD 
HETATM    7  O   UNL     1      -8.116   7.485  69.815  1.00  0.00    -0.121 OA 
ENDROOT
BRANCH   5   8
HETATM    8  C   UNL     1      -9.380   6.925  71.728  1.00  0.00    -0.147 A  
HETATM    9  C   UNL     1      -9.164   8.102  72.446  1.00  0.00    -0.292 A  
HETATM   10  C   UNL     1      -9.355   8.076  73.813  1.00  0.00    -0.038 A  
HETATM   11  N   UNL     1      -9.751   6.979  74.493  1.00  0.00    -0.164 NA 
HETATM   12  C   UNL     1      -9.989   5.863  73.772  1.00  0.00    -0.203 A  
HETATM   13  C   UNL     1      -9.824   5.785  72.399  1.00  0.00    -0.186 A  
ENDBRANCH   5   8
TORSDOF 1
ENDMDL
MODEL      163
REMARK 921   NORMALIZED FREE ENERGY PREDICTED BY IDOCK:   -1.50 KCAL/MOL
REMARK 922        TOTAL FREE ENERGY PREDICTED BY IDOCK:   -1.64 KCAL/MOL
REMARK 923 INTER-LIGAND FREE ENERGY PREDICTED BY IDOCK:   -1.59 KCAL/MOL
REMARK 924 INTRA-LIGAND FREE ENERGY PREDICTED BY IDOCK:   -0.04 KCAL/MOL
REMARK 927      BINDING AFFINITY PREDICTED BY RF-SCORE:    0.00 PKD
ROOT
HETATM    1  N   UNL     1     -11.145   6.762  70.399  1.00  0.00    -0.286 NA 
HETATM    2  H1  UNL     1     -11.355   6.585  71.382  1.00  0.00     0.000 HD 
HETATM    3  H2  UNL     1     -11.499   7.602  69.941  1.00  0.00     0.000 HD 
HETATM    4  N   UNL     1     -10.363   5.836  69.682  1.00  0.00    -0.233 N  
HETATM    5  C   UNL     1     -10.077   6.077  68.341  1.00  0.00    -0.164 C  
HETATM    6  H   UNL     1     -10.009   4.997  70.141  1.00  0.00     0.000 HD 
HETATM    7  O   UNL     1     -10.529   7.028  67.713  1.00  0.00    -0.187 OA 
ENDROOT
BRANCH   5   8
HETATM    8  C   UNL     1      -9.227   5.060  67.657  1.00  0.00    -0.132 A  
HETATM    9  C   UNL     1      -7.846   5.131  67.843  1.00  0.00    -0.091 A  
HETATM   10  C   UNL     1      -7.050   4.221  67.175  1.00  0.00    -0.067 A  
HETATM   11  N   UNL     1      -7.535   3.258  66.362  1.00  0.00    -0.075 NA 
HETATM   12  C   UNL     1      -8.876   3.185  66.229  1.00  0.00    -0.142 A  
HETATM   13  C   UNL     1      -9.759   4.052  66.852  1.00  0.00    -0.215 A  
ENDBRANCH   5   8
TORSDOF 1
ENDMDL
MODEL      164
REMARK 921   NORMALIZED FREE ENERGY PREDICTED BY IDOCK:   -1.42 KCAL/MOL
REMARK 922        TOTAL FREE ENERGY PREDICTED BY IDOCK:   -1.55 KCAL/MOL
REMARK 923 INTER-LIGAND FREE ENERGY PREDICTED BY IDOCK:   -1.49 KCAL/MOL
REMARK 924 INTRA-LIGAND FREE ENERGY PREDICTED BY IDOCK:   -0.06 KCAL/MOL
REMARK 927      BINDING AFFINITY PREDICTED BY RF-SCORE:    0.00 PKD
ROOT
HETATM    1  N   UNL     1     -10.211   4.500  63.872  1.00  0.00    -0.382 NA 
HETATM    2  H1  UNL     1     -10.216   4.147  62.915  1.00  0.00     0.000 HD 
HETATM    3  H2  UNL     1     -10.674   5.380  64.099  1.00  0.00     0.000 HD 
HETATM    4  N   UNL     1      -9.560   3.759  64.878  1.00  0.00    -0.167 N  
HETATM    5  C   UNL     1      -9.552   4.241  66.184  1.00  0.00    -0.194 C  
HETATM    6  H   UNL     1      -9.097   2.879  64.652  1.00  0.00     0.000 HD 
HETATM    7  O   UNL     1     -10.027   5.323  66.509  1.00  0.00    -0.165 OA 
ENDROOT
BRANCH   5   8
HETATM    8  C   UNL     1      -8.858   3.390  67.194  1.00  0.00    -0.150 A  
HETATM    9  C   UNL     1      -9.036   3.700  68.543  1.00  0.00    -0.201 A  
HETATM   10  C   UNL     1      -8.359   2.945  69.480  1.00  0.00    -0.055 A  
HETATM   11  N   UNL     1      -7.544   1.915  69.165  1.00  0.00    -0.043 NA 
HETATM   12  C   UNL     1      -7.418   1.611  67.856  1.00  0.00    -0.053 A  
HETATM   13  C   UNL     1      -8.051   2.308  66.840  1.00  0.00    -0.077 A  
ENDBRANCH   5   8
TORSDOF 1
ENDMDL
MODEL      165
REMARK 921   NORMALIZED FREE ENERGY PREDICTED BY IDOCK:   -1.42 KCAL/MOL
REMARK 922        TOTAL FREE ENERGY PREDICTED BY IDOCK:   -1.54 KCAL/MOL
REMARK 923 INTER-LIGAND FREE ENERGY PREDICTED BY IDOCK:   -1.48 KCAL/MOL
REMARK 924 INTRA-LIGAND FREE ENERGY PREDICTED BY IDOCK:   -0.06 KCAL/MOL
REMARK 927      BINDING AFFINITY PREDICTED BY RF-SCORE:    0.00 PKD
ROOT
HETATM    1  N   UNL     1      -8.696   5.083  63.239  1.00  0.00    -0.243 NA 
HETATM    2  H1  UNL     1      -8.840   4.209  62.734  1.00  0.00     0.000 HD 
HETATM    3  H2  UNL     1      -8.481   5.941  62.732  1.00  0.00     0.000 HD 
HETATM    4  N   UNL     1      -8.800   5.094  64.644  1.00  0.00    -0.275 N  
HETATM    5  C   UNL     1      -8.604   6.287  65.334  1.00  0.00    -0.092 C  
HETATM    6  H   UNL     1      -9.015   4.236  65.151  1.00  0.00     0.000 HD 
HETATM    7  O   UNL     1      -8.273   7.336  64.793  1.00  0.00    -0.124 OA 
ENDROOT
BRANCH   5   8
HETATM    8  C   UNL     1      -8.749   6.219  66.818  1.00  0.00    -0.117 A  
HETATM    9  C   UNL     1      -8.325   7.317  67.566  1.00  0.00    -0.116 A  
HETATM   10  C   UNL     1      -8.413   7.242  68.943  1.00  0.00    -0.126 A  
HETATM   11  N   UNL     1      -8.899   6.169  69.604  1.00  0.00    -0.134 NA 
HETATM   12  C   UNL     1      -9.338   5.135  68.856  1.00  0.00    -0.125 A  
HETATM   13  C   UNL     1      -9.289   5.111  67.472  1.00  0.00    -0.131 A  
ENDBRANCH   5   8
TORSDOF 1
ENDMDL
MODEL      166
REMARK 921   NORMALIZED FREE ENERGY PREDICTED BY IDOCK:   -1.40 KCAL/MOL
REMARK 922        TOTAL FREE ENERGY PREDICTED BY IDOCK:   -1.53 KCAL/MOL
REMARK 923 INTER-LIGAND FREE ENERGY PREDICTED BY IDOCK:   -1.47 KCAL/MOL
REMARK 924 INTRA-LIGAND FREE ENERGY PREDICTED BY IDOCK:   -0.06 KCAL/MOL
REMARK 927      BINDING AFFINITY PREDICTED BY RF-SCORE:    0.00 PKD
ROOT
HETATM    1  N   UNL     1      -6.600  14.616  70.532  1.00  0.00    -0.279 NA 
HETATM    2  H1  UNL     1      -6.919  15.273  71.244  1.00  0.00     0.000 HD 
HETATM    3  H2  UNL     1      -5.604  14.494  70.354  1.00  0.00     0.000 HD 
HETATM    4  N   UNL     1      -7.551  13.881  69.797  1.00  0.00    -0.114 N  
HETATM    5  C   UNL     1      -7.116  12.985  68.824  1.00  0.00    -0.097 C  
HETATM    6  H   UNL     1      -8.547  14.003  69.975  1.00  0.00     0.000 HD 
HETATM    7  O   UNL     1      -5.939  12.842  68.512  1.00  0.00    -0.057 OA 
ENDROOT
BRANCH   5   8
HETATM    8  C   UNL     1      -8.182  12.230  68.103  1.00  0.00    -0.168 A  
HETATM    9  C   UNL     1      -7.894  11.753  66.824  1.00  0.00    -0.103 A  
HETATM   10  C   UNL     1      -8.893  11.095  66.133  1.00  0.00    -0.190 A  
HETATM   11  N   UNL     1     -10.128  10.876  66.631  1.00  0.00    -0.211 NA 
HETATM   12  C   UNL     1     -10.371  11.314  67.885  1.00  0.00    -0.182 A  
HETATM   13  C   UNL     1      -9.439  11.987  68.658  1.00  0.00    -0.069 A  
ENDBRANCH   5   8
TORSDOF 1
ENDMDL
MODEL      167
REMARK 921   NORMALIZED FREE ENERGY PREDICTED BY IDOCK:   -1.39 KCAL/MOL
REMARK 922        TOTAL FREE ENERGY PREDICTED BY IDOCK:   -1.51 KCAL/MOL
REMARK 923 INTER-LIGAND FREE ENERGY PREDICTED BY IDOCK:   -1.46 KCAL/MOL
REMARK 924 INTRA-LIGAND FREE ENERGY PREDICTED BY IDOCK:   -0.05 KCAL/MOL
REMARK 927      BINDING AFFINITY PREDICTED BY RF-SCORE:    0.00 PKD
ROOT
HETATM    1  N   UNL     1      -7.381  11.032  66.555  1.00  0.00    -0.144 NA 
HETATM    2  H1  UNL     1      -7.352  11.541  65.671  1.00  0.00     0.000 HD 
HETATM    3  H2  UNL     1      -6.996  11.448  67.402  1.00  0.00     0.000 HD 
HETATM    4  N   UNL     1      -7.960   9.748  66.592  1.00  0.00    -0.112 N  
HETATM    5  C   UNL     1      -8.000   9.052  67.798  1.00  0.00    -0.101 C  
HETATM    6  H   UNL     1      -8.346   9.332  65.745  1.00  0.00     0.000 HD 
HETATM    7  O   UNL     1      -7.492   9.464  68.834  1.00  0.00    -0.073 OA 
ENDROOT
BRANCH   5   8
HETATM    8  C   UNL     1      -8.646   7.708  67.759  1.00  0.00    -0.121 A  
HETATM    9  C   UNL     1      -9.996   7.642  67.413  1.00  0.00    -0.252 A  
HETATM   10  C   UNL     1     -10.612   6.405  67.421  1.00  0.00    -0.295 A  
HETATM   11  N   UNL     1      -9.977   5.256  67.733  1.00  0.00    -0.156 NA 
HETATM   12  C   UNL     1      -8.663   5.341  68.028  1.00  0.00    -0.102 A  
HETATM   13  C   UNL     1      -7.956   6.531  68.051  1.00  0.00    -0.109 A  
ENDBRANCH   5   8
TORSDOF 1
ENDMDL
MODEL      168
REMARK 921   NORMALIZED FREE ENERGY PREDICTED BY IDOCK:   -1.25 KCAL/MOL
REMARK 922        TOTAL FREE ENERGY PREDICTED BY IDOCK:   -1.36 KCAL/MOL
REMARK 923 INTER-LIGAND FREE ENERGY PREDICTED BY IDOCK:   -1.32 KCAL/MOL
REMARK 924 INTRA-LIGAND FREE ENERGY PREDICTED BY IDOCK:   -0.04 KCAL/MOL
REMARK 927      BINDING AFFINITY PREDICTED BY RF-SCORE:    0.00 PKD
ROOT
HETATM    1  N   UNL     1     -10.674   7.991  70.439  1.00  0.00    -0.229 NA 
HETATM    2  H1  UNL     1     -10.728   7.067  70.869  1.00  0.00     0.000 HD 
HETATM    3  H2  UNL     1     -11.521   8.541  70.294  1.00  0.00     0.000 HD 
HETATM    4  N   UNL     1      -9.420   8.498  70.048  1.00  0.00    -0.163 N  
HETATM    5  C   UNL     1      -9.346   9.759  69.461  1.00  0.00    -0.213 C  
HETATM    6  H   UNL     1      -8.573   7.948  70.193  1.00  0.00     0.000 HD 
HETATM    7  O   UNL     1     -10.330  10.440  69.194  1.00  0.00    -0.196 OA 
ENDROOT
BRANCH   5   8
HETATM    8  C   UNL     1      -7.981  10.233  69.093  1.00  0.00    -0.135 A  
HETATM    9  C   UNL     1      -7.667  10.333  67.737  1.00  0.00    -0.090 A  
HETATM   10  C   UNL     1      -6.389  10.727  67.390  1.00  0.00    -0.059 A  
HETATM   11  N   UNL     1      -5.430  11.032  68.290  1.00  0.00    -0.040 NA 
HETATM   12  C   UNL     1      -5.769  10.963  69.595  1.00  0.00    -0.046 A  
HETATM   13  C   UNL     1      -7.020  10.577  70.045  1.00  0.00    -0.150 A  
ENDBRANCH   5   8
TORSDOF 1
ENDMDL
MODEL      169
REMARK 921   NORMALIZED FREE ENERGY PREDICTED BY IDOCK:   -1.09 KCAL/MOL
REMARK 922        TOTAL FREE ENERGY PREDICTED BY IDOCK:   -1.20 KCAL/MOL
REMARK 923 INTER-LIGAND FREE ENERGY PREDICTED BY IDOCK:   -1.16 KCAL/MOL
REMARK 924 INTRA-LIGAND FREE ENERGY PREDICTED BY IDOCK:   -0.04 KCAL/MOL
REMARK 927      BINDING AFFINITY PREDICTED BY RF-SCORE:    0.00 PKD
ROOT
HETATM    1  N   UNL     1      -9.968   3.610  63.342  1.00  0.00    -0.159 NA 
HETATM    2  H1  UNL     1     -10.967   3.517  63.158  1.00  0.00     0.000 HD 
HETATM    3  H2  UNL     1      -9.346   2.812  63.222  1.00  0.00     0.000 HD 
HETATM    4  N   UNL     1      -9.457   4.853  63.764  1.00  0.00    -0.346 N  
HETATM    5  C   UNL     1      -8.094   4.981  64.016  1.00  0.00    -0.119 C  
HETATM    6  H   UNL     1     -10.080   5.652  63.884  1.00  0.00     0.000 HD 
HETATM    7  O   UNL     1      -7.305   4.045  63.960  1.00  0.00    -0.053 OA 
ENDROOT
BRANCH   5   8
HETATM    8  C   UNL     1      -7.629   6.334  64.440  1.00  0.00    -0.100 A  
HETATM    9  C   UNL     1      -7.600   6.616  65.807  1.00  0.00    -0.085 A  
HETATM   10  C   UNL     1      -7.215   7.882  66.203  1.00  0.00    -0.073 A  
HETATM   11  N   UNL     1      -6.853   8.857  65.343  1.00  0.00    -0.072 NA 
HETATM   12  C   UNL     1      -6.853   8.548  64.029  1.00  0.00    -0.075 A  
HETATM   13  C   UNL     1      -7.225   7.311  63.531  1.00  0.00    -0.075 A  
ENDBRANCH   5   8
TORSDOF 1
ENDMDL
MODEL      170
REMARK 921   NORMALIZED FREE ENERGY PREDICTED BY IDOCK:   -0.99 KCAL/MOL
REMARK 922        TOTAL FREE ENERGY PREDICTED BY IDOCK:   -1.09 KCAL/MOL
REMARK 923 INTER-LIGAND FREE ENERGY PREDICTED BY IDOCK:   -1.04 KCAL/MOL
REMARK 924 INTRA-LIGAND FREE ENERGY PREDICTED BY IDOCK:   -0.05 KCAL/MOL
REMARK 927      BINDING AFFINITY PREDICTED BY RF-SCORE:    0.00 PKD
ROOT
HETATM    1  N   UNL     1     -10.363   3.042  65.172  1.00  0.00    -0.131 NA 
HETATM    2  H1  UNL     1     -11.305   3.180  64.804  1.00  0.00     0.000 HD 
HETATM    3  H2  UNL     1      -9.872   2.163  65.011  1.00  0.00     0.000 HD 
HETATM    4  N   UNL     1      -9.749   4.077  65.904  1.00  0.00    -0.232 N  
HETATM    5  C   UNL     1      -8.465   3.888  66.406  1.00  0.00    -0.109 C  
HETATM    6  H   UNL     1     -10.241   4.956  66.064  1.00  0.00     0.000 HD 
HETATM    7  O   UNL     1      -7.848   2.833  66.311  1.00  0.00    -0.079 OA 
ENDROOT
BRANCH   5   8
HETATM    8  C   UNL     1      -7.877   5.038  67.153  1.00  0.00    -0.096 A  
HETATM    9  C   UNL     1      -7.089   4.758  68.271  1.00  0.00    -0.061 A  
HETATM   10  C   UNL     1      -6.581   5.819  68.993  1.00  0.00    -0.051 A  
HETATM   11  N   UNL     1      -6.793   7.113  68.672  1.00  0.00    -0.073 NA 
HETATM   12  C   UNL     1      -7.527   7.359  67.566  1.00  0.00    -0.100 A  
HETATM   13  C   UNL     1      -8.083   6.366  66.777  1.00  0.00    -0.109 A  
ENDBRANCH   5   8
TORSDOF 1
ENDMDL
MODEL      171
REMARK 921   NORMALIZED FREE ENERGY PREDICTED BY IDOCK:    2.39 KCAL/MOL
REMARK 922        TOTAL FREE ENERGY PREDICTED BY IDOCK:    2.49 KCAL/MOL
REMARK 923 INTER-LIGAND FREE ENERGY PREDICTED BY IDOCK:    2.54 KCAL/MOL
REMARK 924 INTRA-LIGAND FREE ENERGY PREDICTED BY IDOCK:   -0.05 KCAL/MOL
REMARK 927      BINDING AFFINITY PREDICTED BY RF-SCORE:    0.00 PKD
ROOT
HETATM    1  N   UNL     1      -7.457  14.747  71.934  1.00  0.00     2.198 NA 
HETATM    2  H1  UNL     1      -8.343  14.874  72.424  1.00  0.00     0.000 HD 
HETATM    3  H2  UNL     1      -6.622  15.242  72.246  1.00  0.00     0.000 HD 
HETATM    4  N   UNL     1      -7.400  13.883  70.823  1.00  0.00     1.023 N  
HETATM    5  C   UNL     1      -6.191  13.710  70.155  1.00  0.00    -0.095 C  
HETATM    6  H   UNL     1      -8.235  13.388  70.512  1.00  0.00     0.000 HD 
HETATM    7  O   UNL     1      -5.169  14.327  70.433  1.00  0.00    -0.094 OA 
ENDROOT
BRANCH   5   8
HETATM    8  C   UNL     1      -6.208  12.764  69.001  1.00  0.00    -0.095 A  
HETATM    9  C   UNL     1      -5.171  11.835  68.903  1.00  0.00    -0.050 A  
HETATM   10  C   UNL     1      -5.156  10.987  67.813  1.00  0.00    -0.040 A  
HETATM   11  N   UNL     1      -6.095  10.999  66.843  1.00  0.00    -0.077 NA 
HETATM   12  C   UNL     1      -7.108  11.881  66.979  1.00  0.00    -0.116 A  
HETATM   13  C   UNL     1      -7.212  12.775  68.032  1.00  0.00    -0.115 A  
ENDBRANCH   5   8
TORSDOF 1
ENDMDL
