MODEL        1
REMARK 921   NORMALIZED FREE ENERGY PREDICTED BY IDOCK:   -4.52 KCAL/MOL
REMARK 922        TOTAL FREE ENERGY PREDICTED BY IDOCK:   -9.80 KCAL/MOL
REMARK 923 INTER-LIGAND FREE ENERGY PREDICTED BY IDOCK:   -8.23 KCAL/MOL
REMARK 924 INTRA-LIGAND FREE ENERGY PREDICTED BY IDOCK:   -1.57 KCAL/MOL
REMARK 927      BINDING AFFINITY PREDICTED BY RF-SCORE:    0.00 PKD
ROOT
HETATM    1  C   UNL     1     -11.267  10.795  68.209  1.00  0.00    -0.358 C  
HETATM    2  C   UNL     1     -11.957  11.515  69.357  1.00  0.00    -0.392 C  
ENDROOT
BRANCH   2   3
HETATM    3  C   UNL     1     -12.314  10.546  70.482  1.00  0.00    -0.432 C  
BRANCH   3   4
HETATM    4  C   UNL     1     -13.031  11.264  71.624  1.00  0.00    -0.537 C  
BRANCH   4   5
HETATM    5  C   UNL     1     -12.886  12.779  71.492  1.00  0.00    -0.369 C  
BRANCH   5   6
HETATM    6  C   UNL     1     -13.947  13.511  72.311  1.00  0.00    -0.638 C  
BRANCH   6   7
HETATM    7  C   UNL     1     -13.700  15.018  72.296  1.00  0.00    -0.574 C  
BRANCH   7   8
HETATM    8  C   UNL     1     -13.114  15.466  70.960  1.00  0.00    -0.565 C  
BRANCH   8   9
HETATM    9  C   UNL     1     -11.696  16.007  71.137  1.00  0.00    -0.487 C  
BRANCH   9  10
HETATM   10  C   UNL     1     -10.990  16.123  69.790  1.00  0.00    -0.349 C  
BRANCH  10  11
HETATM   11  C   UNL     1     -11.786  15.448  68.673  1.00  0.00    -0.371 C  
BRANCH  11  12
HETATM   12  C   UNL     1     -10.847  15.016  67.551  1.00  0.00    -0.297 C  
BRANCH  12  13
HETATM   13  C   UNL     1      -9.812  16.086  67.210  1.00  0.00    -0.236 C  
BRANCH  13  14
HETATM   14  C   UNL     1     -10.368  17.045  66.185  1.00  0.00    -0.319 C  
HETATM   15  O   UNL     1     -10.563  16.780  65.006  1.00  0.00    -0.695 OA 
BRANCH  14  16
HETATM   16  O   UNL     1     -10.620  18.252  66.765  1.00  0.00    -0.370 OA 
BRANCH  16  17
HETATM   17  C   UNL     1      -9.504  18.841  67.461  1.00  0.00    -0.298 C  
HETATM   18  C   UNL     1      -8.777  19.813  66.537  1.00  0.00    -0.408 C  
HETATM   19  C   UNL     1     -10.056  19.565  68.682  1.00  0.00    -0.535 C  
ENDBRANCH  16  17
ENDBRANCH  14  16
ENDBRANCH  13  14
ENDBRANCH  12  13
ENDBRANCH  11  12
ENDBRANCH  10  11
ENDBRANCH   9  10
ENDBRANCH   8   9
ENDBRANCH   7   8
ENDBRANCH   6   7
ENDBRANCH   5   6
ENDBRANCH   4   5
ENDBRANCH   3   4
ENDBRANCH   2   3
TORSDOF 14
ENDMDL
MODEL        2
REMARK 921   NORMALIZED FREE ENERGY PREDICTED BY IDOCK:   -4.51 KCAL/MOL
REMARK 922        TOTAL FREE ENERGY PREDICTED BY IDOCK:   -9.76 KCAL/MOL
REMARK 923 INTER-LIGAND FREE ENERGY PREDICTED BY IDOCK:   -8.48 KCAL/MOL
REMARK 924 INTRA-LIGAND FREE ENERGY PREDICTED BY IDOCK:   -1.28 KCAL/MOL
REMARK 927      BINDING AFFINITY PREDICTED BY RF-SCORE:    0.00 PKD
ROOT
HETATM    1  C   UNL     1     -12.441  15.861  72.330  1.00  0.00    -0.558 C  
HETATM    2  C   UNL     1     -13.805  15.329  71.920  1.00  0.00    -0.624 C  
ENDROOT
BRANCH   2   3
HETATM    3  C   UNL     1     -13.954  13.853  72.281  1.00  0.00    -0.663 C  
BRANCH   3   4
HETATM    4  C   UNL     1     -12.971  12.988  71.495  1.00  0.00    -0.398 C  
BRANCH   4   5
HETATM    5  C   UNL     1     -13.076  11.523  71.917  1.00  0.00    -0.492 C  
BRANCH   5   6
HETATM    6  C   UNL     1     -12.816  10.587  70.738  1.00  0.00    -0.454 C  
BRANCH   6   7
HETATM    7  C   UNL     1     -11.318  10.456  70.470  1.00  0.00    -0.424 C  
BRANCH   7   8
HETATM    8  C   UNL     1     -11.027  10.445  68.972  1.00  0.00    -0.282 C  
BRANCH   8   9
HETATM    9  C   UNL     1     -10.553  11.818  68.496  1.00  0.00    -0.242 C  
BRANCH   9  10
HETATM   10  C   UNL     1     -11.584  12.452  67.567  1.00  0.00    -0.431 C  
BRANCH  10  11
HETATM   11  C   UNL     1     -11.952  13.867  68.010  1.00  0.00    -0.390 C  
BRANCH  11  12
HETATM   12  C   UNL     1     -11.005  14.877  67.371  1.00  0.00    -0.314 C  
BRANCH  12  13
HETATM   13  C   UNL     1     -11.203  14.992  65.862  1.00  0.00    -0.313 C  
BRANCH  13  14
HETATM   14  C   UNL     1     -10.849  16.383  65.391  1.00  0.00    -0.239 C  
HETATM   15  O   UNL     1     -11.180  16.867  64.318  1.00  0.00    -1.204 OA 
BRANCH  14  16
HETATM   16  O   UNL     1     -10.103  17.019  66.338  1.00  0.00    -0.293 OA 
BRANCH  16  17
HETATM   17  C   UNL     1      -9.989  18.446  66.169  1.00  0.00    -0.319 C  
HETATM   18  C   UNL     1     -10.755  19.158  67.279  1.00  0.00    -0.585 C  
HETATM   19  C   UNL     1      -8.508  18.796  66.223  1.00  0.00    -0.256 C  
ENDBRANCH  16  17
ENDBRANCH  14  16
ENDBRANCH  13  14
ENDBRANCH  12  13
ENDBRANCH  11  12
ENDBRANCH  10  11
ENDBRANCH   9  10
ENDBRANCH   8   9
ENDBRANCH   7   8
ENDBRANCH   6   7
ENDBRANCH   5   6
ENDBRANCH   4   5
ENDBRANCH   3   4
ENDBRANCH   2   3
TORSDOF 14
ENDMDL
MODEL        3
REMARK 921   NORMALIZED FREE ENERGY PREDICTED BY IDOCK:   -4.43 KCAL/MOL
REMARK 922        TOTAL FREE ENERGY PREDICTED BY IDOCK:   -9.62 KCAL/MOL
REMARK 923 INTER-LIGAND FREE ENERGY PREDICTED BY IDOCK:   -8.23 KCAL/MOL
REMARK 924 INTRA-LIGAND FREE ENERGY PREDICTED BY IDOCK:   -1.39 KCAL/MOL
REMARK 927      BINDING AFFINITY PREDICTED BY RF-SCORE:    0.00 PKD
ROOT
HETATM    1  C   UNL     1     -11.731  16.037  71.868  1.00  0.00    -0.594 C  
HETATM    2  C   UNL     1     -13.189  15.686  72.113  1.00  0.00    -0.547 C  
ENDROOT
BRANCH   2   3
HETATM    3  C   UNL     1     -13.596  14.439  71.331  1.00  0.00    -0.431 C  
BRANCH   3   4
HETATM    4  C   UNL     1     -13.910  13.274  72.269  1.00  0.00    -0.637 C  
BRANCH   4   5
HETATM    5  C   UNL     1     -13.166  12.011  71.837  1.00  0.00    -0.469 C  
BRANCH   5   6
HETATM    6  C   UNL     1     -12.118  12.323  70.771  1.00  0.00    -0.259 C  
BRANCH   6   7
HETATM    7  C   UNL     1     -12.042  11.199  69.740  1.00  0.00    -0.414 C  
BRANCH   7   8
HETATM    8  C   UNL     1     -11.719  11.747  68.352  1.00  0.00    -0.389 C  
BRANCH   8   9
HETATM    9  C   UNL     1     -10.389  12.499  68.356  1.00  0.00    -0.237 C  
BRANCH   9  10
HETATM   10  C   UNL     1     -10.618  14.003  68.249  1.00  0.00    -0.253 C  
BRANCH  10  11
HETATM   11  C   UNL     1      -9.301  14.774  68.180  1.00  0.00    -0.197 C  
BRANCH  11  12
HETATM   12  C   UNL     1      -9.188  15.494  66.840  1.00  0.00    -0.257 C  
BRANCH  12  13
HETATM   13  C   UNL     1     -10.508  16.121  66.399  1.00  0.00    -0.304 C  
BRANCH  13  14
HETATM   14  C   UNL     1     -10.798  15.774  64.958  1.00  0.00    -0.443 C  
HETATM   15  O   UNL     1     -11.299  16.532  64.139  1.00  0.00    -1.060 OA 
BRANCH  14  16
HETATM   16  O   UNL     1     -10.421  14.489  64.704  1.00  0.00    -0.388 OA 
BRANCH  16  17
HETATM   17  C   UNL     1     -11.458  13.642  64.172  1.00  0.00    -0.329 C  
HETATM   18  C   UNL     1     -10.856  12.318  63.713  1.00  0.00    -0.495 C  
HETATM   19  C   UNL     1     -12.479  13.417  65.279  1.00  0.00    -0.532 C  
ENDBRANCH  16  17
ENDBRANCH  14  16
ENDBRANCH  13  14
ENDBRANCH  12  13
ENDBRANCH  11  12
ENDBRANCH  10  11
ENDBRANCH   9  10
ENDBRANCH   8   9
ENDBRANCH   7   8
ENDBRANCH   6   7
ENDBRANCH   5   6
ENDBRANCH   4   5
ENDBRANCH   3   4
ENDBRANCH   2   3
TORSDOF 14
ENDMDL
MODEL        4
REMARK 921   NORMALIZED FREE ENERGY PREDICTED BY IDOCK:   -4.43 KCAL/MOL
REMARK 922        TOTAL FREE ENERGY PREDICTED BY IDOCK:   -9.62 KCAL/MOL
REMARK 923 INTER-LIGAND FREE ENERGY PREDICTED BY IDOCK:   -8.14 KCAL/MOL
REMARK 924 INTRA-LIGAND FREE ENERGY PREDICTED BY IDOCK:   -1.48 KCAL/MOL
REMARK 927      BINDING AFFINITY PREDICTED BY RF-SCORE:    0.00 PKD
ROOT
HETATM    1  C   UNL     1     -10.929  10.001  70.260  1.00  0.00    -0.377 C  
HETATM    2  C   UNL     1     -11.804   9.685  71.462  1.00  0.00    -0.483 C  
ENDROOT
BRANCH   2   3
HETATM    3  C   UNL     1     -13.075  10.530  71.458  1.00  0.00    -0.532 C  
BRANCH   3   4
HETATM    4  C   UNL     1     -12.755  12.012  71.270  1.00  0.00    -0.382 C  
BRANCH   4   5
HETATM    5  C   UNL     1     -13.571  12.873  72.233  1.00  0.00    -0.611 C  
BRANCH   5   6
HETATM    6  C   UNL     1     -13.448  14.356  71.892  1.00  0.00    -0.479 C  
BRANCH   6   7
HETATM    7  C   UNL     1     -12.058  14.881  72.250  1.00  0.00    -0.407 C  
BRANCH   7   8
HETATM    8  C   UNL     1     -11.521  15.802  71.158  1.00  0.00    -0.466 C  
BRANCH   8   9
HETATM    9  C   UNL     1     -12.082  15.416  69.791  1.00  0.00    -0.373 C  
BRANCH   9  10
HETATM   10  C   UNL     1     -11.127  14.478  69.060  1.00  0.00    -0.279 C  
BRANCH  10  11
HETATM   11  C   UNL     1     -11.854  13.621  68.025  1.00  0.00    -0.397 C  
BRANCH  11  12
HETATM   12  C   UNL     1     -11.543  14.124  66.619  1.00  0.00    -0.399 C  
BRANCH  12  13
HETATM   13  C   UNL     1     -12.678  13.853  65.635  1.00  0.00    -0.534 C  
BRANCH  13  14
HETATM   14  C   UNL     1     -12.198  12.966  64.512  1.00  0.00    -0.426 C  
HETATM   15  O   UNL     1     -12.855  12.661  63.526  1.00  0.00    -0.712 OA 
BRANCH  14  16
HETATM   16  O   UNL     1     -10.923  12.551  64.758  1.00  0.00    -0.284 OA 
BRANCH  16  17
HETATM   17  C   UNL     1     -10.707  11.132  64.635  1.00  0.00    -0.280 C  
HETATM   18  C   UNL     1      -9.855  10.846  63.404  1.00  0.00    -0.408 C  
HETATM   19  C   UNL     1     -10.003  10.665  65.902  1.00  0.00    -0.312 C  
ENDBRANCH  16  17
ENDBRANCH  14  16
ENDBRANCH  13  14
ENDBRANCH  12  13
ENDBRANCH  11  12
ENDBRANCH  10  11
ENDBRANCH   9  10
ENDBRANCH   8   9
ENDBRANCH   7   8
ENDBRANCH   6   7
ENDBRANCH   5   6
ENDBRANCH   4   5
ENDBRANCH   3   4
ENDBRANCH   2   3
TORSDOF 14
ENDMDL
MODEL        5
REMARK 921   NORMALIZED FREE ENERGY PREDICTED BY IDOCK:   -4.40 KCAL/MOL
REMARK 922        TOTAL FREE ENERGY PREDICTED BY IDOCK:   -9.56 KCAL/MOL
REMARK 923 INTER-LIGAND FREE ENERGY PREDICTED BY IDOCK:   -7.73 KCAL/MOL
REMARK 924 INTRA-LIGAND FREE ENERGY PREDICTED BY IDOCK:   -1.83 KCAL/MOL
REMARK 927      BINDING AFFINITY PREDICTED BY RF-SCORE:    0.00 PKD
ROOT
HETATM    1  C   UNL     1     -14.079  13.794  72.246  1.00  0.00    -0.627 C  
HETATM    2  C   UNL     1     -14.061  15.312  72.323  1.00  0.00    -0.651 C  
ENDROOT
BRANCH   2   3
HETATM    3  C   UNL     1     -12.650  15.835  72.580  1.00  0.00    -0.541 C  
BRANCH   3   4
HETATM    4  C   UNL     1     -11.636  15.177  71.645  1.00  0.00    -0.463 C  
BRANCH   4   5
HETATM    5  C   UNL     1     -11.243  16.126  70.513  1.00  0.00    -0.381 C  
BRANCH   5   6
HETATM    6  C   UNL     1     -11.671  15.575  69.155  1.00  0.00    -0.380 C  
BRANCH   6   7
HETATM    7  C   UNL     1     -12.181  14.141  69.287  1.00  0.00    -0.308 C  
BRANCH   7   8
HETATM    8  C   UNL     1     -11.681  13.272  68.136  1.00  0.00    -0.397 C  
BRANCH   8   9
HETATM    9  C   UNL     1     -11.493  11.823  68.586  1.00  0.00    -0.346 C  
BRANCH   9  10
HETATM   10  C   UNL     1     -11.875  11.660  70.053  1.00  0.00    -0.435 C  
BRANCH  10  11
HETATM   11  C   UNL     1     -12.846  10.498  70.260  1.00  0.00    -0.192 C  
BRANCH  11  12
HETATM   12  C   UNL     1     -13.063  10.260  71.751  1.00  0.00    -0.570 C  
BRANCH  12  13
HETATM   13  C   UNL     1     -13.550   8.845  72.053  1.00  0.00    -0.489 C  
BRANCH  13  14
HETATM   14  C   UNL     1     -12.397   7.871  72.003  1.00  0.00    -0.308 C  
HETATM   15  O   UNL     1     -12.421   6.780  71.450  1.00  0.00    -0.359 OA 
BRANCH  14  16
HETATM   16  O   UNL     1     -11.324   8.385  72.669  1.00  0.00    -0.372 OA 
BRANCH  16  17
HETATM   17  C   UNL     1     -10.038   7.962  72.176  1.00  0.00    -0.220 C  
HETATM   18  C   UNL     1      -9.547   8.942  71.115  1.00  0.00    -0.342 C  
HETATM   19  C   UNL     1      -9.084   7.924  73.361  1.00  0.00    -0.347 C  
ENDBRANCH  16  17
ENDBRANCH  14  16
ENDBRANCH  13  14
ENDBRANCH  12  13
ENDBRANCH  11  12
ENDBRANCH  10  11
ENDBRANCH   9  10
ENDBRANCH   8   9
ENDBRANCH   7   8
ENDBRANCH   6   7
ENDBRANCH   5   6
ENDBRANCH   4   5
ENDBRANCH   3   4
ENDBRANCH   2   3
TORSDOF 14
ENDMDL
MODEL        6
REMARK 921   NORMALIZED FREE ENERGY PREDICTED BY IDOCK:   -4.39 KCAL/MOL
REMARK 922        TOTAL FREE ENERGY PREDICTED BY IDOCK:   -9.55 KCAL/MOL
REMARK 923 INTER-LIGAND FREE ENERGY PREDICTED BY IDOCK:   -8.17 KCAL/MOL
REMARK 924 INTRA-LIGAND FREE ENERGY PREDICTED BY IDOCK:   -1.39 KCAL/MOL
REMARK 927      BINDING AFFINITY PREDICTED BY RF-SCORE:    0.00 PKD
ROOT
HETATM    1  C   UNL     1     -11.353  11.086  68.158  1.00  0.00    -0.374 C  
HETATM    2  C   UNL     1     -11.786  10.790  69.585  1.00  0.00    -0.395 C  
ENDROOT
BRANCH   2   3
HETATM    3  C   UNL     1     -12.188  12.068  70.317  1.00  0.00    -0.348 C  
BRANCH   3   4
HETATM    4  C   UNL     1     -12.870  11.752  71.648  1.00  0.00    -0.433 C  
BRANCH   4   5
HETATM    5  C   UNL     1     -13.590  12.983  72.196  1.00  0.00    -0.618 C  
BRANCH   5   6
HETATM    6  C   UNL     1     -13.395  14.192  71.283  1.00  0.00    -0.370 C  
BRANCH   6   7
HETATM    7  C   UNL     1     -13.254  15.473  72.102  1.00  0.00    -0.541 C  
BRANCH   7   8
HETATM    8  C   UNL     1     -11.965  16.212  71.751  1.00  0.00    -0.560 C  
BRANCH   8   9
HETATM    9  C   UNL     1     -11.082  15.365  70.836  1.00  0.00    -0.374 C  
BRANCH   9  10
HETATM   10  C   UNL     1     -10.749  16.123  69.555  1.00  0.00    -0.313 C  
BRANCH  10  11
HETATM   11  C   UNL     1      -9.633  15.440  68.765  1.00  0.00    -0.209 C  
BRANCH  11  12
HETATM   12  C   UNL     1     -10.123  15.093  67.363  1.00  0.00    -0.229 C  
BRANCH  12  13
HETATM   13  C   UNL     1     -10.502  16.329  66.552  1.00  0.00    -0.290 C  
BRANCH  13  14
HETATM   14  C   UNL     1     -10.855  15.939  65.136  1.00  0.00    -0.421 C  
HETATM   15  O   UNL     1     -11.165  16.722  64.248  1.00  0.00    -1.163 OA 
BRANCH  14  16
HETATM   16  O   UNL     1     -10.779  14.586  64.993  1.00  0.00    -0.375 OA 
BRANCH  16  17
HETATM   17  C   UNL     1     -11.923  13.972  64.368  1.00  0.00    -0.454 C  
HETATM   18  C   UNL     1     -11.608  12.518  64.034  1.00  0.00    -0.485 C  
HETATM   19  C   UNL     1     -13.084  14.063  65.349  1.00  0.00    -0.215 C  
ENDBRANCH  16  17
ENDBRANCH  14  16
ENDBRANCH  13  14
ENDBRANCH  12  13
ENDBRANCH  11  12
ENDBRANCH  10  11
ENDBRANCH   9  10
ENDBRANCH   8   9
ENDBRANCH   7   8
ENDBRANCH   6   7
ENDBRANCH   5   6
ENDBRANCH   4   5
ENDBRANCH   3   4
ENDBRANCH   2   3
TORSDOF 14
ENDMDL
MODEL        7
REMARK 921   NORMALIZED FREE ENERGY PREDICTED BY IDOCK:   -4.39 KCAL/MOL
REMARK 922        TOTAL FREE ENERGY PREDICTED BY IDOCK:   -9.54 KCAL/MOL
REMARK 923 INTER-LIGAND FREE ENERGY PREDICTED BY IDOCK:   -8.24 KCAL/MOL
REMARK 924 INTRA-LIGAND FREE ENERGY PREDICTED BY IDOCK:   -1.30 KCAL/MOL
REMARK 927      BINDING AFFINITY PREDICTED BY RF-SCORE:    0.00 PKD
ROOT
HETATM    1  C   UNL     1     -12.222  15.845  71.913  1.00  0.00    -0.558 C  
HETATM    2  C   UNL     1     -13.619  15.617  72.468  1.00  0.00    -0.642 C  
ENDROOT
BRANCH   2   3
HETATM    3  C   UNL     1     -14.181  14.272  72.012  1.00  0.00    -0.631 C  
BRANCH   3   4
HETATM    4  C   UNL     1     -13.064  13.319  71.590  1.00  0.00    -0.453 C  
BRANCH   4   5
HETATM    5  C   UNL     1     -13.395  11.882  71.989  1.00  0.00    -0.425 C  
BRANCH   5   6
HETATM    6  C   UNL     1     -12.684  10.878  71.083  1.00  0.00    -0.530 C  
BRANCH   6   7
HETATM    7  C   UNL     1     -11.904  11.597  69.984  1.00  0.00    -0.435 C  
BRANCH   7   8
HETATM    8  C   UNL     1     -10.694  10.777  69.542  1.00  0.00    -0.268 C  
BRANCH   8   9
HETATM    9  C   UNL     1     -10.086  11.346  68.261  1.00  0.00    -0.204 C  
BRANCH   9  10
HETATM   10  C   UNL     1     -10.940  10.984  67.051  1.00  0.00    -0.333 C  
BRANCH  10  11
HETATM   11  C   UNL     1     -10.124  10.988  65.759  1.00  0.00    -0.305 C  
BRANCH  11  12
HETATM   12  C   UNL     1     -10.940  11.605  64.629  1.00  0.00    -0.363 C  
BRANCH  12  13
HETATM   13  C   UNL     1     -10.696  13.105  64.481  1.00  0.00    -0.416 C  
BRANCH  13  14
HETATM   14  C   UNL     1     -12.010  13.843  64.375  1.00  0.00    -0.450 C  
HETATM   15  O   UNL     1     -12.713  13.887  63.374  1.00  0.00    -0.806 OA 
BRANCH  14  16
HETATM   16  O   UNL     1     -12.297  14.454  65.558  1.00  0.00    -0.392 OA 
BRANCH  16  17
HETATM   17  C   UNL     1     -11.160  14.712  66.406  1.00  0.00    -0.334 C  
HETATM   18  C   UNL     1     -10.551  16.064  66.051  1.00  0.00    -0.324 C  
HETATM   19  C   UNL     1     -11.652  14.701  67.847  1.00  0.00    -0.373 C  
ENDBRANCH  16  17
ENDBRANCH  14  16
ENDBRANCH  13  14
ENDBRANCH  12  13
ENDBRANCH  11  12
ENDBRANCH  10  11
ENDBRANCH   9  10
ENDBRANCH   8   9
ENDBRANCH   7   8
ENDBRANCH   6   7
ENDBRANCH   5   6
ENDBRANCH   4   5
ENDBRANCH   3   4
ENDBRANCH   2   3
TORSDOF 14
ENDMDL
MODEL        8
REMARK 921   NORMALIZED FREE ENERGY PREDICTED BY IDOCK:   -4.37 KCAL/MOL
REMARK 922        TOTAL FREE ENERGY PREDICTED BY IDOCK:   -9.52 KCAL/MOL
REMARK 923 INTER-LIGAND FREE ENERGY PREDICTED BY IDOCK:   -7.94 KCAL/MOL
REMARK 924 INTRA-LIGAND FREE ENERGY PREDICTED BY IDOCK:   -1.58 KCAL/MOL
REMARK 927      BINDING AFFINITY PREDICTED BY RF-SCORE:    0.00 PKD
ROOT
HETATM    1  C   UNL     1     -12.355  10.504  70.996  1.00  0.00    -0.503 C  
HETATM    2  C   UNL     1     -12.057  11.713  70.123  1.00  0.00    -0.414 C  
ENDROOT
BRANCH   2   3
HETATM    3  C   UNL     1     -11.428  11.294  68.796  1.00  0.00    -0.359 C  
BRANCH   3   4
HETATM    4  C   UNL     1     -11.644  12.358  67.721  1.00  0.00    -0.413 C  
BRANCH   4   5
HETATM    5  C   UNL     1     -11.401  11.781  66.327  1.00  0.00    -0.350 C  
BRANCH   5   6
HETATM    6  C   UNL     1     -12.268  12.477  65.280  1.00  0.00    -0.493 C  
BRANCH   6   7
HETATM    7  C   UNL     1     -12.474  13.948  65.637  1.00  0.00    -0.538 C  
BRANCH   7   8
HETATM    8  C   UNL     1     -11.723  14.859  64.670  1.00  0.00    -0.406 C  
BRANCH   8   9
HETATM    9  C   UNL     1     -10.271  15.045  65.108  1.00  0.00    -0.399 C  
BRANCH   9  10
HETATM   10  C   UNL     1     -10.155  16.180  66.121  1.00  0.00    -0.356 C  
BRANCH  10  11
HETATM   11  C   UNL     1      -9.782  15.665  67.510  1.00  0.00    -0.222 C  
BRANCH  11  12
HETATM   12  C   UNL     1     -10.809  16.135  68.534  1.00  0.00    -0.313 C  
BRANCH  12  13
HETATM   13  C   UNL     1     -10.591  15.512  69.911  1.00  0.00    -0.322 C  
BRANCH  13  14
HETATM   14  C   UNL     1     -11.881  15.514  70.697  1.00  0.00    -0.365 C  
HETATM   15  O   UNL     1     -12.968  15.871  70.264  1.00  0.00    -0.317 OA 
BRANCH  14  16
HETATM   16  O   UNL     1     -11.656  15.062  71.963  1.00  0.00    -0.395 OA 
BRANCH  16  17
HETATM   17  C   UNL     1     -12.819  15.016  72.812  1.00  0.00    -0.410 C  
HETATM   18  C   UNL     1     -13.481  13.646  72.703  1.00  0.00    -0.608 C  
HETATM   19  C   UNL     1     -12.356  15.282  74.238  1.00  0.00    -0.755 C  
ENDBRANCH  16  17
ENDBRANCH  14  16
ENDBRANCH  13  14
ENDBRANCH  12  13
ENDBRANCH  11  12
ENDBRANCH  10  11
ENDBRANCH   9  10
ENDBRANCH   8   9
ENDBRANCH   7   8
ENDBRANCH   6   7
ENDBRANCH   5   6
ENDBRANCH   4   5
ENDBRANCH   3   4
ENDBRANCH   2   3
TORSDOF 14
ENDMDL
MODEL        9
REMARK 921   NORMALIZED FREE ENERGY PREDICTED BY IDOCK:   -4.37 KCAL/MOL
REMARK 922        TOTAL FREE ENERGY PREDICTED BY IDOCK:   -9.51 KCAL/MOL
REMARK 923 INTER-LIGAND FREE ENERGY PREDICTED BY IDOCK:   -7.89 KCAL/MOL
REMARK 924 INTRA-LIGAND FREE ENERGY PREDICTED BY IDOCK:   -1.61 KCAL/MOL
REMARK 927      BINDING AFFINITY PREDICTED BY RF-SCORE:    0.00 PKD
ROOT
HETATM    1  C   UNL     1     -11.052  16.359  69.664  1.00  0.00    -0.306 C  
HETATM    2  C   UNL     1     -11.579  16.053  71.057  1.00  0.00    -0.472 C  
ENDROOT
BRANCH   2   3
HETATM    3  C   UNL     1     -12.992  15.476  70.999  1.00  0.00    -0.550 C  
BRANCH   3   4
HETATM    4  C   UNL     1     -13.536  15.201  72.400  1.00  0.00    -0.575 C  
BRANCH   4   5
HETATM    5  C   UNL     1     -13.868  13.720  72.575  1.00  0.00    -0.626 C  
BRANCH   5   6
HETATM    6  C   UNL     1     -13.062  12.854  71.608  1.00  0.00    -0.430 C  
BRANCH   6   7
HETATM    7  C   UNL     1     -13.222  11.373  71.945  1.00  0.00    -0.485 C  
BRANCH   7   8
HETATM    8  C   UNL     1     -13.035  10.504  70.704  1.00  0.00    -0.362 C  
BRANCH   8   9
HETATM    9  C   UNL     1     -11.552  10.301  70.396  1.00  0.00    -0.411 C  
BRANCH   9  10
HETATM   10  C   UNL     1     -11.265  10.569  68.922  1.00  0.00    -0.323 C  
BRANCH  10  11
HETATM   11  C   UNL     1     -10.847  12.018  68.680  1.00  0.00    -0.273 C  
BRANCH  11  12
HETATM   12  C   UNL     1     -12.024  12.815  68.126  1.00  0.00    -0.295 C  
BRANCH  12  13
HETATM   13  C   UNL     1     -11.582  13.947  67.202  1.00  0.00    -0.391 C  
BRANCH  13  14
HETATM   14  C   UNL     1     -11.916  13.614  65.767  1.00  0.00    -0.395 C  
HETATM   15  O   UNL     1     -13.027  13.709  65.264  1.00  0.00    -0.719 OA 
BRANCH  14  16
HETATM   16  O   UNL     1     -10.797  13.190  65.115  1.00  0.00    -0.288 OA 
BRANCH  16  17
HETATM   17  C   UNL     1     -10.738  11.773  64.861  1.00  0.00    -0.295 C  
HETATM   18  C   UNL     1     -10.769  11.519  63.357  1.00  0.00    -0.444 C  
HETATM   19  C   UNL     1      -9.444  11.252  65.471  1.00  0.00    -0.255 C  
ENDBRANCH  16  17
ENDBRANCH  14  16
ENDBRANCH  13  14
ENDBRANCH  12  13
ENDBRANCH  11  12
ENDBRANCH  10  11
ENDBRANCH   9  10
ENDBRANCH   8   9
ENDBRANCH   7   8
ENDBRANCH   6   7
ENDBRANCH   5   6
ENDBRANCH   4   5
ENDBRANCH   3   4
ENDBRANCH   2   3
TORSDOF 14
ENDMDL
MODEL       10
REMARK 921   NORMALIZED FREE ENERGY PREDICTED BY IDOCK:   -4.35 KCAL/MOL
REMARK 922        TOTAL FREE ENERGY PREDICTED BY IDOCK:   -9.48 KCAL/MOL
REMARK 923 INTER-LIGAND FREE ENERGY PREDICTED BY IDOCK:   -7.77 KCAL/MOL
REMARK 924 INTRA-LIGAND FREE ENERGY PREDICTED BY IDOCK:   -1.72 KCAL/MOL
REMARK 927      BINDING AFFINITY PREDICTED BY RF-SCORE:    0.00 PKD
ROOT
HETATM    1  C   UNL     1      -9.500  10.758  68.974  1.00  0.00    -0.179 C  
HETATM    2  C   UNL     1     -10.346  10.004  69.987  1.00  0.00    -0.323 C  
ENDROOT
BRANCH   2   3
HETATM    3  C   UNL     1     -11.754  10.588  70.076  1.00  0.00    -0.394 C  
BRANCH   3   4
HETATM    4  C   UNL     1     -12.345  10.401  71.472  1.00  0.00    -0.468 C  
BRANCH   4   5
HETATM    5  C   UNL     1     -13.257  11.571  71.839  1.00  0.00    -0.479 C  
BRANCH   5   6
HETATM    6  C   UNL     1     -12.706  12.891  71.306  1.00  0.00    -0.371 C  
BRANCH   6   7
HETATM    7  C   UNL     1     -13.382  14.077  71.991  1.00  0.00    -0.514 C  
BRANCH   7   8
HETATM    8  C   UNL     1     -13.118  15.375  71.232  1.00  0.00    -0.564 C  
BRANCH   8   9
HETATM    9  C   UNL     1     -11.658  15.803  71.373  1.00  0.00    -0.511 C  
BRANCH   9  10
HETATM   10  C   UNL     1     -11.041  16.075  70.005  1.00  0.00    -0.362 C  
BRANCH  10  11
HETATM   11  C   UNL     1     -11.938  15.582  68.870  1.00  0.00    -0.306 C  
BRANCH  11  12
HETATM   12  C   UNL     1     -11.152  14.655  67.950  1.00  0.00    -0.301 C  
BRANCH  12  13
HETATM   13  C   UNL     1     -11.899  13.357  67.649  1.00  0.00    -0.394 C  
BRANCH  13  14
HETATM   14  C   UNL     1     -12.369  13.344  66.214  1.00  0.00    -0.349 C  
HETATM   15  O   UNL     1     -12.965  14.259  65.661  1.00  0.00    -0.535 OA 
BRANCH  14  16
HETATM   16  O   UNL     1     -12.036  12.162  65.625  1.00  0.00    -0.545 OA 
BRANCH  16  17
HETATM   17  C   UNL     1     -10.744  12.138  64.987  1.00  0.00    -0.297 C  
HETATM   18  C   UNL     1     -10.044  10.819  65.293  1.00  0.00    -0.353 C  
HETATM   19  C   UNL     1     -10.970  12.297  63.490  1.00  0.00    -0.521 C  
ENDBRANCH  16  17
ENDBRANCH  14  16
ENDBRANCH  13  14
ENDBRANCH  12  13
ENDBRANCH  11  12
ENDBRANCH  10  11
ENDBRANCH   9  10
ENDBRANCH   8   9
ENDBRANCH   7   8
ENDBRANCH   6   7
ENDBRANCH   5   6
ENDBRANCH   4   5
ENDBRANCH   3   4
ENDBRANCH   2   3
TORSDOF 14
ENDMDL
MODEL       11
REMARK 921   NORMALIZED FREE ENERGY PREDICTED BY IDOCK:   -4.34 KCAL/MOL
REMARK 922        TOTAL FREE ENERGY PREDICTED BY IDOCK:   -9.46 KCAL/MOL
REMARK 923 INTER-LIGAND FREE ENERGY PREDICTED BY IDOCK:   -8.01 KCAL/MOL
REMARK 924 INTRA-LIGAND FREE ENERGY PREDICTED BY IDOCK:   -1.45 KCAL/MOL
REMARK 927      BINDING AFFINITY PREDICTED BY RF-SCORE:    0.00 PKD
ROOT
HETATM    1  C   UNL     1     -10.542   7.604  73.019  1.00  0.00    -0.433 C  
HETATM    2  C   UNL     1     -11.152   8.646  72.096  1.00  0.00    -0.434 C  
ENDROOT
BRANCH   2   3
HETATM    3  C   UNL     1     -12.673   8.679  72.228  1.00  0.00    -0.450 C  
BRANCH   3   4
HETATM    4  C   UNL     1     -13.264   9.902  71.527  1.00  0.00    -0.501 C  
BRANCH   4   5
HETATM    5  C   UNL     1     -12.172  10.709  70.827  1.00  0.00    -0.474 C  
BRANCH   5   6
HETATM    6  C   UNL     1     -12.399  12.210  70.995  1.00  0.00    -0.331 C  
BRANCH   6   7
HETATM    7  C   UNL     1     -13.415  12.484  72.102  1.00  0.00    -0.523 C  
BRANCH   7   8
HETATM    8  C   UNL     1     -13.787  13.964  72.153  1.00  0.00    -0.636 C  
BRANCH   8   9
HETATM    9  C   UNL     1     -13.014  14.685  73.256  1.00  0.00    -0.569 C  
BRANCH   9  10
HETATM   10  C   UNL     1     -11.672  15.187  72.734  1.00  0.00    -0.442 C  
BRANCH  10  11
HETATM   11  C   UNL     1     -11.845  16.200  71.604  1.00  0.00    -0.557 C  
BRANCH  11  12
HETATM   12  C   UNL     1     -11.083  15.736  70.367  1.00  0.00    -0.380 C  
BRANCH  12  13
HETATM   13  C   UNL     1     -12.006  15.432  69.189  1.00  0.00    -0.324 C  
BRANCH  13  14
HETATM   14  C   UNL     1     -11.316  15.754  67.885  1.00  0.00    -0.277 C  
HETATM   15  O   UNL     1     -10.557  16.697  67.705  1.00  0.00    -0.325 OA 
BRANCH  14  16
HETATM   16  O   UNL     1     -11.664  14.840  66.936  1.00  0.00    -0.364 OA 
BRANCH  16  17
HETATM   17  C   UNL     1     -10.751  13.736  66.785  1.00  0.00    -0.276 C  
HETATM   18  C   UNL     1     -11.343  12.487  67.430  1.00  0.00    -0.371 C  
HETATM   19  C   UNL     1     -10.531  13.524  65.294  1.00  0.00    -0.345 C  
ENDBRANCH  16  17
ENDBRANCH  14  16
ENDBRANCH  13  14
ENDBRANCH  12  13
ENDBRANCH  11  12
ENDBRANCH  10  11
ENDBRANCH   9  10
ENDBRANCH   8   9
ENDBRANCH   7   8
ENDBRANCH   6   7
ENDBRANCH   5   6
ENDBRANCH   4   5
ENDBRANCH   3   4
ENDBRANCH   2   3
TORSDOF 14
ENDMDL
MODEL       12
REMARK 921   NORMALIZED FREE ENERGY PREDICTED BY IDOCK:   -4.33 KCAL/MOL
REMARK 922        TOTAL FREE ENERGY PREDICTED BY IDOCK:   -9.44 KCAL/MOL
REMARK 923 INTER-LIGAND FREE ENERGY PREDICTED BY IDOCK:   -7.42 KCAL/MOL
REMARK 924 INTRA-LIGAND FREE ENERGY PREDICTED BY IDOCK:   -2.02 KCAL/MOL
REMARK 927      BINDING AFFINITY PREDICTED BY RF-SCORE:    0.00 PKD
ROOT
HETATM    1  C   UNL     1     -13.102  11.384  71.743  1.00  0.00    -0.523 C  
HETATM    2  C   UNL     1     -12.218  10.474  70.906  1.00  0.00    -0.490 C  
ENDROOT
BRANCH   2   3
HETATM    3  C   UNL     1     -12.151  10.950  69.457  1.00  0.00    -0.380 C  
BRANCH   3   4
HETATM    4  C   UNL     1     -10.857  10.495  68.783  1.00  0.00    -0.269 C  
BRANCH   4   5
HETATM    5  C   UNL     1     -10.927  10.705  67.271  1.00  0.00    -0.348 C  
BRANCH   5   6
HETATM    6  C   UNL     1      -9.598  11.221  66.722  1.00  0.00    -0.214 C  
BRANCH   6   7
HETATM    7  C   UNL     1      -9.753  11.683  65.274  1.00  0.00    -0.255 C  
BRANCH   7   8
HETATM    8  C   UNL     1     -11.223  11.724  64.864  1.00  0.00    -0.328 C  
BRANCH   8   9
HETATM    9  C   UNL     1     -11.660  13.151  64.535  1.00  0.00    -0.406 C  
BRANCH   9  10
HETATM   10  C   UNL     1     -12.472  13.745  65.681  1.00  0.00    -0.541 C  
BRANCH  10  11
HETATM   11  C   UNL     1     -11.591  14.525  66.656  1.00  0.00    -0.385 C  
BRANCH  11  12
HETATM   12  C   UNL     1     -12.017  14.234  68.091  1.00  0.00    -0.343 C  
BRANCH  12  13
HETATM   13  C   UNL     1     -10.850  14.300  69.074  1.00  0.00    -0.274 C  
BRANCH  13  14
HETATM   14  C   UNL     1     -11.094  15.376  70.105  1.00  0.00    -0.307 C  
HETATM   15  O   UNL     1     -10.788  16.554  69.978  1.00  0.00    -0.344 OA 
BRANCH  14  16
HETATM   16  O   UNL     1     -11.704  14.842  71.200  1.00  0.00    -0.307 OA 
BRANCH  16  17
HETATM   17  C   UNL     1     -12.685  15.690  71.828  1.00  0.00    -0.451 C  
HETATM   18  C   UNL     1     -14.077  15.101  71.627  1.00  0.00    -0.645 C  
HETATM   19  C   UNL     1     -12.340  15.770  73.309  1.00  0.00    -0.611 C  
ENDBRANCH  16  17
ENDBRANCH  14  16
ENDBRANCH  13  14
ENDBRANCH  12  13
ENDBRANCH  11  12
ENDBRANCH  10  11
ENDBRANCH   9  10
ENDBRANCH   8   9
ENDBRANCH   7   8
ENDBRANCH   6   7
ENDBRANCH   5   6
ENDBRANCH   4   5
ENDBRANCH   3   4
ENDBRANCH   2   3
TORSDOF 14
ENDMDL
MODEL       13
REMARK 921   NORMALIZED FREE ENERGY PREDICTED BY IDOCK:   -4.30 KCAL/MOL
REMARK 922        TOTAL FREE ENERGY PREDICTED BY IDOCK:   -9.39 KCAL/MOL
REMARK 923 INTER-LIGAND FREE ENERGY PREDICTED BY IDOCK:   -7.02 KCAL/MOL
REMARK 924 INTRA-LIGAND FREE ENERGY PREDICTED BY IDOCK:   -2.36 KCAL/MOL
REMARK 927      BINDING AFFINITY PREDICTED BY RF-SCORE:    0.00 PKD
ROOT
HETATM    1  C   UNL     1     -10.867  19.310  67.284  1.00  0.00    -0.554 C  
HETATM    2  C   UNL     1     -10.021  19.823  66.130  1.00  0.00    -0.573 C  
ENDROOT
BRANCH   2   3
HETATM    3  C   UNL     1      -8.531  19.668  66.425  1.00  0.00    -0.382 C  
BRANCH   3   4
HETATM    4  C   UNL     1      -8.286  19.377  67.905  1.00  0.00    -0.343 C  
BRANCH   4   5
HETATM    5  C   UNL     1      -7.447  18.112  68.080  1.00  0.00    -0.262 C  
BRANCH   5   6
HETATM    6  C   UNL     1      -7.452  17.264  66.810  1.00  0.00    -0.258 C  
BRANCH   6   7
HETATM    7  C   UNL     1      -7.511  15.776  67.152  1.00  0.00    -0.259 C  
BRANCH   7   8
HETATM    8  C   UNL     1      -8.728  15.113  66.514  1.00  0.00    -0.280 C  
BRANCH   8   9
HETATM    9  C   UNL     1      -9.599  16.143  65.795  1.00  0.00    -0.292 C  
BRANCH   9  10
HETATM   10  C   UNL     1     -10.905  15.512  65.324  1.00  0.00    -0.425 C  
BRANCH  10  11
HETATM   11  C   UNL     1     -10.685  14.110  64.757  1.00  0.00    -0.436 C  
BRANCH  11  12
HETATM   12  C   UNL     1     -11.618  13.118  65.443  1.00  0.00    -0.362 C  
BRANCH  12  13
HETATM   13  C   UNL     1     -12.284  13.704  66.686  1.00  0.00    -0.437 C  
BRANCH  13  14
HETATM   14  C   UNL     1     -11.835  12.960  67.921  1.00  0.00    -0.339 C  
HETATM   15  O   UNL     1     -12.053  11.778  68.149  1.00  0.00    -0.556 OA 
BRANCH  14  16
HETATM   16  O   UNL     1     -11.151  13.801  68.747  1.00  0.00    -0.246 OA 
BRANCH  16  17
HETATM   17  C   UNL     1     -11.846  15.014  69.098  1.00  0.00    -0.308 C  
HETATM   18  C   UNL     1     -12.656  14.792  70.370  1.00  0.00    -0.399 C  
HETATM   19  C   UNL     1     -10.797  16.098  69.305  1.00  0.00    -0.310 C  
ENDBRANCH  16  17
ENDBRANCH  14  16
ENDBRANCH  13  14
ENDBRANCH  12  13
ENDBRANCH  11  12
ENDBRANCH  10  11
ENDBRANCH   9  10
ENDBRANCH   8   9
ENDBRANCH   7   8
ENDBRANCH   6   7
ENDBRANCH   5   6
ENDBRANCH   4   5
ENDBRANCH   3   4
ENDBRANCH   2   3
TORSDOF 14
ENDMDL
MODEL       14
REMARK 921   NORMALIZED FREE ENERGY PREDICTED BY IDOCK:   -4.28 KCAL/MOL
REMARK 922        TOTAL FREE ENERGY PREDICTED BY IDOCK:   -9.35 KCAL/MOL
REMARK 923 INTER-LIGAND FREE ENERGY PREDICTED BY IDOCK:   -7.72 KCAL/MOL
REMARK 924 INTRA-LIGAND FREE ENERGY PREDICTED BY IDOCK:   -1.64 KCAL/MOL
REMARK 927      BINDING AFFINITY PREDICTED BY RF-SCORE:    0.00 PKD
ROOT
HETATM    1  C   UNL     1     -14.184  15.019  72.178  1.00  0.00    -0.636 C  
HETATM    2  C   UNL     1     -13.751  13.562  72.209  1.00  0.00    -0.700 C  
ENDROOT
BRANCH   2   3
HETATM    3  C   UNL     1     -12.567  13.317  71.277  1.00  0.00    -0.398 C  
BRANCH   3   4
HETATM    4  C   UNL     1     -12.447  11.839  70.909  1.00  0.00    -0.416 C  
BRANCH   4   5
HETATM    5  C   UNL     1     -13.343  10.981  71.801  1.00  0.00    -0.400 C  
BRANCH   5   6
HETATM    6  C   UNL     1     -13.138   9.493  71.525  1.00  0.00    -0.470 C  
BRANCH   6   7
HETATM    7  C   UNL     1     -11.698   9.080  71.822  1.00  0.00    -0.440 C  
BRANCH   7   8
HETATM    8  C   UNL     1     -11.269   7.909  70.942  1.00  0.00    -0.284 C  
BRANCH   8   9
HETATM    9  C   UNL     1     -10.657   8.405  69.632  1.00  0.00    -0.219 C  
BRANCH   9  10
HETATM   10  C   UNL     1      -9.503   9.363  69.905  1.00  0.00    -0.235 C  
BRANCH  10  11
HETATM   11  C   UNL     1      -9.506  10.545  68.936  1.00  0.00    -0.199 C  
BRANCH  11  12
HETATM   12  C   UNL     1     -10.678  10.422  67.968  1.00  0.00    -0.292 C  
BRANCH  12  13
HETATM   13  C   UNL     1     -10.570  11.390  66.792  1.00  0.00    -0.298 C  
BRANCH  13  14
HETATM   14  C   UNL     1     -11.606  12.482  66.916  1.00  0.00    -0.370 C  
HETATM   15  O   UNL     1     -11.735  13.223  67.881  1.00  0.00    -0.317 OA 
BRANCH  14  16
HETATM   16  O   UNL     1     -12.380  12.521  65.795  1.00  0.00    -0.627 OA 
BRANCH  16  17
HETATM   17  C   UNL     1     -11.785  13.186  64.663  1.00  0.00    -0.361 C  
HETATM   18  C   UNL     1     -12.065  12.390  63.393  1.00  0.00    -0.620 C  
HETATM   19  C   UNL     1     -12.396  14.577  64.577  1.00  0.00    -0.434 C  
ENDBRANCH  16  17
ENDBRANCH  14  16
ENDBRANCH  13  14
ENDBRANCH  12  13
ENDBRANCH  11  12
ENDBRANCH  10  11
ENDBRANCH   9  10
ENDBRANCH   8   9
ENDBRANCH   7   8
ENDBRANCH   6   7
ENDBRANCH   5   6
ENDBRANCH   4   5
ENDBRANCH   3   4
ENDBRANCH   2   3
TORSDOF 14
ENDMDL
MODEL       15
REMARK 921   NORMALIZED FREE ENERGY PREDICTED BY IDOCK:   -4.27 KCAL/MOL
REMARK 922        TOTAL FREE ENERGY PREDICTED BY IDOCK:   -9.33 KCAL/MOL
REMARK 923 INTER-LIGAND FREE ENERGY PREDICTED BY IDOCK:   -7.49 KCAL/MOL
REMARK 924 INTRA-LIGAND FREE ENERGY PREDICTED BY IDOCK:   -1.84 KCAL/MOL
REMARK 927      BINDING AFFINITY PREDICTED BY RF-SCORE:    0.00 PKD
ROOT
HETATM    1  C   UNL     1     -10.605  15.958  65.547  1.00  0.00    -0.419 C  
HETATM    2  C   UNL     1     -11.021  14.828  64.620  1.00  0.00    -0.332 C  
ENDROOT
BRANCH   2   3
HETATM    3  C   UNL     1     -12.392  14.274  65.005  1.00  0.00    -0.434 C  
BRANCH   3   4
HETATM    4  C   UNL     1     -12.374  12.747  65.071  1.00  0.00    -0.559 C  
BRANCH   4   5
HETATM    5  C   UNL     1     -12.055  12.147  63.703  1.00  0.00    -0.648 C  
BRANCH   5   6
HETATM    6  C   UNL     1     -10.802  11.274  63.760  1.00  0.00    -0.424 C  
BRANCH   6   7
HETATM    7  C   UNL     1     -10.068  11.465  65.086  1.00  0.00    -0.319 C  
BRANCH   7   8
HETATM    8  C   UNL     1      -9.937  10.143  65.837  1.00  0.00    -0.334 C  
BRANCH   8   9
HETATM    9  C   UNL     1      -9.874  10.374  67.346  1.00  0.00    -0.210 C  
BRANCH   9  10
HETATM   10  C   UNL     1     -11.276  10.490  67.933  1.00  0.00    -0.358 C  
BRANCH  10  11
HETATM   11  C   UNL     1     -11.324  11.479  69.097  1.00  0.00    -0.351 C  
BRANCH  11  12
HETATM   12  C   UNL     1     -11.813  12.838  68.607  1.00  0.00    -0.341 C  
BRANCH  12  13
HETATM   13  C   UNL     1     -10.766  13.935  68.783  1.00  0.00    -0.278 C  
BRANCH  13  14
HETATM   14  C   UNL     1     -11.395  15.166  69.393  1.00  0.00    -0.294 C  
HETATM   15  O   UNL     1     -11.846  16.111  68.761  1.00  0.00    -0.339 OA 
BRANCH  14  16
HETATM   16  O   UNL     1     -11.383  15.070  70.752  1.00  0.00    -0.279 OA 
BRANCH  16  17
HETATM   17  C   UNL     1     -12.490  15.708  71.420  1.00  0.00    -0.439 C  
HETATM   18  C   UNL     1     -13.682  14.758  71.463  1.00  0.00    -0.511 C  
HETATM   19  C   UNL     1     -12.031  16.065  72.827  1.00  0.00    -0.623 C  
ENDBRANCH  16  17
ENDBRANCH  14  16
ENDBRANCH  13  14
ENDBRANCH  12  13
ENDBRANCH  11  12
ENDBRANCH  10  11
ENDBRANCH   9  10
ENDBRANCH   8   9
ENDBRANCH   7   8
ENDBRANCH   6   7
ENDBRANCH   5   6
ENDBRANCH   4   5
ENDBRANCH   3   4
ENDBRANCH   2   3
TORSDOF 14
ENDMDL
MODEL       16
REMARK 921   NORMALIZED FREE ENERGY PREDICTED BY IDOCK:   -4.27 KCAL/MOL
REMARK 922        TOTAL FREE ENERGY PREDICTED BY IDOCK:   -9.33 KCAL/MOL
REMARK 923 INTER-LIGAND FREE ENERGY PREDICTED BY IDOCK:   -7.75 KCAL/MOL
REMARK 924 INTRA-LIGAND FREE ENERGY PREDICTED BY IDOCK:   -1.57 KCAL/MOL
REMARK 927      BINDING AFFINITY PREDICTED BY RF-SCORE:    0.00 PKD
ROOT
HETATM    1  C   UNL     1     -12.487  15.654  73.288  1.00  0.00    -0.612 C  
HETATM    2  C   UNL     1     -13.808  15.655  72.536  1.00  0.00    -0.642 C  
ENDROOT
BRANCH   2   3
HETATM    3  C   UNL     1     -13.877  14.500  71.539  1.00  0.00    -0.477 C  
BRANCH   3   4
HETATM    4  C   UNL     1     -13.804  13.149  72.250  1.00  0.00    -0.586 C  
BRANCH   4   5
HETATM    5  C   UNL     1     -12.933  12.168  71.468  1.00  0.00    -0.398 C  
BRANCH   5   6
HETATM    6  C   UNL     1     -12.123  12.884  70.390  1.00  0.00    -0.385 C  
BRANCH   6   7
HETATM    7  C   UNL     1     -11.532  11.882  69.400  1.00  0.00    -0.366 C  
BRANCH   7   8
HETATM    8  C   UNL     1     -11.700  12.366  67.962  1.00  0.00    -0.414 C  
BRANCH   8   9
HETATM    9  C   UNL     1     -11.126  11.352  66.973  1.00  0.00    -0.364 C  
BRANCH   9  10
HETATM   10  C   UNL     1      -9.989  11.969  66.166  1.00  0.00    -0.254 C  
BRANCH  10  11
HETATM   11  C   UNL     1     -10.458  12.434  64.788  1.00  0.00    -0.333 C  
BRANCH  11  12
HETATM   12  C   UNL     1     -10.691  13.941  64.798  1.00  0.00    -0.437 C  
BRANCH  12  13
HETATM   13  C   UNL     1      -9.713  14.679  65.708  1.00  0.00    -0.331 C  
BRANCH  13  14
HETATM   14  C   UNL     1     -10.157  16.109  65.904  1.00  0.00    -0.354 C  
HETATM   15  O   UNL     1     -10.576  16.843  65.020  1.00  0.00    -0.700 OA 
BRANCH  14  16
HETATM   16  O   UNL     1     -10.020  16.464  67.213  1.00  0.00    -0.248 OA 
BRANCH  16  17
HETATM   17  C   UNL     1     -10.444  15.468  68.164  1.00  0.00    -0.259 C  
HETATM   18  C   UNL     1      -9.370  15.288  69.232  1.00  0.00    -0.239 C  
HETATM   19  C   UNL     1     -11.748  15.951  68.783  1.00  0.00    -0.355 C  
ENDBRANCH  16  17
ENDBRANCH  14  16
ENDBRANCH  13  14
ENDBRANCH  12  13
ENDBRANCH  11  12
ENDBRANCH  10  11
ENDBRANCH   9  10
ENDBRANCH   8   9
ENDBRANCH   7   8
ENDBRANCH   6   7
ENDBRANCH   5   6
ENDBRANCH   4   5
ENDBRANCH   3   4
ENDBRANCH   2   3
TORSDOF 14
ENDMDL
MODEL       17
REMARK 921   NORMALIZED FREE ENERGY PREDICTED BY IDOCK:   -4.27 KCAL/MOL
REMARK 922        TOTAL FREE ENERGY PREDICTED BY IDOCK:   -9.33 KCAL/MOL
REMARK 923 INTER-LIGAND FREE ENERGY PREDICTED BY IDOCK:   -7.56 KCAL/MOL
REMARK 924 INTRA-LIGAND FREE ENERGY PREDICTED BY IDOCK:   -1.77 KCAL/MOL
REMARK 927      BINDING AFFINITY PREDICTED BY RF-SCORE:    0.00 PKD
ROOT
HETATM    1  C   UNL     1     -11.586  10.000  70.940  1.00  0.00    -0.463 C  
HETATM    2  C   UNL     1     -12.405  11.264  70.740  1.00  0.00    -0.495 C  
ENDROOT
BRANCH   2   3
HETATM    3  C   UNL     1     -11.825  12.128  69.623  1.00  0.00    -0.391 C  
BRANCH   3   4
HETATM    4  C   UNL     1     -10.734  11.382  68.856  1.00  0.00    -0.248 C  
BRANCH   4   5
HETATM    5  C   UNL     1     -11.148  11.155  67.402  1.00  0.00    -0.370 C  
BRANCH   5   6
HETATM    6  C   UNL     1      -9.939  11.198  66.469  1.00  0.00    -0.252 C  
BRANCH   6   7
HETATM    7  C   UNL     1     -10.258  10.518  65.139  1.00  0.00    -0.358 C  
BRANCH   7   8
HETATM    8  C   UNL     1     -10.314  11.535  64.002  1.00  0.00    -0.406 C  
BRANCH   8   9
HETATM    9  C   UNL     1     -11.761  11.866  63.635  1.00  0.00    -0.572 C  
BRANCH   9  10
HETATM   10  C   UNL     1     -12.047  13.348  63.852  1.00  0.00    -0.514 C  
BRANCH  10  11
HETATM   11  C   UNL     1     -12.652  13.613  65.230  1.00  0.00    -0.512 C  
BRANCH  11  12
HETATM   12  C   UNL     1     -11.685  14.437  66.074  1.00  0.00    -0.378 C  
BRANCH  12  13
HETATM   13  C   UNL     1     -10.593  15.098  65.236  1.00  0.00    -0.432 C  
BRANCH  13  14
HETATM   14  C   UNL     1      -9.966  16.240  66.000  1.00  0.00    -0.345 C  
HETATM   15  O   UNL     1      -8.892  16.761  65.729  1.00  0.00    -0.505 OA 
BRANCH  14  16
HETATM   16  O   UNL     1     -10.770  16.605  67.037  1.00  0.00    -0.278 OA 
BRANCH  16  17
HETATM   17  C   UNL     1     -10.084  16.891  68.272  1.00  0.00    -0.302 C  
HETATM   18  C   UNL     1     -10.106  18.393  68.535  1.00  0.00    -0.413 C  
HETATM   19  C   UNL     1     -10.803  16.136  69.381  1.00  0.00    -0.320 C  
ENDBRANCH  16  17
ENDBRANCH  14  16
ENDBRANCH  13  14
ENDBRANCH  12  13
ENDBRANCH  11  12
ENDBRANCH  10  11
ENDBRANCH   9  10
ENDBRANCH   8   9
ENDBRANCH   7   8
ENDBRANCH   6   7
ENDBRANCH   5   6
ENDBRANCH   4   5
ENDBRANCH   3   4
ENDBRANCH   2   3
TORSDOF 14
ENDMDL
MODEL       18
REMARK 921   NORMALIZED FREE ENERGY PREDICTED BY IDOCK:   -4.26 KCAL/MOL
REMARK 922        TOTAL FREE ENERGY PREDICTED BY IDOCK:   -9.31 KCAL/MOL
REMARK 923 INTER-LIGAND FREE ENERGY PREDICTED BY IDOCK:   -7.90 KCAL/MOL
REMARK 924 INTRA-LIGAND FREE ENERGY PREDICTED BY IDOCK:   -1.41 KCAL/MOL
REMARK 927      BINDING AFFINITY PREDICTED BY RF-SCORE:    0.00 PKD
ROOT
HETATM    1  C   UNL     1     -10.519  15.442  70.202  1.00  0.00    -0.291 C  
HETATM    2  C   UNL     1     -11.649  16.050  71.016  1.00  0.00    -0.472 C  
ENDROOT
BRANCH   2   3
HETATM    3  C   UNL     1     -12.974  15.346  70.734  1.00  0.00    -0.510 C  
BRANCH   3   4
HETATM    4  C   UNL     1     -13.816  15.220  72.003  1.00  0.00    -0.626 C  
BRANCH   4   5
HETATM    5  C   UNL     1     -13.941  13.758  72.431  1.00  0.00    -0.651 C  
BRANCH   5   6
HETATM    6  C   UNL     1     -13.005  12.862  71.622  1.00  0.00    -0.410 C  
BRANCH   6   7
HETATM    7  C   UNL     1     -13.276  11.388  71.918  1.00  0.00    -0.485 C  
BRANCH   7   8
HETATM    8  C   UNL     1     -12.924  10.513  70.718  1.00  0.00    -0.413 C  
BRANCH   8   9
HETATM    9  C   UNL     1     -11.429  10.583  70.409  1.00  0.00    -0.427 C  
BRANCH   9  10
HETATM   10  C   UNL     1     -11.197  10.812  68.919  1.00  0.00    -0.328 C  
BRANCH  10  11
HETATM   11  C   UNL     1     -11.450  12.266  68.521  1.00  0.00    -0.349 C  
BRANCH  11  12
HETATM   12  C   UNL     1     -11.568  12.379  67.005  1.00  0.00    -0.434 C  
BRANCH  12  13
HETATM   13  C   UNL     1     -12.003  13.771  66.553  1.00  0.00    -0.470 C  
BRANCH  13  14
HETATM   14  C   UNL     1     -10.846  14.498  65.910  1.00  0.00    -0.308 C  
HETATM   15  O   UNL     1     -10.494  14.368  64.745  1.00  0.00    -0.430 OA 
BRANCH  14  16
HETATM   16  O   UNL     1     -10.249  15.320  66.819  1.00  0.00    -0.262 OA 
BRANCH  16  17
HETATM   17  C   UNL     1      -9.797  16.584  66.296  1.00  0.00    -0.316 C  
HETATM   18  C   UNL     1     -10.318  17.719  67.172  1.00  0.00    -0.354 C  
HETATM   19  C   UNL     1      -8.275  16.559  66.290  1.00  0.00    -0.360 C  
ENDBRANCH  16  17
ENDBRANCH  14  16
ENDBRANCH  13  14
ENDBRANCH  12  13
ENDBRANCH  11  12
ENDBRANCH  10  11
ENDBRANCH   9  10
ENDBRANCH   8   9
ENDBRANCH   7   8
ENDBRANCH   6   7
ENDBRANCH   5   6
ENDBRANCH   4   5
ENDBRANCH   3   4
ENDBRANCH   2   3
TORSDOF 14
ENDMDL
MODEL       19
REMARK 921   NORMALIZED FREE ENERGY PREDICTED BY IDOCK:   -4.25 KCAL/MOL
REMARK 922        TOTAL FREE ENERGY PREDICTED BY IDOCK:   -9.29 KCAL/MOL
REMARK 923 INTER-LIGAND FREE ENERGY PREDICTED BY IDOCK:   -7.31 KCAL/MOL
REMARK 924 INTRA-LIGAND FREE ENERGY PREDICTED BY IDOCK:   -1.98 KCAL/MOL
REMARK 927      BINDING AFFINITY PREDICTED BY RF-SCORE:    0.00 PKD
ROOT
HETATM    1  C   UNL     1     -12.259  12.099  63.544  1.00  0.00    -0.670 C  
HETATM    2  C   UNL     1     -10.819  11.625  63.653  1.00  0.00    -0.503 C  
ENDROOT
BRANCH   2   3
HETATM    3  C   UNL     1     -10.521  11.080  65.049  1.00  0.00    -0.344 C  
BRANCH   3   4
HETATM    4  C   UNL     1      -9.168  11.576  65.559  1.00  0.00    -0.156 C  
BRANCH   4   5
HETATM    5  C   UNL     1      -9.109  11.520  67.085  1.00  0.00    -0.167 C  
BRANCH   5   6
HETATM    6  C   UNL     1     -10.019  10.424  67.636  1.00  0.00    -0.205 C  
BRANCH   6   7
HETATM    7  C   UNL     1     -10.577  10.819  69.002  1.00  0.00    -0.250 C  
BRANCH   7   8
HETATM    8  C   UNL     1     -11.872  11.615  68.858  1.00  0.00    -0.392 C  
BRANCH   8   9
HETATM    9  C   UNL     1     -11.740  12.994  69.502  1.00  0.00    -0.381 C  
BRANCH   9  10
HETATM   10  C   UNL     1     -11.751  14.089  68.440  1.00  0.00    -0.389 C  
BRANCH  10  11
HETATM   11  C   UNL     1     -12.179  13.552  67.075  1.00  0.00    -0.351 C  
BRANCH  11  12
HETATM   12  C   UNL     1     -11.806  14.548  65.982  1.00  0.00    -0.339 C  
BRANCH  12  13
HETATM   13  C   UNL     1     -10.644  15.453  66.386  1.00  0.00    -0.307 C  
BRANCH  13  14
HETATM   14  C   UNL     1     -10.442  16.538  65.355  1.00  0.00    -0.269 C  
HETATM   15  O   UNL     1     -10.868  16.506  64.208  1.00  0.00    -0.729 OA 
BRANCH  14  16
HETATM   16  O   UNL     1      -9.714  17.558  65.889  1.00  0.00    -0.513 OA 
BRANCH  16  17
HETATM   17  C   UNL     1     -10.421  18.384  66.835  1.00  0.00    -0.389 C  
HETATM   18  C   UNL     1      -9.723  18.326  68.190  1.00  0.00    -0.341 C  
HETATM   19  C   UNL     1     -10.425  19.805  66.289  1.00  0.00    -0.614 C  
ENDBRANCH  16  17
ENDBRANCH  14  16
ENDBRANCH  13  14
ENDBRANCH  12  13
ENDBRANCH  11  12
ENDBRANCH  10  11
ENDBRANCH   9  10
ENDBRANCH   8   9
ENDBRANCH   7   8
ENDBRANCH   6   7
ENDBRANCH   5   6
ENDBRANCH   4   5
ENDBRANCH   3   4
ENDBRANCH   2   3
TORSDOF 14
ENDMDL
MODEL       20
REMARK 921   NORMALIZED FREE ENERGY PREDICTED BY IDOCK:   -4.24 KCAL/MOL
REMARK 922        TOTAL FREE ENERGY PREDICTED BY IDOCK:   -9.29 KCAL/MOL
REMARK 923 INTER-LIGAND FREE ENERGY PREDICTED BY IDOCK:   -7.31 KCAL/MOL
REMARK 924 INTRA-LIGAND FREE ENERGY PREDICTED BY IDOCK:   -1.98 KCAL/MOL
REMARK 927      BINDING AFFINITY PREDICTED BY RF-SCORE:    0.00 PKD
ROOT
HETATM    1  C   UNL     1     -11.422  14.871  66.806  1.00  0.00    -0.304 C  
HETATM    2  C   UNL     1     -11.440  14.343  65.381  1.00  0.00    -0.344 C  
ENDROOT
BRANCH   2   3
HETATM    3  C   UNL     1     -12.657  13.453  65.137  1.00  0.00    -0.495 C  
BRANCH   3   4
HETATM    4  C   UNL     1     -12.344  12.351  64.126  1.00  0.00    -0.558 C  
BRANCH   4   5
HETATM    5  C   UNL     1     -10.872  12.389  63.717  1.00  0.00    -0.500 C  
BRANCH   5   6
HETATM    6  C   UNL     1     -10.257  10.991  63.731  1.00  0.00    -0.425 C  
BRANCH   6   7
HETATM    7  C   UNL     1     -10.032  10.512  65.164  1.00  0.00    -0.375 C  
BRANCH   7   8
HETATM    8  C   UNL     1      -9.290  11.563  65.985  1.00  0.00    -0.239 C  
BRANCH   8   9
HETATM    9  C   UNL     1      -9.720  11.517  67.451  1.00  0.00    -0.191 C  
BRANCH   9  10
HETATM   10  C   UNL     1     -11.185  11.111  67.571  1.00  0.00    -0.369 C  
BRANCH  10  11
HETATM   11  C   UNL     1     -11.831  11.682  68.832  1.00  0.00    -0.392 C  
BRANCH  11  12
HETATM   12  C   UNL     1     -11.444  10.840  70.043  1.00  0.00    -0.412 C  
BRANCH  12  13
HETATM   13  C   UNL     1     -12.543  10.798  71.102  1.00  0.00    -0.532 C  
BRANCH  13  14
HETATM   14  C   UNL     1     -12.936   9.369  71.393  1.00  0.00    -0.346 C  
HETATM   15  O   UNL     1     -13.963   9.024  71.962  1.00  0.00    -0.414 OA 
BRANCH  14  16
HETATM   16  O   UNL     1     -11.977   8.519  70.930  1.00  0.00    -0.271 OA 
BRANCH  16  17
HETATM   17  C   UNL     1     -11.825   7.300  71.683  1.00  0.00    -0.298 C  
HETATM   18  C   UNL     1     -11.176   6.232  70.808  1.00  0.00    -0.387 C  
HETATM   19  C   UNL     1     -10.953   7.614  72.891  1.00  0.00    -0.456 C  
ENDBRANCH  16  17
ENDBRANCH  14  16
ENDBRANCH  13  14
ENDBRANCH  12  13
ENDBRANCH  11  12
ENDBRANCH  10  11
ENDBRANCH   9  10
ENDBRANCH   8   9
ENDBRANCH   7   8
ENDBRANCH   6   7
ENDBRANCH   5   6
ENDBRANCH   4   5
ENDBRANCH   3   4
ENDBRANCH   2   3
TORSDOF 14
ENDMDL
MODEL       21
REMARK 921   NORMALIZED FREE ENERGY PREDICTED BY IDOCK:   -4.24 KCAL/MOL
REMARK 922        TOTAL FREE ENERGY PREDICTED BY IDOCK:   -9.28 KCAL/MOL
REMARK 923 INTER-LIGAND FREE ENERGY PREDICTED BY IDOCK:   -7.18 KCAL/MOL
REMARK 924 INTRA-LIGAND FREE ENERGY PREDICTED BY IDOCK:   -2.09 KCAL/MOL
REMARK 927      BINDING AFFINITY PREDICTED BY RF-SCORE:    0.00 PKD
ROOT
HETATM    1  C   UNL     1     -10.817  11.040  69.103  1.00  0.00    -0.283 C  
HETATM    2  C   UNL     1     -11.238  10.666  67.691  1.00  0.00    -0.361 C  
ENDROOT
BRANCH   2   3
HETATM    3  C   UNL     1     -10.057  10.127  66.886  1.00  0.00    -0.279 C  
BRANCH   3   4
HETATM    4  C   UNL     1      -9.387  11.235  66.075  1.00  0.00    -0.234 C  
BRANCH   4   5
HETATM    5  C   UNL     1      -9.202  10.810  64.620  1.00  0.00    -0.249 C  
BRANCH   5   6
HETATM    6  C   UNL     1      -9.795  11.842  63.662  1.00  0.00    -0.357 C  
BRANCH   6   7
HETATM    7  C   UNL     1     -11.254  11.517  63.350  1.00  0.00    -0.342 C  
BRANCH   7   8
HETATM    8  C   UNL     1     -12.137  12.753  63.500  1.00  0.00    -0.642 C  
BRANCH   8   9
HETATM    9  C   UNL     1     -12.593  12.927  64.948  1.00  0.00    -0.525 C  
BRANCH   9  10
HETATM   10  C   UNL     1     -12.099  14.254  65.514  1.00  0.00    -0.397 C  
BRANCH  10  11
HETATM   11  C   UNL     1     -11.856  14.173  67.020  1.00  0.00    -0.458 C  
BRANCH  11  12
HETATM   12  C   UNL     1     -10.660  15.038  67.402  1.00  0.00    -0.271 C  
BRANCH  12  13
HETATM   13  C   UNL     1      -9.656  15.187  66.261  1.00  0.00    -0.325 C  
BRANCH  13  14
HETATM   14  C   UNL     1      -9.200  16.623  66.149  1.00  0.00    -0.277 C  
HETATM   15  O   UNL     1      -8.117  16.983  65.707  1.00  0.00    -0.460 OA 
BRANCH  14  16
HETATM   16  O   UNL     1     -10.170  17.458  66.614  1.00  0.00    -0.305 OA 
BRANCH  16  17
HETATM   17  C   UNL     1      -9.745  18.813  66.861  1.00  0.00    -0.316 C  
HETATM   18  C   UNL     1     -10.534  19.769  65.973  1.00  0.00    -0.609 C  
HETATM   19  C   UNL     1      -9.994  19.110  68.333  1.00  0.00    -0.493 C  
ENDBRANCH  16  17
ENDBRANCH  14  16
ENDBRANCH  13  14
ENDBRANCH  12  13
ENDBRANCH  11  12
ENDBRANCH  10  11
ENDBRANCH   9  10
ENDBRANCH   8   9
ENDBRANCH   7   8
ENDBRANCH   6   7
ENDBRANCH   5   6
ENDBRANCH   4   5
ENDBRANCH   3   4
ENDBRANCH   2   3
TORSDOF 14
ENDMDL
MODEL       22
REMARK 921   NORMALIZED FREE ENERGY PREDICTED BY IDOCK:   -4.24 KCAL/MOL
REMARK 922        TOTAL FREE ENERGY PREDICTED BY IDOCK:   -9.28 KCAL/MOL
REMARK 923 INTER-LIGAND FREE ENERGY PREDICTED BY IDOCK:   -7.52 KCAL/MOL
REMARK 924 INTRA-LIGAND FREE ENERGY PREDICTED BY IDOCK:   -1.76 KCAL/MOL
REMARK 927      BINDING AFFINITY PREDICTED BY RF-SCORE:    0.00 PKD
ROOT
HETATM    1  C   UNL     1      -9.644  10.890  68.748  1.00  0.00    -0.195 C  
HETATM    2  C   UNL     1     -10.788   9.903  68.579  1.00  0.00    -0.257 C  
ENDROOT
BRANCH   2   3
HETATM    3  C   UNL     1     -10.744   8.819  69.653  1.00  0.00    -0.212 C  
BRANCH   3   4
HETATM    4  C   UNL     1     -10.998   9.403  71.042  1.00  0.00    -0.409 C  
BRANCH   4   5
HETATM    5  C   UNL     1     -12.322   8.897  71.612  1.00  0.00    -0.405 C  
BRANCH   5   6
HETATM    6  C   UNL     1     -13.205  10.054  72.073  1.00  0.00    -0.545 C  
BRANCH   6   7
HETATM    7  C   UNL     1     -12.900  11.320  71.274  1.00  0.00    -0.491 C  
BRANCH   7   8
HETATM    8  C   UNL     1     -13.300  12.571  72.052  1.00  0.00    -0.528 C  
BRANCH   8   9
HETATM    9  C   UNL     1     -12.792  13.834  71.357  1.00  0.00    -0.449 C  
BRANCH   9  10
HETATM   10  C   UNL     1     -11.912  13.476  70.164  1.00  0.00    -0.399 C  
BRANCH  10  11
HETATM   11  C   UNL     1     -11.509  14.714  69.364  1.00  0.00    -0.330 C  
BRANCH  11  12
HETATM   12  C   UNL     1     -12.135  14.663  67.974  1.00  0.00    -0.206 C  
BRANCH  12  13
HETATM   13  C   UNL     1     -11.313  13.831  66.992  1.00  0.00    -0.345 C  
BRANCH  13  14
HETATM   14  C   UNL     1     -12.210  13.231  65.936  1.00  0.00    -0.441 C  
HETATM   15  O   UNL     1     -13.163  13.798  65.417  1.00  0.00    -0.722 OA 
BRANCH  14  16
HETATM   16  O   UNL     1     -11.805  11.962  65.647  1.00  0.00    -0.398 OA 
BRANCH  16  17
HETATM   17  C   UNL     1     -10.535  11.864  64.973  1.00  0.00    -0.289 C  
HETATM   18  C   UNL     1      -9.985  10.449  65.117  1.00  0.00    -0.390 C  
HETATM   19  C   UNL     1     -10.767  12.209  63.508  1.00  0.00    -0.509 C  
ENDBRANCH  16  17
ENDBRANCH  14  16
ENDBRANCH  13  14
ENDBRANCH  12  13
ENDBRANCH  11  12
ENDBRANCH  10  11
ENDBRANCH   9  10
ENDBRANCH   8   9
ENDBRANCH   7   8
ENDBRANCH   6   7
ENDBRANCH   5   6
ENDBRANCH   4   5
ENDBRANCH   3   4
ENDBRANCH   2   3
TORSDOF 14
ENDMDL
MODEL       23
REMARK 921   NORMALIZED FREE ENERGY PREDICTED BY IDOCK:   -4.23 KCAL/MOL
REMARK 922        TOTAL FREE ENERGY PREDICTED BY IDOCK:   -9.25 KCAL/MOL
REMARK 923 INTER-LIGAND FREE ENERGY PREDICTED BY IDOCK:   -7.41 KCAL/MOL
REMARK 924 INTRA-LIGAND FREE ENERGY PREDICTED BY IDOCK:   -1.85 KCAL/MOL
REMARK 927      BINDING AFFINITY PREDICTED BY RF-SCORE:    0.00 PKD
ROOT
HETATM    1  C   UNL     1     -11.822  14.398  67.692  1.00  0.00    -0.412 C  
HETATM    2  C   UNL     1     -10.499  14.518  66.952  1.00  0.00    -0.269 C  
ENDROOT
BRANCH   2   3
HETATM    3  C   UNL     1     -10.717  14.631  65.445  1.00  0.00    -0.382 C  
BRANCH   3   4
HETATM    4  C   UNL     1     -12.102  14.125  65.045  1.00  0.00    -0.428 C  
BRANCH   4   5
HETATM    5  C   UNL     1     -12.045  13.373  63.717  1.00  0.00    -0.516 C  
BRANCH   5   6
HETATM    6  C   UNL     1     -11.883  11.871  63.937  1.00  0.00    -0.509 C  
BRANCH   6   7
HETATM    7  C   UNL     1     -10.492  11.407  63.509  1.00  0.00    -0.477 C  
BRANCH   7   8
HETATM    8  C   UNL     1      -9.947  10.349  64.465  1.00  0.00    -0.401 C  
BRANCH   8   9
HETATM    9  C   UNL     1      -9.677  10.946  65.845  1.00  0.00    -0.269 C  
BRANCH   9  10
HETATM   10  C   UNL     1     -10.295  10.080  66.938  1.00  0.00    -0.297 C  
BRANCH  10  11
HETATM   11  C   UNL     1     -11.290  10.867  67.790  1.00  0.00    -0.366 C  
BRANCH  11  12
HETATM   12  C   UNL     1     -10.887  10.798  69.259  1.00  0.00    -0.287 C  
BRANCH  12  13
HETATM   13  C   UNL     1     -11.824  11.598  70.161  1.00  0.00    -0.428 C  
BRANCH  13  14
HETATM   14  C   UNL     1     -12.388  10.713  71.247  1.00  0.00    -0.383 C  
HETATM   15  O   UNL     1     -13.048  11.104  72.201  1.00  0.00    -0.463 OA 
BRANCH  14  16
HETATM   16  O   UNL     1     -12.053   9.414  71.010  1.00  0.00    -0.293 OA 
BRANCH  16  17
HETATM   17  C   UNL     1     -12.222   8.525  72.132  1.00  0.00    -0.382 C  
HETATM   18  C   UNL     1     -13.024   7.301  71.702  1.00  0.00    -0.417 C  
HETATM   19  C   UNL     1     -10.833   8.121  72.608  1.00  0.00    -0.429 C  
ENDBRANCH  16  17
ENDBRANCH  14  16
ENDBRANCH  13  14
ENDBRANCH  12  13
ENDBRANCH  11  12
ENDBRANCH  10  11
ENDBRANCH   9  10
ENDBRANCH   8   9
ENDBRANCH   7   8
ENDBRANCH   6   7
ENDBRANCH   5   6
ENDBRANCH   4   5
ENDBRANCH   3   4
ENDBRANCH   2   3
TORSDOF 14
ENDMDL
MODEL       24
REMARK 921   NORMALIZED FREE ENERGY PREDICTED BY IDOCK:   -4.21 KCAL/MOL
REMARK 922        TOTAL FREE ENERGY PREDICTED BY IDOCK:   -9.22 KCAL/MOL
REMARK 923 INTER-LIGAND FREE ENERGY PREDICTED BY IDOCK:   -7.85 KCAL/MOL
REMARK 924 INTRA-LIGAND FREE ENERGY PREDICTED BY IDOCK:   -1.37 KCAL/MOL
REMARK 927      BINDING AFFINITY PREDICTED BY RF-SCORE:    0.00 PKD
ROOT
HETATM    1  C   UNL     1     -12.895  15.577  73.529  1.00  0.00    -0.687 C  
HETATM    2  C   UNL     1     -13.935  15.446  72.427  1.00  0.00    -0.657 C  
ENDROOT
BRANCH   2   3
HETATM    3  C   UNL     1     -13.297  15.580  71.046  1.00  0.00    -0.495 C  
BRANCH   3   4
HETATM    4  C   UNL     1     -12.453  14.353  70.704  1.00  0.00    -0.419 C  
BRANCH   4   5
HETATM    5  C   UNL     1     -11.721  14.549  69.377  1.00  0.00    -0.361 C  
BRANCH   5   6
HETATM    6  C   UNL     1     -11.040  13.259  68.925  1.00  0.00    -0.304 C  
BRANCH   6   7
HETATM    7  C   UNL     1     -11.903  12.519  67.904  1.00  0.00    -0.383 C  
BRANCH   7   8
HETATM    8  C   UNL     1     -11.096  11.448  67.176  1.00  0.00    -0.366 C  
BRANCH   8   9
HETATM    9  C   UNL     1     -10.993  11.761  65.684  1.00  0.00    -0.348 C  
BRANCH   9  10
HETATM   10  C   UNL     1     -11.796  13.011  65.338  1.00  0.00    -0.428 C  
BRANCH  10  11
HETATM   11  C   UNL     1     -10.977  14.001  64.512  1.00  0.00    -0.361 C  
BRANCH  11  12
HETATM   12  C   UNL     1     -10.887  15.338  65.240  1.00  0.00    -0.417 C  
BRANCH  12  13
HETATM   13  C   UNL     1      -9.797  15.351  66.310  1.00  0.00    -0.320 C  
BRANCH  13  14
HETATM   14  C   UNL     1      -9.174  16.723  66.407  1.00  0.00    -0.279 C  
HETATM   15  O   UNL     1      -8.210  17.105  65.758  1.00  0.00    -0.515 OA 
BRANCH  14  16
HETATM   16  O   UNL     1      -9.843  17.474  67.328  1.00  0.00    -0.277 OA 
BRANCH  16  17
HETATM   17  C   UNL     1      -9.607  18.893  67.246  1.00  0.00    -0.307 C  
HETATM   18  C   UNL     1     -10.901  19.608  66.873  1.00  0.00    -0.505 C  
HETATM   19  C   UNL     1      -9.108  19.353  68.609  1.00  0.00    -0.423 C  
ENDBRANCH  16  17
ENDBRANCH  14  16
ENDBRANCH  13  14
ENDBRANCH  12  13
ENDBRANCH  11  12
ENDBRANCH  10  11
ENDBRANCH   9  10
ENDBRANCH   8   9
ENDBRANCH   7   8
ENDBRANCH   6   7
ENDBRANCH   5   6
ENDBRANCH   4   5
ENDBRANCH   3   4
ENDBRANCH   2   3
TORSDOF 14
ENDMDL
MODEL       25
REMARK 921   NORMALIZED FREE ENERGY PREDICTED BY IDOCK:   -4.21 KCAL/MOL
REMARK 922        TOTAL FREE ENERGY PREDICTED BY IDOCK:   -9.21 KCAL/MOL
REMARK 923 INTER-LIGAND FREE ENERGY PREDICTED BY IDOCK:   -7.57 KCAL/MOL
REMARK 924 INTRA-LIGAND FREE ENERGY PREDICTED BY IDOCK:   -1.65 KCAL/MOL
REMARK 927      BINDING AFFINITY PREDICTED BY RF-SCORE:    0.00 PKD
ROOT
HETATM    1  C   UNL     1     -10.740   9.328  71.693  1.00  0.00    -0.393 C  
HETATM    2  C   UNL     1     -12.181   9.752  71.460  1.00  0.00    -0.493 C  
ENDROOT
BRANCH   2   3
HETATM    3  C   UNL     1     -12.304  10.634  70.219  1.00  0.00    -0.406 C  
BRANCH   3   4
HETATM    4  C   UNL     1     -10.942  10.864  69.566  1.00  0.00    -0.306 C  
BRANCH   4   5
HETATM    5  C   UNL     1     -10.997  10.558  68.070  1.00  0.00    -0.345 C  
BRANCH   5   6
HETATM    6  C   UNL     1     -10.384   9.194  67.761  1.00  0.00    -0.302 C  
BRANCH   6   7
HETATM    7  C   UNL     1      -9.919   9.125  66.307  1.00  0.00    -0.352 C  
BRANCH   7   8
HETATM    8  C   UNL     1     -10.392  10.345  65.520  1.00  0.00    -0.265 C  
BRANCH   8   9
HETATM    9  C   UNL     1      -9.634  10.472  64.200  1.00  0.00    -0.369 C  
BRANCH   9  10
HETATM   10  C   UNL     1     -10.233  11.579  63.338  1.00  0.00    -0.462 C  
BRANCH  10  11
HETATM   11  C   UNL     1     -11.623  11.987  63.824  1.00  0.00    -0.565 C  
BRANCH  11  12
HETATM   12  C   UNL     1     -11.898  13.441  63.455  1.00  0.00    -0.399 C  
BRANCH  12  13
HETATM   13  C   UNL     1     -12.407  14.259  64.640  1.00  0.00    -0.433 C  
BRANCH  13  14
HETATM   14  C   UNL     1     -11.550  15.488  64.834  1.00  0.00    -0.201 C  
HETATM   15  O   UNL     1     -11.411  16.385  64.013  1.00  0.00    -1.048 OA 
BRANCH  14  16
HETATM   16  O   UNL     1     -10.952  15.450  66.058  1.00  0.00    -0.325 OA 
BRANCH  16  17
HETATM   17  C   UNL     1     -10.937  14.157  66.692  1.00  0.00    -0.303 C  
HETATM   18  C   UNL     1      -9.537  13.559  66.610  1.00  0.00    -0.282 C  
HETATM   19  C   UNL     1     -11.358  14.353  68.142  1.00  0.00    -0.317 C  
ENDBRANCH  16  17
ENDBRANCH  14  16
ENDBRANCH  13  14
ENDBRANCH  12  13
ENDBRANCH  11  12
ENDBRANCH  10  11
ENDBRANCH   9  10
ENDBRANCH   8   9
ENDBRANCH   7   8
ENDBRANCH   6   7
ENDBRANCH   5   6
ENDBRANCH   4   5
ENDBRANCH   3   4
ENDBRANCH   2   3
TORSDOF 14
ENDMDL
MODEL       26
REMARK 921   NORMALIZED FREE ENERGY PREDICTED BY IDOCK:   -4.20 KCAL/MOL
REMARK 922        TOTAL FREE ENERGY PREDICTED BY IDOCK:   -9.20 KCAL/MOL
REMARK 923 INTER-LIGAND FREE ENERGY PREDICTED BY IDOCK:   -7.66 KCAL/MOL
REMARK 924 INTRA-LIGAND FREE ENERGY PREDICTED BY IDOCK:   -1.54 KCAL/MOL
REMARK 927      BINDING AFFINITY PREDICTED BY RF-SCORE:    0.00 PKD
ROOT
HETATM    1  C   UNL     1     -13.677  13.223  72.347  1.00  0.00    -0.678 C  
HETATM    2  C   UNL     1     -13.899  14.682  71.982  1.00  0.00    -0.557 C  
ENDROOT
BRANCH   2   3
HETATM    3  C   UNL     1     -13.084  15.074  70.752  1.00  0.00    -0.420 C  
BRANCH   3   4
HETATM    4  C   UNL     1     -12.074  13.987  70.387  1.00  0.00    -0.426 C  
BRANCH   4   5
HETATM    5  C   UNL     1     -11.064  14.503  69.363  1.00  0.00    -0.297 C  
BRANCH   5   6
HETATM    6  C   UNL     1     -11.371  15.944  68.959  1.00  0.00    -0.371 C  
BRANCH   6   7
HETATM    7  C   UNL     1     -10.744  16.273  67.606  1.00  0.00    -0.311 C  
BRANCH   7   8
HETATM    8  C   UNL     1     -10.686  15.038  66.711  1.00  0.00    -0.308 C  
BRANCH   8   9
HETATM    9  C   UNL     1     -10.661  15.431  65.235  1.00  0.00    -0.450 C  
BRANCH   9  10
HETATM   10  C   UNL     1     -11.925  14.954  64.528  1.00  0.00    -0.420 C  
BRANCH  10  11
HETATM   11  C   UNL     1     -12.652  13.876  65.330  1.00  0.00    -0.538 C  
BRANCH  11  12
HETATM   12  C   UNL     1     -12.557  12.536  64.609  1.00  0.00    -0.507 C  
BRANCH  12  13
HETATM   13  C   UNL     1     -11.635  12.589  63.394  1.00  0.00    -0.547 C  
BRANCH  13  14
HETATM   14  C   UNL     1     -10.489  11.620  63.563  1.00  0.00    -0.443 C  
HETATM   15  O   UNL     1      -9.590  11.445  62.751  1.00  0.00    -0.357 OA 
BRANCH  14  16
HETATM   16  O   UNL     1     -10.604  10.966  64.753  1.00  0.00    -0.315 OA 
BRANCH  16  17
HETATM   17  C   UNL     1      -9.359  10.708  65.432  1.00  0.00    -0.210 C  
HETATM   18  C   UNL     1      -9.069  11.833  66.419  1.00  0.00    -0.215 C  
HETATM   19  C   UNL     1      -9.500   9.376  66.155  1.00  0.00    -0.287 C  
ENDBRANCH  16  17
ENDBRANCH  14  16
ENDBRANCH  13  14
ENDBRANCH  12  13
ENDBRANCH  11  12
ENDBRANCH  10  11
ENDBRANCH   9  10
ENDBRANCH   8   9
ENDBRANCH   7   8
ENDBRANCH   6   7
ENDBRANCH   5   6
ENDBRANCH   4   5
ENDBRANCH   3   4
ENDBRANCH   2   3
TORSDOF 14
ENDMDL
MODEL       27
REMARK 921   NORMALIZED FREE ENERGY PREDICTED BY IDOCK:   -4.19 KCAL/MOL
REMARK 922        TOTAL FREE ENERGY PREDICTED BY IDOCK:   -9.20 KCAL/MOL
REMARK 923 INTER-LIGAND FREE ENERGY PREDICTED BY IDOCK:   -7.41 KCAL/MOL
REMARK 924 INTRA-LIGAND FREE ENERGY PREDICTED BY IDOCK:   -1.79 KCAL/MOL
REMARK 927      BINDING AFFINITY PREDICTED BY RF-SCORE:    0.00 PKD
ROOT
HETATM    1  C   UNL     1     -11.862  14.811  68.015  1.00  0.00    -0.324 C  
HETATM    2  C   UNL     1     -10.751  14.689  66.985  1.00  0.00    -0.290 C  
ENDROOT
BRANCH   2   3
HETATM    3  C   UNL     1     -11.272  14.960  65.576  1.00  0.00    -0.348 C  
BRANCH   3   4
HETATM    4  C   UNL     1     -12.358  13.960  65.184  1.00  0.00    -0.471 C  
BRANCH   4   5
HETATM    5  C   UNL     1     -12.239  13.576  63.710  1.00  0.00    -0.449 C  
BRANCH   5   6
HETATM    6  C   UNL     1     -12.057  12.069  63.543  1.00  0.00    -0.628 C  
BRANCH   6   7
HETATM    7  C   UNL     1     -10.588  11.680  63.695  1.00  0.00    -0.493 C  
BRANCH   7   8
HETATM    8  C   UNL     1     -10.378  10.789  64.917  1.00  0.00    -0.369 C  
BRANCH   8   9
HETATM    9  C   UNL     1      -9.525  11.496  65.969  1.00  0.00    -0.249 C  
BRANCH   9  10
HETATM   10  C   UNL     1      -9.787  10.915  67.355  1.00  0.00    -0.199 C  
BRANCH  10  11
HETATM   11  C   UNL     1     -11.278  10.892  67.689  1.00  0.00    -0.379 C  
BRANCH  11  12
HETATM   12  C   UNL     1     -11.530  11.630  68.999  1.00  0.00    -0.356 C  
BRANCH  12  13
HETATM   13  C   UNL     1     -12.239  10.760  70.034  1.00  0.00    -0.409 C  
BRANCH  13  14
HETATM   14  C   UNL     1     -12.741  11.609  71.177  1.00  0.00    -0.325 C  
HETATM   15  O   UNL     1     -13.260  11.178  72.199  1.00  0.00    -0.481 OA 
BRANCH  14  16
HETATM   16  O   UNL     1     -12.535  12.928  70.904  1.00  0.00    -0.367 OA 
BRANCH  16  17
HETATM   17  C   UNL     1     -12.920  13.838  71.952  1.00  0.00    -0.350 C  
HETATM   18  C   UNL     1     -11.972  15.032  71.971  1.00  0.00    -0.464 C  
HETATM   19  C   UNL     1     -14.348  14.284  71.669  1.00  0.00    -0.458 C  
ENDBRANCH  16  17
ENDBRANCH  14  16
ENDBRANCH  13  14
ENDBRANCH  12  13
ENDBRANCH  11  12
ENDBRANCH  10  11
ENDBRANCH   9  10
ENDBRANCH   8   9
ENDBRANCH   7   8
ENDBRANCH   6   7
ENDBRANCH   5   6
ENDBRANCH   4   5
ENDBRANCH   3   4
ENDBRANCH   2   3
TORSDOF 14
ENDMDL
MODEL       28
REMARK 921   NORMALIZED FREE ENERGY PREDICTED BY IDOCK:   -4.19 KCAL/MOL
REMARK 922        TOTAL FREE ENERGY PREDICTED BY IDOCK:   -9.19 KCAL/MOL
REMARK 923 INTER-LIGAND FREE ENERGY PREDICTED BY IDOCK:   -7.89 KCAL/MOL
REMARK 924 INTRA-LIGAND FREE ENERGY PREDICTED BY IDOCK:   -1.30 KCAL/MOL
REMARK 927      BINDING AFFINITY PREDICTED BY RF-SCORE:    0.00 PKD
ROOT
HETATM    1  C   UNL     1      -9.996  19.639  66.483  1.00  0.00    -0.545 C  
HETATM    2  C   UNL     1     -10.428  19.473  67.931  1.00  0.00    -0.552 C  
ENDROOT
BRANCH   2   3
HETATM    3  C   UNL     1      -9.765  18.255  68.570  1.00  0.00    -0.379 C  
BRANCH   3   4
HETATM    4  C   UNL     1     -10.601  16.994  68.359  1.00  0.00    -0.375 C  
BRANCH   4   5
HETATM    5  C   UNL     1     -10.088  15.848  69.229  1.00  0.00    -0.249 C  
BRANCH   5   6
HETATM    6  C   UNL     1     -11.211  15.244  70.070  1.00  0.00    -0.306 C  
BRANCH   6   7
HETATM    7  C   UNL     1     -11.652  16.215  71.163  1.00  0.00    -0.453 C  
BRANCH   7   8
HETATM    8  C   UNL     1     -12.747  15.603  72.033  1.00  0.00    -0.508 C  
BRANCH   8   9
HETATM    9  C   UNL     1     -13.392  14.405  71.339  1.00  0.00    -0.420 C  
BRANCH   9  10
HETATM   10  C   UNL     1     -13.643  13.275  72.333  1.00  0.00    -0.694 C  
BRANCH  10  11
HETATM   11  C   UNL     1     -13.093  11.942  71.828  1.00  0.00    -0.465 C  
BRANCH  11  12
HETATM   12  C   UNL     1     -12.343  12.151  70.516  1.00  0.00    -0.358 C  
BRANCH  12  13
HETATM   13  C   UNL     1     -12.008  10.835  69.817  1.00  0.00    -0.397 C  
BRANCH  13  14
HETATM   14  C   UNL     1     -11.148  11.091  68.603  1.00  0.00    -0.240 C  
HETATM   15  O   UNL     1      -9.932  10.964  68.564  1.00  0.00    -0.168 OA 
BRANCH  14  16
HETATM   16  O   UNL     1     -11.925  11.488  67.556  1.00  0.00    -0.629 OA 
BRANCH  16  17
HETATM   17  C   UNL     1     -11.345  12.503  66.713  1.00  0.00    -0.334 C  
HETATM   18  C   UNL     1     -11.386  12.048  65.258  1.00  0.00    -0.366 C  
HETATM   19  C   UNL     1     -12.156  13.777  66.906  1.00  0.00    -0.454 C  
ENDBRANCH  16  17
ENDBRANCH  14  16
ENDBRANCH  13  14
ENDBRANCH  12  13
ENDBRANCH  11  12
ENDBRANCH  10  11
ENDBRANCH   9  10
ENDBRANCH   8   9
ENDBRANCH   7   8
ENDBRANCH   6   7
ENDBRANCH   5   6
ENDBRANCH   4   5
ENDBRANCH   3   4
ENDBRANCH   2   3
TORSDOF 14
ENDMDL
MODEL       29
REMARK 921   NORMALIZED FREE ENERGY PREDICTED BY IDOCK:   -4.18 KCAL/MOL
REMARK 922        TOTAL FREE ENERGY PREDICTED BY IDOCK:   -9.17 KCAL/MOL
REMARK 923 INTER-LIGAND FREE ENERGY PREDICTED BY IDOCK:   -7.73 KCAL/MOL
REMARK 924 INTRA-LIGAND FREE ENERGY PREDICTED BY IDOCK:   -1.44 KCAL/MOL
REMARK 927      BINDING AFFINITY PREDICTED BY RF-SCORE:    0.00 PKD
ROOT
HETATM    1  C   UNL     1     -11.901   9.928  70.595  1.00  0.00    -0.386 C  
HETATM    2  C   UNL     1     -12.887  10.685  71.470  1.00  0.00    -0.567 C  
ENDROOT
BRANCH   2   3
HETATM    3  C   UNL     1     -13.020  12.139  71.023  1.00  0.00    -0.160 C  
BRANCH   3   4
HETATM    4  C   UNL     1     -13.174  13.075  72.220  1.00  0.00    -0.539 C  
BRANCH   4   5
HETATM    5  C   UNL     1     -13.674  14.449  71.776  1.00  0.00    -0.504 C  
BRANCH   5   6
HETATM    6  C   UNL     1     -12.996  14.894  70.482  1.00  0.00    -0.339 C  
BRANCH   6   7
HETATM    7  C   UNL     1     -11.487  15.025  70.677  1.00  0.00    -0.338 C  
BRANCH   7   8
HETATM    8  C   UNL     1     -10.732  14.616  69.416  1.00  0.00    -0.237 C  
BRANCH   8   9
HETATM    9  C   UNL     1     -11.697  14.148  68.328  1.00  0.00    -0.383 C  
BRANCH   9  10
HETATM   10  C   UNL     1     -11.284  12.781  67.792  1.00  0.00    -0.317 C  
BRANCH  10  11
HETATM   11  C   UNL     1     -11.317  12.736  66.265  1.00  0.00    -0.365 C  
BRANCH  11  12
HETATM   12  C   UNL     1     -12.154  13.893  65.728  1.00  0.00    -0.449 C  
BRANCH  12  13
HETATM   13  C   UNL     1     -11.545  14.527  64.480  1.00  0.00    -0.385 C  
BRANCH  13  14
HETATM   14  C   UNL     1     -11.197  15.973  64.743  1.00  0.00    -0.339 C  
HETATM   15  O   UNL     1     -11.454  16.905  63.994  1.00  0.00    -1.130 OA 
BRANCH  14  16
HETATM   16  O   UNL     1     -10.552  16.086  65.938  1.00  0.00    -0.327 OA 
BRANCH  16  17
HETATM   17  C   UNL     1      -9.872  17.340  66.149  1.00  0.00    -0.253 C  
HETATM   18  C   UNL     1     -10.462  18.045  67.366  1.00  0.00    -0.399 C  
HETATM   19  C   UNL     1      -8.397  17.030  66.365  1.00  0.00    -0.319 C  
ENDBRANCH  16  17
ENDBRANCH  14  16
ENDBRANCH  13  14
ENDBRANCH  12  13
ENDBRANCH  11  12
ENDBRANCH  10  11
ENDBRANCH   9  10
ENDBRANCH   8   9
ENDBRANCH   7   8
ENDBRANCH   6   7
ENDBRANCH   5   6
ENDBRANCH   4   5
ENDBRANCH   3   4
ENDBRANCH   2   3
TORSDOF 14
ENDMDL
MODEL       30
REMARK 921   NORMALIZED FREE ENERGY PREDICTED BY IDOCK:   -4.18 KCAL/MOL
REMARK 922        TOTAL FREE ENERGY PREDICTED BY IDOCK:   -9.16 KCAL/MOL
REMARK 923 INTER-LIGAND FREE ENERGY PREDICTED BY IDOCK:   -8.00 KCAL/MOL
REMARK 924 INTRA-LIGAND FREE ENERGY PREDICTED BY IDOCK:   -1.16 KCAL/MOL
REMARK 927      BINDING AFFINITY PREDICTED BY RF-SCORE:    0.00 PKD
ROOT
HETATM    1  C   UNL     1     -11.557   6.741  70.503  1.00  0.00    -0.426 C  
HETATM    2  C   UNL     1     -12.731   7.139  71.383  1.00  0.00    -0.433 C  
ENDROOT
BRANCH   2   3
HETATM    3  C   UNL     1     -12.380   8.338  72.262  1.00  0.00    -0.410 C  
BRANCH   3   4
HETATM    4  C   UNL     1     -13.352   9.495  72.034  1.00  0.00    -0.535 C  
BRANCH   4   5
HETATM    5  C   UNL     1     -12.600  10.776  71.675  1.00  0.00    -0.456 C  
BRANCH   5   6
HETATM    6  C   UNL     1     -12.486  10.945  70.161  1.00  0.00    -0.356 C  
BRANCH   6   7
HETATM    7  C   UNL     1     -11.038  10.775  69.704  1.00  0.00    -0.339 C  
BRANCH   7   8
HETATM    8  C   UNL     1     -10.965  10.478  68.209  1.00  0.00    -0.314 C  
BRANCH   8   9
HETATM    9  C   UNL     1     -10.237  11.596  67.463  1.00  0.00    -0.216 C  
BRANCH   9  10
HETATM   10  C   UNL     1     -10.933  11.905  66.142  1.00  0.00    -0.352 C  
BRANCH  10  11
HETATM   11  C   UNL     1     -12.006  12.981  66.303  1.00  0.00    -0.477 C  
BRANCH  11  12
HETATM   12  C   UNL     1     -11.351  14.341  66.524  1.00  0.00    -0.351 C  
BRANCH  12  13
HETATM   13  C   UNL     1     -10.536  14.801  65.317  1.00  0.00    -0.414 C  
BRANCH  13  14
HETATM   14  C   UNL     1     -10.591  16.306  65.192  1.00  0.00    -0.304 C  
HETATM   15  O   UNL     1     -11.192  16.917  64.319  1.00  0.00    -1.204 OA 
BRANCH  14  16
HETATM   16  O   UNL     1      -9.869  16.883  66.193  1.00  0.00    -0.295 OA 
BRANCH  16  17
HETATM   17  C   UNL     1     -10.471  18.050  66.787  1.00  0.00    -0.328 C  
HETATM   18  C   UNL     1     -10.436  17.930  68.307  1.00  0.00    -0.362 C  
HETATM   19  C   UNL     1      -9.676  19.262  66.321  1.00  0.00    -0.430 C  
ENDBRANCH  16  17
ENDBRANCH  14  16
ENDBRANCH  13  14
ENDBRANCH  12  13
ENDBRANCH  11  12
ENDBRANCH  10  11
ENDBRANCH   9  10
ENDBRANCH   8   9
ENDBRANCH   7   8
ENDBRANCH   6   7
ENDBRANCH   5   6
ENDBRANCH   4   5
ENDBRANCH   3   4
ENDBRANCH   2   3
TORSDOF 14
ENDMDL
MODEL       31
REMARK 921   NORMALIZED FREE ENERGY PREDICTED BY IDOCK:   -4.18 KCAL/MOL
REMARK 922        TOTAL FREE ENERGY PREDICTED BY IDOCK:   -9.16 KCAL/MOL
REMARK 923 INTER-LIGAND FREE ENERGY PREDICTED BY IDOCK:   -7.37 KCAL/MOL
REMARK 924 INTRA-LIGAND FREE ENERGY PREDICTED BY IDOCK:   -1.79 KCAL/MOL
REMARK 927      BINDING AFFINITY PREDICTED BY RF-SCORE:    0.00 PKD
ROOT
HETATM    1  C   UNL     1      -9.942  11.692  63.285  1.00  0.00    -0.442 C  
HETATM    2  C   UNL     1     -11.015  11.412  64.325  1.00  0.00    -0.390 C  
ENDROOT
BRANCH   2   3
HETATM    3  C   UNL     1     -12.322  12.119  63.974  1.00  0.00    -0.550 C  
BRANCH   3   4
HETATM    4  C   UNL     1     -12.652  13.211  64.991  1.00  0.00    -0.499 C  
BRANCH   4   5
HETATM    5  C   UNL     1     -12.163  14.575  64.504  1.00  0.00    -0.483 C  
BRANCH   5   6
HETATM    6  C   UNL     1     -10.861  14.975  65.193  1.00  0.00    -0.422 C  
BRANCH   6   7
HETATM    7  C   UNL     1     -10.800  14.408  66.610  1.00  0.00    -0.304 C  
BRANCH   7   8
HETATM    8  C   UNL     1      -9.476  13.691  66.859  1.00  0.00    -0.263 C  
BRANCH   8   9
HETATM    9  C   UNL     1      -9.644  12.572  67.885  1.00  0.00    -0.206 C  
BRANCH   9  10
HETATM   10  C   UNL     1     -11.103  12.444  68.310  1.00  0.00    -0.283 C  
BRANCH  10  11
HETATM   11  C   UNL     1     -11.481  10.994  68.611  1.00  0.00    -0.375 C  
BRANCH  11  12
HETATM   12  C   UNL     1     -11.437  10.745  70.115  1.00  0.00    -0.415 C  
BRANCH  12  13
HETATM   13  C   UNL     1     -12.826  10.740  70.749  1.00  0.00    -0.408 C  
BRANCH  13  14
HETATM   14  C   UNL     1     -12.903   9.692  71.834  1.00  0.00    -0.425 C  
HETATM   15  O   UNL     1     -13.905   9.426  72.484  1.00  0.00    -0.444 OA 
BRANCH  14  16
HETATM   16  O   UNL     1     -11.691   9.088  71.985  1.00  0.00    -0.357 OA 
BRANCH  16  17
HETATM   17  C   UNL     1     -11.741   7.665  72.206  1.00  0.00    -0.324 C  
HETATM   18  C   UNL     1     -11.582   6.932  70.879  1.00  0.00    -0.384 C  
HETATM   19  C   UNL     1     -10.609   7.310  73.160  1.00  0.00    -0.400 C  
ENDBRANCH  16  17
ENDBRANCH  14  16
ENDBRANCH  13  14
ENDBRANCH  12  13
ENDBRANCH  11  12
ENDBRANCH  10  11
ENDBRANCH   9  10
ENDBRANCH   8   9
ENDBRANCH   7   8
ENDBRANCH   6   7
ENDBRANCH   5   6
ENDBRANCH   4   5
ENDBRANCH   3   4
ENDBRANCH   2   3
TORSDOF 14
ENDMDL
MODEL       32
REMARK 921   NORMALIZED FREE ENERGY PREDICTED BY IDOCK:   -4.18 KCAL/MOL
REMARK 922        TOTAL FREE ENERGY PREDICTED BY IDOCK:   -9.16 KCAL/MOL
REMARK 923 INTER-LIGAND FREE ENERGY PREDICTED BY IDOCK:   -7.07 KCAL/MOL
REMARK 924 INTRA-LIGAND FREE ENERGY PREDICTED BY IDOCK:   -2.09 KCAL/MOL
REMARK 927      BINDING AFFINITY PREDICTED BY RF-SCORE:    0.00 PKD
ROOT
HETATM    1  C   UNL     1     -12.410  12.115  63.406  1.00  0.00    -0.648 C  
HETATM    2  C   UNL     1     -11.179  12.870  63.882  1.00  0.00    -0.471 C  
ENDROOT
BRANCH   2   3
HETATM    3  C   UNL     1     -11.567  14.100  64.700  1.00  0.00    -0.414 C  
BRANCH   3   4
HETATM    4  C   UNL     1     -12.581  13.746  65.786  1.00  0.00    -0.525 C  
BRANCH   4   5
HETATM    5  C   UNL     1     -12.082  14.186  67.162  1.00  0.00    -0.432 C  
BRANCH   5   6
HETATM    6  C   UNL     1     -10.666  14.752  67.082  1.00  0.00    -0.299 C  
BRANCH   6   7
HETATM    7  C   UNL     1      -9.679  13.853  67.825  1.00  0.00    -0.225 C  
BRANCH   7   8
HETATM    8  C   UNL     1      -8.922  12.949  66.855  1.00  0.00    -0.210 C  
BRANCH   8   9
HETATM    9  C   UNL     1      -8.892  11.508  67.361  1.00  0.00    -0.157 C  
BRANCH   9  10
HETATM   10  C   UNL     1     -10.281  10.882  67.291  1.00  0.00    -0.242 C  
BRANCH  10  11
HETATM   11  C   UNL     1     -10.743  10.372  68.656  1.00  0.00    -0.250 C  
BRANCH  11  12
HETATM   12  C   UNL     1     -11.935  11.190  69.142  1.00  0.00    -0.413 C  
BRANCH  12  13
HETATM   13  C   UNL     1     -12.351  10.828  70.566  1.00  0.00    -0.458 C  
BRANCH  13  14
HETATM   14  C   UNL     1     -12.809  12.062  71.307  1.00  0.00    -0.265 C  
HETATM   15  O   UNL     1     -13.505  12.059  72.314  1.00  0.00    -0.465 OA 
BRANCH  14  16
HETATM   16  O   UNL     1     -12.335  13.180  70.689  1.00  0.00    -0.358 OA 
BRANCH  16  17
HETATM   17  C   UNL     1     -12.417  14.390  71.467  1.00  0.00    -0.355 C  
HETATM   18  C   UNL     1     -11.210  15.274  71.170  1.00  0.00    -0.378 C  
HETATM   19  C   UNL     1     -13.711  15.094  71.084  1.00  0.00    -0.510 C  
ENDBRANCH  16  17
ENDBRANCH  14  16
ENDBRANCH  13  14
ENDBRANCH  12  13
ENDBRANCH  11  12
ENDBRANCH  10  11
ENDBRANCH   9  10
ENDBRANCH   8   9
ENDBRANCH   7   8
ENDBRANCH   6   7
ENDBRANCH   5   6
ENDBRANCH   4   5
ENDBRANCH   3   4
ENDBRANCH   2   3
TORSDOF 14
ENDMDL
MODEL       33
REMARK 921   NORMALIZED FREE ENERGY PREDICTED BY IDOCK:   -4.17 KCAL/MOL
REMARK 922        TOTAL FREE ENERGY PREDICTED BY IDOCK:   -9.16 KCAL/MOL
REMARK 923 INTER-LIGAND FREE ENERGY PREDICTED BY IDOCK:   -7.79 KCAL/MOL
REMARK 924 INTRA-LIGAND FREE ENERGY PREDICTED BY IDOCK:   -1.36 KCAL/MOL
REMARK 927      BINDING AFFINITY PREDICTED BY RF-SCORE:    0.00 PKD
ROOT
HETATM    1  C   UNL     1     -10.610   5.656  68.077  1.00  0.00    -0.260 C  
HETATM    2  C   UNL     1     -11.022   6.656  67.009  1.00  0.00    -0.463 C  
ENDROOT
BRANCH   2   3
HETATM    3  C   UNL     1     -10.075   7.853  66.978  1.00  0.00    -0.347 C  
BRANCH   3   4
HETATM    4  C   UNL     1     -10.628   9.018  67.798  1.00  0.00    -0.278 C  
BRANCH   4   5
HETATM    5  C   UNL     1     -10.191  10.357  67.206  1.00  0.00    -0.258 C  
BRANCH   5   6
HETATM    6  C   UNL     1      -8.971  10.191  66.302  1.00  0.00    -0.168 C  
BRANCH   6   7
HETATM    7  C   UNL     1      -9.199  10.874  64.954  1.00  0.00    -0.230 C  
BRANCH   7   8
HETATM    8  C   UNL     1     -10.687  10.963  64.627  1.00  0.00    -0.254 C  
BRANCH   8   9
HETATM    9  C   UNL     1     -10.924  11.823  63.386  1.00  0.00    -0.458 C  
BRANCH   9  10
HETATM   10  C   UNL     1     -11.995  12.876  63.655  1.00  0.00    -0.613 C  
BRANCH  10  11
HETATM   11  C   UNL     1     -12.519  12.798  65.088  1.00  0.00    -0.565 C  
BRANCH  11  12
HETATM   12  C   UNL     1     -12.189  14.086  65.835  1.00  0.00    -0.481 C  
BRANCH  12  13
HETATM   13  C   UNL     1     -10.845  14.678  65.416  1.00  0.00    -0.365 C  
BRANCH  13  14
HETATM   14  C   UNL     1     -11.035  16.075  64.874  1.00  0.00    -0.384 C  
HETATM   15  O   UNL     1     -11.877  16.401  64.048  1.00  0.00    -1.003 OA 
BRANCH  14  16
HETATM   16  O   UNL     1     -10.127  16.921  65.439  1.00  0.00    -0.586 OA 
BRANCH  16  17
HETATM   17  C   UNL     1     -10.640  17.746  66.503  1.00  0.00    -0.220 C  
HETATM   18  C   UNL     1      -9.932  17.400  67.808  1.00  0.00    -0.301 C  
HETATM   19  C   UNL     1     -10.387  19.197  66.118  1.00  0.00    -0.561 C  
ENDBRANCH  16  17
ENDBRANCH  14  16
ENDBRANCH  13  14
ENDBRANCH  12  13
ENDBRANCH  11  12
ENDBRANCH  10  11
ENDBRANCH   9  10
ENDBRANCH   8   9
ENDBRANCH   7   8
ENDBRANCH   6   7
ENDBRANCH   5   6
ENDBRANCH   4   5
ENDBRANCH   3   4
ENDBRANCH   2   3
TORSDOF 14
ENDMDL
MODEL       34
REMARK 921   NORMALIZED FREE ENERGY PREDICTED BY IDOCK:   -4.16 KCAL/MOL
REMARK 922        TOTAL FREE ENERGY PREDICTED BY IDOCK:   -9.14 KCAL/MOL
REMARK 923 INTER-LIGAND FREE ENERGY PREDICTED BY IDOCK:   -7.80 KCAL/MOL
REMARK 924 INTRA-LIGAND FREE ENERGY PREDICTED BY IDOCK:   -1.34 KCAL/MOL
REMARK 927      BINDING AFFINITY PREDICTED BY RF-SCORE:    0.00 PKD
ROOT
HETATM    1  C   UNL     1     -10.837  11.664  67.021  1.00  0.00    -0.311 C  
HETATM    2  C   UNL     1     -10.878  10.902  68.336  1.00  0.00    -0.266 C  
ENDROOT
BRANCH   2   3
HETATM    3  C   UNL     1     -11.972  11.443  69.254  1.00  0.00    -0.400 C  
BRANCH   3   4
HETATM    4  C   UNL     1     -12.200  10.518  70.449  1.00  0.00    -0.415 C  
BRANCH   4   5
HETATM    5  C   UNL     1     -12.944  11.246  71.567  1.00  0.00    -0.520 C  
BRANCH   5   6
HETATM    6  C   UNL     1     -13.031  12.745  71.290  1.00  0.00    -0.310 C  
BRANCH   6   7
HETATM    7  C   UNL     1     -13.725  13.470  72.441  1.00  0.00    -0.704 C  
BRANCH   7   8
HETATM    8  C   UNL     1     -13.340  14.947  72.473  1.00  0.00    -0.525 C  
BRANCH   8   9
HETATM    9  C   UNL     1     -11.839  15.126  72.251  1.00  0.00    -0.493 C  
BRANCH   9  10
HETATM   10  C   UNL     1     -11.575  16.104  71.111  1.00  0.00    -0.453 C  
BRANCH  10  11
HETATM   11  C   UNL     1     -11.916  15.495  69.751  1.00  0.00    -0.384 C  
BRANCH  11  12
HETATM   12  C   UNL     1     -10.661  15.414  68.888  1.00  0.00    -0.244 C  
BRANCH  12  13
HETATM   13  C   UNL     1     -10.980  15.357  67.396  1.00  0.00    -0.312 C  
BRANCH  13  14
HETATM   14  C   UNL     1     -10.365  16.538  66.683  1.00  0.00    -0.298 C  
HETATM   15  O   UNL     1      -9.527  16.464  65.794  1.00  0.00    -0.464 OA 
BRANCH  14  16
HETATM   16  O   UNL     1     -10.880  17.699  67.176  1.00  0.00    -0.251 OA 
BRANCH  16  17
HETATM   17  C   UNL     1     -10.029  18.854  67.034  1.00  0.00    -0.340 C  
HETATM   18  C   UNL     1     -10.635  19.817  66.018  1.00  0.00    -0.573 C  
HETATM   19  C   UNL     1      -9.917  19.511  68.403  1.00  0.00    -0.540 C  
ENDBRANCH  16  17
ENDBRANCH  14  16
ENDBRANCH  13  14
ENDBRANCH  12  13
ENDBRANCH  11  12
ENDBRANCH  10  11
ENDBRANCH   9  10
ENDBRANCH   8   9
ENDBRANCH   7   8
ENDBRANCH   6   7
ENDBRANCH   5   6
ENDBRANCH   4   5
ENDBRANCH   3   4
ENDBRANCH   2   3
TORSDOF 14
ENDMDL
MODEL       35
REMARK 921   NORMALIZED FREE ENERGY PREDICTED BY IDOCK:   -4.16 KCAL/MOL
REMARK 922        TOTAL FREE ENERGY PREDICTED BY IDOCK:   -9.13 KCAL/MOL
REMARK 923 INTER-LIGAND FREE ENERGY PREDICTED BY IDOCK:   -7.73 KCAL/MOL
REMARK 924 INTRA-LIGAND FREE ENERGY PREDICTED BY IDOCK:   -1.40 KCAL/MOL
REMARK 927      BINDING AFFINITY PREDICTED BY RF-SCORE:    0.00 PKD
ROOT
HETATM    1  C   UNL     1     -12.048   6.610  70.752  1.00  0.00    -0.364 C  
HETATM    2  C   UNL     1     -11.096   6.806  71.920  1.00  0.00    -0.279 C  
ENDROOT
BRANCH   2   3
HETATM    3  C   UNL     1     -11.210   8.215  72.497  1.00  0.00    -0.459 C  
BRANCH   3   4
HETATM    4  C   UNL     1     -10.904   9.273  71.437  1.00  0.00    -0.434 C  
BRANCH   4   5
HETATM    5  C   UNL     1     -12.093  10.214  71.248  1.00  0.00    -0.489 C  
BRANCH   5   6
HETATM    6  C   UNL     1     -12.128  10.786  69.832  1.00  0.00    -0.410 C  
BRANCH   6   7
HETATM    7  C   UNL     1     -11.004  10.195  68.982  1.00  0.00    -0.265 C  
BRANCH   7   8
HETATM    8  C   UNL     1     -10.678  11.100  67.797  1.00  0.00    -0.267 C  
BRANCH   8   9
HETATM    9  C   UNL     1     -11.649  12.278  67.724  1.00  0.00    -0.416 C  
BRANCH   9  10
HETATM   10  C   UNL     1     -12.120  12.502  66.291  1.00  0.00    -0.315 C  
BRANCH  10  11
HETATM   11  C   UNL     1     -11.039  12.135  65.275  1.00  0.00    -0.367 C  
BRANCH  11  12
HETATM   12  C   UNL     1     -10.787  13.310  64.335  1.00  0.00    -0.422 C  
BRANCH  12  13
HETATM   13  C   UNL     1     -11.815  14.426  64.504  1.00  0.00    -0.463 C  
BRANCH  13  14
HETATM   14  C   UNL     1     -11.124  15.766  64.597  1.00  0.00    -0.361 C  
HETATM   15  O   UNL     1     -11.431  16.761  63.955  1.00  0.00    -1.198 OA 
BRANCH  14  16
HETATM   16  O   UNL     1     -10.105  15.703  65.500  1.00  0.00    -0.343 OA 
BRANCH  16  17
HETATM   17  C   UNL     1     -10.162  16.683  66.555  1.00  0.00    -0.310 C  
HETATM   18  C   UNL     1     -10.885  16.097  67.763  1.00  0.00    -0.318 C  
HETATM   19  C   UNL     1      -8.729  17.055  66.910  1.00  0.00    -0.251 C  
ENDBRANCH  16  17
ENDBRANCH  14  16
ENDBRANCH  13  14
ENDBRANCH  12  13
ENDBRANCH  11  12
ENDBRANCH  10  11
ENDBRANCH   9  10
ENDBRANCH   8   9
ENDBRANCH   7   8
ENDBRANCH   6   7
ENDBRANCH   5   6
ENDBRANCH   4   5
ENDBRANCH   3   4
ENDBRANCH   2   3
TORSDOF 14
ENDMDL
MODEL       36
REMARK 921   NORMALIZED FREE ENERGY PREDICTED BY IDOCK:   -4.15 KCAL/MOL
REMARK 922        TOTAL FREE ENERGY PREDICTED BY IDOCK:   -9.12 KCAL/MOL
REMARK 923 INTER-LIGAND FREE ENERGY PREDICTED BY IDOCK:   -7.38 KCAL/MOL
REMARK 924 INTRA-LIGAND FREE ENERGY PREDICTED BY IDOCK:   -1.74 KCAL/MOL
REMARK 927      BINDING AFFINITY PREDICTED BY RF-SCORE:    0.00 PKD
ROOT
HETATM    1  C   UNL     1     -11.185  15.184  64.800  1.00  0.00    -0.396 C  
HETATM    2  C   UNL     1     -12.276  14.127  64.738  1.00  0.00    -0.457 C  
ENDROOT
BRANCH   2   3
HETATM    3  C   UNL     1     -12.250  13.384  63.405  1.00  0.00    -0.419 C  
BRANCH   3   4
HETATM    4  C   UNL     1     -12.013  11.888  63.608  1.00  0.00    -0.578 C  
BRANCH   4   5
HETATM    5  C   UNL     1     -10.531  11.547  63.466  1.00  0.00    -0.486 C  
BRANCH   5   6
HETATM    6  C   UNL     1     -10.013  10.804  64.695  1.00  0.00    -0.386 C  
BRANCH   6   7
HETATM    7  C   UNL     1      -9.779  11.772  65.855  1.00  0.00    -0.259 C  
BRANCH   7   8
HETATM    8  C   UNL     1     -10.207  11.152  67.182  1.00  0.00    -0.235 C  
BRANCH   8   9
HETATM    9  C   UNL     1     -11.482  11.810  67.708  1.00  0.00    -0.381 C  
BRANCH   9  10
HETATM   10  C   UNL     1     -11.334  12.171  69.183  1.00  0.00    -0.333 C  
BRANCH  10  11
HETATM   11  C   UNL     1     -12.012  13.500  69.513  1.00  0.00    -0.390 C  
BRANCH  11  12
HETATM   12  C   UNL     1     -11.721  14.520  68.417  1.00  0.00    -0.367 C  
BRANCH  12  13
HETATM   13  C   UNL     1     -11.460  15.918  68.972  1.00  0.00    -0.380 C  
BRANCH  13  14
HETATM   14  C   UNL     1     -10.416  16.625  68.141  1.00  0.00    -0.321 C  
HETATM   15  O   UNL     1      -9.247  16.277  68.036  1.00  0.00    -0.193 OA 
BRANCH  14  16
HETATM   16  O   UNL     1     -10.965  17.710  67.527  1.00  0.00    -0.273 OA 
BRANCH  16  17
HETATM   17  C   UNL     1     -10.052  18.794  67.268  1.00  0.00    -0.357 C  
HETATM   18  C   UNL     1     -10.492  19.549  66.018  1.00  0.00    -0.611 C  
HETATM   19  C   UNL     1     -10.067  19.707  68.486  1.00  0.00    -0.557 C  
ENDBRANCH  16  17
ENDBRANCH  14  16
ENDBRANCH  13  14
ENDBRANCH  12  13
ENDBRANCH  11  12
ENDBRANCH  10  11
ENDBRANCH   9  10
ENDBRANCH   8   9
ENDBRANCH   7   8
ENDBRANCH   6   7
ENDBRANCH   5   6
ENDBRANCH   4   5
ENDBRANCH   3   4
ENDBRANCH   2   3
TORSDOF 14
ENDMDL
MODEL       37
REMARK 921   NORMALIZED FREE ENERGY PREDICTED BY IDOCK:   -4.15 KCAL/MOL
REMARK 922        TOTAL FREE ENERGY PREDICTED BY IDOCK:   -9.11 KCAL/MOL
REMARK 923 INTER-LIGAND FREE ENERGY PREDICTED BY IDOCK:   -7.53 KCAL/MOL
REMARK 924 INTRA-LIGAND FREE ENERGY PREDICTED BY IDOCK:   -1.57 KCAL/MOL
REMARK 927      BINDING AFFINITY PREDICTED BY RF-SCORE:    0.00 PKD
ROOT
HETATM    1  C   UNL     1     -12.750  13.789  65.813  1.00  0.00    -0.494 C  
HETATM    2  C   UNL     1     -12.321  12.583  64.993  1.00  0.00    -0.522 C  
ENDROOT
BRANCH   2   3
HETATM    3  C   UNL     1     -10.856  12.691  64.575  1.00  0.00    -0.365 C  
BRANCH   3   4
HETATM    4  C   UNL     1      -9.932  12.093  65.635  1.00  0.00    -0.271 C  
BRANCH   4   5
HETATM    5  C   UNL     1     -10.497  10.779  66.172  1.00  0.00    -0.278 C  
BRANCH   5   6
HETATM    6  C   UNL     1     -10.137  10.581  67.643  1.00  0.00    -0.211 C  
BRANCH   6   7
HETATM    7  C   UNL     1     -11.378  10.696  68.526  1.00  0.00    -0.348 C  
BRANCH   7   8
HETATM    8  C   UNL     1     -11.019  10.545  70.002  1.00  0.00    -0.351 C  
BRANCH   8   9
HETATM    9  C   UNL     1     -12.232  10.816  70.891  1.00  0.00    -0.487 C  
BRANCH   9  10
HETATM   10  C   UNL     1     -12.458  12.315  71.053  1.00  0.00    -0.361 C  
BRANCH  10  11
HETATM   11  C   UNL     1     -13.485  12.620  72.143  1.00  0.00    -0.561 C  
BRANCH  11  12
HETATM   12  C   UNL     1     -13.523  14.119  72.419  1.00  0.00    -0.616 C  
BRANCH  12  13
HETATM   13  C   UNL     1     -13.037  14.946  71.231  1.00  0.00    -0.448 C  
BRANCH  13  14
HETATM   14  C   UNL     1     -11.901  15.848  71.650  1.00  0.00    -0.490 C  
HETATM   15  O   UNL     1     -11.893  16.550  72.653  1.00  0.00    -0.541 OA 
BRANCH  14  16
HETATM   16  O   UNL     1     -10.884  15.768  70.746  1.00  0.00    -0.312 OA 
BRANCH  16  17
HETATM   17  C   UNL     1     -11.296  15.721  69.366  1.00  0.00    -0.348 C  
HETATM   18  C   UNL     1     -10.908  17.021  68.670  1.00  0.00    -0.284 C  
HETATM   19  C   UNL     1     -10.598  14.532  68.720  1.00  0.00    -0.248 C  
ENDBRANCH  16  17
ENDBRANCH  14  16
ENDBRANCH  13  14
ENDBRANCH  12  13
ENDBRANCH  11  12
ENDBRANCH  10  11
ENDBRANCH   9  10
ENDBRANCH   8   9
ENDBRANCH   7   8
ENDBRANCH   6   7
ENDBRANCH   5   6
ENDBRANCH   4   5
ENDBRANCH   3   4
ENDBRANCH   2   3
TORSDOF 14
ENDMDL
MODEL       38
REMARK 921   NORMALIZED FREE ENERGY PREDICTED BY IDOCK:   -4.14 KCAL/MOL
REMARK 922        TOTAL FREE ENERGY PREDICTED BY IDOCK:   -9.10 KCAL/MOL
REMARK 923 INTER-LIGAND FREE ENERGY PREDICTED BY IDOCK:   -7.11 KCAL/MOL
REMARK 924 INTRA-LIGAND FREE ENERGY PREDICTED BY IDOCK:   -1.99 KCAL/MOL
REMARK 927      BINDING AFFINITY PREDICTED BY RF-SCORE:    0.00 PKD
ROOT
HETATM    1  C   UNL     1     -12.533  11.804  63.212  1.00  0.00    -0.411 C  
HETATM    2  C   UNL     1     -11.053  12.115  63.371  1.00  0.00    -0.495 C  
ENDROOT
BRANCH   2   3
HETATM    3  C   UNL     1     -10.816  13.107  64.507  1.00  0.00    -0.400 C  
BRANCH   3   4
HETATM    4  C   UNL     1     -12.084  13.901  64.823  1.00  0.00    -0.443 C  
BRANCH   4   5
HETATM    5  C   UNL     1     -12.345  13.933  66.328  1.00  0.00    -0.489 C  
BRANCH   5   6
HETATM    6  C   UNL     1     -11.818  12.672  67.009  1.00  0.00    -0.415 C  
BRANCH   6   7
HETATM    7  C   UNL     1     -10.836  13.028  68.124  1.00  0.00    -0.267 C  
BRANCH   7   8
HETATM    8  C   UNL     1      -9.476  12.374  67.888  1.00  0.00    -0.198 C  
BRANCH   8   9
HETATM    9  C   UNL     1      -8.356  13.198  68.521  1.00  0.00    -0.063 C  
BRANCH   9  10
HETATM   10  C   UNL     1      -8.625  14.690  68.356  1.00  0.00    -0.169 C  
BRANCH  10  11
HETATM   11  C   UNL     1      -7.866  15.276  67.166  1.00  0.00    -0.249 C  
BRANCH  11  12
HETATM   12  C   UNL     1      -8.849  15.726  66.091  1.00  0.00    -0.346 C  
BRANCH  12  13
HETATM   13  C   UNL     1      -9.849  16.758  66.608  1.00  0.00    -0.287 C  
BRANCH  13  14
HETATM   14  C   UNL     1     -10.428  17.548  65.458  1.00  0.00    -0.068 C  
HETATM   15  O   UNL     1     -11.048  17.069  64.518  1.00  0.00    -1.098 OA 
BRANCH  14  16
HETATM   16  O   UNL     1     -10.158  18.873  65.619  1.00  0.00    -0.466 OA 
BRANCH  16  17
HETATM   17  C   UNL     1      -9.172  19.178  66.626  1.00  0.00    -0.334 C  
HETATM   18  C   UNL     1      -7.868  19.599  65.957  1.00  0.00    -0.335 C  
HETATM   19  C   UNL     1      -9.728  20.306  67.484  1.00  0.00    -0.575 C  
ENDBRANCH  16  17
ENDBRANCH  14  16
ENDBRANCH  13  14
ENDBRANCH  12  13
ENDBRANCH  11  12
ENDBRANCH  10  11
ENDBRANCH   9  10
ENDBRANCH   8   9
ENDBRANCH   7   8
ENDBRANCH   6   7
ENDBRANCH   5   6
ENDBRANCH   4   5
ENDBRANCH   3   4
ENDBRANCH   2   3
TORSDOF 14
ENDMDL
MODEL       39
REMARK 921   NORMALIZED FREE ENERGY PREDICTED BY IDOCK:   -4.14 KCAL/MOL
REMARK 922        TOTAL FREE ENERGY PREDICTED BY IDOCK:   -9.09 KCAL/MOL
REMARK 923 INTER-LIGAND FREE ENERGY PREDICTED BY IDOCK:   -7.49 KCAL/MOL
REMARK 924 INTRA-LIGAND FREE ENERGY PREDICTED BY IDOCK:   -1.60 KCAL/MOL
REMARK 927      BINDING AFFINITY PREDICTED BY RF-SCORE:    0.00 PKD
ROOT
HETATM    1  C   UNL     1     -14.262  14.768  71.702  1.00  0.00    -0.618 C  
HETATM    2  C   UNL     1     -13.069  14.201  70.949  1.00  0.00    -0.338 C  
ENDROOT
BRANCH   2   3
HETATM    3  C   UNL     1     -12.163  15.315  70.430  1.00  0.00    -0.404 C  
BRANCH   3   4
HETATM    4  C   UNL     1     -11.260  14.815  69.302  1.00  0.00    -0.303 C  
BRANCH   4   5
HETATM    5  C   UNL     1     -12.090  14.298  68.129  1.00  0.00    -0.275 C  
BRANCH   5   6
HETATM    6  C   UNL     1     -11.623  12.912  67.688  1.00  0.00    -0.406 C  
BRANCH   6   7
HETATM    7  C   UNL     1     -11.907  12.692  66.203  1.00  0.00    -0.477 C  
BRANCH   7   8
HETATM    8  C   UNL     1     -12.713  13.849  65.619  1.00  0.00    -0.534 C  
BRANCH   8   9
HETATM    9  C   UNL     1     -12.037  14.412  64.370  1.00  0.00    -0.491 C  
BRANCH   9  10
HETATM   10  C   UNL     1     -11.146  15.598  64.727  1.00  0.00    -0.426 C  
BRANCH  10  11
HETATM   11  C   UNL     1      -9.848  15.150  65.397  1.00  0.00    -0.309 C  
BRANCH  11  12
HETATM   12  C   UNL     1      -9.233  16.312  66.171  1.00  0.00    -0.376 C  
BRANCH  12  13
HETATM   13  C   UNL     1     -10.284  17.287  66.696  1.00  0.00    -0.319 C  
BRANCH  13  14
HETATM   14  C   UNL     1      -9.948  18.698  66.274  1.00  0.00    -0.372 C  
HETATM   15  O   UNL     1     -10.766  19.586  66.078  1.00  0.00    -0.467 OA 
BRANCH  14  16
HETATM   16  O   UNL     1      -8.599  18.835  66.141  1.00  0.00    -0.435 OA 
BRANCH  16  17
HETATM   17  C   UNL     1      -8.009  19.880  66.939  1.00  0.00    -0.306 C  
HETATM   18  C   UNL     1      -7.842  19.397  68.376  1.00  0.00    -0.377 C  
HETATM   19  C   UNL     1      -6.660  20.221  66.322  1.00  0.00    -0.256 C  
ENDBRANCH  16  17
ENDBRANCH  14  16
ENDBRANCH  13  14
ENDBRANCH  12  13
ENDBRANCH  11  12
ENDBRANCH  10  11
ENDBRANCH   9  10
ENDBRANCH   8   9
ENDBRANCH   7   8
ENDBRANCH   6   7
ENDBRANCH   5   6
ENDBRANCH   4   5
ENDBRANCH   3   4
ENDBRANCH   2   3
TORSDOF 14
ENDMDL
MODEL       40
REMARK 921   NORMALIZED FREE ENERGY PREDICTED BY IDOCK:   -4.14 KCAL/MOL
REMARK 922        TOTAL FREE ENERGY PREDICTED BY IDOCK:   -9.09 KCAL/MOL
REMARK 923 INTER-LIGAND FREE ENERGY PREDICTED BY IDOCK:   -7.43 KCAL/MOL
REMARK 924 INTRA-LIGAND FREE ENERGY PREDICTED BY IDOCK:   -1.66 KCAL/MOL
REMARK 927      BINDING AFFINITY PREDICTED BY RF-SCORE:    0.00 PKD
ROOT
HETATM    1  C   UNL     1     -12.777  15.386  73.610  1.00  0.00    -0.713 C  
HETATM    2  C   UNL     1     -13.493  15.454  72.271  1.00  0.00    -0.573 C  
ENDROOT
BRANCH   2   3
HETATM    3  C   UNL     1     -12.756  14.642  71.209  1.00  0.00    -0.402 C  
BRANCH   3   4
HETATM    4  C   UNL     1     -11.368  15.219  70.933  1.00  0.00    -0.380 C  
BRANCH   4   5
HETATM    5  C   UNL     1     -10.881  14.826  69.540  1.00  0.00    -0.268 C  
BRANCH   5   6
HETATM    6  C   UNL     1     -11.712  15.503  68.451  1.00  0.00    -0.323 C  
BRANCH   6   7
HETATM    7  C   UNL     1     -11.886  14.577  67.248  1.00  0.00    -0.419 C  
BRANCH   7   8
HETATM    8  C   UNL     1     -10.587  13.845  66.925  1.00  0.00    -0.280 C  
BRANCH   8   9
HETATM    9  C   UNL     1     -10.846  12.363  66.657  1.00  0.00    -0.281 C  
BRANCH   9  10
HETATM   10  C   UNL     1     -11.735  11.766  67.743  1.00  0.00    -0.337 C  
BRANCH  10  11
HETATM   11  C   UNL     1     -11.093  10.540  68.392  1.00  0.00    -0.335 C  
BRANCH  11  12
HETATM   12  C   UNL     1     -10.928  10.770  69.891  1.00  0.00    -0.304 C  
BRANCH  12  13
HETATM   13  C   UNL     1     -12.256  11.045  70.591  1.00  0.00    -0.481 C  
BRANCH  13  14
HETATM   14  C   UNL     1     -12.570   9.941  71.572  1.00  0.00    -0.416 C  
HETATM   15  O   UNL     1     -13.652   9.773  72.120  1.00  0.00    -0.419 OA 
BRANCH  14  16
HETATM   16  O   UNL     1     -11.470   9.159  71.761  1.00  0.00    -0.347 OA 
BRANCH  16  17
HETATM   17  C   UNL     1     -11.747   7.794  72.133  1.00  0.00    -0.320 C  
HETATM   18  C   UNL     1     -11.764   6.915  70.886  1.00  0.00    -0.408 C  
HETATM   19  C   UNL     1     -10.652   7.351  73.093  1.00  0.00    -0.424 C  
ENDBRANCH  16  17
ENDBRANCH  14  16
ENDBRANCH  13  14
ENDBRANCH  12  13
ENDBRANCH  11  12
ENDBRANCH  10  11
ENDBRANCH   9  10
ENDBRANCH   8   9
ENDBRANCH   7   8
ENDBRANCH   6   7
ENDBRANCH   5   6
ENDBRANCH   4   5
ENDBRANCH   3   4
ENDBRANCH   2   3
TORSDOF 14
ENDMDL
MODEL       41
REMARK 921   NORMALIZED FREE ENERGY PREDICTED BY IDOCK:   -4.13 KCAL/MOL
REMARK 922        TOTAL FREE ENERGY PREDICTED BY IDOCK:   -9.08 KCAL/MOL
REMARK 923 INTER-LIGAND FREE ENERGY PREDICTED BY IDOCK:   -7.91 KCAL/MOL
REMARK 924 INTRA-LIGAND FREE ENERGY PREDICTED BY IDOCK:   -1.17 KCAL/MOL
REMARK 927      BINDING AFFINITY PREDICTED BY RF-SCORE:    0.00 PKD
ROOT
HETATM    1  C   UNL     1     -11.810   8.551  71.491  1.00  0.00    -0.353 C  
HETATM    2  C   UNL     1     -11.755  10.031  71.149  1.00  0.00    -0.472 C  
ENDROOT
BRANCH   2   3
HETATM    3  C   UNL     1     -13.019  10.753  71.612  1.00  0.00    -0.581 C  
BRANCH   3   4
HETATM    4  C   UNL     1     -12.986  12.231  71.225  1.00  0.00    -0.299 C  
BRANCH   4   5
HETATM    5  C   UNL     1     -13.373  13.113  72.411  1.00  0.00    -0.591 C  
BRANCH   5   6
HETATM    6  C   UNL     1     -14.337  14.219  71.987  1.00  0.00    -0.629 C  
BRANCH   6   7
HETATM    7  C   UNL     1     -13.604  15.308  71.207  1.00  0.00    -0.584 C  
BRANCH   7   8
HETATM    8  C   UNL     1     -12.258  15.633  71.850  1.00  0.00    -0.506 C  
BRANCH   8   9
HETATM    9  C   UNL     1     -11.164  15.766  70.792  1.00  0.00    -0.404 C  
BRANCH   9  10
HETATM   10  C   UNL     1     -11.613  15.151  69.470  1.00  0.00    -0.340 C  
BRANCH  10  11
HETATM   11  C   UNL     1     -11.085  15.937  68.270  1.00  0.00    -0.345 C  
BRANCH  11  12
HETATM   12  C   UNL     1     -10.634  17.325  68.713  1.00  0.00    -0.305 C  
BRANCH  12  13
HETATM   13  C   UNL     1     -10.657  18.340  67.573  1.00  0.00    -0.432 C  
BRANCH  13  14
HETATM   14  C   UNL     1      -9.725  19.489  67.875  1.00  0.00    -0.356 C  
HETATM   15  O   UNL     1      -9.746  20.577  67.316  1.00  0.00    -0.443 OA 
BRANCH  14  16
HETATM   16  O   UNL     1      -8.853  19.135  68.861  1.00  0.00    -0.349 OA 
BRANCH  16  17
HETATM   17  C   UNL     1      -7.461  19.174  68.490  1.00  0.00    -0.325 C  
HETATM   18  C   UNL     1      -6.656  19.860  69.588  1.00  0.00    -0.373 C  
HETATM   19  C   UNL     1      -6.998  17.737  68.297  1.00  0.00    -0.223 C  
ENDBRANCH  16  17
ENDBRANCH  14  16
ENDBRANCH  13  14
ENDBRANCH  12  13
ENDBRANCH  11  12
ENDBRANCH  10  11
ENDBRANCH   9  10
ENDBRANCH   8   9
ENDBRANCH   7   8
ENDBRANCH   6   7
ENDBRANCH   5   6
ENDBRANCH   4   5
ENDBRANCH   3   4
ENDBRANCH   2   3
TORSDOF 14
ENDMDL
MODEL       42
REMARK 921   NORMALIZED FREE ENERGY PREDICTED BY IDOCK:   -4.12 KCAL/MOL
REMARK 922        TOTAL FREE ENERGY PREDICTED BY IDOCK:   -9.06 KCAL/MOL
REMARK 923 INTER-LIGAND FREE ENERGY PREDICTED BY IDOCK:   -6.84 KCAL/MOL
REMARK 924 INTRA-LIGAND FREE ENERGY PREDICTED BY IDOCK:   -2.22 KCAL/MOL
REMARK 927      BINDING AFFINITY PREDICTED BY RF-SCORE:    0.00 PKD
ROOT
HETATM    1  C   UNL     1     -10.738  19.022  67.787  1.00  0.00    -0.441 C  
HETATM    2  C   UNL     1     -10.387  19.122  66.312  1.00  0.00    -0.553 C  
ENDROOT
BRANCH   2   3
HETATM    3  C   UNL     1      -9.037  19.807  66.111  1.00  0.00    -0.403 C  
BRANCH   3   4
HETATM    4  C   UNL     1      -8.553  20.467  67.401  1.00  0.00    -0.403 C  
BRANCH   4   5
HETATM    5  C   UNL     1      -7.028  20.432  67.492  1.00  0.00    -0.344 C  
BRANCH   5   6
HETATM    6  C   UNL     1      -6.506  18.996  67.492  1.00  0.00    -0.202 C  
BRANCH   6   7
HETATM    7  C   UNL     1      -6.886  18.282  68.788  1.00  0.00    -0.268 C  
BRANCH   7   8
HETATM    8  C   UNL     1      -7.719  17.035  68.504  1.00  0.00    -0.238 C  
BRANCH   8   9
HETATM    9  C   UNL     1      -7.365  16.438  67.143  1.00  0.00    -0.230 C  
BRANCH   9  10
HETATM   10  C   UNL     1      -8.594  15.812  66.491  1.00  0.00    -0.343 C  
BRANCH  10  11
HETATM   11  C   UNL     1      -9.687  15.511  67.515  1.00  0.00    -0.215 C  
BRANCH  11  12
HETATM   12  C   UNL     1     -11.046  15.455  66.825  1.00  0.00    -0.244 C  
BRANCH  12  13
HETATM   13  C   UNL     1     -11.929  14.329  67.359  1.00  0.00    -0.426 C  
BRANCH  13  14
HETATM   14  C   UNL     1     -12.433  13.474  66.220  1.00  0.00    -0.326 C  
HETATM   15  O   UNL     1     -12.959  13.901  65.201  1.00  0.00    -0.744 OA 
BRANCH  14  16
HETATM   16  O   UNL     1     -12.219  12.157  66.496  1.00  0.00    -0.584 OA 
BRANCH  16  17
HETATM   17  C   UNL     1     -10.853  11.809  66.795  1.00  0.00    -0.270 C  
HETATM   18  C   UNL     1     -10.815  10.851  67.981  1.00  0.00    -0.293 C  
HETATM   19  C   UNL     1     -10.264  11.156  65.553  1.00  0.00    -0.319 C  
ENDBRANCH  16  17
ENDBRANCH  14  16
ENDBRANCH  13  14
ENDBRANCH  12  13
ENDBRANCH  11  12
ENDBRANCH  10  11
ENDBRANCH   9  10
ENDBRANCH   8   9
ENDBRANCH   7   8
ENDBRANCH   6   7
ENDBRANCH   5   6
ENDBRANCH   4   5
ENDBRANCH   3   4
ENDBRANCH   2   3
TORSDOF 14
ENDMDL
MODEL       43
REMARK 921   NORMALIZED FREE ENERGY PREDICTED BY IDOCK:   -4.12 KCAL/MOL
REMARK 922        TOTAL FREE ENERGY PREDICTED BY IDOCK:   -9.06 KCAL/MOL
REMARK 923 INTER-LIGAND FREE ENERGY PREDICTED BY IDOCK:   -7.68 KCAL/MOL
REMARK 924 INTRA-LIGAND FREE ENERGY PREDICTED BY IDOCK:   -1.38 KCAL/MOL
REMARK 927      BINDING AFFINITY PREDICTED BY RF-SCORE:    0.00 PKD
ROOT
HETATM    1  C   UNL     1     -12.043  13.023  64.216  1.00  0.00    -0.480 C  
HETATM    2  C   UNL     1     -12.081  13.727  65.563  1.00  0.00    -0.434 C  
ENDROOT
BRANCH   2   3
HETATM    3  C   UNL     1     -11.692  12.778  66.694  1.00  0.00    -0.459 C  
BRANCH   3   4
HETATM    4  C   UNL     1     -11.131  13.544  67.891  1.00  0.00    -0.288 C  
BRANCH   4   5
HETATM    5  C   UNL     1     -11.749  14.938  67.984  1.00  0.00    -0.344 C  
BRANCH   5   6
HETATM    6  C   UNL     1     -12.268  15.222  69.393  1.00  0.00    -0.247 C  
BRANCH   6   7
HETATM    7  C   UNL     1     -11.227  15.985  70.210  1.00  0.00    -0.397 C  
BRANCH   7   8
HETATM    8  C   UNL     1     -11.675  16.142  71.661  1.00  0.00    -0.558 C  
BRANCH   8   9
HETATM    9  C   UNL     1     -13.120  15.679  71.840  1.00  0.00    -0.545 C  
BRANCH   9  10
HETATM   10  C   UNL     1     -13.197  14.522  72.831  1.00  0.00    -0.612 C  
BRANCH  10  11
HETATM   11  C   UNL     1     -14.046  13.370  72.294  1.00  0.00    -0.515 C  
BRANCH  11  12
HETATM   12  C   UNL     1     -13.183  12.125  72.121  1.00  0.00    -0.438 C  
BRANCH  12  13
HETATM   13  C   UNL     1     -12.397  12.134  70.812  1.00  0.00    -0.391 C  
BRANCH  13  14
HETATM   14  C   UNL     1     -11.920  10.741  70.477  1.00  0.00    -0.361 C  
HETATM   15  O   UNL     1     -11.541  10.374  69.373  1.00  0.00    -0.245 OA 
BRANCH  14  16
HETATM   16  O   UNL     1     -11.977   9.950  71.585  1.00  0.00    -0.393 OA 
BRANCH  16  17
HETATM   17  C   UNL     1     -11.368   8.651  71.441  1.00  0.00    -0.284 C  
HETATM   18  C   UNL     1     -10.279   8.475  72.494  1.00  0.00    -0.323 C  
HETATM   19  C   UNL     1     -12.465   7.610  71.617  1.00  0.00    -0.362 C  
ENDBRANCH  16  17
ENDBRANCH  14  16
ENDBRANCH  13  14
ENDBRANCH  12  13
ENDBRANCH  11  12
ENDBRANCH  10  11
ENDBRANCH   9  10
ENDBRANCH   8   9
ENDBRANCH   7   8
ENDBRANCH   6   7
ENDBRANCH   5   6
ENDBRANCH   4   5
ENDBRANCH   3   4
ENDBRANCH   2   3
TORSDOF 14
ENDMDL
MODEL       44
REMARK 921   NORMALIZED FREE ENERGY PREDICTED BY IDOCK:   -4.10 KCAL/MOL
REMARK 922        TOTAL FREE ENERGY PREDICTED BY IDOCK:   -9.02 KCAL/MOL
REMARK 923 INTER-LIGAND FREE ENERGY PREDICTED BY IDOCK:   -7.43 KCAL/MOL
REMARK 924 INTRA-LIGAND FREE ENERGY PREDICTED BY IDOCK:   -1.59 KCAL/MOL
REMARK 927      BINDING AFFINITY PREDICTED BY RF-SCORE:    0.00 PKD
ROOT
HETATM    1  C   UNL     1     -10.822  11.453  63.464  1.00  0.00    -0.430 C  
HETATM    2  C   UNL     1     -12.232  12.018  63.413  1.00  0.00    -0.627 C  
ENDROOT
BRANCH   2   3
HETATM    3  C   UNL     1     -12.623  12.651  64.747  1.00  0.00    -0.530 C  
BRANCH   3   4
HETATM    4  C   UNL     1     -12.174  14.109  64.822  1.00  0.00    -0.457 C  
BRANCH   4   5
HETATM    5  C   UNL     1     -11.414  14.380  66.119  1.00  0.00    -0.357 C  
BRANCH   5   6
HETATM    6  C   UNL     1     -10.120  13.570  66.183  1.00  0.00    -0.307 C  
BRANCH   6   7
HETATM    7  C   UNL     1      -9.066  14.297  67.017  1.00  0.00    -0.246 C  
BRANCH   7   8
HETATM    8  C   UNL     1      -8.897  15.741  66.553  1.00  0.00    -0.345 C  
BRANCH   8   9
HETATM    9  C   UNL     1      -8.191  16.579  67.617  1.00  0.00    -0.169 C  
BRANCH   9  10
HETATM   10  C   UNL     1      -9.067  17.748  68.053  1.00  0.00    -0.269 C  
BRANCH  10  11
HETATM   11  C   UNL     1     -10.535  17.343  68.175  1.00  0.00    -0.389 C  
BRANCH  11  12
HETATM   12  C   UNL     1     -10.750  16.542  69.455  1.00  0.00    -0.321 C  
BRANCH  12  13
HETATM   13  C   UNL     1     -12.030  15.710  69.417  1.00  0.00    -0.349 C  
BRANCH  13  14
HETATM   14  C   UNL     1     -11.858  14.448  70.230  1.00  0.00    -0.313 C  
HETATM   15  O   UNL     1     -11.763  13.320  69.765  1.00  0.00    -0.298 OA 
BRANCH  14  16
HETATM   16  O   UNL     1     -11.827  14.750  71.558  1.00  0.00    -0.338 OA 
BRANCH  16  17
HETATM   17  C   UNL     1     -13.059  15.267  72.097  1.00  0.00    -0.381 C  
HETATM   18  C   UNL     1     -14.063  14.132  72.265  1.00  0.00    -0.630 C  
HETATM   19  C   UNL     1     -12.738  15.909  73.440  1.00  0.00    -0.676 C  
ENDBRANCH  16  17
ENDBRANCH  14  16
ENDBRANCH  13  14
ENDBRANCH  12  13
ENDBRANCH  11  12
ENDBRANCH  10  11
ENDBRANCH   9  10
ENDBRANCH   8   9
ENDBRANCH   7   8
ENDBRANCH   6   7
ENDBRANCH   5   6
ENDBRANCH   4   5
ENDBRANCH   3   4
ENDBRANCH   2   3
TORSDOF 14
ENDMDL
MODEL       45
REMARK 921   NORMALIZED FREE ENERGY PREDICTED BY IDOCK:   -4.09 KCAL/MOL
REMARK 922        TOTAL FREE ENERGY PREDICTED BY IDOCK:   -9.01 KCAL/MOL
REMARK 923 INTER-LIGAND FREE ENERGY PREDICTED BY IDOCK:   -7.40 KCAL/MOL
REMARK 924 INTRA-LIGAND FREE ENERGY PREDICTED BY IDOCK:   -1.60 KCAL/MOL
REMARK 927      BINDING AFFINITY PREDICTED BY RF-SCORE:    0.00 PKD
ROOT
HETATM    1  C   UNL     1     -10.470   8.979  71.808  1.00  0.00    -0.418 C  
HETATM    2  C   UNL     1     -11.884   9.080  71.259  1.00  0.00    -0.379 C  
ENDROOT
BRANCH   2   3
HETATM    3  C   UNL     1     -12.228  10.519  70.880  1.00  0.00    -0.490 C  
BRANCH   3   4
HETATM    4  C   UNL     1     -13.282  11.103  71.820  1.00  0.00    -0.486 C  
BRANCH   4   5
HETATM    5  C   UNL     1     -13.043  12.594  72.049  1.00  0.00    -0.471 C  
BRANCH   5   6
HETATM    6  C   UNL     1     -14.360  13.347  72.222  1.00  0.00    -0.273 C  
BRANCH   6   7
HETATM    7  C   UNL     1     -14.111  14.844  72.398  1.00  0.00    -0.554 C  
BRANCH   7   8
HETATM    8  C   UNL     1     -12.829  15.098  73.188  1.00  0.00    -0.606 C  
BRANCH   8   9
HETATM    9  C   UNL     1     -11.993  16.197  72.534  1.00  0.00    -0.660 C  
BRANCH   9  10
HETATM   10  C   UNL     1     -12.034  16.075  71.014  1.00  0.00    -0.407 C  
BRANCH  10  11
HETATM   11  C   UNL     1     -10.854  15.266  70.478  1.00  0.00    -0.287 C  
BRANCH  11  12
HETATM   12  C   UNL     1     -11.345  14.234  69.468  1.00  0.00    -0.315 C  
BRANCH  12  13
HETATM   13  C   UNL     1     -12.077  14.871  68.289  1.00  0.00    -0.146 C  
BRANCH  13  14
HETATM   14  C   UNL     1     -11.353  14.568  66.998  1.00  0.00    -0.349 C  
HETATM   15  O   UNL     1     -11.095  13.447  66.583  1.00  0.00    -0.288 OA 
BRANCH  14  16
HETATM   16  O   UNL     1     -11.027  15.729  66.364  1.00  0.00    -0.273 OA 
BRANCH  16  17
HETATM   17  C   UNL     1      -9.963  16.483  66.977  1.00  0.00    -0.268 C  
HETATM   18  C   UNL     1      -8.647  16.190  66.263  1.00  0.00    -0.373 C  
HETATM   19  C   UNL     1     -10.323  17.958  66.864  1.00  0.00    -0.358 C  
ENDBRANCH  16  17
ENDBRANCH  14  16
ENDBRANCH  13  14
ENDBRANCH  12  13
ENDBRANCH  11  12
ENDBRANCH  10  11
ENDBRANCH   9  10
ENDBRANCH   8   9
ENDBRANCH   7   8
ENDBRANCH   6   7
ENDBRANCH   5   6
ENDBRANCH   4   5
ENDBRANCH   3   4
ENDBRANCH   2   3
TORSDOF 14
ENDMDL
MODEL       46
REMARK 921   NORMALIZED FREE ENERGY PREDICTED BY IDOCK:   -4.09 KCAL/MOL
REMARK 922        TOTAL FREE ENERGY PREDICTED BY IDOCK:   -9.00 KCAL/MOL
REMARK 923 INTER-LIGAND FREE ENERGY PREDICTED BY IDOCK:   -6.95 KCAL/MOL
REMARK 924 INTRA-LIGAND FREE ENERGY PREDICTED BY IDOCK:   -2.05 KCAL/MOL
REMARK 927      BINDING AFFINITY PREDICTED BY RF-SCORE:    0.00 PKD
ROOT
HETATM    1  C   UNL     1     -11.649  14.618  66.175  1.00  0.00    -0.332 C  
HETATM    2  C   UNL     1     -12.667  13.903  65.302  1.00  0.00    -0.485 C  
ENDROOT
BRANCH   2   3
HETATM    3  C   UNL     1     -12.013  13.336  64.043  1.00  0.00    -0.525 C  
BRANCH   3   4
HETATM    4  C   UNL     1     -12.032  11.808  64.049  1.00  0.00    -0.380 C  
BRANCH   4   5
HETATM    5  C   UNL     1     -10.616  11.245  63.937  1.00  0.00    -0.455 C  
BRANCH   5   6
HETATM    6  C   UNL     1     -10.196  10.541  65.226  1.00  0.00    -0.352 C  
BRANCH   6   7
HETATM    7  C   UNL     1      -9.328  11.458  66.086  1.00  0.00    -0.232 C  
BRANCH   7   8
HETATM    8  C   UNL     1      -9.834  11.504  67.525  1.00  0.00    -0.203 C  
BRANCH   8   9
HETATM    9  C   UNL     1     -11.120  10.693  67.679  1.00  0.00    -0.385 C  
BRANCH   9  10
HETATM   10  C   UNL     1     -11.947  11.211  68.851  1.00  0.00    -0.367 C  
BRANCH  10  11
HETATM   11  C   UNL     1     -11.710  12.700  69.100  1.00  0.00    -0.375 C  
BRANCH  11  12
HETATM   12  C   UNL     1     -12.119  13.062  70.523  1.00  0.00    -0.373 C  
BRANCH  12  13
HETATM   13  C   UNL     1     -12.984  14.319  70.582  1.00  0.00    -0.318 C  
BRANCH  13  14
HETATM   14  C   UNL     1     -12.114  15.551  70.651  1.00  0.00    -0.389 C  
HETATM   15  O   UNL     1     -11.812  16.142  71.679  1.00  0.00    -0.466 OA 
BRANCH  14  16
HETATM   16  O   UNL     1     -11.715  15.911  69.398  1.00  0.00    -0.358 OA 
BRANCH  16  17
HETATM   17  C   UNL     1     -10.411  16.520  69.322  1.00  0.00    -0.326 C  
HETATM   18  C   UNL     1      -9.351  15.442  69.123  1.00  0.00    -0.246 C  
HETATM   19  C   UNL     1     -10.426  17.488  68.148  1.00  0.00    -0.386 C  
ENDBRANCH  16  17
ENDBRANCH  14  16
ENDBRANCH  13  14
ENDBRANCH  12  13
ENDBRANCH  11  12
ENDBRANCH  10  11
ENDBRANCH   9  10
ENDBRANCH   8   9
ENDBRANCH   7   8
ENDBRANCH   6   7
ENDBRANCH   5   6
ENDBRANCH   4   5
ENDBRANCH   3   4
ENDBRANCH   2   3
TORSDOF 14
ENDMDL
MODEL       47
REMARK 921   NORMALIZED FREE ENERGY PREDICTED BY IDOCK:   -4.09 KCAL/MOL
REMARK 922        TOTAL FREE ENERGY PREDICTED BY IDOCK:   -9.00 KCAL/MOL
REMARK 923 INTER-LIGAND FREE ENERGY PREDICTED BY IDOCK:   -7.38 KCAL/MOL
REMARK 924 INTRA-LIGAND FREE ENERGY PREDICTED BY IDOCK:   -1.63 KCAL/MOL
REMARK 927      BINDING AFFINITY PREDICTED BY RF-SCORE:    0.00 PKD
ROOT
HETATM    1  C   UNL     1     -10.595   8.103  67.050  1.00  0.00    -0.346 C  
HETATM    2  C   UNL     1     -11.024   6.649  67.165  1.00  0.00    -0.478 C  
ENDROOT
BRANCH   2   3
HETATM    3  C   UNL     1     -10.762   6.105  68.568  1.00  0.00    -0.365 C  
BRANCH   3   4
HETATM    4  C   UNL     1      -9.883   7.058  69.377  1.00  0.00    -0.160 C  
BRANCH   4   5
HETATM    5  C   UNL     1     -10.381   7.169  70.817  1.00  0.00    -0.219 C  
BRANCH   5   6
HETATM    6  C   UNL     1     -11.765   6.543  70.974  1.00  0.00    -0.402 C  
BRANCH   6   7
HETATM    7  C   UNL     1     -12.772   7.573  71.482  1.00  0.00    -0.391 C  
BRANCH   7   8
HETATM    8  C   UNL     1     -12.080   8.884  71.848  1.00  0.00    -0.443 C  
BRANCH   8   9
HETATM    9  C   UNL     1     -13.048  10.061  71.741  1.00  0.00    -0.562 C  
BRANCH   9  10
HETATM   10  C   UNL     1     -12.427  11.199  70.938  1.00  0.00    -0.509 C  
BRANCH  10  11
HETATM   11  C   UNL     1     -11.929  10.725  69.573  1.00  0.00    -0.364 C  
BRANCH  11  12
HETATM   12  C   UNL     1     -11.047  11.795  68.939  1.00  0.00    -0.297 C  
BRANCH  12  13
HETATM   13  C   UNL     1     -11.858  12.899  68.264  1.00  0.00    -0.372 C  
BRANCH  13  14
HETATM   14  C   UNL     1     -11.377  13.112  66.848  1.00  0.00    -0.318 C  
HETATM   15  O   UNL     1     -10.486  13.883  66.517  1.00  0.00    -0.276 OA 
BRANCH  14  16
HETATM   16  O   UNL     1     -12.082  12.320  65.993  1.00  0.00    -0.623 OA 
BRANCH  16  17
HETATM   17  C   UNL     1     -11.497  12.158  64.686  1.00  0.00    -0.328 C  
HETATM   18  C   UNL     1     -10.540  10.971  64.694  1.00  0.00    -0.369 C  
HETATM   19  C   UNL     1     -12.635  11.930  63.700  1.00  0.00    -0.555 C  
ENDBRANCH  16  17
ENDBRANCH  14  16
ENDBRANCH  13  14
ENDBRANCH  12  13
ENDBRANCH  11  12
ENDBRANCH  10  11
ENDBRANCH   9  10
ENDBRANCH   8   9
ENDBRANCH   7   8
ENDBRANCH   6   7
ENDBRANCH   5   6
ENDBRANCH   4   5
ENDBRANCH   3   4
ENDBRANCH   2   3
TORSDOF 14
ENDMDL
MODEL       48
REMARK 921   NORMALIZED FREE ENERGY PREDICTED BY IDOCK:   -4.07 KCAL/MOL
REMARK 922        TOTAL FREE ENERGY PREDICTED BY IDOCK:   -8.98 KCAL/MOL
REMARK 923 INTER-LIGAND FREE ENERGY PREDICTED BY IDOCK:   -7.54 KCAL/MOL
REMARK 924 INTRA-LIGAND FREE ENERGY PREDICTED BY IDOCK:   -1.44 KCAL/MOL
REMARK 927      BINDING AFFINITY PREDICTED BY RF-SCORE:    0.00 PKD
ROOT
HETATM    1  C   UNL     1     -14.009   8.704  72.062  1.00  0.00    -0.506 C  
HETATM    2  C   UNL     1     -12.567   8.230  71.976  1.00  0.00    -0.387 C  
ENDROOT
BRANCH   2   3
HETATM    3  C   UNL     1     -11.627   9.382  71.629  1.00  0.00    -0.466 C  
BRANCH   3   4
HETATM    4  C   UNL     1     -12.405  10.612  71.161  1.00  0.00    -0.505 C  
BRANCH   4   5
HETATM    5  C   UNL     1     -11.996  11.009  69.744  1.00  0.00    -0.428 C  
BRANCH   5   6
HETATM    6  C   UNL     1     -10.737  10.267  69.302  1.00  0.00    -0.265 C  
BRANCH   6   7
HETATM    7  C   UNL     1     -10.845   9.840  67.839  1.00  0.00    -0.298 C  
BRANCH   7   8
HETATM    8  C   UNL     1      -9.732  10.463  67.001  1.00  0.00    -0.216 C  
BRANCH   8   9
HETATM    9  C   UNL     1     -10.296  11.107  65.735  1.00  0.00    -0.316 C  
BRANCH   9  10
HETATM   10  C   UNL     1     -11.428  12.071  66.077  1.00  0.00    -0.399 C  
BRANCH  10  11
HETATM   11  C   UNL     1     -11.179  13.465  65.503  1.00  0.00    -0.303 C  
BRANCH  11  12
HETATM   12  C   UNL     1     -11.642  14.527  66.495  1.00  0.00    -0.379 C  
BRANCH  12  13
HETATM   13  C   UNL     1     -11.837  13.969  67.902  1.00  0.00    -0.411 C  
BRANCH  13  14
HETATM   14  C   UNL     1     -11.877  15.093  68.910  1.00  0.00    -0.310 C  
HETATM   15  O   UNL     1     -11.641  16.268  68.663  1.00  0.00    -0.355 OA 
BRANCH  14  16
HETATM   16  O   UNL     1     -12.213  14.606  70.138  1.00  0.00    -0.301 OA 
BRANCH  16  17
HETATM   17  C   UNL     1     -12.911  15.532  70.993  1.00  0.00    -0.489 C  
HETATM   18  C   UNL     1     -14.155  14.863  71.568  1.00  0.00    -0.593 C  
HETATM   19  C   UNL     1     -11.954  15.940  72.105  1.00  0.00    -0.612 C  
ENDBRANCH  16  17
ENDBRANCH  14  16
ENDBRANCH  13  14
ENDBRANCH  12  13
ENDBRANCH  11  12
ENDBRANCH  10  11
ENDBRANCH   9  10
ENDBRANCH   8   9
ENDBRANCH   7   8
ENDBRANCH   6   7
ENDBRANCH   5   6
ENDBRANCH   4   5
ENDBRANCH   3   4
ENDBRANCH   2   3
TORSDOF 14
ENDMDL
MODEL       49
REMARK 921   NORMALIZED FREE ENERGY PREDICTED BY IDOCK:   -4.06 KCAL/MOL
REMARK 922        TOTAL FREE ENERGY PREDICTED BY IDOCK:   -8.95 KCAL/MOL
REMARK 923 INTER-LIGAND FREE ENERGY PREDICTED BY IDOCK:   -7.54 KCAL/MOL
REMARK 924 INTRA-LIGAND FREE ENERGY PREDICTED BY IDOCK:   -1.42 KCAL/MOL
REMARK 927      BINDING AFFINITY PREDICTED BY RF-SCORE:    0.00 PKD
ROOT
HETATM    1  C   UNL     1      -9.764   8.333  66.753  1.00  0.00    -0.307 C  
HETATM    2  C   UNL     1     -10.679   7.291  67.377  1.00  0.00    -0.358 C  
ENDROOT
BRANCH   2   3
HETATM    3  C   UNL     1     -10.655   7.377  68.901  1.00  0.00    -0.191 C  
BRANCH   3   4
HETATM    4  C   UNL     1     -11.394   6.199  69.534  1.00  0.00    -0.426 C  
BRANCH   4   5
HETATM    5  C   UNL     1     -11.525   6.385  71.045  1.00  0.00    -0.394 C  
BRANCH   5   6
HETATM    6  C   UNL     1     -12.665   7.342  71.388  1.00  0.00    -0.427 C  
BRANCH   6   7
HETATM    7  C   UNL     1     -12.168   8.481  72.277  1.00  0.00    -0.454 C  
BRANCH   7   8
HETATM    8  C   UNL     1     -13.053   9.717  72.132  1.00  0.00    -0.520 C  
BRANCH   8   9
HETATM    9  C   UNL     1     -13.114  10.178  70.677  1.00  0.00    -0.274 C  
BRANCH   9  10
HETATM   10  C   UNL     1     -11.917  11.062  70.340  1.00  0.00    -0.459 C  
BRANCH  10  11
HETATM   11  C   UNL     1     -11.424  10.829  68.912  1.00  0.00    -0.362 C  
BRANCH  11  12
HETATM   12  C   UNL     1     -11.693  12.066  68.060  1.00  0.00    -0.398 C  
BRANCH  12  13
HETATM   13  C   UNL     1     -11.378  11.839  66.584  1.00  0.00    -0.381 C  
BRANCH  13  14
HETATM   14  C   UNL     1     -12.129  12.833  65.730  1.00  0.00    -0.448 C  
HETATM   15  O   UNL     1     -12.942  12.542  64.863  1.00  0.00    -0.821 OA 
BRANCH  14  16
HETATM   16  O   UNL     1     -11.766  14.103  66.064  1.00  0.00    -0.356 OA 
BRANCH  16  17
HETATM   17  C   UNL     1     -10.986  14.798  65.072  1.00  0.00    -0.414 C  
HETATM   18  C   UNL     1     -11.854  15.837  64.370  1.00  0.00    -0.148 C  
HETATM   19  C   UNL     1      -9.819  15.462  65.790  1.00  0.00    -0.399 C  
ENDBRANCH  16  17
ENDBRANCH  14  16
ENDBRANCH  13  14
ENDBRANCH  12  13
ENDBRANCH  11  12
ENDBRANCH  10  11
ENDBRANCH   9  10
ENDBRANCH   8   9
ENDBRANCH   7   8
ENDBRANCH   6   7
ENDBRANCH   5   6
ENDBRANCH   4   5
ENDBRANCH   3   4
ENDBRANCH   2   3
TORSDOF 14
ENDMDL
MODEL       50
REMARK 921   NORMALIZED FREE ENERGY PREDICTED BY IDOCK:   -4.06 KCAL/MOL
REMARK 922        TOTAL FREE ENERGY PREDICTED BY IDOCK:   -8.95 KCAL/MOL
REMARK 923 INTER-LIGAND FREE ENERGY PREDICTED BY IDOCK:   -7.37 KCAL/MOL
REMARK 924 INTRA-LIGAND FREE ENERGY PREDICTED BY IDOCK:   -1.58 KCAL/MOL
REMARK 927      BINDING AFFINITY PREDICTED BY RF-SCORE:    0.00 PKD
ROOT
HETATM    1  C   UNL     1     -12.762  12.083  63.351  1.00  0.00    -0.527 C  
HETATM    2  C   UNL     1     -11.843  12.860  64.279  1.00  0.00    -0.457 C  
ENDROOT
BRANCH   2   3
HETATM    3  C   UNL     1     -10.375  12.574  63.969  1.00  0.00    -0.429 C  
BRANCH   3   4
HETATM    4  C   UNL     1     -10.179  11.136  63.492  1.00  0.00    -0.446 C  
BRANCH   4   5
HETATM    5  C   UNL     1      -9.755  10.231  64.648  1.00  0.00    -0.398 C  
BRANCH   5   6
HETATM    6  C   UNL     1      -8.914  10.995  65.668  1.00  0.00    -0.212 C  
BRANCH   6   7
HETATM    7  C   UNL     1      -9.125  10.433  67.074  1.00  0.00    -0.153 C  
BRANCH   7   8
HETATM    8  C   UNL     1     -10.605  10.175  67.345  1.00  0.00    -0.329 C  
BRANCH   8   9
HETATM    9  C   UNL     1     -11.368  11.488  67.512  1.00  0.00    -0.366 C  
BRANCH   9  10
HETATM   10  C   UNL     1     -10.582  12.462  68.383  1.00  0.00    -0.251 C  
BRANCH  10  11
HETATM   11  C   UNL     1     -10.355  13.798  67.677  1.00  0.00    -0.239 C  
BRANCH  11  12
HETATM   12  C   UNL     1     -11.505  14.752  67.985  1.00  0.00    -0.351 C  
BRANCH  12  13
HETATM   13  C   UNL     1     -12.157  14.466  69.335  1.00  0.00    -0.338 C  
BRANCH  13  14
HETATM   14  C   UNL     1     -11.927  15.619  70.283  1.00  0.00    -0.374 C  
HETATM   15  O   UNL     1     -11.023  16.439  70.187  1.00  0.00    -0.349 OA 
BRANCH  14  16
HETATM   16  O   UNL     1     -12.873  15.612  71.264  1.00  0.00    -0.453 OA 
BRANCH  16  17
HETATM   17  C   UNL     1     -12.674  14.628  72.298  1.00  0.00    -0.335 C  
HETATM   18  C   UNL     1     -12.432  15.326  73.632  1.00  0.00    -0.716 C  
HETATM   19  C   UNL     1     -13.928  13.767  72.357  1.00  0.00    -0.651 C  
ENDBRANCH  16  17
ENDBRANCH  14  16
ENDBRANCH  13  14
ENDBRANCH  12  13
ENDBRANCH  11  12
ENDBRANCH  10  11
ENDBRANCH   9  10
ENDBRANCH   8   9
ENDBRANCH   7   8
ENDBRANCH   6   7
ENDBRANCH   5   6
ENDBRANCH   4   5
ENDBRANCH   3   4
ENDBRANCH   2   3
TORSDOF 14
ENDMDL
MODEL       51
REMARK 921   NORMALIZED FREE ENERGY PREDICTED BY IDOCK:   -4.06 KCAL/MOL
REMARK 922        TOTAL FREE ENERGY PREDICTED BY IDOCK:   -8.94 KCAL/MOL
REMARK 923 INTER-LIGAND FREE ENERGY PREDICTED BY IDOCK:   -7.41 KCAL/MOL
REMARK 924 INTRA-LIGAND FREE ENERGY PREDICTED BY IDOCK:   -1.53 KCAL/MOL
REMARK 927      BINDING AFFINITY PREDICTED BY RF-SCORE:    0.00 PKD
ROOT
HETATM    1  C   UNL     1     -13.165   9.852  71.824  1.00  0.00    -0.535 C  
HETATM    2  C   UNL     1     -14.150   8.694  71.810  1.00  0.00    -0.499 C  
ENDROOT
BRANCH   2   3
HETATM    3  C   UNL     1     -13.463   7.390  71.410  1.00  0.00    -0.405 C  
BRANCH   3   4
HETATM    4  C   UNL     1     -11.943   7.515  71.496  1.00  0.00    -0.336 C  
BRANCH   4   5
HETATM    5  C   UNL     1     -11.277   6.944  70.245  1.00  0.00    -0.363 C  
BRANCH   5   6
HETATM    6  C   UNL     1     -10.176   7.869  69.732  1.00  0.00    -0.212 C  
BRANCH   6   7
HETATM    7  C   UNL     1     -10.755   8.944  68.813  1.00  0.00    -0.123 C  
BRANCH   7   8
HETATM    8  C   UNL     1     -10.372  10.342  69.293  1.00  0.00    -0.250 C  
BRANCH   8   9
HETATM    9  C   UNL     1     -10.147  11.283  68.111  1.00  0.00    -0.195 C  
BRANCH   9  10
HETATM   10  C   UNL     1     -10.632  10.646  66.813  1.00  0.00    -0.297 C  
BRANCH  10  11
HETATM   11  C   UNL     1      -9.666  10.904  65.658  1.00  0.00    -0.279 C  
BRANCH  11  12
HETATM   12  C   UNL     1     -10.409  10.824  64.329  1.00  0.00    -0.401 C  
BRANCH  12  13
HETATM   13  C   UNL     1     -10.542  12.184  63.648  1.00  0.00    -0.504 C  
BRANCH  13  14
HETATM   14  C   UNL     1     -11.975  12.659  63.701  1.00  0.00    -0.535 C  
HETATM   15  O   UNL     1     -12.949  11.990  63.384  1.00  0.00    -0.772 OA 
BRANCH  14  16
HETATM   16  O   UNL     1     -12.024  13.944  64.152  1.00  0.00    -0.443 OA 
BRANCH  16  17
HETATM   17  C   UNL     1     -11.213  14.217  65.311  1.00  0.00    -0.326 C  
HETATM   18  C   UNL     1     -10.629  15.622  65.211  1.00  0.00    -0.448 C  
HETATM   19  C   UNL     1     -12.108  14.089  66.536  1.00  0.00    -0.488 C  
ENDBRANCH  16  17
ENDBRANCH  14  16
ENDBRANCH  13  14
ENDBRANCH  12  13
ENDBRANCH  11  12
ENDBRANCH  10  11
ENDBRANCH   9  10
ENDBRANCH   8   9
ENDBRANCH   7   8
ENDBRANCH   6   7
ENDBRANCH   5   6
ENDBRANCH   4   5
ENDBRANCH   3   4
ENDBRANCH   2   3
TORSDOF 14
ENDMDL
MODEL       52
REMARK 921   NORMALIZED FREE ENERGY PREDICTED BY IDOCK:   -4.05 KCAL/MOL
REMARK 922        TOTAL FREE ENERGY PREDICTED BY IDOCK:   -8.94 KCAL/MOL
REMARK 923 INTER-LIGAND FREE ENERGY PREDICTED BY IDOCK:   -6.93 KCAL/MOL
REMARK 924 INTRA-LIGAND FREE ENERGY PREDICTED BY IDOCK:   -2.01 KCAL/MOL
REMARK 927      BINDING AFFINITY PREDICTED BY RF-SCORE:    0.00 PKD
ROOT
HETATM    1  C   UNL     1     -10.489  10.851  68.249  1.00  0.00    -0.205 C  
HETATM    2  C   UNL     1      -9.640  10.999  66.996  1.00  0.00    -0.199 C  
ENDROOT
BRANCH   2   3
HETATM    3  C   UNL     1     -10.317  10.350  65.791  1.00  0.00    -0.257 C  
BRANCH   3   4
HETATM    4  C   UNL     1      -9.438  10.446  64.544  1.00  0.00    -0.342 C  
BRANCH   4   5
HETATM    5  C   UNL     1     -10.046  11.404  63.521  1.00  0.00    -0.437 C  
BRANCH   5   6
HETATM    6  C   UNL     1     -11.500  11.728  63.861  1.00  0.00    -0.481 C  
BRANCH   6   7
HETATM    7  C   UNL     1     -11.914  13.066  63.250  1.00  0.00    -0.493 C  
BRANCH   7   8
HETATM    8  C   UNL     1     -12.329  14.059  64.332  1.00  0.00    -0.401 C  
BRANCH   8   9
HETATM    9  C   UNL     1     -12.724  13.335  65.618  1.00  0.00    -0.373 C  
BRANCH   9  10
HETATM   10  C   UNL     1     -12.041  13.968  66.826  1.00  0.00    -0.480 C  
BRANCH  10  11
HETATM   11  C   UNL     1     -10.789  14.747  66.426  1.00  0.00    -0.322 C  
BRANCH  11  12
HETATM   12  C   UNL     1      -9.850  14.874  67.621  1.00  0.00    -0.217 C  
BRANCH  12  13
HETATM   13  C   UNL     1     -10.532  14.526  68.942  1.00  0.00    -0.246 C  
BRANCH  13  14
HETATM   14  C   UNL     1     -11.088  15.773  69.588  1.00  0.00    -0.307 C  
HETATM   15  O   UNL     1     -10.593  16.889  69.505  1.00  0.00    -0.327 OA 
BRANCH  14  16
HETATM   16  O   UNL     1     -12.223  15.472  70.281  1.00  0.00    -0.365 OA 
BRANCH  16  17
HETATM   17  C   UNL     1     -12.009  14.951  71.608  1.00  0.00    -0.363 C  
HETATM   18  C   UNL     1     -12.106  16.081  72.626  1.00  0.00    -0.640 C  
HETATM   19  C   UNL     1     -13.079  13.898  71.863  1.00  0.00    -0.469 C  
ENDBRANCH  16  17
ENDBRANCH  14  16
ENDBRANCH  13  14
ENDBRANCH  12  13
ENDBRANCH  11  12
ENDBRANCH  10  11
ENDBRANCH   9  10
ENDBRANCH   8   9
ENDBRANCH   7   8
ENDBRANCH   6   7
ENDBRANCH   5   6
ENDBRANCH   4   5
ENDBRANCH   3   4
ENDBRANCH   2   3
TORSDOF 14
ENDMDL
MODEL       53
REMARK 921   NORMALIZED FREE ENERGY PREDICTED BY IDOCK:   -4.04 KCAL/MOL
REMARK 922        TOTAL FREE ENERGY PREDICTED BY IDOCK:   -8.92 KCAL/MOL
REMARK 923 INTER-LIGAND FREE ENERGY PREDICTED BY IDOCK:   -7.27 KCAL/MOL
REMARK 924 INTRA-LIGAND FREE ENERGY PREDICTED BY IDOCK:   -1.65 KCAL/MOL
REMARK 927      BINDING AFFINITY PREDICTED BY RF-SCORE:    0.00 PKD
ROOT
HETATM    1  C   UNL     1     -13.858   9.065  71.926  1.00  0.00    -0.477 C  
HETATM    2  C   UNL     1     -12.941  10.202  71.504  1.00  0.00    -0.547 C  
ENDROOT
BRANCH   2   3
HETATM    3  C   UNL     1     -11.520   9.701  71.253  1.00  0.00    -0.463 C  
BRANCH   3   4
HETATM    4  C   UNL     1     -11.261   8.382  71.980  1.00  0.00    -0.404 C  
BRANCH   4   5
HETATM    5  C   UNL     1     -10.497   7.408  71.084  1.00  0.00    -0.220 C  
BRANCH   5   6
HETATM    6  C   UNL     1     -11.435   6.700  70.109  1.00  0.00    -0.444 C  
BRANCH   6   7
HETATM    7  C   UNL     1     -10.644   6.017  68.995  1.00  0.00    -0.357 C  
BRANCH   7   8
HETATM    8  C   UNL     1     -11.079   6.523  67.622  1.00  0.00    -0.380 C  
BRANCH   8   9
HETATM    9  C   UNL     1     -10.073   7.530  67.067  1.00  0.00    -0.332 C  
BRANCH   9  10
HETATM   10  C   UNL     1     -10.565   8.958  67.282  1.00  0.00    -0.304 C  
BRANCH  10  11
HETATM   11  C   UNL     1      -9.545   9.799  68.049  1.00  0.00    -0.160 C  
BRANCH  11  12
HETATM   12  C   UNL     1     -10.060  11.226  68.207  1.00  0.00    -0.198 C  
BRANCH  12  13
HETATM   13  C   UNL     1     -11.488  11.394  67.695  1.00  0.00    -0.348 C  
BRANCH  13  14
HETATM   14  C   UNL     1     -11.666  12.758  67.073  1.00  0.00    -0.374 C  
HETATM   15  O   UNL     1     -12.069  13.752  67.662  1.00  0.00    -0.363 OA 
BRANCH  14  16
HETATM   16  O   UNL     1     -11.314  12.720  65.758  1.00  0.00    -0.297 OA 
BRANCH  16  17
HETATM   17  C   UNL     1     -12.333  13.159  64.838  1.00  0.00    -0.441 C  
HETATM   18  C   UNL     1     -12.040  14.587  64.389  1.00  0.00    -0.492 C  
HETATM   19  C   UNL     1     -12.321  12.205  63.652  1.00  0.00    -0.673 C  
ENDBRANCH  16  17
ENDBRANCH  14  16
ENDBRANCH  13  14
ENDBRANCH  12  13
ENDBRANCH  11  12
ENDBRANCH  10  11
ENDBRANCH   9  10
ENDBRANCH   8   9
ENDBRANCH   7   8
ENDBRANCH   6   7
ENDBRANCH   5   6
ENDBRANCH   4   5
ENDBRANCH   3   4
ENDBRANCH   2   3
TORSDOF 14
ENDMDL
MODEL       54
REMARK 921   NORMALIZED FREE ENERGY PREDICTED BY IDOCK:   -4.04 KCAL/MOL
REMARK 922        TOTAL FREE ENERGY PREDICTED BY IDOCK:   -8.92 KCAL/MOL
REMARK 923 INTER-LIGAND FREE ENERGY PREDICTED BY IDOCK:   -7.39 KCAL/MOL
REMARK 924 INTRA-LIGAND FREE ENERGY PREDICTED BY IDOCK:   -1.53 KCAL/MOL
REMARK 927      BINDING AFFINITY PREDICTED BY RF-SCORE:    0.00 PKD
ROOT
HETATM    1  C   UNL     1      -9.940  10.365  65.457  1.00  0.00    -0.348 C  
HETATM    2  C   UNL     1      -9.574  10.354  63.982  1.00  0.00    -0.376 C  
ENDROOT
BRANCH   2   3
HETATM    3  C   UNL     1     -10.200  11.537  63.248  1.00  0.00    -0.432 C  
BRANCH   3   4
HETATM    4  C   UNL     1     -11.632  11.787  63.719  1.00  0.00    -0.508 C  
BRANCH   4   5
HETATM    5  C   UNL     1     -12.081  13.205  63.372  1.00  0.00    -0.558 C  
BRANCH   5   6
HETATM    6  C   UNL     1     -12.083  14.104  64.607  1.00  0.00    -0.469 C  
BRANCH   6   7
HETATM    7  C   UNL     1     -12.191  13.271  65.883  1.00  0.00    -0.497 C  
BRANCH   7   8
HETATM    8  C   UNL     1     -11.152  13.705  66.913  1.00  0.00    -0.314 C  
BRANCH   8   9
HETATM    9  C   UNL     1      -9.811  14.006  66.244  1.00  0.00    -0.318 C  
BRANCH   9  10
HETATM   10  C   UNL     1      -9.188  15.269  66.830  1.00  0.00    -0.274 C  
BRANCH  10  11
HETATM   11  C   UNL     1      -9.830  16.534  66.263  1.00  0.00    -0.336 C  
BRANCH  11  12
HETATM   12  C   UNL     1     -10.344  17.412  67.400  1.00  0.00    -0.343 C  
BRANCH  12  13
HETATM   13  C   UNL     1     -10.476  18.878  66.994  1.00  0.00    -0.497 C  
BRANCH  13  14
HETATM   14  C   UNL     1      -9.918  19.772  68.075  1.00  0.00    -0.433 C  
HETATM   15  O   UNL     1     -10.256  19.749  69.251  1.00  0.00    -0.381 OA 
BRANCH  14  16
HETATM   16  O   UNL     1      -8.983  20.612  67.549  1.00  0.00    -0.308 OA 
BRANCH  16  17
HETATM   17  C   UNL     1      -7.693  20.018  67.309  1.00  0.00    -0.294 C  
HETATM   18  C   UNL     1      -6.773  21.037  66.643  1.00  0.00    -0.329 C  
HETATM   19  C   UNL     1      -7.132  19.582  68.656  1.00  0.00    -0.373 C  
ENDBRANCH  16  17
ENDBRANCH  14  16
ENDBRANCH  13  14
ENDBRANCH  12  13
ENDBRANCH  11  12
ENDBRANCH  10  11
ENDBRANCH   9  10
ENDBRANCH   8   9
ENDBRANCH   7   8
ENDBRANCH   6   7
ENDBRANCH   5   6
ENDBRANCH   4   5
ENDBRANCH   3   4
ENDBRANCH   2   3
TORSDOF 14
ENDMDL
MODEL       55
REMARK 921   NORMALIZED FREE ENERGY PREDICTED BY IDOCK:   -4.04 KCAL/MOL
REMARK 922        TOTAL FREE ENERGY PREDICTED BY IDOCK:   -8.91 KCAL/MOL
REMARK 923 INTER-LIGAND FREE ENERGY PREDICTED BY IDOCK:   -6.97 KCAL/MOL
REMARK 924 INTRA-LIGAND FREE ENERGY PREDICTED BY IDOCK:   -1.94 KCAL/MOL
REMARK 927      BINDING AFFINITY PREDICTED BY RF-SCORE:    0.00 PKD
ROOT
HETATM    1  C   UNL     1     -11.614   7.736  71.084  1.00  0.00    -0.301 C  
HETATM    2  C   UNL     1     -12.204   8.740  72.060  1.00  0.00    -0.447 C  
ENDROOT
BRANCH   2   3
HETATM    3  C   UNL     1     -13.082   9.762  71.340  1.00  0.00    -0.489 C  
BRANCH   3   4
HETATM    4  C   UNL     1     -12.287  11.014  70.972  1.00  0.00    -0.490 C  
BRANCH   4   5
HETATM    5  C   UNL     1     -12.063  11.092  69.462  1.00  0.00    -0.396 C  
BRANCH   5   6
HETATM    6  C   UNL     1     -10.578  11.008  69.117  1.00  0.00    -0.253 C  
BRANCH   6   7
HETATM    7  C   UNL     1     -10.295   9.797  68.231  1.00  0.00    -0.231 C  
BRANCH   7   8
HETATM    8  C   UNL     1     -10.420  10.156  66.752  1.00  0.00    -0.270 C  
BRANCH   8   9
HETATM    9  C   UNL     1      -9.116  10.750  66.222  1.00  0.00    -0.192 C  
BRANCH   9  10
HETATM   10  C   UNL     1      -9.374  11.585  64.971  1.00  0.00    -0.107 C  
BRANCH  10  11
HETATM   11  C   UNL     1     -10.464  10.971  64.094  1.00  0.00    -0.434 C  
BRANCH  11  12
HETATM   12  C   UNL     1     -11.528  12.017  63.776  1.00  0.00    -0.547 C  
BRANCH  12  13
HETATM   13  C   UNL     1     -11.230  13.369  64.418  1.00  0.00    -0.408 C  
BRANCH  13  14
HETATM   14  C   UNL     1     -12.259  13.685  65.477  1.00  0.00    -0.443 C  
HETATM   15  O   UNL     1     -13.380  14.125  65.259  1.00  0.00    -0.715 OA 
BRANCH  14  16
HETATM   16  O   UNL     1     -11.756  13.409  66.713  1.00  0.00    -0.346 OA 
BRANCH  16  17
HETATM   17  C   UNL     1     -11.191  14.538  67.409  1.00  0.00    -0.327 C  
HETATM   18  C   UNL     1     -11.848  14.679  68.778  1.00  0.00    -0.348 C  
HETATM   19  C   UNL     1      -9.696  14.288  67.549  1.00  0.00    -0.223 C  
ENDBRANCH  16  17
ENDBRANCH  14  16
ENDBRANCH  13  14
ENDBRANCH  12  13
ENDBRANCH  11  12
ENDBRANCH  10  11
ENDBRANCH   9  10
ENDBRANCH   8   9
ENDBRANCH   7   8
ENDBRANCH   6   7
ENDBRANCH   5   6
ENDBRANCH   4   5
ENDBRANCH   3   4
ENDBRANCH   2   3
TORSDOF 14
ENDMDL
MODEL       56
REMARK 921   NORMALIZED FREE ENERGY PREDICTED BY IDOCK:   -4.03 KCAL/MOL
REMARK 922        TOTAL FREE ENERGY PREDICTED BY IDOCK:   -8.90 KCAL/MOL
REMARK 923 INTER-LIGAND FREE ENERGY PREDICTED BY IDOCK:   -6.97 KCAL/MOL
REMARK 924 INTRA-LIGAND FREE ENERGY PREDICTED BY IDOCK:   -1.93 KCAL/MOL
REMARK 927      BINDING AFFINITY PREDICTED BY RF-SCORE:    0.00 PKD
ROOT
HETATM    1  C   UNL     1      -9.816  10.522  64.428  1.00  0.00    -0.405 C  
HETATM    2  C   UNL     1     -10.306  11.829  63.828  1.00  0.00    -0.451 C  
ENDROOT
BRANCH   2   3
HETATM    3  C   UNL     1     -11.816  11.805  63.607  1.00  0.00    -0.498 C  
BRANCH   3   4
HETATM    4  C   UNL     1     -12.350  13.197  63.272  1.00  0.00    -0.366 C  
BRANCH   4   5
HETATM    5  C   UNL     1     -12.012  14.191  64.381  1.00  0.00    -0.478 C  
BRANCH   5   6
HETATM    6  C   UNL     1     -12.867  13.948  65.623  1.00  0.00    -0.467 C  
BRANCH   6   7
HETATM    7  C   UNL     1     -12.023  14.052  66.892  1.00  0.00    -0.479 C  
BRANCH   7   8
HETATM    8  C   UNL     1     -11.682  12.669  67.441  1.00  0.00    -0.432 C  
BRANCH   8   9
HETATM    9  C   UNL     1     -10.241  12.621  67.946  1.00  0.00    -0.220 C  
BRANCH   9  10
HETATM   10  C   UNL     1      -9.299  13.295  66.955  1.00  0.00    -0.242 C  
BRANCH  10  11
HETATM   11  C   UNL     1      -8.327  14.246  67.653  1.00  0.00    -0.187 C  
BRANCH  11  12
HETATM   12  C   UNL     1      -8.665  15.690  67.299  1.00  0.00    -0.213 C  
BRANCH  12  13
HETATM   13  C   UNL     1      -8.688  16.603  68.523  1.00  0.00    -0.242 C  
BRANCH  13  14
HETATM   14  C   UNL     1     -10.004  17.339  68.603  1.00  0.00    -0.327 C  
HETATM   15  O   UNL     1     -11.102  16.807  68.706  1.00  0.00    -0.306 OA 
BRANCH  14  16
HETATM   16  O   UNL     1      -9.791  18.683  68.541  1.00  0.00    -0.349 OA 
BRANCH  16  17
HETATM   17  C   UNL     1      -9.421  19.184  67.242  1.00  0.00    -0.312 C  
HETATM   18  C   UNL     1     -10.660  19.696  66.515  1.00  0.00    -0.591 C  
HETATM   19  C   UNL     1      -8.415  20.308  67.454  1.00  0.00    -0.405 C  
ENDBRANCH  16  17
ENDBRANCH  14  16
ENDBRANCH  13  14
ENDBRANCH  12  13
ENDBRANCH  11  12
ENDBRANCH  10  11
ENDBRANCH   9  10
ENDBRANCH   8   9
ENDBRANCH   7   8
ENDBRANCH   6   7
ENDBRANCH   5   6
ENDBRANCH   4   5
ENDBRANCH   3   4
ENDBRANCH   2   3
TORSDOF 14
ENDMDL
MODEL       57
REMARK 921   NORMALIZED FREE ENERGY PREDICTED BY IDOCK:   -4.03 KCAL/MOL
REMARK 922        TOTAL FREE ENERGY PREDICTED BY IDOCK:   -8.89 KCAL/MOL
REMARK 923 INTER-LIGAND FREE ENERGY PREDICTED BY IDOCK:   -7.37 KCAL/MOL
REMARK 924 INTRA-LIGAND FREE ENERGY PREDICTED BY IDOCK:   -1.52 KCAL/MOL
REMARK 927      BINDING AFFINITY PREDICTED BY RF-SCORE:    0.00 PKD
ROOT
HETATM    1  C   UNL     1      -9.163   9.951  62.364  1.00  0.00    -0.308 C  
HETATM    2  C   UNL     1      -9.461  11.342  62.900  1.00  0.00    -0.385 C  
ENDROOT
BRANCH   2   3
HETATM    3  C   UNL     1     -10.573  11.304  63.946  1.00  0.00    -0.455 C  
BRANCH   3   4
HETATM    4  C   UNL     1     -11.880  11.862  63.386  1.00  0.00    -0.512 C  
BRANCH   4   5
HETATM    5  C   UNL     1     -12.235  13.192  64.049  1.00  0.00    -0.482 C  
BRANCH   5   6
HETATM    6  C   UNL     1     -12.364  13.038  65.563  1.00  0.00    -0.527 C  
BRANCH   6   7
HETATM    7  C   UNL     1     -11.939  14.321  66.276  1.00  0.00    -0.428 C  
BRANCH   7   8
HETATM    8  C   UNL     1     -10.453  14.291  66.622  1.00  0.00    -0.278 C  
BRANCH   8   9
HETATM    9  C   UNL     1     -10.163  15.132  67.865  1.00  0.00    -0.232 C  
BRANCH   9  10
HETATM   10  C   UNL     1     -11.457  15.480  68.594  1.00  0.00    -0.367 C  
BRANCH  10  11
HETATM   11  C   UNL     1     -11.195  15.925  70.032  1.00  0.00    -0.354 C  
BRANCH  11  12
HETATM   12  C   UNL     1     -12.437  15.687  70.885  1.00  0.00    -0.497 C  
BRANCH  12  13
HETATM   13  C   UNL     1     -12.233  14.583  71.920  1.00  0.00    -0.363 C  
BRANCH  13  14
HETATM   14  C   UNL     1     -13.297  13.521  71.770  1.00  0.00    -0.397 C  
HETATM   15  O   UNL     1     -14.177  13.288  72.587  1.00  0.00    -0.724 OA 
BRANCH  14  16
HETATM   16  O   UNL     1     -13.132  12.859  70.590  1.00  0.00     0.065 OA 
BRANCH  16  17
HETATM   17  C   UNL     1     -11.994  11.976  70.539  1.00  0.00    -0.246 C  
HETATM   18  C   UNL     1     -12.362  10.627  71.148  1.00  0.00    -0.505 C  
HETATM   19  C   UNL     1     -11.601  11.821  69.077  1.00  0.00    -0.372 C  
ENDBRANCH  16  17
ENDBRANCH  14  16
ENDBRANCH  13  14
ENDBRANCH  12  13
ENDBRANCH  11  12
ENDBRANCH  10  11
ENDBRANCH   9  10
ENDBRANCH   8   9
ENDBRANCH   7   8
ENDBRANCH   6   7
ENDBRANCH   5   6
ENDBRANCH   4   5
ENDBRANCH   3   4
ENDBRANCH   2   3
TORSDOF 14
ENDMDL
MODEL       58
REMARK 921   NORMALIZED FREE ENERGY PREDICTED BY IDOCK:   -4.03 KCAL/MOL
REMARK 922        TOTAL FREE ENERGY PREDICTED BY IDOCK:   -8.89 KCAL/MOL
REMARK 923 INTER-LIGAND FREE ENERGY PREDICTED BY IDOCK:   -7.28 KCAL/MOL
REMARK 924 INTRA-LIGAND FREE ENERGY PREDICTED BY IDOCK:   -1.61 KCAL/MOL
REMARK 927      BINDING AFFINITY PREDICTED BY RF-SCORE:    0.00 PKD
ROOT
HETATM    1  C   UNL     1      -9.318   8.794  69.014  1.00  0.00    -0.145 C  
HETATM    2  C   UNL     1     -10.714   9.395  69.050  1.00  0.00    -0.209 C  
ENDROOT
BRANCH   2   3
HETATM    3  C   UNL     1     -10.968  10.124  70.368  1.00  0.00    -0.386 C  
BRANCH   3   4
HETATM    4  C   UNL     1     -11.989   9.378  71.226  1.00  0.00    -0.430 C  
BRANCH   4   5
HETATM    5  C   UNL     1     -13.090  10.321  71.707  1.00  0.00    -0.570 C  
BRANCH   5   6
HETATM    6  C   UNL     1     -12.808  11.762  71.286  1.00  0.00    -0.409 C  
BRANCH   6   7
HETATM    7  C   UNL     1     -13.646  12.741  72.105  1.00  0.00    -0.547 C  
BRANCH   7   8
HETATM    8  C   UNL     1     -12.864  14.016  72.407  1.00  0.00    -0.406 C  
BRANCH   8   9
HETATM    9  C   UNL     1     -13.484  15.219  71.697  1.00  0.00    -0.573 C  
BRANCH   9  10
HETATM   10  C   UNL     1     -12.693  15.570  70.440  1.00  0.00    -0.382 C  
BRANCH  10  11
HETATM   11  C   UNL     1     -11.273  15.007  70.488  1.00  0.00    -0.286 C  
BRANCH  11  12
HETATM   12  C   UNL     1     -10.685  14.956  69.082  1.00  0.00    -0.253 C  
BRANCH  12  13
HETATM   13  C   UNL     1     -10.495  13.528  68.578  1.00  0.00    -0.250 C  
BRANCH  13  14
HETATM   14  C   UNL     1     -11.602  13.158  67.620  1.00  0.00    -0.349 C  
HETATM   15  O   UNL     1     -12.182  12.081  67.598  1.00  0.00    -0.484 OA 
BRANCH  14  16
HETATM   16  O   UNL     1     -11.858  14.200  66.779  1.00  0.00    -0.386 OA 
BRANCH  16  17
HETATM   17  C   UNL     1     -11.223  14.114  65.488  1.00  0.00    -0.317 C  
HETATM   18  C   UNL     1     -12.240  13.665  64.444  1.00  0.00    -0.436 C  
HETATM   19  C   UNL     1     -10.679  15.496  65.154  1.00  0.00    -0.460 C  
ENDBRANCH  16  17
ENDBRANCH  14  16
ENDBRANCH  13  14
ENDBRANCH  12  13
ENDBRANCH  11  12
ENDBRANCH  10  11
ENDBRANCH   9  10
ENDBRANCH   8   9
ENDBRANCH   7   8
ENDBRANCH   6   7
ENDBRANCH   5   6
ENDBRANCH   4   5
ENDBRANCH   3   4
ENDBRANCH   2   3
TORSDOF 14
ENDMDL
MODEL       59
REMARK 921   NORMALIZED FREE ENERGY PREDICTED BY IDOCK:   -4.02 KCAL/MOL
REMARK 922        TOTAL FREE ENERGY PREDICTED BY IDOCK:   -8.88 KCAL/MOL
REMARK 923 INTER-LIGAND FREE ENERGY PREDICTED BY IDOCK:   -6.90 KCAL/MOL
REMARK 924 INTRA-LIGAND FREE ENERGY PREDICTED BY IDOCK:   -1.99 KCAL/MOL
REMARK 927      BINDING AFFINITY PREDICTED BY RF-SCORE:    0.00 PKD
ROOT
HETATM    1  C   UNL     1     -12.267  14.103  67.023  1.00  0.00    -0.374 C  
HETATM    2  C   UNL     1     -12.847  13.746  65.664  1.00  0.00    -0.456 C  
ENDROOT
BRANCH   2   3
HETATM    3  C   UNL     1     -11.902  14.154  64.536  1.00  0.00    -0.451 C  
BRANCH   3   4
HETATM    4  C   UNL     1     -12.009  13.196  63.350  1.00  0.00    -0.552 C  
BRANCH   4   5
HETATM    5  C   UNL     1     -11.714  11.760  63.780  1.00  0.00    -0.499 C  
BRANCH   5   6
HETATM    6  C   UNL     1     -10.297  11.345  63.388  1.00  0.00    -0.458 C  
BRANCH   6   7
HETATM    7  C   UNL     1      -9.484  10.960  64.623  1.00  0.00    -0.285 C  
BRANCH   7   8
HETATM    8  C   UNL     1     -10.382  10.807  65.847  1.00  0.00    -0.302 C  
BRANCH   8   9
HETATM    9  C   UNL     1      -9.667  11.277  67.113  1.00  0.00    -0.201 C  
BRANCH   9  10
HETATM   10  C   UNL     1      -9.000  12.629  66.885  1.00  0.00    -0.213 C  
BRANCH  10  11
HETATM   11  C   UNL     1      -8.632  13.310  68.202  1.00  0.00    -0.177 C  
BRANCH  11  12
HETATM   12  C   UNL     1      -8.874  14.812  68.099  1.00  0.00    -0.170 C  
BRANCH  12  13
HETATM   13  C   UNL     1      -8.956  15.294  66.652  1.00  0.00    -0.324 C  
BRANCH  13  14
HETATM   14  C   UNL     1      -8.658  16.773  66.575  1.00  0.00    -0.277 C  
HETATM   15  O   UNL     1      -7.735  17.272  65.945  1.00  0.00    -0.480 OA 
BRANCH  14  16
HETATM   16  O   UNL     1      -9.567  17.470  67.313  1.00  0.00    -0.263 OA 
BRANCH  16  17
HETATM   17  C   UNL     1      -9.379  18.899  67.323  1.00  0.00    -0.293 C  
HETATM   18  C   UNL     1     -10.316  19.548  66.310  1.00  0.00    -0.601 C  
HETATM   19  C   UNL     1      -9.680  19.390  68.732  1.00  0.00    -0.516 C  
ENDBRANCH  16  17
ENDBRANCH  14  16
ENDBRANCH  13  14
ENDBRANCH  12  13
ENDBRANCH  11  12
ENDBRANCH  10  11
ENDBRANCH   9  10
ENDBRANCH   8   9
ENDBRANCH   7   8
ENDBRANCH   6   7
ENDBRANCH   5   6
ENDBRANCH   4   5
ENDBRANCH   3   4
ENDBRANCH   2   3
TORSDOF 14
ENDMDL
MODEL       60
REMARK 921   NORMALIZED FREE ENERGY PREDICTED BY IDOCK:   -4.02 KCAL/MOL
REMARK 922        TOTAL FREE ENERGY PREDICTED BY IDOCK:   -8.87 KCAL/MOL
REMARK 923 INTER-LIGAND FREE ENERGY PREDICTED BY IDOCK:   -6.99 KCAL/MOL
REMARK 924 INTRA-LIGAND FREE ENERGY PREDICTED BY IDOCK:   -1.88 KCAL/MOL
REMARK 927      BINDING AFFINITY PREDICTED BY RF-SCORE:    0.00 PKD
ROOT
HETATM    1  C   UNL     1     -10.652  19.371  65.978  1.00  0.00    -0.573 C  
HETATM    2  C   UNL     1     -10.510  18.896  67.415  1.00  0.00    -0.520 C  
ENDROOT
BRANCH   2   3
HETATM    3  C   UNL     1      -9.193  18.153  67.623  1.00  0.00    -0.259 C  
BRANCH   3   4
HETATM    4  C   UNL     1      -8.942  17.144  66.503  1.00  0.00    -0.300 C  
BRANCH   4   5
HETATM    5  C   UNL     1      -9.621  15.810  66.810  1.00  0.00    -0.253 C  
BRANCH   5   6
HETATM    6  C   UNL     1      -9.948  15.048  65.527  1.00  0.00    -0.390 C  
BRANCH   6   7
HETATM    7  C   UNL     1     -11.015  15.782  64.718  1.00  0.00    -0.410 C  
BRANCH   7   8
HETATM    8  C   UNL     1     -12.263  14.920  64.544  1.00  0.00    -0.396 C  
BRANCH   8   9
HETATM    9  C   UNL     1     -11.928  13.608  63.836  1.00  0.00    -0.455 C  
BRANCH   9  10
HETATM   10  C   UNL     1     -12.276  12.414  64.719  1.00  0.00    -0.493 C  
BRANCH  10  11
HETATM   11  C   UNL     1     -11.043  11.573  65.046  1.00  0.00    -0.268 C  
BRANCH  11  12
HETATM   12  C   UNL     1     -10.801  11.568  66.552  1.00  0.00    -0.335 C  
BRANCH  12  13
HETATM   13  C   UNL     1     -11.824  12.408  67.313  1.00  0.00    -0.357 C  
BRANCH  13  14
HETATM   14  C   UNL     1     -11.648  12.226  68.802  1.00  0.00    -0.330 C  
HETATM   15  O   UNL     1     -11.817  11.176  69.407  1.00  0.00    -0.291 OA 
BRANCH  14  16
HETATM   16  O   UNL     1     -11.274  13.405  69.374  1.00  0.00    -0.244 OA 
BRANCH  16  17
HETATM   17  C   UNL     1     -12.360  14.274  69.751  1.00  0.00    -0.292 C  
HETATM   18  C   UNL     1     -12.746  14.013  71.203  1.00  0.00    -0.436 C  
HETATM   19  C   UNL     1     -11.884  15.708  69.567  1.00  0.00    -0.387 C  
ENDBRANCH  16  17
ENDBRANCH  14  16
ENDBRANCH  13  14
ENDBRANCH  12  13
ENDBRANCH  11  12
ENDBRANCH  10  11
ENDBRANCH   9  10
ENDBRANCH   8   9
ENDBRANCH   7   8
ENDBRANCH   6   7
ENDBRANCH   5   6
ENDBRANCH   4   5
ENDBRANCH   3   4
ENDBRANCH   2   3
TORSDOF 14
ENDMDL
MODEL       61
REMARK 921   NORMALIZED FREE ENERGY PREDICTED BY IDOCK:   -4.01 KCAL/MOL
REMARK 922        TOTAL FREE ENERGY PREDICTED BY IDOCK:   -8.86 KCAL/MOL
REMARK 923 INTER-LIGAND FREE ENERGY PREDICTED BY IDOCK:   -6.81 KCAL/MOL
REMARK 924 INTRA-LIGAND FREE ENERGY PREDICTED BY IDOCK:   -2.05 KCAL/MOL
REMARK 927      BINDING AFFINITY PREDICTED BY RF-SCORE:    0.00 PKD
ROOT
HETATM    1  C   UNL     1     -11.529  13.878  68.903  1.00  0.00    -0.340 C  
HETATM    2  C   UNL     1     -11.986  14.177  67.484  1.00  0.00    -0.419 C  
ENDROOT
BRANCH   2   3
HETATM    3  C   UNL     1     -10.812  14.600  66.604  1.00  0.00    -0.312 C  
BRANCH   3   4
HETATM    4  C   UNL     1     -11.274  14.932  65.186  1.00  0.00    -0.389 C  
BRANCH   4   5
HETATM    5  C   UNL     1     -12.532  14.144  64.824  1.00  0.00    -0.395 C  
BRANCH   5   6
HETATM    6  C   UNL     1     -12.361  13.404  63.499  1.00  0.00    -0.398 C  
BRANCH   6   7
HETATM    7  C   UNL     1     -11.945  11.954  63.738  1.00  0.00    -0.547 C  
BRANCH   7   8
HETATM    8  C   UNL     1     -10.449  11.764  63.498  1.00  0.00    -0.500 C  
BRANCH   8   9
HETATM    9  C   UNL     1      -9.789  11.064  64.685  1.00  0.00    -0.338 C  
BRANCH   9  10
HETATM   10  C   UNL     1     -10.785  10.882  65.826  1.00  0.00    -0.179 C  
BRANCH  10  11
HETATM   11  C   UNL     1     -10.105  10.970  67.191  1.00  0.00    -0.227 C  
BRANCH  11  12
HETATM   12  C   UNL     1     -10.959  10.271  68.245  1.00  0.00    -0.315 C  
BRANCH  12  13
HETATM   13  C   UNL     1     -10.208   9.148  68.956  1.00  0.00    -0.219 C  
BRANCH  13  14
HETATM   14  C   UNL     1     -10.554   9.136  70.426  1.00  0.00    -0.230 C  
HETATM   15  O   UNL     1      -9.740   9.127  71.340  1.00  0.00    -0.295 OA 
BRANCH  14  16
HETATM   16  O   UNL     1     -11.907   9.133  70.587  1.00  0.00    -0.264 OA 
BRANCH  16  17
HETATM   17  C   UNL     1     -12.381   9.760  71.795  1.00  0.00    -0.386 C  
HETATM   18  C   UNL     1     -12.803  11.195  71.498  1.00  0.00    -0.542 C  
HETATM   19  C   UNL     1     -13.560   8.943  72.302  1.00  0.00    -0.513 C  
ENDBRANCH  16  17
ENDBRANCH  14  16
ENDBRANCH  13  14
ENDBRANCH  12  13
ENDBRANCH  11  12
ENDBRANCH  10  11
ENDBRANCH   9  10
ENDBRANCH   8   9
ENDBRANCH   7   8
ENDBRANCH   6   7
ENDBRANCH   5   6
ENDBRANCH   4   5
ENDBRANCH   3   4
ENDBRANCH   2   3
TORSDOF 14
ENDMDL
MODEL       62
REMARK 921   NORMALIZED FREE ENERGY PREDICTED BY IDOCK:   -4.01 KCAL/MOL
REMARK 922        TOTAL FREE ENERGY PREDICTED BY IDOCK:   -8.86 KCAL/MOL
REMARK 923 INTER-LIGAND FREE ENERGY PREDICTED BY IDOCK:   -7.40 KCAL/MOL
REMARK 924 INTRA-LIGAND FREE ENERGY PREDICTED BY IDOCK:   -1.46 KCAL/MOL
REMARK 927      BINDING AFFINITY PREDICTED BY RF-SCORE:    0.00 PKD
ROOT
HETATM    1  C   UNL     1      -9.717   7.912  66.653  1.00  0.00    -0.305 C  
HETATM    2  C   UNL     1     -10.944   7.233  67.240  1.00  0.00    -0.284 C  
ENDROOT
BRANCH   2   3
HETATM    3  C   UNL     1     -10.552   6.045  68.116  1.00  0.00    -0.328 C  
BRANCH   3   4
HETATM    4  C   UNL     1     -11.281   6.083  69.459  1.00  0.00    -0.416 C  
BRANCH   4   5
HETATM    5  C   UNL     1     -10.886   7.323  70.259  1.00  0.00    -0.264 C  
BRANCH   5   6
HETATM    6  C   UNL     1     -11.774   7.494  71.490  1.00  0.00    -0.309 C  
BRANCH   6   7
HETATM    7  C   UNL     1     -11.673   8.916  72.038  1.00  0.00    -0.438 C  
BRANCH   7   8
HETATM    8  C   UNL     1     -13.009   9.645  71.925  1.00  0.00    -0.527 C  
BRANCH   8   9
HETATM    9  C   UNL     1     -12.900  10.846  70.986  1.00  0.00    -0.472 C  
BRANCH   9  10
HETATM   10  C   UNL     1     -11.488  10.962  70.420  1.00  0.00    -0.367 C  
BRANCH  10  11
HETATM   11  C   UNL     1     -11.479  10.883  68.894  1.00  0.00    -0.369 C  
BRANCH  11  12
HETATM   12  C   UNL     1     -11.876  12.231  68.301  1.00  0.00    -0.367 C  
BRANCH  12  13
HETATM   13  C   UNL     1     -10.975  13.368  68.777  1.00  0.00    -0.290 C  
BRANCH  13  14
HETATM   14  C   UNL     1     -11.806  14.573  69.149  1.00  0.00    -0.319 C  
HETATM   15  O   UNL     1     -11.701  15.683  68.643  1.00  0.00    -0.366 OA 
BRANCH  14  16
HETATM   16  O   UNL     1     -12.689  14.245  70.133  1.00  0.00    -0.331 OA 
BRANCH  16  17
HETATM   17  C   UNL     1     -12.963  15.292  71.084  1.00  0.00    -0.454 C  
HETATM   18  C   UNL     1     -14.296  15.024  71.775  1.00  0.00    -0.674 C  
HETATM   19  C   UNL     1     -11.823  15.302  72.093  1.00  0.00    -0.526 C  
ENDBRANCH  16  17
ENDBRANCH  14  16
ENDBRANCH  13  14
ENDBRANCH  12  13
ENDBRANCH  11  12
ENDBRANCH  10  11
ENDBRANCH   9  10
ENDBRANCH   8   9
ENDBRANCH   7   8
ENDBRANCH   6   7
ENDBRANCH   5   6
ENDBRANCH   4   5
ENDBRANCH   3   4
ENDBRANCH   2   3
TORSDOF 14
ENDMDL
MODEL       63
REMARK 921   NORMALIZED FREE ENERGY PREDICTED BY IDOCK:   -4.01 KCAL/MOL
REMARK 922        TOTAL FREE ENERGY PREDICTED BY IDOCK:   -8.85 KCAL/MOL
REMARK 923 INTER-LIGAND FREE ENERGY PREDICTED BY IDOCK:   -7.81 KCAL/MOL
REMARK 924 INTRA-LIGAND FREE ENERGY PREDICTED BY IDOCK:   -1.04 KCAL/MOL
REMARK 927      BINDING AFFINITY PREDICTED BY RF-SCORE:    0.00 PKD
ROOT
HETATM    1  C   UNL     1     -13.625  15.259  71.260  1.00  0.00    -0.584 C  
HETATM    2  C   UNL     1     -13.547  14.394  72.507  1.00  0.00    -0.598 C  
ENDROOT
BRANCH   2   3
HETATM    3  C   UNL     1     -13.488  12.911  72.148  1.00  0.00    -0.619 C  
BRANCH   3   4
HETATM    4  C   UNL     1     -12.546  12.663  70.971  1.00  0.00    -0.354 C  
BRANCH   4   5
HETATM    5  C   UNL     1     -12.343  11.166  70.741  1.00  0.00    -0.504 C  
BRANCH   5   6
HETATM    6  C   UNL     1     -11.410  10.908  69.560  1.00  0.00    -0.351 C  
BRANCH   6   7
HETATM    7  C   UNL     1     -11.709  11.871  68.412  1.00  0.00    -0.387 C  
BRANCH   7   8
HETATM    8  C   UNL     1     -10.855  11.551  67.189  1.00  0.00    -0.314 C  
BRANCH   8   9
HETATM    9  C   UNL     1     -11.519  12.058  65.910  1.00  0.00    -0.392 C  
BRANCH   9  10
HETATM   10  C   UNL     1     -12.173  13.416  66.143  1.00  0.00    -0.471 C  
BRANCH  10  11
HETATM   11  C   UNL     1     -11.753  14.437  65.086  1.00  0.00    -0.372 C  
BRANCH  11  12
HETATM   12  C   UNL     1     -10.293  14.827  65.289  1.00  0.00    -0.425 C  
BRANCH  12  13
HETATM   13  C   UNL     1     -10.110  16.329  65.494  1.00  0.00    -0.276 C  
BRANCH  13  14
HETATM   14  C   UNL     1     -10.033  16.650  66.968  1.00  0.00    -0.271 C  
HETATM   15  O   UNL     1      -9.557  15.916  67.823  1.00  0.00    -0.216 OA 
BRANCH  14  16
HETATM   16  O   UNL     1     -10.572  17.879  67.206  1.00  0.00    -0.373 OA 
BRANCH  16  17
HETATM   17  C   UNL     1      -9.636  18.974  67.174  1.00  0.00    -0.312 C  
HETATM   18  C   UNL     1     -10.270  20.171  66.473  1.00  0.00    -0.558 C  
HETATM   19  C   UNL     1      -9.283  19.316  68.615  1.00  0.00    -0.436 C  
ENDBRANCH  16  17
ENDBRANCH  14  16
ENDBRANCH  13  14
ENDBRANCH  12  13
ENDBRANCH  11  12
ENDBRANCH  10  11
ENDBRANCH   9  10
ENDBRANCH   8   9
ENDBRANCH   7   8
ENDBRANCH   6   7
ENDBRANCH   5   6
ENDBRANCH   4   5
ENDBRANCH   3   4
ENDBRANCH   2   3
TORSDOF 14
ENDMDL
MODEL       64
REMARK 921   NORMALIZED FREE ENERGY PREDICTED BY IDOCK:   -4.01 KCAL/MOL
REMARK 922        TOTAL FREE ENERGY PREDICTED BY IDOCK:   -8.85 KCAL/MOL
REMARK 923 INTER-LIGAND FREE ENERGY PREDICTED BY IDOCK:   -7.35 KCAL/MOL
REMARK 924 INTRA-LIGAND FREE ENERGY PREDICTED BY IDOCK:   -1.50 KCAL/MOL
REMARK 927      BINDING AFFINITY PREDICTED BY RF-SCORE:    0.00 PKD
ROOT
HETATM    1  C   UNL     1     -10.619  19.483  67.540  1.00  0.00    -0.599 C  
HETATM    2  C   UNL     1     -10.372  18.519  66.392  1.00  0.00    -0.456 C  
ENDROOT
BRANCH   2   3
HETATM    3  C   UNL     1     -10.432  17.068  66.866  1.00  0.00    -0.268 C  
BRANCH   3   4
HETATM    4  C   UNL     1      -9.496  16.179  66.048  1.00  0.00    -0.374 C  
BRANCH   4   5
HETATM    5  C   UNL     1     -10.242  14.967  65.494  1.00  0.00    -0.406 C  
BRANCH   5   6
HETATM    6  C   UNL     1     -11.415  14.580  66.392  1.00  0.00    -0.362 C  
BRANCH   6   7
HETATM    7  C   UNL     1     -12.519  13.903  65.582  1.00  0.00    -0.538 C  
BRANCH   7   8
HETATM    8  C   UNL     1     -12.071  13.654  64.144  1.00  0.00    -0.484 C  
BRANCH   8   9
HETATM    9  C   UNL     1     -12.127  12.165  63.804  1.00  0.00    -0.620 C  
BRANCH   9  10
HETATM   10  C   UNL     1     -10.736  11.635  63.472  1.00  0.00    -0.495 C  
BRANCH  10  11
HETATM   11  C   UNL     1      -9.849  11.555  64.713  1.00  0.00    -0.286 C  
BRANCH  11  12
HETATM   12  C   UNL     1     -10.618  10.916  65.865  1.00  0.00    -0.244 C  
BRANCH  12  13
HETATM   13  C   UNL     1      -9.952  11.153  67.217  1.00  0.00    -0.211 C  
BRANCH  13  14
HETATM   14  C   UNL     1     -10.989  11.185  68.315  1.00  0.00    -0.226 C  
HETATM   15  O   UNL     1     -12.152  11.536  68.172  1.00  0.00    -0.604 OA 
BRANCH  14  16
HETATM   16  O   UNL     1     -10.438  10.768  69.489  1.00  0.00    -0.220 OA 
BRANCH  16  17
HETATM   17  C   UNL     1     -11.032   9.584  70.056  1.00  0.00    -0.251 C  
HETATM   18  C   UNL     1      -9.937   8.648  70.556  1.00  0.00    -0.220 C  
HETATM   19  C   UNL     1     -11.930  10.027  71.203  1.00  0.00    -0.484 C  
ENDBRANCH  16  17
ENDBRANCH  14  16
ENDBRANCH  13  14
ENDBRANCH  12  13
ENDBRANCH  11  12
ENDBRANCH  10  11
ENDBRANCH   9  10
ENDBRANCH   8   9
ENDBRANCH   7   8
ENDBRANCH   6   7
ENDBRANCH   5   6
ENDBRANCH   4   5
ENDBRANCH   3   4
ENDBRANCH   2   3
TORSDOF 14
ENDMDL
MODEL       65
REMARK 921   NORMALIZED FREE ENERGY PREDICTED BY IDOCK:   -4.00 KCAL/MOL
REMARK 922        TOTAL FREE ENERGY PREDICTED BY IDOCK:   -8.85 KCAL/MOL
REMARK 923 INTER-LIGAND FREE ENERGY PREDICTED BY IDOCK:   -7.29 KCAL/MOL
REMARK 924 INTRA-LIGAND FREE ENERGY PREDICTED BY IDOCK:   -1.56 KCAL/MOL
REMARK 927      BINDING AFFINITY PREDICTED BY RF-SCORE:    0.00 PKD
ROOT
HETATM    1  C   UNL     1     -10.237  10.705  64.579  1.00  0.00    -0.399 C  
HETATM    2  C   UNL     1     -10.766  11.643  63.506  1.00  0.00    -0.495 C  
ENDROOT
BRANCH   2   3
HETATM    3  C   UNL     1     -12.264  11.884  63.673  1.00  0.00    -0.586 C  
BRANCH   3   4
HETATM    4  C   UNL     1     -12.540  12.965  64.717  1.00  0.00    -0.493 C  
BRANCH   4   5
HETATM    5  C   UNL     1     -12.081  14.334  64.219  1.00  0.00    -0.467 C  
BRANCH   5   6
HETATM    6  C   UNL     1     -11.350  15.107  65.315  1.00  0.00    -0.318 C  
BRANCH   6   7
HETATM    7  C   UNL     1     -10.137  14.324  65.813  1.00  0.00    -0.356 C  
BRANCH   7   8
HETATM    8  C   UNL     1     -10.138  14.217  67.335  1.00  0.00    -0.247 C  
BRANCH   8   9
HETATM    9  C   UNL     1     -11.441  14.761  67.921  1.00  0.00    -0.361 C  
BRANCH   9  10
HETATM   10  C   UNL     1     -11.169  15.971  68.808  1.00  0.00    -0.360 C  
BRANCH  10  11
HETATM   11  C   UNL     1     -10.049  16.846  68.248  1.00  0.00    -0.302 C  
BRANCH  11  12
HETATM   12  C   UNL     1     -10.308  18.309  68.591  1.00  0.00    -0.301 C  
BRANCH  12  13
HETATM   13  C   UNL     1     -10.839  19.105  67.401  1.00  0.00    -0.533 C  
BRANCH  13  14
HETATM   14  C   UNL     1      -9.789  20.073  66.909  1.00  0.00    -0.438 C  
HETATM   15  O   UNL     1      -9.613  21.202  67.348  1.00  0.00    -0.343 OA 
BRANCH  14  16
HETATM   16  O   UNL     1      -9.069  19.507  65.900  1.00  0.00    -0.406 OA 
BRANCH  16  17
HETATM   17  C   UNL     1      -7.665  19.332  66.175  1.00  0.00    -0.290 C  
HETATM   18  C   UNL     1      -7.253  17.899  65.855  1.00  0.00    -0.277 C  
HETATM   19  C   UNL     1      -6.902  20.322  65.306  1.00  0.00    -0.318 C  
ENDBRANCH  16  17
ENDBRANCH  14  16
ENDBRANCH  13  14
ENDBRANCH  12  13
ENDBRANCH  11  12
ENDBRANCH  10  11
ENDBRANCH   9  10
ENDBRANCH   8   9
ENDBRANCH   7   8
ENDBRANCH   6   7
ENDBRANCH   5   6
ENDBRANCH   4   5
ENDBRANCH   3   4
ENDBRANCH   2   3
TORSDOF 14
ENDMDL
MODEL       66
REMARK 921   NORMALIZED FREE ENERGY PREDICTED BY IDOCK:   -4.00 KCAL/MOL
REMARK 922        TOTAL FREE ENERGY PREDICTED BY IDOCK:   -8.84 KCAL/MOL
REMARK 923 INTER-LIGAND FREE ENERGY PREDICTED BY IDOCK:   -7.18 KCAL/MOL
REMARK 924 INTRA-LIGAND FREE ENERGY PREDICTED BY IDOCK:   -1.66 KCAL/MOL
REMARK 927      BINDING AFFINITY PREDICTED BY RF-SCORE:    0.00 PKD
ROOT
HETATM    1  C   UNL     1     -14.059  15.237  72.509  1.00  0.00    -0.567 C  
HETATM    2  C   UNL     1     -13.506  13.899  72.045  1.00  0.00    -0.543 C  
ENDROOT
BRANCH   2   3
HETATM    3  C   UNL     1     -12.511  14.080  70.900  1.00  0.00    -0.439 C  
BRANCH   3   4
HETATM    4  C   UNL     1     -12.320  15.558  70.561  1.00  0.00    -0.461 C  
BRANCH   4   5
HETATM    5  C   UNL     1     -11.572  15.720  69.238  1.00  0.00    -0.380 C  
BRANCH   5   6
HETATM    6  C   UNL     1     -10.568  14.589  69.027  1.00  0.00    -0.250 C  
BRANCH   6   7
HETATM    7  C   UNL     1      -9.702  14.856  67.797  1.00  0.00    -0.212 C  
BRANCH   7   8
HETATM    8  C   UNL     1      -9.233  13.550  67.161  1.00  0.00    -0.236 C  
BRANCH   8   9
HETATM    9  C   UNL     1      -9.712  12.345  67.969  1.00  0.00    -0.210 C  
BRANCH   9  10
HETATM   10  C   UNL     1      -9.128  11.052  67.409  1.00  0.00    -0.143 C  
BRANCH  10  11
HETATM   11  C   UNL     1      -8.990  11.104  65.888  1.00  0.00    -0.210 C  
BRANCH  11  12
HETATM   12  C   UNL     1     -10.304  10.693  65.232  1.00  0.00    -0.321 C  
BRANCH  12  13
HETATM   13  C   UNL     1     -10.396  11.140  63.775  1.00  0.00    -0.447 C  
BRANCH  13  14
HETATM   14  C   UNL     1     -11.445  12.216  63.622  1.00  0.00    -0.481 C  
HETATM   15  O   UNL     1     -12.552  12.054  63.126  1.00  0.00    -0.538 OA 
BRANCH  14  16
HETATM   16  O   UNL     1     -10.977  13.397  64.116  1.00  0.00    -0.378 OA 
BRANCH  16  17
HETATM   17  C   UNL     1     -11.991  14.359  64.464  1.00  0.00    -0.472 C  
HETATM   18  C   UNL     1     -12.658  13.953  65.774  1.00  0.00    -0.533 C  
HETATM   19  C   UNL     1     -11.309  15.714  64.601  1.00  0.00    -0.355 C  
ENDBRANCH  16  17
ENDBRANCH  14  16
ENDBRANCH  13  14
ENDBRANCH  12  13
ENDBRANCH  11  12
ENDBRANCH  10  11
ENDBRANCH   9  10
ENDBRANCH   8   9
ENDBRANCH   7   8
ENDBRANCH   6   7
ENDBRANCH   5   6
ENDBRANCH   4   5
ENDBRANCH   3   4
ENDBRANCH   2   3
TORSDOF 14
ENDMDL
MODEL       67
REMARK 921   NORMALIZED FREE ENERGY PREDICTED BY IDOCK:   -3.99 KCAL/MOL
REMARK 922        TOTAL FREE ENERGY PREDICTED BY IDOCK:   -8.82 KCAL/MOL
REMARK 923 INTER-LIGAND FREE ENERGY PREDICTED BY IDOCK:   -6.91 KCAL/MOL
REMARK 924 INTRA-LIGAND FREE ENERGY PREDICTED BY IDOCK:   -1.91 KCAL/MOL
REMARK 927      BINDING AFFINITY PREDICTED BY RF-SCORE:    0.00 PKD
ROOT
HETATM    1  C   UNL     1     -10.531   9.976  69.233  1.00  0.00    -0.245 C  
HETATM    2  C   UNL     1      -9.685  10.506  68.087  1.00  0.00    -0.166 C  
ENDROOT
BRANCH   2   3
HETATM    3  C   UNL     1     -10.498  10.604  66.798  1.00  0.00    -0.303 C  
BRANCH   3   4
HETATM    4  C   UNL     1      -9.636  11.090  65.634  1.00  0.00    -0.265 C  
BRANCH   4   5
HETATM    5  C   UNL     1     -10.265  10.712  64.294  1.00  0.00    -0.391 C  
BRANCH   5   6
HETATM    6  C   UNL     1     -10.521  11.947  63.434  1.00  0.00    -0.487 C  
BRANCH   6   7
HETATM    7  C   UNL     1     -11.980  12.389  63.540  1.00  0.00    -0.627 C  
BRANCH   7   8
HETATM    8  C   UNL     1     -12.087  13.796  64.122  1.00  0.00    -0.478 C  
BRANCH   8   9
HETATM    9  C   UNL     1     -12.728  13.768  65.508  1.00  0.00    -0.530 C  
BRANCH   9  10
HETATM   10  C   UNL     1     -11.776  14.339  66.554  1.00  0.00    -0.409 C  
BRANCH  10  11
HETATM   11  C   UNL     1     -12.020  13.732  67.935  1.00  0.00    -0.391 C  
BRANCH  11  12
HETATM   12  C   UNL     1     -10.777  13.895  68.804  1.00  0.00    -0.278 C  
BRANCH  12  13
HETATM   13  C   UNL     1      -9.824  14.962  68.269  1.00  0.00    -0.218 C  
BRANCH  13  14
HETATM   14  C   UNL     1     -10.115  16.296  68.914  1.00  0.00    -0.251 C  
HETATM   15  O   UNL     1     -10.727  16.451  69.962  1.00  0.00    -0.319 OA 
BRANCH  14  16
HETATM   16  O   UNL     1      -9.596  17.303  68.157  1.00  0.00    -0.265 OA 
BRANCH  16  17
HETATM   17  C   UNL     1     -10.569  18.111  67.466  1.00  0.00    -0.401 C  
HETATM   18  C   UNL     1     -10.370  19.579  67.832  1.00  0.00    -0.567 C  
HETATM   19  C   UNL     1     -10.367  17.894  65.973  1.00  0.00    -0.318 C  
ENDBRANCH  16  17
ENDBRANCH  14  16
ENDBRANCH  13  14
ENDBRANCH  12  13
ENDBRANCH  11  12
ENDBRANCH  10  11
ENDBRANCH   9  10
ENDBRANCH   8   9
ENDBRANCH   7   8
ENDBRANCH   6   7
ENDBRANCH   5   6
ENDBRANCH   4   5
ENDBRANCH   3   4
ENDBRANCH   2   3
TORSDOF 14
ENDMDL
MODEL       68
REMARK 921   NORMALIZED FREE ENERGY PREDICTED BY IDOCK:   -3.99 KCAL/MOL
REMARK 922        TOTAL FREE ENERGY PREDICTED BY IDOCK:   -8.82 KCAL/MOL
REMARK 923 INTER-LIGAND FREE ENERGY PREDICTED BY IDOCK:   -6.99 KCAL/MOL
REMARK 924 INTRA-LIGAND FREE ENERGY PREDICTED BY IDOCK:   -1.83 KCAL/MOL
REMARK 927      BINDING AFFINITY PREDICTED BY RF-SCORE:    0.00 PKD
ROOT
HETATM    1  C   UNL     1     -10.541  19.038  67.048  1.00  0.00    -0.543 C  
HETATM    2  C   UNL     1     -10.424  17.957  65.986  1.00  0.00    -0.293 C  
ENDROOT
BRANCH   2   3
HETATM    3  C   UNL     1     -10.424  16.565  66.612  1.00  0.00    -0.266 C  
BRANCH   3   4
HETATM    4  C   UNL     1      -9.993  15.502  65.602  1.00  0.00    -0.394 C  
BRANCH   4   5
HETATM    5  C   UNL     1     -11.189  14.999  64.796  1.00  0.00    -0.393 C  
BRANCH   5   6
HETATM    6  C   UNL     1     -12.052  14.047  65.622  1.00  0.00    -0.432 C  
BRANCH   6   7
HETATM    7  C   UNL     1     -12.226  12.711  64.902  1.00  0.00    -0.531 C  
BRANCH   7   8
HETATM    8  C   UNL     1     -10.879  12.036  64.664  1.00  0.00    -0.357 C  
BRANCH   8   9
HETATM    9  C   UNL     1     -10.461  11.204  65.876  1.00  0.00    -0.310 C  
BRANCH   9  10
HETATM   10  C   UNL     1      -9.056  11.584  66.333  1.00  0.00    -0.206 C  
BRANCH  10  11
HETATM   11  C   UNL     1      -9.086  12.505  67.551  1.00  0.00    -0.187 C  
BRANCH  11  12
HETATM   12  C   UNL     1     -10.318  12.208  68.400  1.00  0.00    -0.236 C  
BRANCH  12  13
HETATM   13  C   UNL     1     -11.041  13.476  68.847  1.00  0.00    -0.305 C  
BRANCH  13  14
HETATM   14  C   UNL     1     -11.985  13.168  69.985  1.00  0.00    -0.321 C  
HETATM   15  O   UNL     1     -12.169  12.057  70.464  1.00  0.00    -0.364 OA 
BRANCH  14  16
HETATM   16  O   UNL     1     -12.603  14.308  70.400  1.00  0.00    -0.340 OA 
BRANCH  16  17
HETATM   17  C   UNL     1     -12.503  14.580  71.812  1.00  0.00    -0.348 C  
HETATM   18  C   UNL     1     -11.745  15.885  72.032  1.00  0.00    -0.588 C  
HETATM   19  C   UNL     1     -13.920  14.678  72.360  1.00  0.00    -0.578 C  
ENDBRANCH  16  17
ENDBRANCH  14  16
ENDBRANCH  13  14
ENDBRANCH  12  13
ENDBRANCH  11  12
ENDBRANCH  10  11
ENDBRANCH   9  10
ENDBRANCH   8   9
ENDBRANCH   7   8
ENDBRANCH   6   7
ENDBRANCH   5   6
ENDBRANCH   4   5
ENDBRANCH   3   4
ENDBRANCH   2   3
TORSDOF 14
ENDMDL
MODEL       69
REMARK 921   NORMALIZED FREE ENERGY PREDICTED BY IDOCK:   -3.99 KCAL/MOL
REMARK 922        TOTAL FREE ENERGY PREDICTED BY IDOCK:   -8.82 KCAL/MOL
REMARK 923 INTER-LIGAND FREE ENERGY PREDICTED BY IDOCK:   -7.66 KCAL/MOL
REMARK 924 INTRA-LIGAND FREE ENERGY PREDICTED BY IDOCK:   -1.16 KCAL/MOL
REMARK 927      BINDING AFFINITY PREDICTED BY RF-SCORE:    0.00 PKD
ROOT
HETATM    1  C   UNL     1     -11.870   8.212  71.565  1.00  0.00    -0.332 C  
HETATM    2  C   UNL     1     -13.047   9.107  71.918  1.00  0.00    -0.478 C  
ENDROOT
BRANCH   2   3
HETATM    3  C   UNL     1     -12.803  10.545  71.465  1.00  0.00    -0.568 C  
BRANCH   3   4
HETATM    4  C   UNL     1     -11.570  10.642  70.568  1.00  0.00    -0.444 C  
BRANCH   4   5
HETATM    5  C   UNL     1     -11.930  11.245  69.211  1.00  0.00    -0.411 C  
BRANCH   5   6
HETATM    6  C   UNL     1     -11.252  10.488  68.071  1.00  0.00    -0.361 C  
BRANCH   6   7
HETATM    7  C   UNL     1     -10.751  11.455  67.000  1.00  0.00    -0.304 C  
BRANCH   7   8
HETATM    8  C   UNL     1     -11.719  12.621  66.816  1.00  0.00    -0.460 C  
BRANCH   8   9
HETATM    9  C   UNL     1     -12.229  12.686  65.377  1.00  0.00    -0.517 C  
BRANCH   9  10
HETATM   10  C   UNL     1     -12.115  14.104  64.828  1.00  0.00    -0.454 C  
BRANCH  10  11
HETATM   11  C   UNL     1     -10.666  14.588  64.804  1.00  0.00    -0.414 C  
BRANCH  11  12
HETATM   12  C   UNL     1     -10.598  16.051  65.233  1.00  0.00    -0.424 C  
BRANCH  12  13
HETATM   13  C   UNL     1      -9.724  16.259  66.468  1.00  0.00    -0.281 C  
BRANCH  13  14
HETATM   14  C   UNL     1     -10.582  16.579  67.668  1.00  0.00    -0.321 C  
HETATM   15  O   UNL     1     -11.589  15.966  67.997  1.00  0.00    -0.296 OA 
BRANCH  14  16
HETATM   16  O   UNL     1     -10.073  17.655  68.332  1.00  0.00    -0.324 OA 
BRANCH  16  17
HETATM   17  C   UNL     1      -9.483  18.668  67.494  1.00  0.00    -0.291 C  
HETATM   18  C   UNL     1     -10.540  19.698  67.111  1.00  0.00    -0.611 C  
HETATM   19  C   UNL     1      -8.355  19.316  68.284  1.00  0.00    -0.373 C  
ENDBRANCH  16  17
ENDBRANCH  14  16
ENDBRANCH  13  14
ENDBRANCH  12  13
ENDBRANCH  11  12
ENDBRANCH  10  11
ENDBRANCH   9  10
ENDBRANCH   8   9
ENDBRANCH   7   8
ENDBRANCH   6   7
ENDBRANCH   5   6
ENDBRANCH   4   5
ENDBRANCH   3   4
ENDBRANCH   2   3
TORSDOF 14
ENDMDL
MODEL       70
REMARK 921   NORMALIZED FREE ENERGY PREDICTED BY IDOCK:   -3.97 KCAL/MOL
REMARK 922        TOTAL FREE ENERGY PREDICTED BY IDOCK:   -8.79 KCAL/MOL
REMARK 923 INTER-LIGAND FREE ENERGY PREDICTED BY IDOCK:   -6.94 KCAL/MOL
REMARK 924 INTRA-LIGAND FREE ENERGY PREDICTED BY IDOCK:   -1.84 KCAL/MOL
REMARK 927      BINDING AFFINITY PREDICTED BY RF-SCORE:    0.00 PKD
ROOT
HETATM    1  C   UNL     1      -6.818  18.366  65.734  1.00  0.00    -0.310 C  
HETATM    2  C   UNL     1      -7.106  19.856  65.648  1.00  0.00    -0.337 C  
ENDROOT
BRANCH   2   3
HETATM    3  C   UNL     1      -7.234  20.475  67.038  1.00  0.00    -0.368 C  
BRANCH   3   4
HETATM    4  C   UNL     1      -8.368  19.827  67.831  1.00  0.00    -0.342 C  
BRANCH   4   5
HETATM    5  C   UNL     1      -9.704  20.500  67.521  1.00  0.00    -0.554 C  
BRANCH   5   6
HETATM    6  C   UNL     1     -10.816  19.468  67.341  1.00  0.00    -0.536 C  
BRANCH   6   7
HETATM    7  C   UNL     1     -10.659  18.729  66.014  1.00  0.00    -0.442 C  
BRANCH   7   8
HETATM    8  C   UNL     1     -10.534  17.223  66.235  1.00  0.00    -0.268 C  
BRANCH   8   9
HETATM    9  C   UNL     1     -10.511  16.889  67.725  1.00  0.00    -0.340 C  
BRANCH   9  10
HETATM   10  C   UNL     1      -9.392  15.902  68.040  1.00  0.00    -0.201 C  
BRANCH  10  11
HETATM   11  C   UNL     1      -8.785  15.309  66.770  1.00  0.00    -0.304 C  
BRANCH  11  12
HETATM   12  C   UNL     1      -8.925  13.790  66.785  1.00  0.00    -0.202 C  
BRANCH  12  13
HETATM   13  C   UNL     1     -10.161  13.324  67.551  1.00  0.00    -0.223 C  
BRANCH  13  14
HETATM   14  C   UNL     1     -11.086  12.556  66.638  1.00  0.00    -0.283 C  
HETATM   15  O   UNL     1     -11.882  11.701  67.001  1.00  0.00    -0.591 OA 
BRANCH  14  16
HETATM   16  O   UNL     1     -10.901  12.952  65.347  1.00  0.00    -0.276 OA 
BRANCH  16  17
HETATM   17  C   UNL     1     -11.155  11.940  64.354  1.00  0.00    -0.336 C  
HETATM   18  C   UNL     1     -12.482  12.223  63.658  1.00  0.00    -0.647 C  
HETATM   19  C   UNL     1     -10.003  11.976  63.359  1.00  0.00    -0.384 C  
ENDBRANCH  16  17
ENDBRANCH  14  16
ENDBRANCH  13  14
ENDBRANCH  12  13
ENDBRANCH  11  12
ENDBRANCH  10  11
ENDBRANCH   9  10
ENDBRANCH   8   9
ENDBRANCH   7   8
ENDBRANCH   6   7
ENDBRANCH   5   6
ENDBRANCH   4   5
ENDBRANCH   3   4
ENDBRANCH   2   3
TORSDOF 14
ENDMDL
MODEL       71
REMARK 921   NORMALIZED FREE ENERGY PREDICTED BY IDOCK:   -3.97 KCAL/MOL
REMARK 922        TOTAL FREE ENERGY PREDICTED BY IDOCK:   -8.79 KCAL/MOL
REMARK 923 INTER-LIGAND FREE ENERGY PREDICTED BY IDOCK:   -7.13 KCAL/MOL
REMARK 924 INTRA-LIGAND FREE ENERGY PREDICTED BY IDOCK:   -1.66 KCAL/MOL
REMARK 927      BINDING AFFINITY PREDICTED BY RF-SCORE:    0.00 PKD
ROOT
HETATM    1  C   UNL     1     -10.387  10.932  64.450  1.00  0.00    -0.430 C  
HETATM    2  C   UNL     1     -10.536  12.056  63.438  1.00  0.00    -0.478 C  
ENDROOT
BRANCH   2   3
HETATM    3  C   UNL     1     -11.982  12.542  63.360  1.00  0.00    -0.602 C  
BRANCH   3   4
HETATM    4  C   UNL     1     -12.636  12.561  64.741  1.00  0.00    -0.493 C  
BRANCH   4   5
HETATM    5  C   UNL     1     -12.746  13.989  65.272  1.00  0.00    -0.468 C  
BRANCH   5   6
HETATM    6  C   UNL     1     -11.694  14.263  66.346  1.00  0.00    -0.403 C  
BRANCH   6   7
HETATM    7  C   UNL     1     -11.758  13.207  67.448  1.00  0.00    -0.419 C  
BRANCH   7   8
HETATM    8  C   UNL     1     -11.826  13.858  68.828  1.00  0.00    -0.396 C  
BRANCH   8   9
HETATM    9  C   UNL     1     -11.463  15.340  68.753  1.00  0.00    -0.345 C  
BRANCH   9  10
HETATM   10  C   UNL     1     -10.497  15.717  69.872  1.00  0.00    -0.327 C  
BRANCH  10  11
HETATM   11  C   UNL     1      -9.048  15.412  69.496  1.00  0.00    -0.231 C  
BRANCH  11  12
HETATM   12  C   UNL     1      -8.778  15.850  68.061  1.00  0.00    -0.169 C  
BRANCH  12  13
HETATM   13  C   UNL     1      -7.564  16.770  67.947  1.00  0.00    -0.177 C  
BRANCH  13  14
HETATM   14  C   UNL     1      -7.920  18.165  68.404  1.00  0.00    -0.302 C  
HETATM   15  O   UNL     1      -7.156  18.935  68.970  1.00  0.00    -0.308 OA 
BRANCH  14  16
HETATM   16  O   UNL     1      -9.218  18.440  68.096  1.00  0.00    -0.294 OA 
BRANCH  16  17
HETATM   17  C   UNL     1      -9.416  19.146  66.855  1.00  0.00    -0.320 C  
HETATM   18  C   UNL     1     -10.452  18.415  66.008  1.00  0.00    -0.400 C  
HETATM   19  C   UNL     1      -9.890  20.551  67.198  1.00  0.00    -0.567 C  
ENDBRANCH  16  17
ENDBRANCH  14  16
ENDBRANCH  13  14
ENDBRANCH  12  13
ENDBRANCH  11  12
ENDBRANCH  10  11
ENDBRANCH   9  10
ENDBRANCH   8   9
ENDBRANCH   7   8
ENDBRANCH   6   7
ENDBRANCH   5   6
ENDBRANCH   4   5
ENDBRANCH   3   4
ENDBRANCH   2   3
TORSDOF 14
ENDMDL
MODEL       72
REMARK 921   NORMALIZED FREE ENERGY PREDICTED BY IDOCK:   -3.96 KCAL/MOL
REMARK 922        TOTAL FREE ENERGY PREDICTED BY IDOCK:   -8.78 KCAL/MOL
REMARK 923 INTER-LIGAND FREE ENERGY PREDICTED BY IDOCK:   -7.39 KCAL/MOL
REMARK 924 INTRA-LIGAND FREE ENERGY PREDICTED BY IDOCK:   -1.38 KCAL/MOL
REMARK 927      BINDING AFFINITY PREDICTED BY RF-SCORE:    0.00 PKD
ROOT
HETATM    1  C   UNL     1     -10.482   7.952  67.742  1.00  0.00    -0.278 C  
HETATM    2  C   UNL     1     -10.492   8.749  69.036  1.00  0.00    -0.220 C  
ENDROOT
BRANCH   2   3
HETATM    3  C   UNL     1     -10.386   7.830  70.251  1.00  0.00    -0.215 C  
BRANCH   3   4
HETATM    4  C   UNL     1     -11.516   6.802  70.269  1.00  0.00    -0.414 C  
BRANCH   4   5
HETATM    5  C   UNL     1     -12.447   7.036  71.458  1.00  0.00    -0.426 C  
BRANCH   5   6
HETATM    6  C   UNL     1     -12.090   8.325  72.195  1.00  0.00    -0.425 C  
BRANCH   6   7
HETATM    7  C   UNL     1     -13.251   9.316  72.149  1.00  0.00    -0.535 C  
BRANCH   7   8
HETATM    8  C   UNL     1     -12.955  10.466  71.189  1.00  0.00    -0.506 C  
BRANCH   8   9
HETATM    9  C   UNL     1     -13.144  11.816  71.878  1.00  0.00    -0.482 C  
BRANCH   9  10
HETATM   10  C   UNL     1     -12.616  12.948  71.002  1.00  0.00    -0.376 C  
BRANCH  10  11
HETATM   11  C   UNL     1     -12.753  14.307  71.686  1.00  0.00    -0.430 C  
BRANCH  11  12
HETATM   12  C   UNL     1     -12.501  15.425  70.681  1.00  0.00    -0.478 C  
BRANCH  12  13
HETATM   13  C   UNL     1     -11.201  15.232  69.904  1.00  0.00    -0.305 C  
BRANCH  13  14
HETATM   14  C   UNL     1     -11.413  15.545  68.442  1.00  0.00    -0.363 C  
HETATM   15  O   UNL     1     -10.897  16.478  67.840  1.00  0.00    -0.342 OA 
BRANCH  14  16
HETATM   16  O   UNL     1     -12.265  14.636  67.889  1.00  0.00    -0.241 OA 
BRANCH  16  17
HETATM   17  C   UNL     1     -11.673  13.755  66.916  1.00  0.00    -0.395 C  
HETATM   18  C   UNL     1     -11.623  12.335  67.471  1.00  0.00    -0.422 C  
HETATM   19  C   UNL     1     -12.531  13.816  65.660  1.00  0.00    -0.541 C  
ENDBRANCH  16  17
ENDBRANCH  14  16
ENDBRANCH  13  14
ENDBRANCH  12  13
ENDBRANCH  11  12
ENDBRANCH  10  11
ENDBRANCH   9  10
ENDBRANCH   8   9
ENDBRANCH   7   8
ENDBRANCH   6   7
ENDBRANCH   5   6
ENDBRANCH   4   5
ENDBRANCH   3   4
ENDBRANCH   2   3
TORSDOF 14
ENDMDL
MODEL       73
REMARK 921   NORMALIZED FREE ENERGY PREDICTED BY IDOCK:   -3.96 KCAL/MOL
REMARK 922        TOTAL FREE ENERGY PREDICTED BY IDOCK:   -8.78 KCAL/MOL
REMARK 923 INTER-LIGAND FREE ENERGY PREDICTED BY IDOCK:   -7.56 KCAL/MOL
REMARK 924 INTRA-LIGAND FREE ENERGY PREDICTED BY IDOCK:   -1.21 KCAL/MOL
REMARK 927      BINDING AFFINITY PREDICTED BY RF-SCORE:    0.00 PKD
ROOT
HETATM    1  C   UNL     1     -11.750   6.862  70.774  1.00  0.00    -0.417 C  
HETATM    2  C   UNL     1     -12.718   7.793  71.484  1.00  0.00    -0.355 C  
ENDROOT
BRANCH   2   3
HETATM    3  C   UNL     1     -12.144   9.203  71.602  1.00  0.00    -0.432 C  
BRANCH   3   4
HETATM    4  C   UNL     1     -13.219  10.261  71.358  1.00  0.00    -0.464 C  
BRANCH   4   5
HETATM    5  C   UNL     1     -12.589  11.633  71.124  1.00  0.00    -0.439 C  
BRANCH   5   6
HETATM    6  C   UNL     1     -13.288  12.712  71.949  1.00  0.00    -0.485 C  
BRANCH   6   7
HETATM    7  C   UNL     1     -13.184  14.072  71.262  1.00  0.00    -0.373 C  
BRANCH   7   8
HETATM    8  C   UNL     1     -11.788  14.292  70.685  1.00  0.00    -0.349 C  
BRANCH   8   9
HETATM    9  C   UNL     1     -11.855  15.061  69.366  1.00  0.00    -0.358 C  
BRANCH   9  10
HETATM   10  C   UNL     1     -11.500  14.154  68.193  1.00  0.00    -0.340 C  
BRANCH  10  11
HETATM   11  C   UNL     1     -12.378  14.433  66.974  1.00  0.00    -0.133 C  
BRANCH  11  12
HETATM   12  C   UNL     1     -11.626  14.075  65.697  1.00  0.00    -0.332 C  
BRANCH  12  13
HETATM   13  C   UNL     1     -10.302  14.824  65.567  1.00  0.00    -0.387 C  
BRANCH  13  14
HETATM   14  C   UNL     1     -10.539  16.218  65.037  1.00  0.00    -0.233 C  
HETATM   15  O   UNL     1     -11.273  16.498  64.099  1.00  0.00    -1.004 OA 
BRANCH  14  16
HETATM   16  O   UNL     1      -9.812  17.120  65.755  1.00  0.00    -0.530 OA 
BRANCH  16  17
HETATM   17  C   UNL     1     -10.422  17.556  66.985  1.00  0.00    -0.293 C  
HETATM   18  C   UNL     1      -9.441  17.375  68.138  1.00  0.00    -0.288 C  
HETATM   19  C   UNL     1     -10.794  19.023  66.816  1.00  0.00    -0.351 C  
ENDBRANCH  16  17
ENDBRANCH  14  16
ENDBRANCH  13  14
ENDBRANCH  12  13
ENDBRANCH  11  12
ENDBRANCH  10  11
ENDBRANCH   9  10
ENDBRANCH   8   9
ENDBRANCH   7   8
ENDBRANCH   6   7
ENDBRANCH   5   6
ENDBRANCH   4   5
ENDBRANCH   3   4
ENDBRANCH   2   3
TORSDOF 14
ENDMDL
MODEL       74
REMARK 921   NORMALIZED FREE ENERGY PREDICTED BY IDOCK:   -3.96 KCAL/MOL
REMARK 922        TOTAL FREE ENERGY PREDICTED BY IDOCK:   -8.77 KCAL/MOL
REMARK 923 INTER-LIGAND FREE ENERGY PREDICTED BY IDOCK:   -6.64 KCAL/MOL
REMARK 924 INTRA-LIGAND FREE ENERGY PREDICTED BY IDOCK:   -2.13 KCAL/MOL
REMARK 927      BINDING AFFINITY PREDICTED BY RF-SCORE:    0.00 PKD
ROOT
HETATM    1  C   UNL     1      -9.366  10.118  63.302  1.00  0.00    -0.332 C  
HETATM    2  C   UNL     1     -10.294  11.207  63.815  1.00  0.00    -0.447 C  
ENDROOT
BRANCH   2   3
HETATM    3  C   UNL     1     -10.048  11.491  65.295  1.00  0.00    -0.314 C  
BRANCH   3   4
HETATM    4  C   UNL     1     -11.355  11.794  66.026  1.00  0.00    -0.335 C  
BRANCH   4   5
HETATM    5  C   UNL     1     -12.405  12.342  65.060  1.00  0.00    -0.441 C  
BRANCH   5   6
HETATM    6  C   UNL     1     -12.692  13.817  65.332  1.00  0.00    -0.513 C  
BRANCH   6   7
HETATM    7  C   UNL     1     -11.964  14.706  64.324  1.00  0.00    -0.406 C  
BRANCH   7   8
HETATM    8  C   UNL     1     -11.186  15.814  65.029  1.00  0.00    -0.314 C  
BRANCH   8   9
HETATM    9  C   UNL     1      -9.863  15.286  65.581  1.00  0.00    -0.383 C  
BRANCH   9  10
HETATM   10  C   UNL     1      -9.932  15.137  67.098  1.00  0.00    -0.237 C  
BRANCH  10  11
HETATM   11  C   UNL     1     -10.781  16.234  67.737  1.00  0.00    -0.325 C  
BRANCH  11  12
HETATM   12  C   UNL     1      -9.891  17.192  68.523  1.00  0.00    -0.297 C  
BRANCH  12  13
HETATM   13  C   UNL     1     -10.115  18.651  68.134  1.00  0.00    -0.418 C  
BRANCH  13  14
HETATM   14  C   UNL     1      -9.507  18.932  66.780  1.00  0.00    -0.326 C  
HETATM   15  O   UNL     1     -10.137  19.049  65.738  1.00  0.00    -0.499 OA 
BRANCH  14  16
HETATM   16  O   UNL     1      -8.153  19.034  66.889  1.00  0.00    -0.252 OA 
BRANCH  16  17
HETATM   17  C   UNL     1      -7.403  18.343  65.871  1.00  0.00    -0.203 C  
HETATM   18  C   UNL     1      -6.361  19.281  65.273  1.00  0.00    -0.314 C  
HETATM   19  C   UNL     1      -6.737  17.142  66.529  1.00  0.00    -0.290 C  
ENDBRANCH  16  17
ENDBRANCH  14  16
ENDBRANCH  13  14
ENDBRANCH  12  13
ENDBRANCH  11  12
ENDBRANCH  10  11
ENDBRANCH   9  10
ENDBRANCH   8   9
ENDBRANCH   7   8
ENDBRANCH   6   7
ENDBRANCH   5   6
ENDBRANCH   4   5
ENDBRANCH   3   4
ENDBRANCH   2   3
TORSDOF 14
ENDMDL
MODEL       75
REMARK 921   NORMALIZED FREE ENERGY PREDICTED BY IDOCK:   -3.95 KCAL/MOL
REMARK 922        TOTAL FREE ENERGY PREDICTED BY IDOCK:   -8.76 KCAL/MOL
REMARK 923 INTER-LIGAND FREE ENERGY PREDICTED BY IDOCK:   -7.60 KCAL/MOL
REMARK 924 INTRA-LIGAND FREE ENERGY PREDICTED BY IDOCK:   -1.16 KCAL/MOL
REMARK 927      BINDING AFFINITY PREDICTED BY RF-SCORE:    0.00 PKD
ROOT
HETATM    1  C   UNL     1      -9.980   8.397  72.383  1.00  0.00    -0.380 C  
HETATM    2  C   UNL     1     -11.025   9.043  71.487  1.00  0.00    -0.418 C  
ENDROOT
BRANCH   2   3
HETATM    3  C   UNL     1     -12.436   8.785  72.010  1.00  0.00    -0.452 C  
BRANCH   3   4
HETATM    4  C   UNL     1     -13.252  10.076  72.062  1.00  0.00    -0.545 C  
BRANCH   4   5
HETATM    5  C   UNL     1     -12.630  11.151  71.172  1.00  0.00    -0.513 C  
BRANCH   5   6
HETATM    6  C   UNL     1     -13.014  12.552  71.643  1.00  0.00    -0.405 C  
BRANCH   6   7
HETATM    7  C   UNL     1     -12.326  13.618  70.793  1.00  0.00    -0.446 C  
BRANCH   7   8
HETATM    8  C   UNL     1     -12.086  14.893  71.598  1.00  0.00    -0.415 C  
BRANCH   8   9
HETATM    9  C   UNL     1     -11.307  15.920  70.777  1.00  0.00    -0.424 C  
BRANCH   9  10
HETATM   10  C   UNL     1     -10.719  15.276  69.526  1.00  0.00    -0.270 C  
BRANCH  10  11
HETATM   11  C   UNL     1     -11.064  16.068  68.265  1.00  0.00    -0.351 C  
BRANCH  11  12
HETATM   12  C   UNL     1      -9.810  16.284  67.426  1.00  0.00    -0.242 C  
BRANCH  12  13
HETATM   13  C   UNL     1      -9.567  15.151  66.432  1.00  0.00    -0.309 C  
BRANCH  13  14
HETATM   14  C   UNL     1     -10.571  15.217  65.306  1.00  0.00    -0.411 C  
HETATM   15  O   UNL     1     -10.895  16.237  64.712  1.00  0.00    -0.671 OA 
BRANCH  14  16
HETATM   16  O   UNL     1     -11.065  13.973  65.049  1.00  0.00    -0.330 OA 
BRANCH  16  17
HETATM   17  C   UNL     1     -10.614  12.938  65.944  1.00  0.00    -0.269 C  
HETATM   18  C   UNL     1     -11.767  12.489  66.834  1.00  0.00    -0.447 C  
HETATM   19  C   UNL     1     -10.107  11.784  65.090  1.00  0.00    -0.298 C  
ENDBRANCH  16  17
ENDBRANCH  14  16
ENDBRANCH  13  14
ENDBRANCH  12  13
ENDBRANCH  11  12
ENDBRANCH  10  11
ENDBRANCH   9  10
ENDBRANCH   8   9
ENDBRANCH   7   8
ENDBRANCH   6   7
ENDBRANCH   5   6
ENDBRANCH   4   5
ENDBRANCH   3   4
ENDBRANCH   2   3
TORSDOF 14
ENDMDL
MODEL       76
REMARK 921   NORMALIZED FREE ENERGY PREDICTED BY IDOCK:   -3.95 KCAL/MOL
REMARK 922        TOTAL FREE ENERGY PREDICTED BY IDOCK:   -8.74 KCAL/MOL
REMARK 923 INTER-LIGAND FREE ENERGY PREDICTED BY IDOCK:   -7.13 KCAL/MOL
REMARK 924 INTRA-LIGAND FREE ENERGY PREDICTED BY IDOCK:   -1.61 KCAL/MOL
REMARK 927      BINDING AFFINITY PREDICTED BY RF-SCORE:    0.00 PKD
ROOT
HETATM    1  C   UNL     1     -12.630   8.631  71.671  1.00  0.00    -0.381 C  
HETATM    2  C   UNL     1     -13.341   9.946  71.946  1.00  0.00    -0.524 C  
ENDROOT
BRANCH   2   3
HETATM    3  C   UNL     1     -12.727  11.086  71.137  1.00  0.00    -0.521 C  
BRANCH   3   4
HETATM    4  C   UNL     1     -11.622  10.577  70.213  1.00  0.00    -0.417 C  
BRANCH   4   5
HETATM    5  C   UNL     1     -11.762  11.177  68.815  1.00  0.00    -0.394 C  
BRANCH   5   6
HETATM    6  C   UNL     1     -10.773  10.543  67.839  1.00  0.00    -0.305 C  
BRANCH   6   7
HETATM    7  C   UNL     1     -10.910  11.163  66.449  1.00  0.00    -0.284 C  
BRANCH   7   8
HETATM    8  C   UNL     1     -11.753  12.434  66.495  1.00  0.00    -0.443 C  
BRANCH   8   9
HETATM    9  C   UNL     1     -12.482  12.656  65.170  1.00  0.00    -0.531 C  
BRANCH   9  10
HETATM   10  C   UNL     1     -11.718  13.642  64.292  1.00  0.00    -0.438 C  
BRANCH  10  11
HETATM   11  C   UNL     1     -10.601  14.341  65.065  1.00  0.00    -0.444 C  
BRANCH  11  12
HETATM   12  C   UNL     1     -10.974  15.799  65.316  1.00  0.00    -0.354 C  
BRANCH  12  13
HETATM   13  C   UNL     1      -9.910  16.546  66.116  1.00  0.00    -0.355 C  
BRANCH  13  14
HETATM   14  C   UNL     1     -10.458  16.954  67.463  1.00  0.00    -0.328 C  
HETATM   15  O   UNL     1     -10.134  17.961  68.078  1.00  0.00    -0.320 OA 
BRANCH  14  16
HETATM   16  O   UNL     1     -11.366  16.035  67.895  1.00  0.00    -0.314 OA 
BRANCH  16  17
HETATM   17  C   UNL     1     -11.052  15.410  69.154  1.00  0.00    -0.266 C  
HETATM   18  C   UNL     1     -12.283  14.688  69.692  1.00  0.00    -0.325 C  
HETATM   19  C   UNL     1      -9.914  14.428  68.907  1.00  0.00    -0.183 C  
ENDBRANCH  16  17
ENDBRANCH  14  16
ENDBRANCH  13  14
ENDBRANCH  12  13
ENDBRANCH  11  12
ENDBRANCH  10  11
ENDBRANCH   9  10
ENDBRANCH   8   9
ENDBRANCH   7   8
ENDBRANCH   6   7
ENDBRANCH   5   6
ENDBRANCH   4   5
ENDBRANCH   3   4
ENDBRANCH   2   3
TORSDOF 14
ENDMDL
MODEL       77
REMARK 921   NORMALIZED FREE ENERGY PREDICTED BY IDOCK:   -3.95 KCAL/MOL
REMARK 922        TOTAL FREE ENERGY PREDICTED BY IDOCK:   -8.74 KCAL/MOL
REMARK 923 INTER-LIGAND FREE ENERGY PREDICTED BY IDOCK:   -6.79 KCAL/MOL
REMARK 924 INTRA-LIGAND FREE ENERGY PREDICTED BY IDOCK:   -1.95 KCAL/MOL
REMARK 927      BINDING AFFINITY PREDICTED BY RF-SCORE:    0.00 PKD
ROOT
HETATM    1  C   UNL     1      -9.033   9.564  64.568  1.00  0.00    -0.256 C  
HETATM    2  C   UNL     1     -10.102  10.424  65.223  1.00  0.00    -0.370 C  
ENDROOT
BRANCH   2   3
HETATM    3  C   UNL     1      -9.769  10.699  66.688  1.00  0.00    -0.225 C  
BRANCH   3   4
HETATM    4  C   UNL     1     -10.846  10.137  67.616  1.00  0.00    -0.346 C  
BRANCH   4   5
HETATM    5  C   UNL     1     -10.459   8.747  68.120  1.00  0.00    -0.243 C  
BRANCH   5   6
HETATM    6  C   UNL     1      -9.701   8.829  69.443  1.00  0.00    -0.172 C  
BRANCH   6   7
HETATM    7  C   UNL     1     -10.371   9.821  70.392  1.00  0.00    -0.354 C  
BRANCH   7   8
HETATM    8  C   UNL     1     -11.214   9.097  71.439  1.00  0.00    -0.419 C  
BRANCH   8   9
HETATM    9  C   UNL     1     -12.529   9.833  71.687  1.00  0.00    -0.500 C  
BRANCH   9  10
HETATM   10  C   UNL     1     -12.650  11.046  70.771  1.00  0.00    -0.463 C  
BRANCH  10  11
HETATM   11  C   UNL     1     -12.939  12.325  71.556  1.00  0.00    -0.390 C  
BRANCH  11  12
HETATM   12  C   UNL     1     -12.429  13.537  70.785  1.00  0.00    -0.428 C  
BRANCH  12  13
HETATM   13  C   UNL     1     -11.736  13.152  69.480  1.00  0.00    -0.382 C  
BRANCH  13  14
HETATM   14  C   UNL     1     -11.596  14.360  68.585  1.00  0.00    -0.314 C  
HETATM   15  O   UNL     1     -12.029  15.477  68.837  1.00  0.00    -0.351 OA 
BRANCH  14  16
HETATM   16  O   UNL     1     -10.917  14.025  67.452  1.00  0.00    -0.284 OA 
BRANCH  16  17
HETATM   17  C   UNL     1     -11.541  14.435  66.220  1.00  0.00    -0.372 C  
HETATM   18  C   UNL     1     -10.472  14.709  65.168  1.00  0.00    -0.440 C  
HETATM   19  C   UNL     1     -12.461  13.306  65.775  1.00  0.00    -0.480 C  
ENDBRANCH  16  17
ENDBRANCH  14  16
ENDBRANCH  13  14
ENDBRANCH  12  13
ENDBRANCH  11  12
ENDBRANCH  10  11
ENDBRANCH   9  10
ENDBRANCH   8   9
ENDBRANCH   7   8
ENDBRANCH   6   7
ENDBRANCH   5   6
ENDBRANCH   4   5
ENDBRANCH   3   4
ENDBRANCH   2   3
TORSDOF 14
ENDMDL
MODEL       78
REMARK 921   NORMALIZED FREE ENERGY PREDICTED BY IDOCK:   -3.94 KCAL/MOL
REMARK 922        TOTAL FREE ENERGY PREDICTED BY IDOCK:   -8.73 KCAL/MOL
REMARK 923 INTER-LIGAND FREE ENERGY PREDICTED BY IDOCK:   -7.32 KCAL/MOL
REMARK 924 INTRA-LIGAND FREE ENERGY PREDICTED BY IDOCK:   -1.42 KCAL/MOL
REMARK 927      BINDING AFFINITY PREDICTED BY RF-SCORE:    0.00 PKD
ROOT
HETATM    1  C   UNL     1      -6.741  18.924  67.355  1.00  0.00    -0.205 C  
HETATM    2  C   UNL     1      -7.607  19.795  66.459  1.00  0.00    -0.295 C  
ENDROOT
BRANCH   2   3
HETATM    3  C   UNL     1      -8.864  20.261  67.189  1.00  0.00    -0.446 C  
BRANCH   3   4
HETATM    4  C   UNL     1     -10.124  19.931  66.390  1.00  0.00    -0.615 C  
BRANCH   4   5
HETATM    5  C   UNL     1     -11.029  18.978  67.168  1.00  0.00    -0.338 C  
BRANCH   5   6
HETATM    6  C   UNL     1     -10.212  17.969  67.972  1.00  0.00    -0.390 C  
BRANCH   6   7
HETATM    7  C   UNL     1     -10.512  16.542  67.516  1.00  0.00    -0.310 C  
BRANCH   7   8
HETATM    8  C   UNL     1      -9.663  16.162  66.306  1.00  0.00    -0.332 C  
BRANCH   8   9
HETATM    9  C   UNL     1     -10.542  15.866  65.092  1.00  0.00    -0.421 C  
BRANCH   9  10
HETATM   10  C   UNL     1     -10.569  14.370  64.796  1.00  0.00    -0.417 C  
BRANCH  10  11
HETATM   11  C   UNL     1     -11.990  13.865  64.551  1.00  0.00    -0.464 C  
BRANCH  11  12
HETATM   12  C   UNL     1     -12.598  13.365  65.857  1.00  0.00    -0.412 C  
BRANCH  12  13
HETATM   13  C   UNL     1     -11.681  12.394  66.597  1.00  0.00    -0.438 C  
BRANCH  13  14
HETATM   14  C   UNL     1     -11.953  12.444  68.082  1.00  0.00    -0.214 C  
HETATM   15  O   UNL     1     -12.030  13.468  68.748  1.00  0.00    -0.338 OA 
BRANCH  14  16
HETATM   16  O   UNL     1     -12.096  11.181  68.572  1.00  0.00    -0.586 OA 
BRANCH  16  17
HETATM   17  C   UNL     1     -11.694  11.009  69.945  1.00  0.00    -0.346 C  
HETATM   18  C   UNL     1     -12.812  10.327  70.726  1.00  0.00    -0.427 C  
HETATM   19  C   UNL     1     -10.433  10.156  69.949  1.00  0.00    -0.322 C  
ENDBRANCH  16  17
ENDBRANCH  14  16
ENDBRANCH  13  14
ENDBRANCH  12  13
ENDBRANCH  11  12
ENDBRANCH  10  11
ENDBRANCH   9  10
ENDBRANCH   8   9
ENDBRANCH   7   8
ENDBRANCH   6   7
ENDBRANCH   5   6
ENDBRANCH   4   5
ENDBRANCH   3   4
ENDBRANCH   2   3
TORSDOF 14
ENDMDL
MODEL       79
REMARK 921   NORMALIZED FREE ENERGY PREDICTED BY IDOCK:   -3.94 KCAL/MOL
REMARK 922        TOTAL FREE ENERGY PREDICTED BY IDOCK:   -8.73 KCAL/MOL
REMARK 923 INTER-LIGAND FREE ENERGY PREDICTED BY IDOCK:   -7.53 KCAL/MOL
REMARK 924 INTRA-LIGAND FREE ENERGY PREDICTED BY IDOCK:   -1.20 KCAL/MOL
REMARK 927      BINDING AFFINITY PREDICTED BY RF-SCORE:    0.00 PKD
ROOT
HETATM    1  C   UNL     1     -10.867   6.303  66.919  1.00  0.00    -0.428 C  
HETATM    2  C   UNL     1     -10.660   7.636  67.620  1.00  0.00    -0.294 C  
ENDROOT
BRANCH   2   3
HETATM    3  C   UNL     1      -9.563   7.541  68.677  1.00  0.00    -0.151 C  
BRANCH   3   4
HETATM    4  C   UNL     1     -10.072   7.986  70.047  1.00  0.00    -0.196 C  
BRANCH   4   5
HETATM    5  C   UNL     1     -10.130   9.511  70.137  1.00  0.00    -0.293 C  
BRANCH   5   6
HETATM    6  C   UNL     1     -11.459   9.981  70.725  1.00  0.00    -0.438 C  
BRANCH   6   7
HETATM    7  C   UNL     1     -11.977  11.209  69.978  1.00  0.00    -0.447 C  
BRANCH   7   8
HETATM    8  C   UNL     1     -11.659  11.120  68.488  1.00  0.00    -0.385 C  
BRANCH   8   9
HETATM    9  C   UNL     1     -11.783  12.489  67.820  1.00  0.00    -0.419 C  
BRANCH   9  10
HETATM   10  C   UNL     1     -11.342  13.596  68.772  1.00  0.00    -0.326 C  
BRANCH  10  11
HETATM   11  C   UNL     1     -11.077  14.907  68.033  1.00  0.00    -0.301 C  
BRANCH  11  12
HETATM   12  C   UNL     1     -11.495  14.777  66.572  1.00  0.00    -0.328 C  
BRANCH  12  13
HETATM   13  C   UNL     1     -10.413  15.260  65.609  1.00  0.00    -0.377 C  
BRANCH  13  14
HETATM   14  C   UNL     1     -10.664  16.697  65.219  1.00  0.00    -0.204 C  
HETATM   15  O   UNL     1     -11.420  17.063  64.329  1.00  0.00    -1.124 OA 
BRANCH  14  16
HETATM   16  O   UNL     1      -9.921  17.529  66.002  1.00  0.00    -0.459 OA 
BRANCH  16  17
HETATM   17  C   UNL     1     -10.658  18.594  66.633  1.00  0.00    -0.359 C  
HETATM   18  C   UNL     1     -10.220  18.730  68.088  1.00  0.00    -0.433 C  
HETATM   19  C   UNL     1     -10.367  19.873  65.859  1.00  0.00    -0.567 C  
ENDBRANCH  16  17
ENDBRANCH  14  16
ENDBRANCH  13  14
ENDBRANCH  12  13
ENDBRANCH  11  12
ENDBRANCH  10  11
ENDBRANCH   9  10
ENDBRANCH   8   9
ENDBRANCH   7   8
ENDBRANCH   6   7
ENDBRANCH   5   6
ENDBRANCH   4   5
ENDBRANCH   3   4
ENDBRANCH   2   3
TORSDOF 14
ENDMDL
MODEL       80
REMARK 921   NORMALIZED FREE ENERGY PREDICTED BY IDOCK:   -3.93 KCAL/MOL
REMARK 922        TOTAL FREE ENERGY PREDICTED BY IDOCK:   -8.72 KCAL/MOL
REMARK 923 INTER-LIGAND FREE ENERGY PREDICTED BY IDOCK:   -6.88 KCAL/MOL
REMARK 924 INTRA-LIGAND FREE ENERGY PREDICTED BY IDOCK:   -1.84 KCAL/MOL
REMARK 927      BINDING AFFINITY PREDICTED BY RF-SCORE:    0.00 PKD
ROOT
HETATM    1  C   UNL     1     -10.162   5.341  69.898  1.00  0.00    -0.364 C  
HETATM    2  C   UNL     1     -11.383   6.196  69.597  1.00  0.00    -0.442 C  
ENDROOT
BRANCH   2   3
HETATM    3  C   UNL     1     -12.004   6.743  70.880  1.00  0.00    -0.437 C  
BRANCH   3   4
HETATM    4  C   UNL     1     -11.316   6.168  72.118  1.00  0.00    -0.347 C  
BRANCH   4   5
HETATM    5  C   UNL     1     -11.027   7.266  73.140  1.00  0.00    -0.384 C  
BRANCH   5   6
HETATM    6  C   UNL     1     -10.661   8.580  72.453  1.00  0.00    -0.368 C  
BRANCH   6   7
HETATM    7  C   UNL     1      -9.188   8.588  72.047  1.00  0.00    -0.326 C  
BRANCH   7   8
HETATM    8  C   UNL     1      -9.012   9.117  70.626  1.00  0.00    -0.292 C  
BRANCH   8   9
HETATM    9  C   UNL     1     -10.287   9.803  70.136  1.00  0.00    -0.335 C  
BRANCH   9  10
HETATM   10  C   UNL     1     -10.525   9.505  68.659  1.00  0.00    -0.237 C  
BRANCH  10  11
HETATM   11  C   UNL     1     -11.329  10.613  67.980  1.00  0.00    -0.350 C  
BRANCH  11  12
HETATM   12  C   UNL     1     -10.717  11.973  68.300  1.00  0.00    -0.252 C  
BRANCH  12  13
HETATM   13  C   UNL     1     -11.773  13.047  68.548  1.00  0.00    -0.377 C  
BRANCH  13  14
HETATM   14  C   UNL     1     -11.545  14.227  67.634  1.00  0.00    -0.368 C  
HETATM   15  O   UNL     1     -11.670  15.401  67.956  1.00  0.00    -0.336 OA 
BRANCH  14  16
HETATM   16  O   UNL     1     -11.183  13.792  66.394  1.00  0.00    -0.308 OA 
BRANCH  16  17
HETATM   17  C   UNL     1     -12.241  13.786  65.415  1.00  0.00    -0.440 C  
HETATM   18  C   UNL     1     -12.050  14.946  64.444  1.00  0.00    -0.417 C  
HETATM   19  C   UNL     1     -12.179  12.452  64.683  1.00  0.00    -0.499 C  
ENDBRANCH  16  17
ENDBRANCH  14  16
ENDBRANCH  13  14
ENDBRANCH  12  13
ENDBRANCH  11  12
ENDBRANCH  10  11
ENDBRANCH   9  10
ENDBRANCH   8   9
ENDBRANCH   7   8
ENDBRANCH   6   7
ENDBRANCH   5   6
ENDBRANCH   4   5
ENDBRANCH   3   4
ENDBRANCH   2   3
TORSDOF 14
ENDMDL
MODEL       81
REMARK 921   NORMALIZED FREE ENERGY PREDICTED BY IDOCK:   -3.93 KCAL/MOL
REMARK 922        TOTAL FREE ENERGY PREDICTED BY IDOCK:   -8.71 KCAL/MOL
REMARK 923 INTER-LIGAND FREE ENERGY PREDICTED BY IDOCK:   -6.76 KCAL/MOL
REMARK 924 INTRA-LIGAND FREE ENERGY PREDICTED BY IDOCK:   -1.95 KCAL/MOL
REMARK 927      BINDING AFFINITY PREDICTED BY RF-SCORE:    0.00 PKD
ROOT
HETATM    1  C   UNL     1     -10.321  19.596  68.211  1.00  0.00    -0.539 C  
HETATM    2  C   UNL     1     -10.697  19.507  66.741  1.00  0.00    -0.569 C  
ENDROOT
BRANCH   2   3
HETATM    3  C   UNL     1     -10.075  18.276  66.085  1.00  0.00    -0.354 C  
BRANCH   3   4
HETATM    4  C   UNL     1      -8.561  18.244  66.291  1.00  0.00    -0.208 C  
BRANCH   4   5
HETATM    5  C   UNL     1      -8.049  16.805  66.346  1.00  0.00    -0.355 C  
BRANCH   5   6
HETATM    6  C   UNL     1      -9.179  15.806  66.103  1.00  0.00    -0.385 C  
BRANCH   6   7
HETATM    7  C   UNL     1      -8.890  14.480  66.805  1.00  0.00    -0.248 C  
BRANCH   7   8
HETATM    8  C   UNL     1     -10.080  14.036  67.651  1.00  0.00    -0.241 C  
BRANCH   8   9
HETATM    9  C   UNL     1     -11.368  14.710  67.180  1.00  0.00    -0.365 C  
BRANCH   9  10
HETATM   10  C   UNL     1     -12.250  13.720  66.426  1.00  0.00    -0.480 C  
BRANCH  10  11
HETATM   11  C   UNL     1     -12.544  14.192  65.002  1.00  0.00    -0.399 C  
BRANCH  11  12
HETATM   12  C   UNL     1     -11.481  13.660  64.046  1.00  0.00    -0.303 C  
BRANCH  12  13
HETATM   13  C   UNL     1     -11.675  12.181  63.719  1.00  0.00    -0.576 C  
BRANCH  13  14
HETATM   14  C   UNL     1     -10.337  11.507  63.530  1.00  0.00    -0.433 C  
HETATM   15  O   UNL     1      -9.519  11.798  62.667  1.00  0.00    -0.283 OA 
BRANCH  14  16
HETATM   16  O   UNL     1     -10.175  10.523  64.459  1.00  0.00    -0.348 OA 
BRANCH  16  17
HETATM   17  C   UNL     1      -9.629  10.957  65.720  1.00  0.00    -0.216 C  
HETATM   18  C   UNL     1     -10.411  10.322  66.865  1.00  0.00    -0.298 C  
HETATM   19  C   UNL     1      -8.169  10.529  65.758  1.00  0.00    -0.160 C  
ENDBRANCH  16  17
ENDBRANCH  14  16
ENDBRANCH  13  14
ENDBRANCH  12  13
ENDBRANCH  11  12
ENDBRANCH  10  11
ENDBRANCH   9  10
ENDBRANCH   8   9
ENDBRANCH   7   8
ENDBRANCH   6   7
ENDBRANCH   5   6
ENDBRANCH   4   5
ENDBRANCH   3   4
ENDBRANCH   2   3
TORSDOF 14
ENDMDL
MODEL       82
REMARK 921   NORMALIZED FREE ENERGY PREDICTED BY IDOCK:   -3.93 KCAL/MOL
REMARK 922        TOTAL FREE ENERGY PREDICTED BY IDOCK:   -8.71 KCAL/MOL
REMARK 923 INTER-LIGAND FREE ENERGY PREDICTED BY IDOCK:   -6.96 KCAL/MOL
REMARK 924 INTRA-LIGAND FREE ENERGY PREDICTED BY IDOCK:   -1.75 KCAL/MOL
REMARK 927      BINDING AFFINITY PREDICTED BY RF-SCORE:    0.00 PKD
ROOT
HETATM    1  C   UNL     1     -10.965   6.302  67.915  1.00  0.00    -0.421 C  
HETATM    2  C   UNL     1     -10.368   6.820  69.214  1.00  0.00    -0.221 C  
ENDROOT
BRANCH   2   3
HETATM    3  C   UNL     1     -11.083   6.226  70.426  1.00  0.00    -0.416 C  
BRANCH   3   4
HETATM    4  C   UNL     1     -11.205   7.251  71.553  1.00  0.00    -0.273 C  
BRANCH   4   5
HETATM    5  C   UNL     1     -10.727   8.627  71.094  1.00  0.00    -0.303 C  
BRANCH   5   6
HETATM    6  C   UNL     1     -11.821   9.679  71.263  1.00  0.00    -0.460 C  
BRANCH   6   7
HETATM    7  C   UNL     1     -12.015  10.471  69.971  1.00  0.00    -0.367 C  
BRANCH   7   8
HETATM    8  C   UNL     1     -10.777  10.385  69.082  1.00  0.00    -0.266 C  
BRANCH   8   9
HETATM    9  C   UNL     1     -11.160  10.446  67.604  1.00  0.00    -0.361 C  
BRANCH   9  10
HETATM   10  C   UNL     1      -9.918  10.577  66.729  1.00  0.00    -0.252 C  
BRANCH  10  11
HETATM   11  C   UNL     1     -10.269  10.592  65.242  1.00  0.00    -0.351 C  
BRANCH  11  12
HETATM   12  C   UNL     1     -10.343  12.030  64.739  1.00  0.00    -0.318 C  
BRANCH  12  13
HETATM   13  C   UNL     1     -11.765  12.451  64.374  1.00  0.00    -0.435 C  
BRANCH  13  14
HETATM   14  C   UNL     1     -12.267  13.495  65.342  1.00  0.00    -0.447 C  
HETATM   15  O   UNL     1     -13.399  13.961  65.349  1.00  0.00    -0.710 OA 
BRANCH  14  16
HETATM   16  O   UNL     1     -11.274  13.844  66.208  1.00  0.00    -0.302 OA 
BRANCH  16  17
HETATM   17  C   UNL     1     -11.636  14.841  67.183  1.00  0.00    -0.359 C  
HETATM   18  C   UNL     1     -11.815  14.185  68.548  1.00  0.00    -0.390 C  
HETATM   19  C   UNL     1     -10.515  15.871  67.220  1.00  0.00    -0.310 C  
ENDBRANCH  16  17
ENDBRANCH  14  16
ENDBRANCH  13  14
ENDBRANCH  12  13
ENDBRANCH  11  12
ENDBRANCH  10  11
ENDBRANCH   9  10
ENDBRANCH   8   9
ENDBRANCH   7   8
ENDBRANCH   6   7
ENDBRANCH   5   6
ENDBRANCH   4   5
ENDBRANCH   3   4
ENDBRANCH   2   3
TORSDOF 14
ENDMDL
MODEL       83
REMARK 921   NORMALIZED FREE ENERGY PREDICTED BY IDOCK:   -3.93 KCAL/MOL
REMARK 922        TOTAL FREE ENERGY PREDICTED BY IDOCK:   -8.71 KCAL/MOL
REMARK 923 INTER-LIGAND FREE ENERGY PREDICTED BY IDOCK:   -6.73 KCAL/MOL
REMARK 924 INTRA-LIGAND FREE ENERGY PREDICTED BY IDOCK:   -1.98 KCAL/MOL
REMARK 927      BINDING AFFINITY PREDICTED BY RF-SCORE:    0.00 PKD
ROOT
HETATM    1  C   UNL     1      -9.108  10.475  62.680  1.00  0.00    -0.309 C  
HETATM    2  C   UNL     1      -9.852  11.682  63.227  1.00  0.00    -0.428 C  
ENDROOT
BRANCH   2   3
HETATM    3  C   UNL     1     -11.123  11.262  63.962  1.00  0.00    -0.316 C  
BRANCH   3   4
HETATM    4  C   UNL     1     -12.323  12.096  63.517  1.00  0.00    -0.682 C  
BRANCH   4   5
HETATM    5  C   UNL     1     -12.198  13.536  64.011  1.00  0.00    -0.458 C  
BRANCH   5   6
HETATM    6  C   UNL     1     -12.520  13.640  65.501  1.00  0.00    -0.544 C  
BRANCH   6   7
HETATM    7  C   UNL     1     -11.509  14.537  66.213  1.00  0.00    -0.358 C  
BRANCH   7   8
HETATM    8  C   UNL     1     -10.096  13.969  66.103  1.00  0.00    -0.319 C  
BRANCH   8   9
HETATM    9  C   UNL     1      -9.362  14.067  67.439  1.00  0.00    -0.220 C  
BRANCH   9  10
HETATM   10  C   UNL     1      -9.592  12.812  68.275  1.00  0.00    -0.211 C  
BRANCH  10  11
HETATM   11  C   UNL     1      -9.970  11.613  67.405  1.00  0.00    -0.200 C  
BRANCH  11  12
HETATM   12  C   UNL     1     -11.277  11.002  67.899  1.00  0.00    -0.375 C  
BRANCH  12  13
HETATM   13  C   UNL     1     -11.890  11.786  69.057  1.00  0.00    -0.379 C  
BRANCH  13  14
HETATM   14  C   UNL     1     -12.017  10.905  70.277  1.00  0.00    -0.361 C  
HETATM   15  O   UNL     1     -13.010  10.829  70.988  1.00  0.00    -0.360 OA 
BRANCH  14  16
HETATM   16  O   UNL     1     -10.863  10.208  70.471  1.00  0.00    -0.298 OA 
BRANCH  16  17
HETATM   17  C   UNL     1     -11.035   8.867  70.970  1.00  0.00    -0.276 C  
HETATM   18  C   UNL     1     -10.780   7.865  69.849  1.00  0.00    -0.244 C  
HETATM   19  C   UNL     1     -10.042   8.671  72.107  1.00  0.00    -0.388 C  
ENDBRANCH  16  17
ENDBRANCH  14  16
ENDBRANCH  13  14
ENDBRANCH  12  13
ENDBRANCH  11  12
ENDBRANCH  10  11
ENDBRANCH   9  10
ENDBRANCH   8   9
ENDBRANCH   7   8
ENDBRANCH   6   7
ENDBRANCH   5   6
ENDBRANCH   4   5
ENDBRANCH   3   4
ENDBRANCH   2   3
TORSDOF 14
ENDMDL
MODEL       84
REMARK 921   NORMALIZED FREE ENERGY PREDICTED BY IDOCK:   -3.92 KCAL/MOL
REMARK 922        TOTAL FREE ENERGY PREDICTED BY IDOCK:   -8.69 KCAL/MOL
REMARK 923 INTER-LIGAND FREE ENERGY PREDICTED BY IDOCK:   -6.85 KCAL/MOL
REMARK 924 INTRA-LIGAND FREE ENERGY PREDICTED BY IDOCK:   -1.84 KCAL/MOL
REMARK 927      BINDING AFFINITY PREDICTED BY RF-SCORE:    0.00 PKD
ROOT
HETATM    1  C   UNL     1     -10.297   7.813  73.180  1.00  0.00    -0.403 C  
HETATM    2  C   UNL     1     -10.940   8.764  72.184  1.00  0.00    -0.404 C  
ENDROOT
BRANCH   2   3
HETATM    3  C   UNL     1     -12.460   8.624  72.188  1.00  0.00    -0.453 C  
BRANCH   3   4
HETATM    4  C   UNL     1     -13.115   9.659  71.274  1.00  0.00    -0.437 C  
BRANCH   4   5
HETATM    5  C   UNL     1     -12.827  11.078  71.764  1.00  0.00    -0.496 C  
BRANCH   5   6
HETATM    6  C   UNL     1     -12.094  11.892  70.700  1.00  0.00    -0.389 C  
BRANCH   6   7
HETATM    7  C   UNL     1     -11.997  11.112  69.391  1.00  0.00    -0.420 C  
BRANCH   7   8
HETATM    8  C   UNL     1     -10.541  10.902  68.982  1.00  0.00    -0.248 C  
BRANCH   8   9
HETATM    9  C   UNL     1     -10.340   9.520  68.363  1.00  0.00    -0.237 C  
BRANCH   9  10
HETATM   10  C   UNL     1     -10.186   9.625  66.849  1.00  0.00    -0.304 C  
BRANCH  10  11
HETATM   11  C   UNL     1      -9.195  10.719  66.454  1.00  0.00    -0.191 C  
BRANCH  11  12
HETATM   12  C   UNL     1      -9.822  11.638  65.410  1.00  0.00    -0.268 C  
BRANCH  12  13
HETATM   13  C   UNL     1     -11.340  11.489  65.335  1.00  0.00    -0.147 C  
BRANCH  13  14
HETATM   14  C   UNL     1     -12.014  12.778  65.741  1.00  0.00    -0.449 C  
HETATM   15  O   UNL     1     -13.044  13.218  65.250  1.00  0.00    -0.652 OA 
BRANCH  14  16
HETATM   16  O   UNL     1     -11.304  13.381  66.736  1.00  0.00    -0.305 OA 
BRANCH  16  17
HETATM   17  C   UNL     1     -11.374  14.820  66.751  1.00  0.00    -0.346 C  
HETATM   18  C   UNL     1     -11.413  15.318  68.192  1.00  0.00    -0.357 C  
HETATM   19  C   UNL     1     -10.141  15.346  66.030  1.00  0.00    -0.346 C  
ENDBRANCH  16  17
ENDBRANCH  14  16
ENDBRANCH  13  14
ENDBRANCH  12  13
ENDBRANCH  11  12
ENDBRANCH  10  11
ENDBRANCH   9  10
ENDBRANCH   8   9
ENDBRANCH   7   8
ENDBRANCH   6   7
ENDBRANCH   5   6
ENDBRANCH   4   5
ENDBRANCH   3   4
ENDBRANCH   2   3
TORSDOF 14
ENDMDL
MODEL       85
REMARK 921   NORMALIZED FREE ENERGY PREDICTED BY IDOCK:   -3.92 KCAL/MOL
REMARK 922        TOTAL FREE ENERGY PREDICTED BY IDOCK:   -8.69 KCAL/MOL
REMARK 923 INTER-LIGAND FREE ENERGY PREDICTED BY IDOCK:   -6.75 KCAL/MOL
REMARK 924 INTRA-LIGAND FREE ENERGY PREDICTED BY IDOCK:   -1.94 KCAL/MOL
REMARK 927      BINDING AFFINITY PREDICTED BY RF-SCORE:    0.00 PKD
ROOT
HETATM    1  C   UNL     1      -8.366  10.304  64.888  1.00  0.00    -0.173 C  
HETATM    2  C   UNL     1      -9.650  10.324  64.076  1.00  0.00    -0.365 C  
ENDROOT
BRANCH   2   3
HETATM    3  C   UNL     1     -10.195  11.744  63.939  1.00  0.00    -0.411 C  
BRANCH   3   4
HETATM    4  C   UNL     1     -11.692  11.737  63.634  1.00  0.00    -0.517 C  
BRANCH   4   5
HETATM    5  C   UNL     1     -12.226  13.161  63.488  1.00  0.00    -0.552 C  
BRANCH   5   6
HETATM    6  C   UNL     1     -11.653  14.080  64.564  1.00  0.00    -0.403 C  
BRANCH   6   7
HETATM    7  C   UNL     1     -12.469  13.982  65.852  1.00  0.00    -0.513 C  
BRANCH   7   8
HETATM    8  C   UNL     1     -11.641  14.406  67.061  1.00  0.00    -0.402 C  
BRANCH   8   9
HETATM    9  C   UNL     1     -10.691  13.290  67.493  1.00  0.00    -0.259 C  
BRANCH   9  10
HETATM   10  C   UNL     1     -11.441  12.218  68.278  1.00  0.00    -0.367 C  
BRANCH  10  11
HETATM   11  C   UNL     1     -11.189  10.820  67.713  1.00  0.00    -0.385 C  
BRANCH  11  12
HETATM   12  C   UNL     1      -9.831  10.306  68.181  1.00  0.00    -0.166 C  
BRANCH  12  13
HETATM   13  C   UNL     1      -9.951   9.116  69.130  1.00  0.00    -0.189 C  
BRANCH  13  14
HETATM   14  C   UNL     1      -9.588   9.529  70.537  1.00  0.00    -0.251 C  
HETATM   15  O   UNL     1      -8.463   9.484  71.015  1.00  0.00    -0.284 OA 
BRANCH  14  16
HETATM   16  O   UNL     1     -10.700   9.958  71.198  1.00  0.00    -0.283 OA 
BRANCH  16  17
HETATM   17  C   UNL     1     -11.820   9.052  71.162  1.00  0.00    -0.301 C  
HETATM   18  C   UNL     1     -11.655   7.987  72.241  1.00  0.00    -0.424 C  
HETATM   19  C   UNL     1     -13.080   9.873  71.400  1.00  0.00    -0.500 C  
ENDBRANCH  16  17
ENDBRANCH  14  16
ENDBRANCH  13  14
ENDBRANCH  12  13
ENDBRANCH  11  12
ENDBRANCH  10  11
ENDBRANCH   9  10
ENDBRANCH   8   9
ENDBRANCH   7   8
ENDBRANCH   6   7
ENDBRANCH   5   6
ENDBRANCH   4   5
ENDBRANCH   3   4
ENDBRANCH   2   3
TORSDOF 14
ENDMDL
MODEL       86
REMARK 921   NORMALIZED FREE ENERGY PREDICTED BY IDOCK:   -3.92 KCAL/MOL
REMARK 922        TOTAL FREE ENERGY PREDICTED BY IDOCK:   -8.69 KCAL/MOL
REMARK 923 INTER-LIGAND FREE ENERGY PREDICTED BY IDOCK:   -7.14 KCAL/MOL
REMARK 924 INTRA-LIGAND FREE ENERGY PREDICTED BY IDOCK:   -1.55 KCAL/MOL
REMARK 927      BINDING AFFINITY PREDICTED BY RF-SCORE:    0.00 PKD
ROOT
HETATM    1  C   UNL     1     -14.253  14.474  71.986  1.00  0.00    -0.630 C  
HETATM    2  C   UNL     1     -13.522  15.567  72.748  1.00  0.00    -0.650 C  
ENDROOT
BRANCH   2   3
HETATM    3  C   UNL     1     -12.206  15.931  72.065  1.00  0.00    -0.570 C  
BRANCH   3   4
HETATM    4  C   UNL     1     -12.131  15.344  70.656  1.00  0.00    -0.412 C  
BRANCH   4   5
HETATM    5  C   UNL     1     -11.148  16.129  69.790  1.00  0.00    -0.350 C  
BRANCH   5   6
HETATM    6  C   UNL     1     -11.608  16.177  68.335  1.00  0.00    -0.228 C  
BRANCH   6   7
HETATM    7  C   UNL     1     -10.622  16.972  67.480  1.00  0.00    -0.310 C  
BRANCH   7   8
HETATM    8  C   UNL     1     -10.460  16.343  66.099  1.00  0.00    -0.321 C  
BRANCH   8   9
HETATM    9  C   UNL     1      -9.096  15.669  65.962  1.00  0.00    -0.346 C  
BRANCH   9  10
HETATM   10  C   UNL     1      -8.409  15.559  67.319  1.00  0.00    -0.218 C  
BRANCH  10  11
HETATM   11  C   UNL     1      -7.911  14.140  67.590  1.00  0.00    -0.190 C  
BRANCH  11  12
HETATM   12  C   UNL     1      -8.849  13.126  66.944  1.00  0.00    -0.184 C  
BRANCH  12  13
HETATM   13  C   UNL     1      -9.993  12.716  67.868  1.00  0.00    -0.228 C  
BRANCH  13  14
HETATM   14  C   UNL     1     -11.220  12.367  67.060  1.00  0.00    -0.303 C  
HETATM   15  O   UNL     1     -12.144  11.667  67.452  1.00  0.00    -0.605 OA 
BRANCH  14  16
HETATM   16  O   UNL     1     -11.147  12.944  65.828  1.00  0.00    -0.278 OA 
BRANCH  16  17
HETATM   17  C   UNL     1     -11.533  12.093  64.730  1.00  0.00    -0.322 C  
HETATM   18  C   UNL     1     -12.105  12.942  63.600  1.00  0.00    -0.611 C  
HETATM   19  C   UNL     1     -10.289  11.346  64.270  1.00  0.00    -0.383 C  
ENDBRANCH  16  17
ENDBRANCH  14  16
ENDBRANCH  13  14
ENDBRANCH  12  13
ENDBRANCH  11  12
ENDBRANCH  10  11
ENDBRANCH   9  10
ENDBRANCH   8   9
ENDBRANCH   7   8
ENDBRANCH   6   7
ENDBRANCH   5   6
ENDBRANCH   4   5
ENDBRANCH   3   4
ENDBRANCH   2   3
TORSDOF 14
ENDMDL
MODEL       87
REMARK 921   NORMALIZED FREE ENERGY PREDICTED BY IDOCK:   -3.91 KCAL/MOL
REMARK 922        TOTAL FREE ENERGY PREDICTED BY IDOCK:   -8.68 KCAL/MOL
REMARK 923 INTER-LIGAND FREE ENERGY PREDICTED BY IDOCK:   -7.01 KCAL/MOL
REMARK 924 INTRA-LIGAND FREE ENERGY PREDICTED BY IDOCK:   -1.66 KCAL/MOL
REMARK 927      BINDING AFFINITY PREDICTED BY RF-SCORE:    0.00 PKD
ROOT
HETATM    1  C   UNL     1      -6.060  16.374  67.168  1.00  0.00    -0.182 C  
HETATM    2  C   UNL     1      -6.635  17.767  67.367  1.00  0.00    -0.181 C  
ENDROOT
BRANCH   2   3
HETATM    3  C   UNL     1      -7.209  18.320  66.064  1.00  0.00    -0.298 C  
BRANCH   3   4
HETATM    4  C   UNL     1      -7.346  19.840  66.120  1.00  0.00    -0.307 C  
BRANCH   4   5
HETATM    5  C   UNL     1      -8.525  20.250  67.001  1.00  0.00    -0.388 C  
BRANCH   5   6
HETATM    6  C   UNL     1      -9.857  19.978  66.304  1.00  0.00    -0.576 C  
BRANCH   6   7
HETATM    7  C   UNL     1     -10.850  19.329  67.267  1.00  0.00    -0.554 C  
BRANCH   7   8
HETATM    8  C   UNL     1     -10.128  18.489  68.317  1.00  0.00    -0.424 C  
BRANCH   8   9
HETATM    9  C   UNL     1     -10.681  17.065  68.355  1.00  0.00    -0.361 C  
BRANCH   9  10
HETATM   10  C   UNL     1     -10.082  16.223  67.233  1.00  0.00    -0.264 C  
BRANCH  10  11
HETATM   11  C   UNL     1     -10.994  15.059  66.848  1.00  0.00    -0.324 C  
BRANCH  11  12
HETATM   12  C   UNL     1     -11.193  15.031  65.336  1.00  0.00    -0.356 C  
BRANCH  12  13
HETATM   13  C   UNL     1     -11.043  13.628  64.752  1.00  0.00    -0.375 C  
BRANCH  13  14
HETATM   14  C   UNL     1     -12.186  12.749  65.201  1.00  0.00    -0.477 C  
HETATM   15  O   UNL     1     -13.355  12.890  64.867  1.00  0.00    -0.716 OA 
BRANCH  14  16
HETATM   16  O   UNL     1     -11.725  11.775  66.035  1.00  0.00    -0.433 OA 
BRANCH  16  17
HETATM   17  C   UNL     1     -10.303  11.548  65.983  1.00  0.00    -0.246 C  
HETATM   18  C   UNL     1      -9.736  11.513  67.398  1.00  0.00    -0.191 C  
HETATM   19  C   UNL     1     -10.078  10.218  65.276  1.00  0.00    -0.359 C  
ENDBRANCH  16  17
ENDBRANCH  14  16
ENDBRANCH  13  14
ENDBRANCH  12  13
ENDBRANCH  11  12
ENDBRANCH  10  11
ENDBRANCH   9  10
ENDBRANCH   8   9
ENDBRANCH   7   8
ENDBRANCH   6   7
ENDBRANCH   5   6
ENDBRANCH   4   5
ENDBRANCH   3   4
ENDBRANCH   2   3
TORSDOF 14
ENDMDL
MODEL       88
REMARK 921   NORMALIZED FREE ENERGY PREDICTED BY IDOCK:   -3.91 KCAL/MOL
REMARK 922        TOTAL FREE ENERGY PREDICTED BY IDOCK:   -8.67 KCAL/MOL
REMARK 923 INTER-LIGAND FREE ENERGY PREDICTED BY IDOCK:   -6.87 KCAL/MOL
REMARK 924 INTRA-LIGAND FREE ENERGY PREDICTED BY IDOCK:   -1.81 KCAL/MOL
REMARK 927      BINDING AFFINITY PREDICTED BY RF-SCORE:    0.00 PKD
ROOT
HETATM    1  C   UNL     1     -10.532  19.833  66.007  1.00  0.00    -0.609 C  
HETATM    2  C   UNL     1      -9.889  20.197  67.335  1.00  0.00    -0.573 C  
ENDROOT
BRANCH   2   3
HETATM    3  C   UNL     1      -8.404  19.842  67.346  1.00  0.00    -0.366 C  
BRANCH   3   4
HETATM    4  C   UNL     1      -8.039  18.946  66.163  1.00  0.00    -0.241 C  
BRANCH   4   5
HETATM    5  C   UNL     1      -7.636  17.552  66.639  1.00  0.00    -0.286 C  
BRANCH   5   6
HETATM    6  C   UNL     1      -8.770  16.548  66.436  1.00  0.00    -0.357 C  
BRANCH   6   7
HETATM    7  C   UNL     1      -8.841  15.567  67.605  1.00  0.00    -0.185 C  
BRANCH   7   8
HETATM    8  C   UNL     1      -9.290  16.269  68.884  1.00  0.00    -0.248 C  
BRANCH   8   9
HETATM    9  C   UNL     1     -10.623  16.985  68.677  1.00  0.00    -0.362 C  
BRANCH   9  10
HETATM   10  C   UNL     1     -11.789  16.016  68.845  1.00  0.00    -0.249 C  
BRANCH  10  11
HETATM   11  C   UNL     1     -11.676  15.212  70.140  1.00  0.00    -0.343 C  
BRANCH  11  12
HETATM   12  C   UNL     1     -11.989  13.744  69.871  1.00  0.00    -0.412 C  
BRANCH  12  13
HETATM   13  C   UNL     1     -11.994  13.409  68.381  1.00  0.00    -0.359 C  
BRANCH  13  14
HETATM   14  C   UNL     1     -11.633  11.958  68.169  1.00  0.00    -0.334 C  
HETATM   15  O   UNL     1     -11.104  11.236  69.003  1.00  0.00    -0.209 OA 
BRANCH  14  16
HETATM   16  O   UNL     1     -11.980  11.571  66.909  1.00  0.00    -0.516 OA 
BRANCH  16  17
HETATM   17  C   UNL     1     -11.333  12.297  65.846  1.00  0.00    -0.360 C  
HETATM   18  C   UNL     1     -10.165  11.481  65.302  1.00  0.00    -0.315 C  
HETATM   19  C   UNL     1     -12.373  12.543  64.761  1.00  0.00    -0.544 C  
ENDBRANCH  16  17
ENDBRANCH  14  16
ENDBRANCH  13  14
ENDBRANCH  12  13
ENDBRANCH  11  12
ENDBRANCH  10  11
ENDBRANCH   9  10
ENDBRANCH   8   9
ENDBRANCH   7   8
ENDBRANCH   6   7
ENDBRANCH   5   6
ENDBRANCH   4   5
ENDBRANCH   3   4
ENDBRANCH   2   3
TORSDOF 14
ENDMDL
MODEL       89
REMARK 921   NORMALIZED FREE ENERGY PREDICTED BY IDOCK:   -3.91 KCAL/MOL
REMARK 922        TOTAL FREE ENERGY PREDICTED BY IDOCK:   -8.67 KCAL/MOL
REMARK 923 INTER-LIGAND FREE ENERGY PREDICTED BY IDOCK:   -7.58 KCAL/MOL
REMARK 924 INTRA-LIGAND FREE ENERGY PREDICTED BY IDOCK:   -1.09 KCAL/MOL
REMARK 927      BINDING AFFINITY PREDICTED BY RF-SCORE:    0.00 PKD
ROOT
HETATM    1  C   UNL     1     -11.269   6.333  69.744  1.00  0.00    -0.499 C  
HETATM    2  C   UNL     1     -10.745   6.719  71.118  1.00  0.00    -0.261 C  
ENDROOT
BRANCH   2   3
HETATM    3  C   UNL     1     -11.887   7.087  72.062  1.00  0.00    -0.336 C  
BRANCH   3   4
HETATM    4  C   UNL     1     -13.218   7.169  71.315  1.00  0.00    -0.340 C  
BRANCH   4   5
HETATM    5  C   UNL     1     -13.910   8.506  71.578  1.00  0.00    -0.378 C  
BRANCH   5   6
HETATM    6  C   UNL     1     -12.974   9.483  72.287  1.00  0.00    -0.466 C  
BRANCH   6   7
HETATM    7  C   UNL     1     -12.901  10.808  71.530  1.00  0.00    -0.567 C  
BRANCH   7   8
HETATM    8  C   UNL     1     -11.773  10.793  70.502  1.00  0.00    -0.449 C  
BRANCH   8   9
HETATM    9  C   UNL     1     -12.282  11.221  69.126  1.00  0.00    -0.251 C  
BRANCH   9  10
HETATM   10  C   UNL     1     -11.550  12.470  68.645  1.00  0.00    -0.357 C  
BRANCH  10  11
HETATM   11  C   UNL     1     -11.846  12.770  67.176  1.00  0.00    -0.415 C  
BRANCH  11  12
HETATM   12  C   UNL     1     -11.602  14.248  66.887  1.00  0.00    -0.405 C  
BRANCH  12  13
HETATM   13  C   UNL     1     -11.405  14.528  65.399  1.00  0.00    -0.341 C  
BRANCH  13  14
HETATM   14  C   UNL     1     -10.848  15.918  65.197  1.00  0.00    -0.421 C  
HETATM   15  O   UNL     1     -11.381  16.799  64.535  1.00  0.00    -0.959 OA 
BRANCH  14  16
HETATM   16  O   UNL     1      -9.664  16.047  65.859  1.00  0.00    -0.310 OA 
BRANCH  16  17
HETATM   17  C   UNL     1      -9.350  17.383  66.297  1.00  0.00    -0.217 C  
HETATM   18  C   UNL     1      -9.834  17.582  67.729  1.00  0.00    -0.286 C  
HETATM   19  C   UNL     1      -7.840  17.551  66.207  1.00  0.00    -0.322 C  
ENDBRANCH  16  17
ENDBRANCH  14  16
ENDBRANCH  13  14
ENDBRANCH  12  13
ENDBRANCH  11  12
ENDBRANCH  10  11
ENDBRANCH   9  10
ENDBRANCH   8   9
ENDBRANCH   7   8
ENDBRANCH   6   7
ENDBRANCH   5   6
ENDBRANCH   4   5
ENDBRANCH   3   4
ENDBRANCH   2   3
TORSDOF 14
ENDMDL
MODEL       90
REMARK 921   NORMALIZED FREE ENERGY PREDICTED BY IDOCK:   -3.91 KCAL/MOL
REMARK 922        TOTAL FREE ENERGY PREDICTED BY IDOCK:   -8.67 KCAL/MOL
REMARK 923 INTER-LIGAND FREE ENERGY PREDICTED BY IDOCK:   -7.40 KCAL/MOL
REMARK 924 INTRA-LIGAND FREE ENERGY PREDICTED BY IDOCK:   -1.27 KCAL/MOL
REMARK 927      BINDING AFFINITY PREDICTED BY RF-SCORE:    0.00 PKD
ROOT
HETATM    1  C   UNL     1     -11.713  10.446  70.461  1.00  0.00    -0.434 C  
HETATM    2  C   UNL     1     -12.857  10.795  71.400  1.00  0.00    -0.557 C  
ENDROOT
BRANCH   2   3
HETATM    3  C   UNL     1     -13.409   9.547  72.086  1.00  0.00    -0.545 C  
BRANCH   3   4
HETATM    4  C   UNL     1     -12.339   8.462  72.206  1.00  0.00    -0.436 C  
BRANCH   4   5
HETATM    5  C   UNL     1     -12.886   7.107  71.760  1.00  0.00    -0.368 C  
BRANCH   5   6
HETATM    6  C   UNL     1     -11.901   5.982  72.074  1.00  0.00    -0.284 C  
BRANCH   6   7
HETATM    7  C   UNL     1     -10.599   6.169  71.296  1.00  0.00    -0.295 C  
BRANCH   7   8
HETATM    8  C   UNL     1     -10.844   6.099  69.791  1.00  0.00    -0.421 C  
BRANCH   8   9
HETATM    9  C   UNL     1     -10.172   7.268  69.072  1.00  0.00    -0.197 C  
BRANCH   9  10
HETATM   10  C   UNL     1     -10.102   7.011  67.571  1.00  0.00    -0.236 C  
BRANCH  10  11
HETATM   11  C   UNL     1      -9.588   8.232  66.809  1.00  0.00    -0.288 C  
BRANCH  11  12
HETATM   12  C   UNL     1     -10.394   9.466  67.199  1.00  0.00    -0.326 C  
BRANCH  12  13
HETATM   13  C   UNL     1      -9.928  10.724  66.469  1.00  0.00    -0.260 C  
BRANCH  13  14
HETATM   14  C   UNL     1     -11.040  11.745  66.423  1.00  0.00    -0.307 C  
HETATM   15  O   UNL     1     -11.915  11.870  67.269  1.00  0.00    -0.605 OA 
BRANCH  14  16
HETATM   16  O   UNL     1     -10.927  12.508  65.300  1.00  0.00    -0.280 OA 
BRANCH  16  17
HETATM   17  C   UNL     1     -12.176  12.897  64.696  1.00  0.00    -0.435 C  
HETATM   18  C   UNL     1     -12.157  14.391  64.393  1.00  0.00    -0.491 C  
HETATM   19  C   UNL     1     -12.338  12.087  63.417  1.00  0.00    -0.635 C  
ENDBRANCH  16  17
ENDBRANCH  14  16
ENDBRANCH  13  14
ENDBRANCH  12  13
ENDBRANCH  11  12
ENDBRANCH  10  11
ENDBRANCH   9  10
ENDBRANCH   8   9
ENDBRANCH   7   8
ENDBRANCH   6   7
ENDBRANCH   5   6
ENDBRANCH   4   5
ENDBRANCH   3   4
ENDBRANCH   2   3
TORSDOF 14
ENDMDL
MODEL       91
REMARK 921   NORMALIZED FREE ENERGY PREDICTED BY IDOCK:   -3.90 KCAL/MOL
REMARK 922        TOTAL FREE ENERGY PREDICTED BY IDOCK:   -8.66 KCAL/MOL
REMARK 923 INTER-LIGAND FREE ENERGY PREDICTED BY IDOCK:   -6.99 KCAL/MOL
REMARK 924 INTRA-LIGAND FREE ENERGY PREDICTED BY IDOCK:   -1.67 KCAL/MOL
REMARK 927      BINDING AFFINITY PREDICTED BY RF-SCORE:    0.00 PKD
ROOT
HETATM    1  C   UNL     1     -13.545  13.538  72.355  1.00  0.00    -0.709 C  
HETATM    2  C   UNL     1     -13.168  14.788  73.133  1.00  0.00    -0.543 C  
ENDROOT
BRANCH   2   3
HETATM    3  C   UNL     1     -12.367  15.757  72.267  1.00  0.00    -0.540 C  
BRANCH   3   4
HETATM    4  C   UNL     1     -12.554  15.456  70.781  1.00  0.00    -0.497 C  
BRANCH   4   5
HETATM    5  C   UNL     1     -11.353  15.943  69.971  1.00  0.00    -0.358 C  
BRANCH   5   6
HETATM    6  C   UNL     1     -11.326  15.306  68.583  1.00  0.00    -0.327 C  
BRANCH   6   7
HETATM    7  C   UNL     1     -10.371  16.060  67.659  1.00  0.00    -0.284 C  
BRANCH   7   8
HETATM    8  C   UNL     1      -9.394  15.103  66.981  1.00  0.00    -0.244 C  
BRANCH   8   9
HETATM    9  C   UNL     1      -7.947  15.499  67.275  1.00  0.00    -0.233 C  
BRANCH   9  10
HETATM   10  C   UNL     1      -7.713  15.608  68.779  1.00  0.00    -0.165 C  
BRANCH  10  11
HETATM   11  C   UNL     1      -6.946  16.878  69.143  1.00  0.00    -0.234 C  
BRANCH  11  12
HETATM   12  C   UNL     1      -6.730  17.732  67.897  1.00  0.00    -0.192 C  
BRANCH  12  13
HETATM   13  C   UNL     1      -6.464  19.198  68.231  1.00  0.00    -0.254 C  
BRANCH  13  14
HETATM   14  C   UNL     1      -7.379  20.092  67.429  1.00  0.00    -0.288 C  
HETATM   15  O   UNL     1      -7.135  21.250  67.118  1.00  0.00    -0.491 OA 
BRANCH  14  16
HETATM   16  O   UNL     1      -8.520  19.421  67.105  1.00  0.00    -0.277 OA 
BRANCH  16  17
HETATM   17  C   UNL     1      -9.736  19.994  67.625  1.00  0.00    -0.403 C  
HETATM   18  C   UNL     1     -10.892  19.695  66.676  1.00  0.00    -0.472 C  
HETATM   19  C   UNL     1      -9.984  19.374  68.993  1.00  0.00    -0.477 C  
ENDBRANCH  16  17
ENDBRANCH  14  16
ENDBRANCH  13  14
ENDBRANCH  12  13
ENDBRANCH  11  12
ENDBRANCH  10  11
ENDBRANCH   9  10
ENDBRANCH   8   9
ENDBRANCH   7   8
ENDBRANCH   6   7
ENDBRANCH   5   6
ENDBRANCH   4   5
ENDBRANCH   3   4
ENDBRANCH   2   3
TORSDOF 14
ENDMDL
MODEL       92
REMARK 921   NORMALIZED FREE ENERGY PREDICTED BY IDOCK:   -3.90 KCAL/MOL
REMARK 922        TOTAL FREE ENERGY PREDICTED BY IDOCK:   -8.66 KCAL/MOL
REMARK 923 INTER-LIGAND FREE ENERGY PREDICTED BY IDOCK:   -7.11 KCAL/MOL
REMARK 924 INTRA-LIGAND FREE ENERGY PREDICTED BY IDOCK:   -1.55 KCAL/MOL
REMARK 927      BINDING AFFINITY PREDICTED BY RF-SCORE:    0.00 PKD
ROOT
HETATM    1  C   UNL     1     -10.472  10.658  66.138  1.00  0.00    -0.260 C  
HETATM    2  C   UNL     1     -10.342   9.831  67.406  1.00  0.00    -0.297 C  
ENDROOT
BRANCH   2   3
HETATM    3  C   UNL     1     -11.122  10.461  68.559  1.00  0.00    -0.318 C  
BRANCH   3   4
HETATM    4  C   UNL     1     -10.702   9.865  69.902  1.00  0.00    -0.318 C  
BRANCH   4   5
HETATM    5  C   UNL     1     -11.755  10.144  70.974  1.00  0.00    -0.470 C  
BRANCH   5   6
HETATM    6  C   UNL     1     -12.288  11.572  70.868  1.00  0.00    -0.460 C  
BRANCH   6   7
HETATM    7  C   UNL     1     -13.403  11.811  71.885  1.00  0.00    -0.401 C  
BRANCH   7   8
HETATM    8  C   UNL     1     -13.292  13.201  72.505  1.00  0.00    -0.525 C  
BRANCH   8   9
HETATM    9  C   UNL     1     -14.091  14.225  71.700  1.00  0.00    -0.471 C  
BRANCH   9  10
HETATM   10  C   UNL     1     -13.237  15.448  71.385  1.00  0.00    -0.578 C  
BRANCH  10  11
HETATM   11  C   UNL     1     -11.767  15.220  71.735  1.00  0.00    -0.487 C  
BRANCH  11  12
HETATM   12  C   UNL     1     -10.915  15.276  70.472  1.00  0.00    -0.318 C  
BRANCH  12  13
HETATM   13  C   UNL     1     -10.898  16.665  69.837  1.00  0.00    -0.206 C  
BRANCH  13  14
HETATM   14  C   UNL     1     -10.421  16.581  68.407  1.00  0.00    -0.307 C  
HETATM   15  O   UNL     1     -10.091  17.538  67.719  1.00  0.00    -0.301 OA 
BRANCH  14  16
HETATM   16  O   UNL     1     -10.414  15.283  67.992  1.00  0.00    -0.241 OA 
BRANCH  16  17
HETATM   17  C   UNL     1     -11.009  15.050  66.701  1.00  0.00    -0.325 C  
HETATM   18  C   UNL     1      -9.954  14.516  65.738  1.00  0.00    -0.361 C  
HETATM   19  C   UNL     1     -12.132  14.040  66.889  1.00  0.00    -0.465 C  
ENDBRANCH  16  17
ENDBRANCH  14  16
ENDBRANCH  13  14
ENDBRANCH  12  13
ENDBRANCH  11  12
ENDBRANCH  10  11
ENDBRANCH   9  10
ENDBRANCH   8   9
ENDBRANCH   7   8
ENDBRANCH   6   7
ENDBRANCH   5   6
ENDBRANCH   4   5
ENDBRANCH   3   4
ENDBRANCH   2   3
TORSDOF 14
ENDMDL
MODEL       93
REMARK 921   NORMALIZED FREE ENERGY PREDICTED BY IDOCK:   -3.90 KCAL/MOL
REMARK 922        TOTAL FREE ENERGY PREDICTED BY IDOCK:   -8.65 KCAL/MOL
REMARK 923 INTER-LIGAND FREE ENERGY PREDICTED BY IDOCK:   -6.46 KCAL/MOL
REMARK 924 INTRA-LIGAND FREE ENERGY PREDICTED BY IDOCK:   -2.19 KCAL/MOL
REMARK 927      BINDING AFFINITY PREDICTED BY RF-SCORE:    0.00 PKD
ROOT
HETATM    1  C   UNL     1     -10.478  19.813  66.174  1.00  0.00    -0.613 C  
HETATM    2  C   UNL     1     -10.764  19.121  67.497  1.00  0.00    -0.555 C  
ENDROOT
BRANCH   2   3
HETATM    3  C   UNL     1      -9.523  19.094  68.386  1.00  0.00    -0.425 C  
BRANCH   3   4
HETATM    4  C   UNL     1      -8.254  18.892  67.560  1.00  0.00    -0.289 C  
BRANCH   4   5
HETATM    5  C   UNL     1      -7.669  17.499  67.790  1.00  0.00    -0.209 C  
BRANCH   5   6
HETATM    6  C   UNL     1      -8.206  16.498  66.770  1.00  0.00    -0.279 C  
BRANCH   6   7
HETATM    7  C   UNL     1      -9.076  15.443  67.451  1.00  0.00    -0.206 C  
BRANCH   7   8
HETATM    8  C   UNL     1     -10.502  15.471  66.908  1.00  0.00    -0.301 C  
BRANCH   8   9
HETATM    9  C   UNL     1     -10.523  15.923  65.449  1.00  0.00    -0.429 C  
BRANCH   9  10
HETATM   10  C   UNL     1     -11.184  14.869  64.567  1.00  0.00    -0.273 C  
BRANCH  10  11
HETATM   11  C   UNL     1     -12.465  14.325  65.197  1.00  0.00    -0.423 C  
BRANCH  11  12
HETATM   12  C   UNL     1     -12.508  12.806  65.063  1.00  0.00    -0.572 C  
BRANCH  12  13
HETATM   13  C   UNL     1     -11.291  12.248  64.328  1.00  0.00    -0.415 C  
BRANCH  13  14
HETATM   14  C   UNL     1     -10.457  11.404  65.262  1.00  0.00    -0.283 C  
HETATM   15  O   UNL     1     -10.192  10.222  65.093  1.00  0.00    -0.314 OA 
BRANCH  14  16
HETATM   16  O   UNL     1     -10.043  12.153  66.323  1.00  0.00    -0.216 OA 
BRANCH  16  17
HETATM   17  C   UNL     1     -10.019  11.461  67.587  1.00  0.00    -0.179 C  
HETATM   18  C   UNL     1      -8.701  11.742  68.301  1.00  0.00    -0.167 C  
HETATM   19  C   UNL     1     -11.198  11.966  68.408  1.00  0.00    -0.312 C  
ENDBRANCH  16  17
ENDBRANCH  14  16
ENDBRANCH  13  14
ENDBRANCH  12  13
ENDBRANCH  11  12
ENDBRANCH  10  11
ENDBRANCH   9  10
ENDBRANCH   8   9
ENDBRANCH   7   8
ENDBRANCH   6   7
ENDBRANCH   5   6
ENDBRANCH   4   5
ENDBRANCH   3   4
ENDBRANCH   2   3
TORSDOF 14
ENDMDL
MODEL       94
REMARK 921   NORMALIZED FREE ENERGY PREDICTED BY IDOCK:   -3.89 KCAL/MOL
REMARK 922        TOTAL FREE ENERGY PREDICTED BY IDOCK:   -8.65 KCAL/MOL
REMARK 923 INTER-LIGAND FREE ENERGY PREDICTED BY IDOCK:   -7.09 KCAL/MOL
REMARK 924 INTRA-LIGAND FREE ENERGY PREDICTED BY IDOCK:   -1.56 KCAL/MOL
REMARK 927      BINDING AFFINITY PREDICTED BY RF-SCORE:    0.00 PKD
ROOT
HETATM    1  C   UNL     1     -10.492   7.393  69.006  1.00  0.00    -0.217 C  
HETATM    2  C   UNL     1     -11.366   6.288  69.575  1.00  0.00    -0.475 C  
ENDROOT
BRANCH   2   3
HETATM    3  C   UNL     1     -10.836   5.803  70.923  1.00  0.00    -0.326 C  
BRANCH   3   4
HETATM    4  C   UNL     1     -11.784   6.182  72.060  1.00  0.00    -0.354 C  
BRANCH   4   5
HETATM    5  C   UNL     1     -11.162   7.253  72.954  1.00  0.00    -0.336 C  
BRANCH   5   6
HETATM    6  C   UNL     1     -11.475   8.656  72.436  1.00  0.00    -0.369 C  
BRANCH   6   7
HETATM    7  C   UNL     1     -12.953   8.783  72.074  1.00  0.00    -0.437 C  
BRANCH   7   8
HETATM    8  C   UNL     1     -13.219  10.065  71.289  1.00  0.00    -0.469 C  
BRANCH   8   9
HETATM    9  C   UNL     1     -11.911  10.695  70.812  1.00  0.00    -0.459 C  
BRANCH   9  10
HETATM   10  C   UNL     1     -12.132  12.144  70.391  1.00  0.00    -0.395 C  
BRANCH  10  11
HETATM   11  C   UNL     1     -11.733  12.380  68.935  1.00  0.00    -0.372 C  
BRANCH  11  12
HETATM   12  C   UNL     1     -11.343  11.059  68.281  1.00  0.00    -0.366 C  
BRANCH  12  13
HETATM   13  C   UNL     1     -10.094  11.182  67.411  1.00  0.00    -0.213 C  
BRANCH  13  14
HETATM   14  C   UNL     1     -10.466  11.118  65.949  1.00  0.00    -0.253 C  
HETATM   15  O   UNL     1     -10.107  10.246  65.170  1.00  0.00    -0.310 OA 
BRANCH  14  16
HETATM   16  O   UNL     1     -11.258  12.178  65.623  1.00  0.00    -0.312 OA 
BRANCH  16  17
HETATM   17  C   UNL     1     -10.857  12.902  64.443  1.00  0.00    -0.380 C  
HETATM   18  C   UNL     1     -12.043  13.036  63.494  1.00  0.00    -0.617 C  
HETATM   19  C   UNL     1     -10.365  14.271  64.892  1.00  0.00    -0.429 C  
ENDBRANCH  16  17
ENDBRANCH  14  16
ENDBRANCH  13  14
ENDBRANCH  12  13
ENDBRANCH  11  12
ENDBRANCH  10  11
ENDBRANCH   9  10
ENDBRANCH   8   9
ENDBRANCH   7   8
ENDBRANCH   6   7
ENDBRANCH   5   6
ENDBRANCH   4   5
ENDBRANCH   3   4
ENDBRANCH   2   3
TORSDOF 14
ENDMDL
MODEL       95
REMARK 921   NORMALIZED FREE ENERGY PREDICTED BY IDOCK:   -3.89 KCAL/MOL
REMARK 922        TOTAL FREE ENERGY PREDICTED BY IDOCK:   -8.65 KCAL/MOL
REMARK 923 INTER-LIGAND FREE ENERGY PREDICTED BY IDOCK:   -7.05 KCAL/MOL
REMARK 924 INTRA-LIGAND FREE ENERGY PREDICTED BY IDOCK:   -1.60 KCAL/MOL
REMARK 927      BINDING AFFINITY PREDICTED BY RF-SCORE:    0.00 PKD
ROOT
HETATM    1  C   UNL     1     -10.383  19.887  66.649  1.00  0.00    -0.608 C  
HETATM    2  C   UNL     1     -10.324  19.101  67.949  1.00  0.00    -0.505 C  
ENDROOT
BRANCH   2   3
HETATM    3  C   UNL     1      -9.025  18.305  68.055  1.00  0.00    -0.301 C  
BRANCH   3   4
HETATM    4  C   UNL     1      -8.865  17.345  66.876  1.00  0.00    -0.259 C  
BRANCH   4   5
HETATM    5  C   UNL     1      -9.325  15.938  67.254  1.00  0.00    -0.218 C  
BRANCH   5   6
HETATM    6  C   UNL     1      -9.507  15.064  66.015  1.00  0.00    -0.337 C  
BRANCH   6   7
HETATM    7  C   UNL     1     -10.782  15.446  65.265  1.00  0.00    -0.439 C  
BRANCH   7   8
HETATM    8  C   UNL     1     -11.921  14.484  65.590  1.00  0.00    -0.311 C  
BRANCH   8   9
HETATM    9  C   UNL     1     -11.452  13.032  65.508  1.00  0.00    -0.352 C  
BRANCH   9  10
HETATM   10  C   UNL     1     -11.794  12.281  66.790  1.00  0.00    -0.349 C  
BRANCH  10  11
HETATM   11  C   UNL     1     -10.546  11.964  67.612  1.00  0.00    -0.241 C  
BRANCH  11  12
HETATM   12  C   UNL     1     -10.578  12.734  68.928  1.00  0.00    -0.154 C  
BRANCH  12  13
HETATM   13  C   UNL     1     -11.999  13.062  69.379  1.00  0.00    -0.338 C  
BRANCH  13  14
HETATM   14  C   UNL     1     -12.033  14.405  70.070  1.00  0.00    -0.334 C  
HETATM   15  O   UNL     1     -12.114  15.486  69.502  1.00  0.00    -0.344 OA 
BRANCH  14  16
HETATM   16  O   UNL     1     -11.956  14.236  71.420  1.00  0.00    -0.327 OA 
BRANCH  16  17
HETATM   17  C   UNL     1     -13.105  14.694  72.160  1.00  0.00    -0.347 C  
HETATM   18  C   UNL     1     -14.029  13.517  72.454  1.00  0.00    -0.638 C  
HETATM   19  C   UNL     1     -12.598  15.320  73.452  1.00  0.00    -0.648 C  
ENDBRANCH  16  17
ENDBRANCH  14  16
ENDBRANCH  13  14
ENDBRANCH  12  13
ENDBRANCH  11  12
ENDBRANCH  10  11
ENDBRANCH   9  10
ENDBRANCH   8   9
ENDBRANCH   7   8
ENDBRANCH   6   7
ENDBRANCH   5   6
ENDBRANCH   4   5
ENDBRANCH   3   4
ENDBRANCH   2   3
TORSDOF 14
ENDMDL
MODEL       96
REMARK 921   NORMALIZED FREE ENERGY PREDICTED BY IDOCK:   -3.89 KCAL/MOL
REMARK 922        TOTAL FREE ENERGY PREDICTED BY IDOCK:   -8.64 KCAL/MOL
REMARK 923 INTER-LIGAND FREE ENERGY PREDICTED BY IDOCK:   -6.53 KCAL/MOL
REMARK 924 INTRA-LIGAND FREE ENERGY PREDICTED BY IDOCK:   -2.11 KCAL/MOL
REMARK 927      BINDING AFFINITY PREDICTED BY RF-SCORE:    0.00 PKD
ROOT
HETATM    1  C   UNL     1     -10.465  10.981  64.550  1.00  0.00    -0.411 C  
HETATM    2  C   UNL     1     -10.430  12.193  63.634  1.00  0.00    -0.495 C  
ENDROOT
BRANCH   2   3
HETATM    3  C   UNL     1     -11.436  13.252  64.080  1.00  0.00    -0.438 C  
BRANCH   3   4
HETATM    4  C   UNL     1     -12.342  12.723  65.191  1.00  0.00    -0.555 C  
BRANCH   4   5
HETATM    5  C   UNL     1     -12.363  13.682  66.380  1.00  0.00    -0.441 C  
BRANCH   5   6
HETATM    6  C   UNL     1     -11.909  12.986  67.661  1.00  0.00    -0.401 C  
BRANCH   6   7
HETATM    7  C   UNL     1     -10.397  13.112  67.840  1.00  0.00    -0.232 C  
BRANCH   7   8
HETATM    8  C   UNL     1      -9.959  14.573  67.804  1.00  0.00    -0.225 C  
BRANCH   8   9
HETATM    9  C   UNL     1      -8.804  14.775  66.823  1.00  0.00    -0.281 C  
BRANCH   9  10
HETATM   10  C   UNL     1      -8.945  16.104  66.089  1.00  0.00    -0.372 C  
BRANCH  10  11
HETATM   11  C   UNL     1     -10.370  16.650  66.172  1.00  0.00    -0.340 C  
BRANCH  11  12
HETATM   12  C   UNL     1     -10.338  18.158  66.392  1.00  0.00    -0.404 C  
BRANCH  12  13
HETATM   13  C   UNL     1      -8.935  18.742  66.247  1.00  0.00    -0.244 C  
BRANCH  13  14
HETATM   14  C   UNL     1      -8.646  19.699  67.379  1.00  0.00    -0.306 C  
HETATM   15  O   UNL     1      -8.631  20.919  67.282  1.00  0.00    -0.246 OA 
BRANCH  14  16
HETATM   16  O   UNL     1      -8.401  19.004  68.525  1.00  0.00    -0.329 OA 
BRANCH  16  17
HETATM   17  C   UNL     1      -7.038  18.568  68.697  1.00  0.00    -0.280 C  
HETATM   18  C   UNL     1      -6.365  19.398  69.785  1.00  0.00    -0.316 C  
HETATM   19  C   UNL     1      -7.074  17.096  69.083  1.00  0.00    -0.213 C  
ENDBRANCH  16  17
ENDBRANCH  14  16
ENDBRANCH  13  14
ENDBRANCH  12  13
ENDBRANCH  11  12
ENDBRANCH  10  11
ENDBRANCH   9  10
ENDBRANCH   8   9
ENDBRANCH   7   8
ENDBRANCH   6   7
ENDBRANCH   5   6
ENDBRANCH   4   5
ENDBRANCH   3   4
ENDBRANCH   2   3
TORSDOF 14
ENDMDL
MODEL       97
REMARK 921   NORMALIZED FREE ENERGY PREDICTED BY IDOCK:   -3.89 KCAL/MOL
REMARK 922        TOTAL FREE ENERGY PREDICTED BY IDOCK:   -8.64 KCAL/MOL
REMARK 923 INTER-LIGAND FREE ENERGY PREDICTED BY IDOCK:   -7.08 KCAL/MOL
REMARK 924 INTRA-LIGAND FREE ENERGY PREDICTED BY IDOCK:   -1.56 KCAL/MOL
REMARK 927      BINDING AFFINITY PREDICTED BY RF-SCORE:    0.00 PKD
ROOT
HETATM    1  C   UNL     1     -10.591  19.700  66.049  1.00  0.00    -0.584 C  
HETATM    2  C   UNL     1     -10.041  20.105  67.406  1.00  0.00    -0.556 C  
ENDROOT
BRANCH   2   3
HETATM    3  C   UNL     1      -8.514  20.082  67.413  1.00  0.00    -0.391 C  
BRANCH   3   4
HETATM    4  C   UNL     1      -7.969  19.172  66.313  1.00  0.00    -0.312 C  
BRANCH   4   5
HETATM    5  C   UNL     1      -7.445  17.862  66.899  1.00  0.00    -0.227 C  
BRANCH   5   6
HETATM    6  C   UNL     1      -8.267  16.670  66.413  1.00  0.00    -0.353 C  
BRANCH   6   7
HETATM    7  C   UNL     1      -9.344  16.303  67.432  1.00  0.00    -0.224 C  
BRANCH   7   8
HETATM    8  C   UNL     1     -10.699  16.111  66.755  1.00  0.00    -0.235 C  
BRANCH   8   9
HETATM    9  C   UNL     1     -10.539  15.974  65.241  1.00  0.00    -0.424 C  
BRANCH   9  10
HETATM   10  C   UNL     1     -10.972  14.587  64.777  1.00  0.00    -0.404 C  
BRANCH  10  11
HETATM   11  C   UNL     1     -12.215  14.101  65.521  1.00  0.00    -0.443 C  
BRANCH  11  12
HETATM   12  C   UNL     1     -11.942  12.745  66.163  1.00  0.00    -0.476 C  
BRANCH  12  13
HETATM   13  C   UNL     1     -11.806  12.833  67.681  1.00  0.00    -0.396 C  
BRANCH  13  14
HETATM   14  C   UNL     1     -11.511  11.470  68.261  1.00  0.00    -0.299 C  
HETATM   15  O   UNL     1     -10.536  10.784  67.985  1.00  0.00    -0.181 OA 
BRANCH  14  16
HETATM   16  O   UNL     1     -12.493  11.113  69.136  1.00  0.00    -0.418 OA 
BRANCH  16  17
HETATM   17  C   UNL     1     -12.138  11.215  70.529  1.00  0.00    -0.381 C  
HETATM   18  C   UNL     1     -12.819  12.432  71.145  1.00  0.00    -0.299 C  
HETATM   19  C   UNL     1     -12.596   9.934  71.212  1.00  0.00    -0.480 C  
ENDBRANCH  16  17
ENDBRANCH  14  16
ENDBRANCH  13  14
ENDBRANCH  12  13
ENDBRANCH  11  12
ENDBRANCH  10  11
ENDBRANCH   9  10
ENDBRANCH   8   9
ENDBRANCH   7   8
ENDBRANCH   6   7
ENDBRANCH   5   6
ENDBRANCH   4   5
ENDBRANCH   3   4
ENDBRANCH   2   3
TORSDOF 14
ENDMDL
MODEL       98
REMARK 921   NORMALIZED FREE ENERGY PREDICTED BY IDOCK:   -3.89 KCAL/MOL
REMARK 922        TOTAL FREE ENERGY PREDICTED BY IDOCK:   -8.63 KCAL/MOL
REMARK 923 INTER-LIGAND FREE ENERGY PREDICTED BY IDOCK:   -6.49 KCAL/MOL
REMARK 924 INTRA-LIGAND FREE ENERGY PREDICTED BY IDOCK:   -2.14 KCAL/MOL
REMARK 927      BINDING AFFINITY PREDICTED BY RF-SCORE:    0.00 PKD
ROOT
HETATM    1  C   UNL     1     -13.061   9.926  71.056  1.00  0.00    -0.406 C  
HETATM    2  C   UNL     1     -11.609  10.318  70.836  1.00  0.00    -0.454 C  
ENDROOT
BRANCH   2   3
HETATM    3  C   UNL     1     -10.660   9.249  71.372  1.00  0.00    -0.417 C  
BRANCH   3   4
HETATM    4  C   UNL     1      -9.334   9.254  70.614  1.00  0.00    -0.329 C  
BRANCH   4   5
HETATM    5  C   UNL     1      -8.586   7.937  70.814  1.00  0.00    -0.132 C  
BRANCH   5   6
HETATM    6  C   UNL     1      -9.556   6.773  71.010  1.00  0.00    -0.175 C  
BRANCH   6   7
HETATM    7  C   UNL     1      -9.729   5.988  69.711  1.00  0.00    -0.194 C  
BRANCH   7   8
HETATM    8  C   UNL     1     -11.124   6.195  69.125  1.00  0.00    -0.448 C  
BRANCH   8   9
HETATM    9  C   UNL     1     -11.046   6.560  67.643  1.00  0.00    -0.380 C  
BRANCH   9  10
HETATM   10  C   UNL     1      -9.674   7.133  67.300  1.00  0.00    -0.198 C  
BRANCH  10  11
HETATM   11  C   UNL     1      -9.785   8.418  66.482  1.00  0.00    -0.330 C  
BRANCH  11  12
HETATM   12  C   UNL     1     -10.628   9.444  67.233  1.00  0.00    -0.314 C  
BRANCH  12  13
HETATM   13  C   UNL     1     -10.033  10.848  67.173  1.00  0.00    -0.221 C  
BRANCH  13  14
HETATM   14  C   UNL     1     -11.012  11.805  66.535  1.00  0.00    -0.295 C  
HETATM   15  O   UNL     1     -12.109  12.097  66.992  1.00  0.00    -0.591 OA 
BRANCH  14  16
HETATM   16  O   UNL     1     -10.495  12.296  65.374  1.00  0.00    -0.255 OA 
BRANCH  16  17
HETATM   17  C   UNL     1     -10.940  11.629  64.176  1.00  0.00    -0.376 C  
HETATM   18  C   UNL     1     -11.865  12.550  63.389  1.00  0.00    -0.587 C  
HETATM   19  C   UNL     1      -9.703  11.278  63.361  1.00  0.00    -0.385 C  
ENDBRANCH  16  17
ENDBRANCH  14  16
ENDBRANCH  13  14
ENDBRANCH  12  13
ENDBRANCH  11  12
ENDBRANCH  10  11
ENDBRANCH   9  10
ENDBRANCH   8   9
ENDBRANCH   7   8
ENDBRANCH   6   7
ENDBRANCH   5   6
ENDBRANCH   4   5
ENDBRANCH   3   4
ENDBRANCH   2   3
TORSDOF 14
ENDMDL
MODEL       99
REMARK 921   NORMALIZED FREE ENERGY PREDICTED BY IDOCK:   -3.88 KCAL/MOL
REMARK 922        TOTAL FREE ENERGY PREDICTED BY IDOCK:   -8.63 KCAL/MOL
REMARK 923 INTER-LIGAND FREE ENERGY PREDICTED BY IDOCK:   -6.69 KCAL/MOL
REMARK 924 INTRA-LIGAND FREE ENERGY PREDICTED BY IDOCK:   -1.93 KCAL/MOL
REMARK 927      BINDING AFFINITY PREDICTED BY RF-SCORE:    0.00 PKD
ROOT
HETATM    1  C   UNL     1      -9.390  10.344  63.435  1.00  0.00    -0.334 C  
HETATM    2  C   UNL     1      -9.962  11.728  63.693  1.00  0.00    -0.404 C  
ENDROOT
BRANCH   2   3
HETATM    3  C   UNL     1     -11.398  11.645  64.206  1.00  0.00    -0.361 C  
BRANCH   3   4
HETATM    4  C   UNL     1     -12.322  12.575  63.420  1.00  0.00    -0.577 C  
BRANCH   4   5
HETATM    5  C   UNL     1     -12.337  13.974  64.035  1.00  0.00    -0.341 C  
BRANCH   5   6
HETATM    6  C   UNL     1     -12.422  13.909  65.558  1.00  0.00    -0.541 C  
BRANCH   6   7
HETATM    7  C   UNL     1     -11.466  14.914  66.198  1.00  0.00    -0.272 C  
BRANCH   7   8
HETATM    8  C   UNL     1     -10.011  14.530  65.941  1.00  0.00    -0.352 C  
BRANCH   8   9
HETATM    9  C   UNL     1      -9.185  14.627  67.223  1.00  0.00    -0.212 C  
BRANCH   9  10
HETATM   10  C   UNL     1      -9.790  13.758  68.322  1.00  0.00    -0.232 C  
BRANCH  10  11
HETATM   11  C   UNL     1      -9.776  12.277  67.946  1.00  0.00    -0.202 C  
BRANCH  11  12
HETATM   12  C   UNL     1     -11.002  11.580  68.526  1.00  0.00    -0.268 C  
BRANCH  12  13
HETATM   13  C   UNL     1     -12.031  12.566  69.074  1.00  0.00    -0.280 C  
BRANCH  13  14
HETATM   14  C   UNL     1     -12.300  12.285  70.534  1.00  0.00    -0.264 C  
HETATM   15  O   UNL     1     -12.601  11.192  70.996  1.00  0.00    -0.365 OA 
BRANCH  14  16
HETATM   16  O   UNL     1     -12.162  13.428  71.262  1.00  0.00    -0.273 OA 
BRANCH  16  17
HETATM   17  C   UNL     1     -13.015  14.517  70.859  1.00  0.00    -0.361 C  
HETATM   18  C   UNL     1     -14.126  14.707  71.886  1.00  0.00    -0.606 C  
HETATM   19  C   UNL     1     -12.149  15.766  70.760  1.00  0.00    -0.448 C  
ENDBRANCH  16  17
ENDBRANCH  14  16
ENDBRANCH  13  14
ENDBRANCH  12  13
ENDBRANCH  11  12
ENDBRANCH  10  11
ENDBRANCH   9  10
ENDBRANCH   8   9
ENDBRANCH   7   8
ENDBRANCH   6   7
ENDBRANCH   5   6
ENDBRANCH   4   5
ENDBRANCH   3   4
ENDBRANCH   2   3
TORSDOF 14
ENDMDL
MODEL      100
REMARK 921   NORMALIZED FREE ENERGY PREDICTED BY IDOCK:   -3.88 KCAL/MOL
REMARK 922        TOTAL FREE ENERGY PREDICTED BY IDOCK:   -8.62 KCAL/MOL
REMARK 923 INTER-LIGAND FREE ENERGY PREDICTED BY IDOCK:   -6.33 KCAL/MOL
REMARK 924 INTRA-LIGAND FREE ENERGY PREDICTED BY IDOCK:   -2.29 KCAL/MOL
REMARK 927      BINDING AFFINITY PREDICTED BY RF-SCORE:    0.00 PKD
ROOT
HETATM    1  C   UNL     1     -10.314  11.226  63.350  1.00  0.00    -0.449 C  
HETATM    2  C   UNL     1     -11.045  12.541  63.567  1.00  0.00    -0.497 C  
ENDROOT
BRANCH   2   3
HETATM    3  C   UNL     1     -12.351  12.328  64.329  1.00  0.00    -0.519 C  
BRANCH   3   4
HETATM    4  C   UNL     1     -12.597  13.453  65.334  1.00  0.00    -0.528 C  
BRANCH   4   5
HETATM    5  C   UNL     1     -11.510  14.522  65.232  1.00  0.00    -0.355 C  
BRANCH   5   6
HETATM    6  C   UNL     1     -10.785  14.703  66.563  1.00  0.00    -0.312 C  
BRANCH   6   7
HETATM    7  C   UNL     1      -9.555  13.800  66.638  1.00  0.00    -0.295 C  
BRANCH   7   8
HETATM    8  C   UNL     1      -9.729  12.721  67.703  1.00  0.00    -0.205 C  
BRANCH   8   9
HETATM    9  C   UNL     1     -10.082  11.377  67.068  1.00  0.00    -0.237 C  
BRANCH   9  10
HETATM   10  C   UNL     1     -11.272  10.739  67.779  1.00  0.00    -0.385 C  
BRANCH  10  11
HETATM   11  C   UNL     1     -11.853  11.661  68.850  1.00  0.00    -0.392 C  
BRANCH  11  12
HETATM   12  C   UNL     1     -12.620  10.841  69.883  1.00  0.00    -0.199 C  
BRANCH  12  13
HETATM   13  C   UNL     1     -11.749  10.428  71.067  1.00  0.00    -0.430 C  
BRANCH  13  14
HETATM   14  C   UNL     1     -11.824   8.935  71.277  1.00  0.00    -0.310 C  
HETATM   15  O   UNL     1     -12.771   8.341  71.775  1.00  0.00    -0.314 OA 
BRANCH  14  16
HETATM   16  O   UNL     1     -10.679   8.344  70.832  1.00  0.00    -0.213 OA 
BRANCH  16  17
HETATM   17  C   UNL     1      -9.469   9.081  71.092  1.00  0.00    -0.278 C  
HETATM   18  C   UNL     1      -8.723   8.448  72.262  1.00  0.00    -0.277 C  
HETATM   19  C   UNL     1      -8.626   9.038  69.825  1.00  0.00    -0.138 C  
ENDBRANCH  16  17
ENDBRANCH  14  16
ENDBRANCH  13  14
ENDBRANCH  12  13
ENDBRANCH  11  12
ENDBRANCH  10  11
ENDBRANCH   9  10
ENDBRANCH   8   9
ENDBRANCH   7   8
ENDBRANCH   6   7
ENDBRANCH   5   6
ENDBRANCH   4   5
ENDBRANCH   3   4
ENDBRANCH   2   3
TORSDOF 14
ENDMDL
MODEL      101
REMARK 921   NORMALIZED FREE ENERGY PREDICTED BY IDOCK:   -3.88 KCAL/MOL
REMARK 922        TOTAL FREE ENERGY PREDICTED BY IDOCK:   -8.62 KCAL/MOL
REMARK 923 INTER-LIGAND FREE ENERGY PREDICTED BY IDOCK:   -6.74 KCAL/MOL
REMARK 924 INTRA-LIGAND FREE ENERGY PREDICTED BY IDOCK:   -1.88 KCAL/MOL
REMARK 927      BINDING AFFINITY PREDICTED BY RF-SCORE:    0.00 PKD
ROOT
HETATM    1  C   UNL     1     -12.850  13.985  65.372  1.00  0.00    -0.442 C  
HETATM    2  C   UNL     1     -12.198  13.934  64.000  1.00  0.00    -0.413 C  
ENDROOT
BRANCH   2   3
HETATM    3  C   UNL     1     -11.895  12.496  63.585  1.00  0.00    -0.610 C  
BRANCH   3   4
HETATM    4  C   UNL     1     -10.403  12.189  63.698  1.00  0.00    -0.482 C  
BRANCH   4   5
HETATM    5  C   UNL     1     -10.157  11.025  64.657  1.00  0.00    -0.370 C  
BRANCH   5   6
HETATM    6  C   UNL     1     -10.666  11.346  66.061  1.00  0.00    -0.318 C  
BRANCH   6   7
HETATM    7  C   UNL     1      -9.544  11.917  66.926  1.00  0.00    -0.208 C  
BRANCH   7   8
HETATM    8  C   UNL     1      -9.829  13.367  67.309  1.00  0.00    -0.233 C  
BRANCH   8   9
HETATM    9  C   UNL     1      -8.854  14.318  66.616  1.00  0.00    -0.167 C  
BRANCH   9  10
HETATM   10  C   UNL     1      -9.574  15.576  66.140  1.00  0.00    -0.362 C  
BRANCH  10  11
HETATM   11  C   UNL     1     -10.645  16.027  67.132  1.00  0.00    -0.305 C  
BRANCH  11  12
HETATM   12  C   UNL     1     -10.452  17.500  67.473  1.00  0.00    -0.355 C  
BRANCH  12  13
HETATM   13  C   UNL     1     -10.478  18.396  66.237  1.00  0.00    -0.421 C  
BRANCH  13  14
HETATM   14  C   UNL     1      -9.696  19.663  66.492  1.00  0.00    -0.399 C  
HETATM   15  O   UNL     1     -10.029  20.551  67.265  1.00  0.00    -0.450 OA 
BRANCH  14  16
HETATM   16  O   UNL     1      -8.565  19.673  65.732  1.00  0.00    -0.395 OA 
BRANCH  16  17
HETATM   17  C   UNL     1      -7.333  19.530  66.466  1.00  0.00    -0.240 C  
HETATM   18  C   UNL     1      -6.694  18.184  66.140  1.00  0.00    -0.292 C  
HETATM   19  C   UNL     1      -6.420  20.677  66.057  1.00  0.00    -0.275 C  
ENDBRANCH  16  17
ENDBRANCH  14  16
ENDBRANCH  13  14
ENDBRANCH  12  13
ENDBRANCH  11  12
ENDBRANCH  10  11
ENDBRANCH   9  10
ENDBRANCH   8   9
ENDBRANCH   7   8
ENDBRANCH   6   7
ENDBRANCH   5   6
ENDBRANCH   4   5
ENDBRANCH   3   4
ENDBRANCH   2   3
TORSDOF 14
ENDMDL
MODEL      102
REMARK 921   NORMALIZED FREE ENERGY PREDICTED BY IDOCK:   -3.88 KCAL/MOL
REMARK 922        TOTAL FREE ENERGY PREDICTED BY IDOCK:   -8.62 KCAL/MOL
REMARK 923 INTER-LIGAND FREE ENERGY PREDICTED BY IDOCK:   -7.31 KCAL/MOL
REMARK 924 INTRA-LIGAND FREE ENERGY PREDICTED BY IDOCK:   -1.31 KCAL/MOL
REMARK 927      BINDING AFFINITY PREDICTED BY RF-SCORE:    0.00 PKD
ROOT
HETATM    1  C   UNL     1     -11.645   6.583  70.519  1.00  0.00    -0.455 C  
HETATM    2  C   UNL     1     -12.817   7.284  71.188  1.00  0.00    -0.334 C  
ENDROOT
BRANCH   2   3
HETATM    3  C   UNL     1     -12.370   8.571  71.877  1.00  0.00    -0.407 C  
BRANCH   3   4
HETATM    4  C   UNL     1     -12.575   9.785  70.971  1.00  0.00    -0.406 C  
BRANCH   4   5
HETATM    5  C   UNL     1     -11.235  10.339  70.491  1.00  0.00    -0.408 C  
BRANCH   5   6
HETATM    6  C   UNL     1     -11.342  10.896  69.073  1.00  0.00    -0.348 C  
BRANCH   6   7
HETATM    7  C   UNL     1      -9.962  11.262  68.529  1.00  0.00    -0.206 C  
BRANCH   7   8
HETATM    8  C   UNL     1      -9.943  11.216  67.003  1.00  0.00    -0.223 C  
BRANCH   8   9
HETATM    9  C   UNL     1     -11.313  11.573  66.428  1.00  0.00    -0.246 C  
BRANCH   9  10
HETATM   10  C   UNL     1     -11.185  12.047  64.984  1.00  0.00    -0.374 C  
BRANCH  10  11
HETATM   11  C   UNL     1     -12.471  12.706  64.487  1.00  0.00    -0.525 C  
BRANCH  11  12
HETATM   12  C   UNL     1     -12.361  14.222  64.609  1.00  0.00    -0.433 C  
BRANCH  12  13
HETATM   13  C   UNL     1     -10.925  14.689  64.831  1.00  0.00    -0.419 C  
BRANCH  13  14
HETATM   14  C   UNL     1     -10.907  16.129  65.285  1.00  0.00    -0.336 C  
HETATM   15  O   UNL     1     -11.067  17.098  64.555  1.00  0.00    -1.105 OA 
BRANCH  14  16
HETATM   16  O   UNL     1     -10.683  16.192  66.627  1.00  0.00    -0.306 OA 
BRANCH  16  17
HETATM   17  C   UNL     1     -10.455  14.923  67.269  1.00  0.00    -0.263 C  
HETATM   18  C   UNL     1      -9.007  14.838  67.740  1.00  0.00    -0.182 C  
HETATM   19  C   UNL     1     -11.414  14.827  68.448  1.00  0.00    -0.336 C  
ENDBRANCH  16  17
ENDBRANCH  14  16
ENDBRANCH  13  14
ENDBRANCH  12  13
ENDBRANCH  11  12
ENDBRANCH  10  11
ENDBRANCH   9  10
ENDBRANCH   8   9
ENDBRANCH   7   8
ENDBRANCH   6   7
ENDBRANCH   5   6
ENDBRANCH   4   5
ENDBRANCH   3   4
ENDBRANCH   2   3
TORSDOF 14
ENDMDL
MODEL      103
REMARK 921   NORMALIZED FREE ENERGY PREDICTED BY IDOCK:   -3.87 KCAL/MOL
REMARK 922        TOTAL FREE ENERGY PREDICTED BY IDOCK:   -8.60 KCAL/MOL
REMARK 923 INTER-LIGAND FREE ENERGY PREDICTED BY IDOCK:   -6.90 KCAL/MOL
REMARK 924 INTRA-LIGAND FREE ENERGY PREDICTED BY IDOCK:   -1.70 KCAL/MOL
REMARK 927      BINDING AFFINITY PREDICTED BY RF-SCORE:    0.00 PKD
ROOT
HETATM    1  C   UNL     1     -10.168  10.459  64.994  1.00  0.00    -0.334 C  
HETATM    2  C   UNL     1     -10.297  11.549  63.943  1.00  0.00    -0.422 C  
ENDROOT
BRANCH   2   3
HETATM    3  C   UNL     1     -11.758  11.939  63.729  1.00  0.00    -0.554 C  
BRANCH   3   4
HETATM    4  C   UNL     1     -11.989  13.417  64.039  1.00  0.00    -0.520 C  
BRANCH   4   5
HETATM    5  C   UNL     1     -10.756  14.035  64.696  1.00  0.00    -0.416 C  
BRANCH   5   6
HETATM    6  C   UNL     1     -11.121  14.757  65.991  1.00  0.00    -0.330 C  
BRANCH   6   7
HETATM    7  C   UNL     1     -11.952  13.853  66.900  1.00  0.00    -0.467 C  
BRANCH   7   8
HETATM    8  C   UNL     1     -11.057  13.035  67.827  1.00  0.00    -0.291 C  
BRANCH   8   9
HETATM    9  C   UNL     1     -11.786  11.790  68.333  1.00  0.00    -0.389 C  
BRANCH   9  10
HETATM   10  C   UNL     1     -11.237  11.357  69.688  1.00  0.00    -0.301 C  
BRANCH  10  11
HETATM   11  C   UNL     1     -12.351  11.159  70.715  1.00  0.00    -0.504 C  
BRANCH  11  12
HETATM   12  C   UNL     1     -12.091   9.897  71.530  1.00  0.00    -0.496 C  
BRANCH  12  13
HETATM   13  C   UNL     1     -10.803   9.188  71.118  1.00  0.00    -0.381 C  
BRANCH  13  14
HETATM   14  C   UNL     1     -11.116   7.836  70.524  1.00  0.00    -0.257 C  
HETATM   15  O   UNL     1     -12.077   7.141  70.825  1.00  0.00    -0.331 OA 
BRANCH  14  16
HETATM   16  O   UNL     1     -10.169   7.501  69.603  1.00  0.00    -0.195 OA 
BRANCH  16  17
HETATM   17  C   UNL     1     -10.381   8.041  68.284  1.00  0.00    -0.197 C  
HETATM   18  C   UNL     1      -9.058   8.544  67.716  1.00  0.00    -0.143 C  
HETATM   19  C   UNL     1     -10.953   6.927  67.419  1.00  0.00    -0.374 C  
ENDBRANCH  16  17
ENDBRANCH  14  16
ENDBRANCH  13  14
ENDBRANCH  12  13
ENDBRANCH  11  12
ENDBRANCH  10  11
ENDBRANCH   9  10
ENDBRANCH   8   9
ENDBRANCH   7   8
ENDBRANCH   6   7
ENDBRANCH   5   6
ENDBRANCH   4   5
ENDBRANCH   3   4
ENDBRANCH   2   3
TORSDOF 14
ENDMDL
MODEL      104
REMARK 921   NORMALIZED FREE ENERGY PREDICTED BY IDOCK:   -3.86 KCAL/MOL
REMARK 922        TOTAL FREE ENERGY PREDICTED BY IDOCK:   -8.58 KCAL/MOL
REMARK 923 INTER-LIGAND FREE ENERGY PREDICTED BY IDOCK:   -6.93 KCAL/MOL
REMARK 924 INTRA-LIGAND FREE ENERGY PREDICTED BY IDOCK:   -1.65 KCAL/MOL
REMARK 927      BINDING AFFINITY PREDICTED BY RF-SCORE:    0.00 PKD
ROOT
HETATM    1  C   UNL     1     -13.168  15.310  70.995  1.00  0.00    -0.546 C  
HETATM    2  C   UNL     1     -12.147  14.537  70.174  1.00  0.00    -0.394 C  
ENDROOT
BRANCH   2   3
HETATM    3  C   UNL     1     -11.864  15.235  68.846  1.00  0.00    -0.344 C  
BRANCH   3   4
HETATM    4  C   UNL     1     -11.695  14.224  67.713  1.00  0.00    -0.408 C  
BRANCH   4   5
HETATM    5  C   UNL     1     -10.879  14.820  66.567  1.00  0.00    -0.319 C  
BRANCH   5   6
HETATM    6  C   UNL     1     -11.534  14.540  65.216  1.00  0.00    -0.355 C  
BRANCH   6   7
HETATM    7  C   UNL     1     -12.656  13.513  65.360  1.00  0.00    -0.531 C  
BRANCH   7   8
HETATM    8  C   UNL     1     -12.501  12.383  64.346  1.00  0.00    -0.520 C  
BRANCH   8   9
HETATM    9  C   UNL     1     -11.051  12.263  63.879  1.00  0.00    -0.475 C  
BRANCH   9  10
HETATM   10  C   UNL     1     -10.391  11.026  64.481  1.00  0.00    -0.420 C  
BRANCH  10  11
HETATM   11  C   UNL     1      -9.825  11.306  65.872  1.00  0.00    -0.272 C  
BRANCH  11  12
HETATM   12  C   UNL     1      -9.756  10.012  66.676  1.00  0.00    -0.246 C  
BRANCH  12  13
HETATM   13  C   UNL     1     -10.974   9.813  67.574  1.00  0.00    -0.205 C  
BRANCH  13  14
HETATM   14  C   UNL     1     -10.799  10.569  68.870  1.00  0.00    -0.235 C  
HETATM   15  O   UNL     1      -9.746  11.050  69.267  1.00  0.00    -0.139 OA 
BRANCH  14  16
HETATM   16  O   UNL     1     -11.987  10.637  69.535  1.00  0.00    -0.288 OA 
BRANCH  16  17
HETATM   17  C   UNL     1     -11.891  10.540  70.969  1.00  0.00    -0.340 C  
HETATM   18  C   UNL     1     -13.079  11.249  71.612  1.00  0.00    -0.513 C  
HETATM   19  C   UNL     1     -11.884   9.061  71.329  1.00  0.00    -0.379 C  
ENDBRANCH  16  17
ENDBRANCH  14  16
ENDBRANCH  13  14
ENDBRANCH  12  13
ENDBRANCH  11  12
ENDBRANCH  10  11
ENDBRANCH   9  10
ENDBRANCH   8   9
ENDBRANCH   7   8
ENDBRANCH   6   7
ENDBRANCH   5   6
ENDBRANCH   4   5
ENDBRANCH   3   4
ENDBRANCH   2   3
TORSDOF 14
ENDMDL
MODEL      105
REMARK 921   NORMALIZED FREE ENERGY PREDICTED BY IDOCK:   -3.86 KCAL/MOL
REMARK 922        TOTAL FREE ENERGY PREDICTED BY IDOCK:   -8.58 KCAL/MOL
REMARK 923 INTER-LIGAND FREE ENERGY PREDICTED BY IDOCK:   -6.25 KCAL/MOL
REMARK 924 INTRA-LIGAND FREE ENERGY PREDICTED BY IDOCK:   -2.33 KCAL/MOL
REMARK 927      BINDING AFFINITY PREDICTED BY RF-SCORE:    0.00 PKD
ROOT
HETATM    1  C   UNL     1     -11.852  12.453  63.499  1.00  0.00    -0.605 C  
HETATM    2  C   UNL     1     -12.636  12.667  64.784  1.00  0.00    -0.530 C  
ENDROOT
BRANCH   2   3
HETATM    3  C   UNL     1     -12.232  13.971  65.467  1.00  0.00    -0.455 C  
BRANCH   3   4
HETATM    4  C   UNL     1     -11.095  14.662  64.716  1.00  0.00    -0.394 C  
BRANCH   4   5
HETATM    5  C   UNL     1     -10.219  15.467  65.674  1.00  0.00    -0.403 C  
BRANCH   5   6
HETATM    6  C   UNL     1     -10.860  15.572  67.056  1.00  0.00    -0.314 C  
BRANCH   6   7
HETATM    7  C   UNL     1      -9.836  16.022  68.096  1.00  0.00    -0.222 C  
BRANCH   7   8
HETATM    8  C   UNL     1     -10.470  16.133  69.480  1.00  0.00    -0.295 C  
BRANCH   8   9
HETATM    9  C   UNL     1     -11.850  15.478  69.503  1.00  0.00    -0.390 C  
BRANCH   9  10
HETATM   10  C   UNL     1     -12.095  14.782  70.838  1.00  0.00    -0.387 C  
BRANCH  10  11
HETATM   11  C   UNL     1     -12.226  13.268  70.673  1.00  0.00    -0.417 C  
BRANCH  11  12
HETATM   12  C   UNL     1     -12.032  12.885  69.210  1.00  0.00    -0.313 C  
BRANCH  12  13
HETATM   13  C   UNL     1     -11.694  11.407  69.031  1.00  0.00    -0.409 C  
BRANCH  13  14
HETATM   14  C   UNL     1     -10.198  11.205  69.046  1.00  0.00    -0.176 C  
HETATM   15  O   UNL     1      -9.625  10.223  69.498  1.00  0.00    -0.224 OA 
BRANCH  14  16
HETATM   16  O   UNL     1      -9.577  12.281  68.485  1.00  0.00    -0.197 OA 
BRANCH  16  17
HETATM   17  C   UNL     1      -8.584  11.963  67.490  1.00  0.00    -0.160 C  
HETATM   18  C   UNL     1      -9.261  11.727  66.144  1.00  0.00    -0.218 C  
HETATM   19  C   UNL     1      -7.622  13.141  67.412  1.00  0.00    -0.137 C  
ENDBRANCH  16  17
ENDBRANCH  14  16
ENDBRANCH  13  14
ENDBRANCH  12  13
ENDBRANCH  11  12
ENDBRANCH  10  11
ENDBRANCH   9  10
ENDBRANCH   8   9
ENDBRANCH   7   8
ENDBRANCH   6   7
ENDBRANCH   5   6
ENDBRANCH   4   5
ENDBRANCH   3   4
ENDBRANCH   2   3
TORSDOF 14
ENDMDL
MODEL      106
REMARK 921   NORMALIZED FREE ENERGY PREDICTED BY IDOCK:   -3.85 KCAL/MOL
REMARK 922        TOTAL FREE ENERGY PREDICTED BY IDOCK:   -8.58 KCAL/MOL
REMARK 923 INTER-LIGAND FREE ENERGY PREDICTED BY IDOCK:   -7.55 KCAL/MOL
REMARK 924 INTRA-LIGAND FREE ENERGY PREDICTED BY IDOCK:   -1.03 KCAL/MOL
REMARK 927      BINDING AFFINITY PREDICTED BY RF-SCORE:    0.00 PKD
ROOT
HETATM    1  C   UNL     1     -11.121   4.230  73.410  1.00  0.00    -0.371 C  
HETATM    2  C   UNL     1     -11.502   5.582  72.829  1.00  0.00    -0.339 C  
ENDROOT
BRANCH   2   3
HETATM    3  C   UNL     1     -10.797   5.829  71.497  1.00  0.00    -0.316 C  
BRANCH   3   4
HETATM    4  C   UNL     1     -10.831   7.309  71.118  1.00  0.00    -0.260 C  
BRANCH   4   5
HETATM    5  C   UNL     1     -11.598   8.121  72.160  1.00  0.00    -0.417 C  
BRANCH   5   6
HETATM    6  C   UNL     1     -12.805   8.821  71.539  1.00  0.00    -0.366 C  
BRANCH   6   7
HETATM    7  C   UNL     1     -12.456  10.255  71.146  1.00  0.00    -0.495 C  
BRANCH   7   8
HETATM    8  C   UNL     1     -13.276  11.261  71.950  1.00  0.00    -0.491 C  
BRANCH   8   9
HETATM    9  C   UNL     1     -12.954  12.693  71.527  1.00  0.00    -0.380 C  
BRANCH   9  10
HETATM   10  C   UNL     1     -13.643  13.695  72.447  1.00  0.00    -0.703 C  
BRANCH  10  11
HETATM   11  C   UNL     1     -13.178  15.126  72.179  1.00  0.00    -0.470 C  
BRANCH  11  12
HETATM   12  C   UNL     1     -13.041  15.356  70.677  1.00  0.00    -0.405 C  
BRANCH  12  13
HETATM   13  C   UNL     1     -11.653  15.857  70.285  1.00  0.00    -0.365 C  
BRANCH  13  14
HETATM   14  C   UNL     1     -11.473  15.784  68.788  1.00  0.00    -0.388 C  
HETATM   15  O   UNL     1     -10.744  16.515  68.131  1.00  0.00    -0.316 OA 
BRANCH  14  16
HETATM   16  O   UNL     1     -12.245  14.785  68.274  1.00  0.00    -0.192 OA 
BRANCH  16  17
HETATM   17  C   UNL     1     -11.562  13.882  67.382  1.00  0.00    -0.368 C  
HETATM   18  C   UNL     1     -11.561  12.477  67.976  1.00  0.00    -0.395 C  
HETATM   19  C   UNL     1     -12.301  13.907  66.052  1.00  0.00    -0.511 C  
ENDBRANCH  16  17
ENDBRANCH  14  16
ENDBRANCH  13  14
ENDBRANCH  12  13
ENDBRANCH  11  12
ENDBRANCH  10  11
ENDBRANCH   9  10
ENDBRANCH   8   9
ENDBRANCH   7   8
ENDBRANCH   6   7
ENDBRANCH   5   6
ENDBRANCH   4   5
ENDBRANCH   3   4
ENDBRANCH   2   3
TORSDOF 14
ENDMDL
MODEL      107
REMARK 921   NORMALIZED FREE ENERGY PREDICTED BY IDOCK:   -3.85 KCAL/MOL
REMARK 922        TOTAL FREE ENERGY PREDICTED BY IDOCK:   -8.58 KCAL/MOL
REMARK 923 INTER-LIGAND FREE ENERGY PREDICTED BY IDOCK:   -7.10 KCAL/MOL
REMARK 924 INTRA-LIGAND FREE ENERGY PREDICTED BY IDOCK:   -1.48 KCAL/MOL
REMARK 927      BINDING AFFINITY PREDICTED BY RF-SCORE:    0.00 PKD
ROOT
HETATM    1  C   UNL     1      -7.430  15.579  67.042  1.00  0.00    -0.205 C  
HETATM    2  C   UNL     1      -6.798  16.961  67.070  1.00  0.00    -0.239 C  
ENDROOT
BRANCH   2   3
HETATM    3  C   UNL     1      -7.355  17.846  65.956  1.00  0.00    -0.306 C  
BRANCH   3   4
HETATM    4  C   UNL     1      -6.996  19.314  66.183  1.00  0.00    -0.261 C  
BRANCH   4   5
HETATM    5  C   UNL     1      -8.135  20.051  66.886  1.00  0.00    -0.361 C  
BRANCH   5   6
HETATM    6  C   UNL     1      -9.478  19.759  66.220  1.00  0.00    -0.493 C  
BRANCH   6   7
HETATM    7  C   UNL     1     -10.569  19.549  67.268  1.00  0.00    -0.610 C  
BRANCH   7   8
HETATM    8  C   UNL     1     -10.163  18.477  68.277  1.00  0.00    -0.412 C  
BRANCH   8   9
HETATM    9  C   UNL     1     -10.684  17.104  67.854  1.00  0.00    -0.355 C  
BRANCH   9  10
HETATM   10  C   UNL     1     -11.056  16.269  69.075  1.00  0.00    -0.331 C  
BRANCH  10  11
HETATM   11  C   UNL     1     -10.305  14.938  69.104  1.00  0.00    -0.246 C  
BRANCH  11  12
HETATM   12  C   UNL     1     -11.283  13.784  68.910  1.00  0.00    -0.309 C  
BRANCH  12  13
HETATM   13  C   UNL     1     -11.939  13.797  67.531  1.00  0.00    -0.411 C  
BRANCH  13  14
HETATM   14  C   UNL     1     -11.683  12.492  66.816  1.00  0.00    -0.384 C  
HETATM   15  O   UNL     1     -11.944  11.383  67.263  1.00  0.00    -0.580 OA 
BRANCH  14  16
HETATM   16  O   UNL     1     -11.116  12.730  65.600  1.00  0.00    -0.271 OA 
BRANCH  16  17
HETATM   17  C   UNL     1     -11.617  11.915  64.522  1.00  0.00    -0.271 C  
HETATM   18  C   UNL     1     -12.146  12.808  63.405  1.00  0.00    -0.619 C  
HETATM   19  C   UNL     1     -10.463  11.054  64.026  1.00  0.00    -0.433 C  
ENDBRANCH  16  17
ENDBRANCH  14  16
ENDBRANCH  13  14
ENDBRANCH  12  13
ENDBRANCH  11  12
ENDBRANCH  10  11
ENDBRANCH   9  10
ENDBRANCH   8   9
ENDBRANCH   7   8
ENDBRANCH   6   7
ENDBRANCH   5   6
ENDBRANCH   4   5
ENDBRANCH   3   4
ENDBRANCH   2   3
TORSDOF 14
ENDMDL
MODEL      108
REMARK 921   NORMALIZED FREE ENERGY PREDICTED BY IDOCK:   -3.85 KCAL/MOL
REMARK 922        TOTAL FREE ENERGY PREDICTED BY IDOCK:   -8.58 KCAL/MOL
REMARK 923 INTER-LIGAND FREE ENERGY PREDICTED BY IDOCK:   -5.94 KCAL/MOL
REMARK 924 INTRA-LIGAND FREE ENERGY PREDICTED BY IDOCK:   -2.63 KCAL/MOL
REMARK 927      BINDING AFFINITY PREDICTED BY RF-SCORE:    0.00 PKD
ROOT
HETATM    1  C   UNL     1      -9.449   8.530  66.243  1.00  0.00    -0.299 C  
HETATM    2  C   UNL     1     -10.584   8.750  67.230  1.00  0.00    -0.303 C  
ENDROOT
BRANCH   2   3
HETATM    3  C   UNL     1     -10.256   8.144  68.593  1.00  0.00    -0.226 C  
BRANCH   3   4
HETATM    4  C   UNL     1      -8.840   8.511  69.036  1.00  0.00    -0.145 C  
BRANCH   4   5
HETATM    5  C   UNL     1      -8.808   9.905  69.660  1.00  0.00    -0.224 C  
BRANCH   5   6
HETATM    6  C   UNL     1      -7.620  10.715  69.145  1.00  0.00    -0.131 C  
BRANCH   6   7
HETATM    7  C   UNL     1      -8.016  11.541  67.923  1.00  0.00    -0.126 C  
BRANCH   7   8
HETATM    8  C   UNL     1      -9.215  12.434  68.228  1.00  0.00    -0.189 C  
BRANCH   8   9
HETATM    9  C   UNL     1     -10.246  12.369  67.102  1.00  0.00    -0.226 C  
BRANCH   9  10
HETATM   10  C   UNL     1     -11.654  12.215  67.669  1.00  0.00    -0.413 C  
BRANCH  10  11
HETATM   11  C   UNL     1     -11.658  12.245  69.196  1.00  0.00    -0.373 C  
BRANCH  11  12
HETATM   12  C   UNL     1     -12.279  10.964  69.742  1.00  0.00    -0.381 C  
BRANCH  12  13
HETATM   13  C   UNL     1     -12.763  11.115  71.182  1.00  0.00    -0.510 C  
BRANCH  13  14
HETATM   14  C   UNL     1     -12.877   9.761  71.841  1.00  0.00    -0.427 C  
HETATM   15  O   UNL     1     -13.873   9.339  72.414  1.00  0.00    -0.470 OA 
BRANCH  14  16
HETATM   16  O   UNL     1     -11.706   9.077  71.707  1.00  0.00    -0.324 OA 
BRANCH  16  17
HETATM   17  C   UNL     1     -11.599   7.884  72.508  1.00  0.00    -0.386 C  
HETATM   18  C   UNL     1     -11.924   6.662  71.656  1.00  0.00    -0.395 C  
HETATM   19  C   UNL     1     -10.172   7.813  73.035  1.00  0.00    -0.393 C  
ENDBRANCH  16  17
ENDBRANCH  14  16
ENDBRANCH  13  14
ENDBRANCH  12  13
ENDBRANCH  11  12
ENDBRANCH  10  11
ENDBRANCH   9  10
ENDBRANCH   8   9
ENDBRANCH   7   8
ENDBRANCH   6   7
ENDBRANCH   5   6
ENDBRANCH   4   5
ENDBRANCH   3   4
ENDBRANCH   2   3
TORSDOF 14
ENDMDL
MODEL      109
REMARK 921   NORMALIZED FREE ENERGY PREDICTED BY IDOCK:   -3.85 KCAL/MOL
REMARK 922        TOTAL FREE ENERGY PREDICTED BY IDOCK:   -8.57 KCAL/MOL
REMARK 923 INTER-LIGAND FREE ENERGY PREDICTED BY IDOCK:   -6.30 KCAL/MOL
REMARK 924 INTRA-LIGAND FREE ENERGY PREDICTED BY IDOCK:   -2.28 KCAL/MOL
REMARK 927      BINDING AFFINITY PREDICTED BY RF-SCORE:    0.00 PKD
ROOT
HETATM    1  C   UNL     1     -11.927  11.897  63.768  1.00  0.00    -0.547 C  
HETATM    2  C   UNL     1     -10.724  12.806  63.964  1.00  0.00    -0.457 C  
ENDROOT
BRANCH   2   3
HETATM    3  C   UNL     1     -11.132  14.132  64.602  1.00  0.00    -0.378 C  
BRANCH   3   4
HETATM    4  C   UNL     1     -12.359  13.963  65.495  1.00  0.00    -0.506 C  
BRANCH   4   5
HETATM    5  C   UNL     1     -11.969  14.009  66.972  1.00  0.00    -0.472 C  
BRANCH   5   6
HETATM    6  C   UNL     1     -11.998  12.616  67.596  1.00  0.00    -0.309 C  
BRANCH   6   7
HETATM    7  C   UNL     1     -10.645  12.271  68.216  1.00  0.00    -0.243 C  
BRANCH   7   8
HETATM    8  C   UNL     1      -9.833  11.365  67.294  1.00  0.00    -0.209 C  
BRANCH   8   9
HETATM    9  C   UNL     1      -8.464  11.974  66.995  1.00  0.00    -0.183 C  
BRANCH   9  10
HETATM   10  C   UNL     1      -8.036  12.915  68.116  1.00  0.00    -0.153 C  
BRANCH  10  11
HETATM   11  C   UNL     1      -7.334  14.160  67.575  1.00  0.00    -0.193 C  
BRANCH  11  12
HETATM   12  C   UNL     1      -8.361  15.127  66.994  1.00  0.00    -0.263 C  
BRANCH  12  13
HETATM   13  C   UNL     1      -7.715  16.344  66.337  1.00  0.00    -0.249 C  
BRANCH  13  14
HETATM   14  C   UNL     1      -8.466  17.600  66.706  1.00  0.00    -0.251 C  
HETATM   15  O   UNL     1      -8.765  18.496  65.928  1.00  0.00    -0.490 OA 
BRANCH  14  16
HETATM   16  O   UNL     1      -8.762  17.592  68.037  1.00  0.00    -0.240 OA 
BRANCH  16  17
HETATM   17  C   UNL     1     -10.102  18.005  68.368  1.00  0.00    -0.387 C  
HETATM   18  C   UNL     1     -10.751  16.965  69.274  1.00  0.00    -0.288 C  
HETATM   19  C   UNL     1     -10.005  19.352  69.071  1.00  0.00    -0.477 C  
ENDBRANCH  16  17
ENDBRANCH  14  16
ENDBRANCH  13  14
ENDBRANCH  12  13
ENDBRANCH  11  12
ENDBRANCH  10  11
ENDBRANCH   9  10
ENDBRANCH   8   9
ENDBRANCH   7   8
ENDBRANCH   6   7
ENDBRANCH   5   6
ENDBRANCH   4   5
ENDBRANCH   3   4
ENDBRANCH   2   3
TORSDOF 14
ENDMDL
MODEL      110
REMARK 921   NORMALIZED FREE ENERGY PREDICTED BY IDOCK:   -3.85 KCAL/MOL
REMARK 922        TOTAL FREE ENERGY PREDICTED BY IDOCK:   -8.57 KCAL/MOL
REMARK 923 INTER-LIGAND FREE ENERGY PREDICTED BY IDOCK:   -6.63 KCAL/MOL
REMARK 924 INTRA-LIGAND FREE ENERGY PREDICTED BY IDOCK:   -1.94 KCAL/MOL
REMARK 927      BINDING AFFINITY PREDICTED BY RF-SCORE:    0.00 PKD
ROOT
HETATM    1  C   UNL     1     -10.172   4.862  66.814  1.00  0.00    -0.274 C  
HETATM    2  C   UNL     1     -11.024   6.093  67.075  1.00  0.00    -0.414 C  
ENDROOT
BRANCH   2   3
HETATM    3  C   UNL     1     -10.791   6.638  68.482  1.00  0.00    -0.319 C  
BRANCH   3   4
HETATM    4  C   UNL     1     -10.326   5.536  69.433  1.00  0.00    -0.348 C  
BRANCH   4   5
HETATM    5  C   UNL     1     -10.929   5.727  70.824  1.00  0.00    -0.312 C  
BRANCH   5   6
HETATM    6  C   UNL     1     -12.018   6.798  70.814  1.00  0.00    -0.433 C  
BRANCH   6   7
HETATM    7  C   UNL     1     -11.913   7.690  72.050  1.00  0.00    -0.341 C  
BRANCH   7   8
HETATM    8  C   UNL     1     -11.638   9.140  71.660  1.00  0.00    -0.449 C  
BRANCH   8   9
HETATM    9  C   UNL     1     -10.257   9.282  71.021  1.00  0.00    -0.384 C  
BRANCH   9  10
HETATM   10  C   UNL     1     -10.335  10.119  69.748  1.00  0.00    -0.297 C  
BRANCH  10  11
HETATM   11  C   UNL     1     -11.762  10.583  69.460  1.00  0.00    -0.313 C  
BRANCH  11  12
HETATM   12  C   UNL     1     -11.767  12.067  69.110  1.00  0.00    -0.389 C  
BRANCH  12  13
HETATM   13  C   UNL     1     -10.665  12.440  68.122  1.00  0.00    -0.243 C  
BRANCH  13  14
HETATM   14  C   UNL     1     -11.128  12.198  66.705  1.00  0.00    -0.306 C  
HETATM   15  O   UNL     1     -12.269  12.370  66.299  1.00  0.00    -0.620 OA 
BRANCH  14  16
HETATM   16  O   UNL     1     -10.088  11.756  65.944  1.00  0.00    -0.219 OA 
BRANCH  16  17
HETATM   17  C   UNL     1     -10.349  10.558  65.187  1.00  0.00    -0.240 C  
HETATM   18  C   UNL     1      -9.691  10.662  63.815  1.00  0.00    -0.382 C  
HETATM   19  C   UNL     1      -9.776   9.387  65.974  1.00  0.00    -0.345 C  
ENDBRANCH  16  17
ENDBRANCH  14  16
ENDBRANCH  13  14
ENDBRANCH  12  13
ENDBRANCH  11  12
ENDBRANCH  10  11
ENDBRANCH   9  10
ENDBRANCH   8   9
ENDBRANCH   7   8
ENDBRANCH   6   7
ENDBRANCH   5   6
ENDBRANCH   4   5
ENDBRANCH   3   4
ENDBRANCH   2   3
TORSDOF 14
ENDMDL
MODEL      111
REMARK 921   NORMALIZED FREE ENERGY PREDICTED BY IDOCK:   -3.85 KCAL/MOL
REMARK 922        TOTAL FREE ENERGY PREDICTED BY IDOCK:   -8.57 KCAL/MOL
REMARK 923 INTER-LIGAND FREE ENERGY PREDICTED BY IDOCK:   -6.60 KCAL/MOL
REMARK 924 INTRA-LIGAND FREE ENERGY PREDICTED BY IDOCK:   -1.97 KCAL/MOL
REMARK 927      BINDING AFFINITY PREDICTED BY RF-SCORE:    0.00 PKD
ROOT
HETATM    1  C   UNL     1      -6.674  16.519  67.645  1.00  0.00    -0.161 C  
HETATM    2  C   UNL     1      -6.681  18.021  67.411  1.00  0.00    -0.194 C  
ENDROOT
BRANCH   2   3
HETATM    3  C   UNL     1      -7.127  18.357  65.990  1.00  0.00    -0.307 C  
BRANCH   3   4
HETATM    4  C   UNL     1      -7.520  19.828  65.865  1.00  0.00    -0.335 C  
BRANCH   4   5
HETATM    5  C   UNL     1      -8.195  20.323  67.144  1.00  0.00    -0.385 C  
BRANCH   5   6
HETATM    6  C   UNL     1      -9.708  20.124  67.084  1.00  0.00    -0.576 C  
BRANCH   6   7
HETATM    7  C   UNL     1     -10.259  19.745  68.457  1.00  0.00    -0.547 C  
BRANCH   7   8
HETATM    8  C   UNL     1     -10.255  18.231  68.652  1.00  0.00    -0.377 C  
BRANCH   8   9
HETATM    9  C   UNL     1     -10.494  17.508  67.327  1.00  0.00    -0.327 C  
BRANCH   9  10
HETATM   10  C   UNL     1     -10.410  15.997  67.514  1.00  0.00    -0.287 C  
BRANCH  10  11
HETATM   11  C   UNL     1     -11.108  15.245  66.381  1.00  0.00    -0.273 C  
BRANCH  11  12
HETATM   12  C   UNL     1     -11.928  14.091  66.948  1.00  0.00    -0.479 C  
BRANCH  12  13
HETATM   13  C   UNL     1     -11.056  12.996  67.557  1.00  0.00    -0.297 C  
BRANCH  13  14
HETATM   14  C   UNL     1     -11.588  12.595  68.912  1.00  0.00    -0.317 C  
HETATM   15  O   UNL     1     -11.274  11.579  69.518  1.00  0.00    -0.254 OA 
BRANCH  14  16
HETATM   16  O   UNL     1     -12.472  13.530  69.361  1.00  0.00    -0.199 OA 
BRANCH  16  17
HETATM   17  C   UNL     1     -12.210  14.032  70.687  1.00  0.00    -0.372 C  
HETATM   18  C   UNL     1     -12.340  15.551  70.696  1.00  0.00    -0.462 C  
HETATM   19  C   UNL     1     -13.226  13.396  71.626  1.00  0.00    -0.449 C  
ENDBRANCH  16  17
ENDBRANCH  14  16
ENDBRANCH  13  14
ENDBRANCH  12  13
ENDBRANCH  11  12
ENDBRANCH  10  11
ENDBRANCH   9  10
ENDBRANCH   8   9
ENDBRANCH   7   8
ENDBRANCH   6   7
ENDBRANCH   5   6
ENDBRANCH   4   5
ENDBRANCH   3   4
ENDBRANCH   2   3
TORSDOF 14
ENDMDL
MODEL      112
REMARK 921   NORMALIZED FREE ENERGY PREDICTED BY IDOCK:   -3.85 KCAL/MOL
REMARK 922        TOTAL FREE ENERGY PREDICTED BY IDOCK:   -8.56 KCAL/MOL
REMARK 923 INTER-LIGAND FREE ENERGY PREDICTED BY IDOCK:   -7.22 KCAL/MOL
REMARK 924 INTRA-LIGAND FREE ENERGY PREDICTED BY IDOCK:   -1.34 KCAL/MOL
REMARK 927      BINDING AFFINITY PREDICTED BY RF-SCORE:    0.00 PKD
ROOT
HETATM    1  C   UNL     1      -5.902  19.131  64.574  1.00  0.00    -0.319 C  
HETATM    2  C   UNL     1      -6.865  19.558  65.670  1.00  0.00    -0.313 C  
ENDROOT
BRANCH   2   3
HETATM    3  C   UNL     1      -6.555  18.847  66.986  1.00  0.00    -0.203 C  
BRANCH   3   4
HETATM    4  C   UNL     1      -7.146  19.602  68.176  1.00  0.00    -0.327 C  
BRANCH   4   5
HETATM    5  C   UNL     1      -8.433  18.935  68.659  1.00  0.00    -0.381 C  
BRANCH   5   6
HETATM    6  C   UNL     1      -9.652  19.808  68.369  1.00  0.00    -0.454 C  
BRANCH   6   7
HETATM    7  C   UNL     1     -10.437  19.265  67.177  1.00  0.00    -0.560 C  
BRANCH   7   8
HETATM    8  C   UNL     1     -10.506  17.740  67.213  1.00  0.00    -0.356 C  
BRANCH   8   9
HETATM    9  C   UNL     1     -10.448  17.156  65.802  1.00  0.00    -0.242 C  
BRANCH   9  10
HETATM   10  C   UNL     1      -9.718  15.817  65.803  1.00  0.00    -0.372 C  
BRANCH  10  11
HETATM   11  C   UNL     1     -10.611  14.684  66.307  1.00  0.00    -0.306 C  
BRANCH  11  12
HETATM   12  C   UNL     1     -11.933  14.684  65.546  1.00  0.00    -0.256 C  
BRANCH  12  13
HETATM   13  C   UNL     1     -12.453  13.275  65.275  1.00  0.00    -0.543 C  
BRANCH  13  14
HETATM   14  C   UNL     1     -12.273  12.921  63.818  1.00  0.00    -0.476 C  
HETATM   15  O   UNL     1     -12.602  13.631  62.877  1.00  0.00    -0.621 OA 
BRANCH  14  16
HETATM   16  O   UNL     1     -11.692  11.694  63.704  1.00  0.00    -0.420 OA 
BRANCH  16  17
HETATM   17  C   UNL     1     -10.339  11.610  64.191  1.00  0.00    -0.337 C  
HETATM   18  C   UNL     1     -10.232  10.493  65.223  1.00  0.00    -0.352 C  
HETATM   19  C   UNL     1      -9.439  11.330  62.995  1.00  0.00    -0.385 C  
ENDBRANCH  16  17
ENDBRANCH  14  16
ENDBRANCH  13  14
ENDBRANCH  12  13
ENDBRANCH  11  12
ENDBRANCH  10  11
ENDBRANCH   9  10
ENDBRANCH   8   9
ENDBRANCH   7   8
ENDBRANCH   6   7
ENDBRANCH   5   6
ENDBRANCH   4   5
ENDBRANCH   3   4
ENDBRANCH   2   3
TORSDOF 14
ENDMDL
MODEL      113
REMARK 921   NORMALIZED FREE ENERGY PREDICTED BY IDOCK:   -3.85 KCAL/MOL
REMARK 922        TOTAL FREE ENERGY PREDICTED BY IDOCK:   -8.56 KCAL/MOL
REMARK 923 INTER-LIGAND FREE ENERGY PREDICTED BY IDOCK:   -7.11 KCAL/MOL
REMARK 924 INTRA-LIGAND FREE ENERGY PREDICTED BY IDOCK:   -1.45 KCAL/MOL
REMARK 927      BINDING AFFINITY PREDICTED BY RF-SCORE:    0.00 PKD
ROOT
HETATM    1  C   UNL     1     -10.941   5.886  69.584  1.00  0.00    -0.447 C  
HETATM    2  C   UNL     1     -10.551   7.083  68.731  1.00  0.00    -0.235 C  
ENDROOT
BRANCH   2   3
HETATM    3  C   UNL     1      -9.037   7.283  68.721  1.00  0.00    -0.127 C  
BRANCH   3   4
HETATM    4  C   UNL     1      -8.389   6.677  69.965  1.00  0.00    -0.135 C  
BRANCH   4   5
HETATM    5  C   UNL     1      -7.570   7.724  70.718  1.00  0.00    -0.078 C  
BRANCH   5   6
HETATM    6  C   UNL     1      -8.465   8.611  71.582  1.00  0.00    -0.230 C  
BRANCH   6   7
HETATM    7  C   UNL     1      -8.909   7.869  72.841  1.00  0.00    -0.261 C  
BRANCH   7   8
HETATM    8  C   UNL     1     -10.431   7.785  72.921  1.00  0.00    -0.412 C  
BRANCH   8   9
HETATM    9  C   UNL     1     -11.085   8.719  71.903  1.00  0.00    -0.434 C  
BRANCH   9  10
HETATM   10  C   UNL     1     -12.590   8.477  71.838  1.00  0.00    -0.400 C  
BRANCH  10  11
HETATM   11  C   UNL     1     -13.381   9.773  72.013  1.00  0.00    -0.547 C  
BRANCH  11  12
HETATM   12  C   UNL     1     -12.721  10.898  71.222  1.00  0.00    -0.542 C  
BRANCH  12  13
HETATM   13  C   UNL     1     -13.247  12.276  71.614  1.00  0.00    -0.356 C  
BRANCH  13  14
HETATM   14  C   UNL     1     -12.464  13.357  70.906  1.00  0.00    -0.359 C  
HETATM   15  O   UNL     1     -12.155  13.340  69.722  1.00  0.00    -0.316 OA 
BRANCH  14  16
HETATM   16  O   UNL     1     -12.149  14.353  71.781  1.00  0.00    -0.321 OA 
BRANCH  16  17
HETATM   17  C   UNL     1     -13.128  14.595  72.811  1.00  0.00    -0.486 C  
HETATM   18  C   UNL     1     -12.521  15.470  73.902  1.00  0.00    -0.769 C  
HETATM   19  C   UNL     1     -14.317  15.288  72.159  1.00  0.00    -0.651 C  
ENDBRANCH  16  17
ENDBRANCH  14  16
ENDBRANCH  13  14
ENDBRANCH  12  13
ENDBRANCH  11  12
ENDBRANCH  10  11
ENDBRANCH   9  10
ENDBRANCH   8   9
ENDBRANCH   7   8
ENDBRANCH   6   7
ENDBRANCH   5   6
ENDBRANCH   4   5
ENDBRANCH   3   4
ENDBRANCH   2   3
TORSDOF 14
ENDMDL
MODEL      114
REMARK 921   NORMALIZED FREE ENERGY PREDICTED BY IDOCK:   -3.84 KCAL/MOL
REMARK 922        TOTAL FREE ENERGY PREDICTED BY IDOCK:   -8.56 KCAL/MOL
REMARK 923 INTER-LIGAND FREE ENERGY PREDICTED BY IDOCK:   -6.95 KCAL/MOL
REMARK 924 INTRA-LIGAND FREE ENERGY PREDICTED BY IDOCK:   -1.60 KCAL/MOL
REMARK 927      BINDING AFFINITY PREDICTED BY RF-SCORE:    0.00 PKD
ROOT
HETATM    1  C   UNL     1     -13.370  10.205  71.931  1.00  0.00    -0.505 C  
HETATM    2  C   UNL     1     -13.880   8.804  71.636  1.00  0.00    -0.443 C  
ENDROOT
BRANCH   2   3
HETATM    3  C   UNL     1     -12.815   7.752  71.937  1.00  0.00    -0.317 C  
BRANCH   3   4
HETATM    4  C   UNL     1     -11.531   8.398  72.458  1.00  0.00    -0.422 C  
BRANCH   4   5
HETATM    5  C   UNL     1     -10.326   7.493  72.207  1.00  0.00    -0.263 C  
BRANCH   5   6
HETATM    6  C   UNL     1      -9.031   8.301  72.142  1.00  0.00    -0.274 C  
BRANCH   6   7
HETATM    7  C   UNL     1      -9.000   9.176  70.890  1.00  0.00    -0.298 C  
BRANCH   7   8
HETATM    8  C   UNL     1      -9.335   8.362  69.643  1.00  0.00    -0.161 C  
BRANCH   8   9
HETATM    9  C   UNL     1     -10.340   9.103  68.761  1.00  0.00    -0.235 C  
BRANCH   9  10
HETATM   10  C   UNL     1     -10.642  10.485  69.330  1.00  0.00    -0.269 C  
BRANCH  10  11
HETATM   11  C   UNL     1     -11.922  11.074  68.739  1.00  0.00    -0.295 C  
BRANCH  11  12
HETATM   12  C   UNL     1     -11.603  12.358  67.980  1.00  0.00    -0.403 C  
BRANCH  12  13
HETATM   13  C   UNL     1     -11.436  12.125  66.480  1.00  0.00    -0.430 C  
BRANCH  13  14
HETATM   14  C   UNL     1     -12.244  13.134  65.700  1.00  0.00    -0.466 C  
HETATM   15  O   UNL     1     -13.160  12.861  64.936  1.00  0.00    -0.799 OA 
BRANCH  14  16
HETATM   16  O   UNL     1     -11.801  14.394  65.969  1.00  0.00    -0.373 OA 
BRANCH  16  17
HETATM   17  C   UNL     1     -10.757  14.875  65.100  1.00  0.00    -0.411 C  
HETATM   18  C   UNL     1     -11.176  16.204  64.480  1.00  0.00    -0.275 C  
HETATM   19  C   UNL     1      -9.501  15.043  65.943  1.00  0.00    -0.313 C  
ENDBRANCH  16  17
ENDBRANCH  14  16
ENDBRANCH  13  14
ENDBRANCH  12  13
ENDBRANCH  11  12
ENDBRANCH  10  11
ENDBRANCH   9  10
ENDBRANCH   8   9
ENDBRANCH   7   8
ENDBRANCH   6   7
ENDBRANCH   5   6
ENDBRANCH   4   5
ENDBRANCH   3   4
ENDBRANCH   2   3
TORSDOF 14
ENDMDL
MODEL      115
REMARK 921   NORMALIZED FREE ENERGY PREDICTED BY IDOCK:   -3.84 KCAL/MOL
REMARK 922        TOTAL FREE ENERGY PREDICTED BY IDOCK:   -8.55 KCAL/MOL
REMARK 923 INTER-LIGAND FREE ENERGY PREDICTED BY IDOCK:   -6.37 KCAL/MOL
REMARK 924 INTRA-LIGAND FREE ENERGY PREDICTED BY IDOCK:   -2.18 KCAL/MOL
REMARK 927      BINDING AFFINITY PREDICTED BY RF-SCORE:    0.00 PKD
ROOT
HETATM    1  C   UNL     1     -12.907  13.721  65.423  1.00  0.00    -0.455 C  
HETATM    2  C   UNL     1     -11.861  12.926  64.659  1.00  0.00    -0.422 C  
ENDROOT
BRANCH   2   3
HETATM    3  C   UNL     1     -10.551  13.701  64.546  1.00  0.00    -0.428 C  
BRANCH   3   4
HETATM    4  C   UNL     1     -10.728  15.155  64.981  1.00  0.00    -0.451 C  
BRANCH   4   5
HETATM    5  C   UNL     1      -9.712  15.529  66.059  1.00  0.00    -0.378 C  
BRANCH   5   6
HETATM    6  C   UNL     1     -10.400  16.105  67.294  1.00  0.00    -0.287 C  
BRANCH   6   7
HETATM    7  C   UNL     1     -10.335  15.120  68.460  1.00  0.00    -0.230 C  
BRANCH   7   8
HETATM    8  C   UNL     1     -11.671  14.406  68.652  1.00  0.00    -0.367 C  
BRANCH   8   9
HETATM    9  C   UNL     1     -11.477  12.892  68.721  1.00  0.00    -0.345 C  
BRANCH   9  10
HETATM   10  C   UNL     1     -10.053  12.512  68.325  1.00  0.00    -0.228 C  
BRANCH  10  11
HETATM   11  C   UNL     1     -10.028  11.299  67.396  1.00  0.00    -0.206 C  
BRANCH  11  12
HETATM   12  C   UNL     1     -11.029  10.253  67.876  1.00  0.00    -0.350 C  
BRANCH  12  13
HETATM   13  C   UNL     1     -10.362   9.113  68.643  1.00  0.00    -0.233 C  
BRANCH  13  14
HETATM   14  C   UNL     1     -10.377   9.400  70.125  1.00  0.00    -0.233 C  
HETATM   15  O   UNL     1      -9.382   9.534  70.825  1.00  0.00    -0.245 OA 
BRANCH  14  16
HETATM   16  O   UNL     1     -11.661   9.485  70.571  1.00  0.00    -0.265 OA 
BRANCH  16  17
HETATM   17  C   UNL     1     -11.982   8.625  71.682  1.00  0.00    -0.326 C  
HETATM   18  C   UNL     1     -13.292   9.075  72.319  1.00  0.00    -0.523 C  
HETATM   19  C   UNL     1     -12.101   7.207  71.143  1.00  0.00    -0.397 C  
ENDBRANCH  16  17
ENDBRANCH  14  16
ENDBRANCH  13  14
ENDBRANCH  12  13
ENDBRANCH  11  12
ENDBRANCH  10  11
ENDBRANCH   9  10
ENDBRANCH   8   9
ENDBRANCH   7   8
ENDBRANCH   6   7
ENDBRANCH   5   6
ENDBRANCH   4   5
ENDBRANCH   3   4
ENDBRANCH   2   3
TORSDOF 14
ENDMDL
MODEL      116
REMARK 921   NORMALIZED FREE ENERGY PREDICTED BY IDOCK:   -3.83 KCAL/MOL
REMARK 922        TOTAL FREE ENERGY PREDICTED BY IDOCK:   -8.53 KCAL/MOL
REMARK 923 INTER-LIGAND FREE ENERGY PREDICTED BY IDOCK:   -6.81 KCAL/MOL
REMARK 924 INTRA-LIGAND FREE ENERGY PREDICTED BY IDOCK:   -1.73 KCAL/MOL
REMARK 927      BINDING AFFINITY PREDICTED BY RF-SCORE:    0.00 PKD
ROOT
HETATM    1  C   UNL     1      -6.833  16.249  67.196  1.00  0.00    -0.243 C  
HETATM    2  C   UNL     1      -6.890  17.768  67.186  1.00  0.00    -0.196 C  
ENDROOT
BRANCH   2   3
HETATM    3  C   UNL     1      -6.876  18.312  65.759  1.00  0.00    -0.310 C  
BRANCH   3   4
HETATM    4  C   UNL     1      -7.294  19.781  65.722  1.00  0.00    -0.331 C  
BRANCH   4   5
HETATM    5  C   UNL     1      -8.371  20.069  66.767  1.00  0.00    -0.372 C  
BRANCH   5   6
HETATM    6  C   UNL     1      -9.770  19.960  66.164  1.00  0.00    -0.527 C  
BRANCH   6   7
HETATM    7  C   UNL     1     -10.779  19.501  67.216  1.00  0.00    -0.604 C  
BRANCH   7   8
HETATM    8  C   UNL     1     -10.493  18.070  67.664  1.00  0.00    -0.422 C  
BRANCH   8   9
HETATM    9  C   UNL     1     -10.572  17.101  66.485  1.00  0.00    -0.172 C  
BRANCH   9  10
HETATM   10  C   UNL     1     -10.542  15.656  66.972  1.00  0.00    -0.311 C  
BRANCH  10  11
HETATM   11  C   UNL     1     -10.582  15.570  68.497  1.00  0.00    -0.246 C  
BRANCH  11  12
HETATM   12  C   UNL     1     -10.717  14.115  68.934  1.00  0.00    -0.270 C  
BRANCH  12  13
HETATM   13  C   UNL     1     -11.904  13.414  68.278  1.00  0.00    -0.393 C  
BRANCH  13  14
HETATM   14  C   UNL     1     -11.811  11.921  68.485  1.00  0.00    -0.297 C  
HETATM   15  O   UNL     1     -11.995  11.078  67.617  1.00  0.00    -0.583 OA 
BRANCH  14  16
HETATM   16  O   UNL     1     -11.494  11.649  69.782  1.00  0.00    -0.282 OA 
BRANCH  16  17
HETATM   17  C   UNL     1     -12.419  10.784  70.469  1.00  0.00    -0.360 C  
HETATM   18  C   UNL     1     -11.693   9.529  70.943  1.00  0.00    -0.391 C  
HETATM   19  C   UNL     1     -12.983  11.561  71.650  1.00  0.00    -0.499 C  
ENDBRANCH  16  17
ENDBRANCH  14  16
ENDBRANCH  13  14
ENDBRANCH  12  13
ENDBRANCH  11  12
ENDBRANCH  10  11
ENDBRANCH   9  10
ENDBRANCH   8   9
ENDBRANCH   7   8
ENDBRANCH   6   7
ENDBRANCH   5   6
ENDBRANCH   4   5
ENDBRANCH   3   4
ENDBRANCH   2   3
TORSDOF 14
ENDMDL
MODEL      117
REMARK 921   NORMALIZED FREE ENERGY PREDICTED BY IDOCK:   -3.83 KCAL/MOL
REMARK 922        TOTAL FREE ENERGY PREDICTED BY IDOCK:   -8.53 KCAL/MOL
REMARK 923 INTER-LIGAND FREE ENERGY PREDICTED BY IDOCK:   -6.28 KCAL/MOL
REMARK 924 INTRA-LIGAND FREE ENERGY PREDICTED BY IDOCK:   -2.25 KCAL/MOL
REMARK 927      BINDING AFFINITY PREDICTED BY RF-SCORE:    0.00 PKD
ROOT
HETATM    1  C   UNL     1      -9.811  10.886  63.627  1.00  0.00    -0.403 C  
HETATM    2  C   UNL     1     -10.551  12.213  63.596  1.00  0.00    -0.504 C  
ENDROOT
BRANCH   2   3
HETATM    3  C   UNL     1     -12.051  12.014  63.798  1.00  0.00    -0.599 C  
BRANCH   3   4
HETATM    4  C   UNL     1     -12.595  12.953  64.874  1.00  0.00    -0.525 C  
BRANCH   4   5
HETATM    5  C   UNL     1     -11.613  13.074  66.038  1.00  0.00    -0.409 C  
BRANCH   5   6
HETATM    6  C   UNL     1     -11.878  12.010  67.101  1.00  0.00    -0.251 C  
BRANCH   6   7
HETATM    7  C   UNL     1     -10.708  11.033  67.193  1.00  0.00    -0.313 C  
BRANCH   7   8
HETATM    8  C   UNL     1      -9.587  11.598  68.062  1.00  0.00    -0.184 C  
BRANCH   8   9
HETATM    9  C   UNL     1      -8.342  11.892  67.226  1.00  0.00    -0.169 C  
BRANCH   9  10
HETATM   10  C   UNL     1      -7.712  13.216  67.644  1.00  0.00    -0.168 C  
BRANCH  10  11
HETATM   11  C   UNL     1      -8.432  14.410  67.018  1.00  0.00    -0.206 C  
BRANCH  11  12
HETATM   12  C   UNL     1      -8.664  15.489  68.070  1.00  0.00    -0.163 C  
BRANCH  12  13
HETATM   13  C   UNL     1      -9.746  15.103  69.076  1.00  0.00    -0.234 C  
BRANCH  13  14
HETATM   14  C   UNL     1     -11.075  15.695  68.669  1.00  0.00    -0.317 C  
HETATM   15  O   UNL     1     -11.218  16.730  68.031  1.00  0.00    -0.295 OA 
BRANCH  14  16
HETATM   16  O   UNL     1     -12.093  14.908  69.117  1.00  0.00    -0.291 OA 
BRANCH  16  17
HETATM   17  C   UNL     1     -12.019  14.548  70.511  1.00  0.00    -0.318 C  
HETATM   18  C   UNL     1     -12.914  15.473  71.329  1.00  0.00    -0.565 C  
HETATM   19  C   UNL     1     -12.478  13.102  70.635  1.00  0.00    -0.363 C  
ENDBRANCH  16  17
ENDBRANCH  14  16
ENDBRANCH  13  14
ENDBRANCH  12  13
ENDBRANCH  11  12
ENDBRANCH  10  11
ENDBRANCH   9  10
ENDBRANCH   8   9
ENDBRANCH   7   8
ENDBRANCH   6   7
ENDBRANCH   5   6
ENDBRANCH   4   5
ENDBRANCH   3   4
ENDBRANCH   2   3
TORSDOF 14
ENDMDL
MODEL      118
REMARK 921   NORMALIZED FREE ENERGY PREDICTED BY IDOCK:   -3.83 KCAL/MOL
REMARK 922        TOTAL FREE ENERGY PREDICTED BY IDOCK:   -8.53 KCAL/MOL
REMARK 923 INTER-LIGAND FREE ENERGY PREDICTED BY IDOCK:   -7.07 KCAL/MOL
REMARK 924 INTRA-LIGAND FREE ENERGY PREDICTED BY IDOCK:   -1.45 KCAL/MOL
REMARK 927      BINDING AFFINITY PREDICTED BY RF-SCORE:    0.00 PKD
ROOT
HETATM    1  C   UNL     1      -9.764  20.091  66.579  1.00  0.00    -0.564 C  
HETATM    2  C   UNL     1     -10.454  18.748  66.402  1.00  0.00    -0.485 C  
ENDROOT
BRANCH   2   3
HETATM    3  C   UNL     1     -10.741  18.092  67.750  1.00  0.00    -0.350 C  
BRANCH   3   4
HETATM    4  C   UNL     1     -10.420  16.598  67.719  1.00  0.00    -0.316 C  
BRANCH   4   5
HETATM    5  C   UNL     1     -11.395  15.813  68.596  1.00  0.00    -0.369 C  
BRANCH   5   6
HETATM    6  C   UNL     1     -11.857  14.534  67.901  1.00  0.00    -0.370 C  
BRANCH   6   7
HETATM    7  C   UNL     1     -11.506  14.566  66.415  1.00  0.00    -0.362 C  
BRANCH   7   8
HETATM    8  C   UNL     1     -12.593  13.897  65.579  1.00  0.00    -0.560 C  
BRANCH   8   9
HETATM    9  C   UNL     1     -12.272  13.991  64.088  1.00  0.00    -0.433 C  
BRANCH   9  10
HETATM   10  C   UNL     1     -12.013  12.606  63.503  1.00  0.00    -0.630 C  
BRANCH  10  11
HETATM   11  C   UNL     1     -10.556  12.180  63.677  1.00  0.00    -0.504 C  
BRANCH  11  12
HETATM   12  C   UNL     1     -10.481  10.918  64.529  1.00  0.00    -0.393 C  
BRANCH  12  13
HETATM   13  C   UNL     1     -10.042  11.205  65.964  1.00  0.00    -0.292 C  
BRANCH  13  14
HETATM   14  C   UNL     1     -10.970  10.524  66.941  1.00  0.00    -0.131 C  
HETATM   15  O   UNL     1     -11.823  11.090  67.613  1.00  0.00    -0.599 OA 
BRANCH  14  16
HETATM   16  O   UNL     1     -10.718   9.185  66.968  1.00  0.00    -0.234 OA 
BRANCH  16  17
HETATM   17  C   UNL     1      -9.371   8.824  67.330  1.00  0.00    -0.147 C  
HETATM   18  C   UNL     1      -9.271   8.660  68.843  1.00  0.00    -0.145 C  
HETATM   19  C   UNL     1      -9.041   7.517  66.620  1.00  0.00    -0.189 C  
ENDBRANCH  16  17
ENDBRANCH  14  16
ENDBRANCH  13  14
ENDBRANCH  12  13
ENDBRANCH  11  12
ENDBRANCH  10  11
ENDBRANCH   9  10
ENDBRANCH   8   9
ENDBRANCH   7   8
ENDBRANCH   6   7
ENDBRANCH   5   6
ENDBRANCH   4   5
ENDBRANCH   3   4
ENDBRANCH   2   3
TORSDOF 14
ENDMDL
MODEL      119
REMARK 921   NORMALIZED FREE ENERGY PREDICTED BY IDOCK:   -3.80 KCAL/MOL
REMARK 922        TOTAL FREE ENERGY PREDICTED BY IDOCK:   -8.48 KCAL/MOL
REMARK 923 INTER-LIGAND FREE ENERGY PREDICTED BY IDOCK:   -6.77 KCAL/MOL
REMARK 924 INTRA-LIGAND FREE ENERGY PREDICTED BY IDOCK:   -1.72 KCAL/MOL
REMARK 927      BINDING AFFINITY PREDICTED BY RF-SCORE:    0.00 PKD
ROOT
HETATM    1  C   UNL     1      -8.463  11.716  66.979  1.00  0.00    -0.168 C  
HETATM    2  C   UNL     1      -8.699  10.343  66.371  1.00  0.00    -0.149 C  
ENDROOT
BRANCH   2   3
HETATM    3  C   UNL     1      -9.953  10.333  65.500  1.00  0.00    -0.364 C  
BRANCH   3   4
HETATM    4  C   UNL     1      -9.597  10.260  64.016  1.00  0.00    -0.365 C  
BRANCH   4   5
HETATM    5  C   UNL     1     -10.253  11.402  63.241  1.00  0.00    -0.430 C  
BRANCH   5   6
HETATM    6  C   UNL     1     -11.492  11.924  63.967  1.00  0.00    -0.480 C  
BRANCH   6   7
HETATM    7  C   UNL     1     -11.981  13.227  63.337  1.00  0.00    -0.491 C  
BRANCH   7   8
HETATM    8  C   UNL     1     -12.252  14.285  64.403  1.00  0.00    -0.471 C  
BRANCH   8   9
HETATM    9  C   UNL     1     -12.266  13.665  65.799  1.00  0.00    -0.503 C  
BRANCH   9  10
HETATM   10  C   UNL     1     -11.444  14.506  66.771  1.00  0.00    -0.376 C  
BRANCH  10  11
HETATM   11  C   UNL     1     -10.574  15.528  66.042  1.00  0.00    -0.333 C  
BRANCH  11  12
HETATM   12  C   UNL     1      -9.109  15.325  66.413  1.00  0.00    -0.347 C  
BRANCH  12  13
HETATM   13  C   UNL     1      -8.279  16.595  66.239  1.00  0.00    -0.365 C  
BRANCH  13  14
HETATM   14  C   UNL     1      -8.037  17.250  67.578  1.00  0.00    -0.186 C  
HETATM   15  O   UNL     1      -7.103  16.996  68.326  1.00  0.00    -0.177 OA 
BRANCH  14  16
HETATM   16  O   UNL     1      -9.014  18.165  67.833  1.00  0.00    -0.260 OA 
BRANCH  16  17
HETATM   17  C   UNL     1      -9.174  19.185  66.827  1.00  0.00    -0.320 C  
HETATM   18  C   UNL     1     -10.655  19.503  66.648  1.00  0.00    -0.583 C  
HETATM   19  C   UNL     1      -8.410  20.415  67.297  1.00  0.00    -0.398 C  
ENDBRANCH  16  17
ENDBRANCH  14  16
ENDBRANCH  13  14
ENDBRANCH  12  13
ENDBRANCH  11  12
ENDBRANCH  10  11
ENDBRANCH   9  10
ENDBRANCH   8   9
ENDBRANCH   7   8
ENDBRANCH   6   7
ENDBRANCH   5   6
ENDBRANCH   4   5
ENDBRANCH   3   4
ENDBRANCH   2   3
TORSDOF 14
ENDMDL
MODEL      120
REMARK 921   NORMALIZED FREE ENERGY PREDICTED BY IDOCK:   -3.79 KCAL/MOL
REMARK 922        TOTAL FREE ENERGY PREDICTED BY IDOCK:   -8.47 KCAL/MOL
REMARK 923 INTER-LIGAND FREE ENERGY PREDICTED BY IDOCK:   -5.97 KCAL/MOL
REMARK 924 INTRA-LIGAND FREE ENERGY PREDICTED BY IDOCK:   -2.50 KCAL/MOL
REMARK 927      BINDING AFFINITY PREDICTED BY RF-SCORE:    0.00 PKD
ROOT
HETATM    1  C   UNL     1     -10.785  17.587  65.394  1.00  0.00    -0.008 C  
HETATM    2  C   UNL     1     -10.646  19.030  65.851  1.00  0.00    -0.466 C  
ENDROOT
BRANCH   2   3
HETATM    3  C   UNL     1     -11.027  19.182  67.322  1.00  0.00    -0.417 C  
BRANCH   3   4
HETATM    4  C   UNL     1      -9.901  19.837  68.121  1.00  0.00    -0.536 C  
BRANCH   4   5
HETATM    5  C   UNL     1      -8.789  20.327  67.195  1.00  0.00    -0.446 C  
BRANCH   5   6
HETATM    6  C   UNL     1      -7.410  19.976  67.750  1.00  0.00    -0.329 C  
BRANCH   6   7
HETATM    7  C   UNL     1      -7.535  19.120  69.009  1.00  0.00    -0.353 C  
BRANCH   7   8
HETATM    8  C   UNL     1      -6.826  17.779  68.834  1.00  0.00    -0.240 C  
BRANCH   8   9
HETATM    9  C   UNL     1      -7.230  17.114  67.519  1.00  0.00    -0.177 C  
BRANCH   9  10
HETATM   10  C   UNL     1      -8.508  16.300  67.696  1.00  0.00    -0.178 C  
BRANCH  10  11
HETATM   11  C   UNL     1      -8.588  15.664  69.083  1.00  0.00    -0.251 C  
BRANCH  11  12
HETATM   12  C   UNL     1     -10.030  15.670  69.577  1.00  0.00    -0.285 C  
BRANCH  12  13
HETATM   13  C   UNL     1     -11.041  15.736  68.434  1.00  0.00    -0.341 C  
BRANCH  13  14
HETATM   14  C   UNL     1     -11.849  14.462  68.376  1.00  0.00    -0.319 C  
HETATM   15  O   UNL     1     -12.291  13.864  69.349  1.00  0.00    -0.329 OA 
BRANCH  14  16
HETATM   16  O   UNL     1     -12.014  14.073  67.081  1.00  0.00    -0.400 OA 
BRANCH  16  17
HETATM   17  C   UNL     1     -10.795  13.782  66.370  1.00  0.00    -0.287 C  
HETATM   18  C   UNL     1     -10.301  12.389  66.744  1.00  0.00    -0.239 C  
HETATM   19  C   UNL     1     -11.102  13.867  64.881  1.00  0.00    -0.370 C  
ENDBRANCH  16  17
ENDBRANCH  14  16
ENDBRANCH  13  14
ENDBRANCH  12  13
ENDBRANCH  11  12
ENDBRANCH  10  11
ENDBRANCH   9  10
ENDBRANCH   8   9
ENDBRANCH   7   8
ENDBRANCH   6   7
ENDBRANCH   5   6
ENDBRANCH   4   5
ENDBRANCH   3   4
ENDBRANCH   2   3
TORSDOF 14
ENDMDL
MODEL      121
REMARK 921   NORMALIZED FREE ENERGY PREDICTED BY IDOCK:   -3.78 KCAL/MOL
REMARK 922        TOTAL FREE ENERGY PREDICTED BY IDOCK:   -8.45 KCAL/MOL
REMARK 923 INTER-LIGAND FREE ENERGY PREDICTED BY IDOCK:   -6.53 KCAL/MOL
REMARK 924 INTRA-LIGAND FREE ENERGY PREDICTED BY IDOCK:   -1.92 KCAL/MOL
REMARK 927      BINDING AFFINITY PREDICTED BY RF-SCORE:    0.00 PKD
ROOT
HETATM    1  C   UNL     1     -13.656   9.335  72.135  1.00  0.00    -0.536 C  
HETATM    2  C   UNL     1     -14.066   8.008  71.518  1.00  0.00    -0.475 C  
ENDROOT
BRANCH   2   3
HETATM    3  C   UNL     1     -12.852   7.114  71.274  1.00  0.00    -0.399 C  
BRANCH   3   4
HETATM    4  C   UNL     1     -11.813   7.276  72.383  1.00  0.00    -0.247 C  
BRANCH   4   5
HETATM    5  C   UNL     1     -10.396   7.223  71.813  1.00  0.00    -0.215 C  
BRANCH   5   6
HETATM    6  C   UNL     1      -9.655   8.538  72.047  1.00  0.00    -0.371 C  
BRANCH   6   7
HETATM    7  C   UNL     1      -9.370   9.243  70.722  1.00  0.00    -0.322 C  
BRANCH   7   8
HETATM    8  C   UNL     1     -10.490  10.215  70.364  1.00  0.00    -0.237 C  
BRANCH   8   9
HETATM    9  C   UNL     1     -11.134   9.842  69.030  1.00  0.00    -0.143 C  
BRANCH   9  10
HETATM   10  C   UNL     1     -11.892  11.029  68.445  1.00  0.00    -0.254 C  
BRANCH  10  11
HETATM   11  C   UNL     1     -11.067  12.314  68.503  1.00  0.00    -0.290 C  
BRANCH  11  12
HETATM   12  C   UNL     1     -11.895  13.489  67.995  1.00  0.00    -0.400 C  
BRANCH  12  13
HETATM   13  C   UNL     1     -11.321  14.838  68.422  1.00  0.00    -0.317 C  
BRANCH  13  14
HETATM   14  C   UNL     1     -11.401  14.990  69.923  1.00  0.00    -0.278 C  
HETATM   15  O   UNL     1     -10.451  15.232  70.656  1.00  0.00    -0.210 OA 
BRANCH  14  16
HETATM   16  O   UNL     1     -12.685  14.815  70.341  1.00  0.00    -0.347 OA 
BRANCH  16  17
HETATM   17  C   UNL     1     -12.834  14.468  71.732  1.00  0.00    -0.343 C  
HETATM   18  C   UNL     1     -13.865  15.384  72.383  1.00  0.00    -0.661 C  
HETATM   19  C   UNL     1     -13.283  13.015  71.796  1.00  0.00    -0.486 C  
ENDBRANCH  16  17
ENDBRANCH  14  16
ENDBRANCH  13  14
ENDBRANCH  12  13
ENDBRANCH  11  12
ENDBRANCH  10  11
ENDBRANCH   9  10
ENDBRANCH   8   9
ENDBRANCH   7   8
ENDBRANCH   6   7
ENDBRANCH   5   6
ENDBRANCH   4   5
ENDBRANCH   3   4
ENDBRANCH   2   3
TORSDOF 14
ENDMDL
MODEL      122
REMARK 921   NORMALIZED FREE ENERGY PREDICTED BY IDOCK:   -3.75 KCAL/MOL
REMARK 922        TOTAL FREE ENERGY PREDICTED BY IDOCK:   -8.39 KCAL/MOL
REMARK 923 INTER-LIGAND FREE ENERGY PREDICTED BY IDOCK:   -7.01 KCAL/MOL
REMARK 924 INTRA-LIGAND FREE ENERGY PREDICTED BY IDOCK:   -1.38 KCAL/MOL
REMARK 927      BINDING AFFINITY PREDICTED BY RF-SCORE:    0.00 PKD
ROOT
HETATM    1  C   UNL     1     -12.660  11.870  63.819  1.00  0.00    -0.509 C  
HETATM    2  C   UNL     1     -11.928  13.137  63.409  1.00  0.00    -0.552 C  
ENDROOT
BRANCH   2   3
HETATM    3  C   UNL     1     -11.919  14.162  64.541  1.00  0.00    -0.476 C  
BRANCH   3   4
HETATM    4  C   UNL     1     -12.702  13.656  65.752  1.00  0.00    -0.470 C  
BRANCH   4   5
HETATM    5  C   UNL     1     -11.900  13.849  67.038  1.00  0.00    -0.447 C  
BRANCH   5   6
HETATM    6  C   UNL     1     -10.649  12.973  67.047  1.00  0.00    -0.262 C  
BRANCH   6   7
HETATM    7  C   UNL     1     -11.012  11.511  67.298  1.00  0.00    -0.323 C  
BRANCH   7   8
HETATM    8  C   UNL     1     -11.850  11.362  68.566  1.00  0.00    -0.364 C  
BRANCH   8   9
HETATM    9  C   UNL     1     -11.069  10.628  69.655  1.00  0.00    -0.342 C  
BRANCH   9  10
HETATM   10  C   UNL     1     -12.011  10.109  70.737  1.00  0.00    -0.442 C  
BRANCH  10  11
HETATM   11  C   UNL     1     -11.278   9.238  71.756  1.00  0.00    -0.413 C  
BRANCH  11  12
HETATM   12  C   UNL     1     -12.180   8.094  72.209  1.00  0.00    -0.397 C  
BRANCH  12  13
HETATM   13  C   UNL     1     -12.618   7.200  71.052  1.00  0.00    -0.335 C  
BRANCH  13  14
HETATM   14  C   UNL     1     -11.470   6.331  70.598  1.00  0.00    -0.329 C  
HETATM   15  O   UNL     1     -10.669   5.779  71.341  1.00  0.00    -0.243 OA 
BRANCH  14  16
HETATM   16  O   UNL     1     -11.454   6.252  69.238  1.00  0.00    -0.411 OA 
BRANCH  16  17
HETATM   17  C   UNL     1     -10.201   6.603  68.619  1.00  0.00    -0.171 C  
HETATM   18  C   UNL     1      -9.458   5.337  68.208  1.00  0.00    -0.155 C  
HETATM   19  C   UNL     1     -10.517   7.465  67.404  1.00  0.00    -0.366 C  
ENDBRANCH  16  17
ENDBRANCH  14  16
ENDBRANCH  13  14
ENDBRANCH  12  13
ENDBRANCH  11  12
ENDBRANCH  10  11
ENDBRANCH   9  10
ENDBRANCH   8   9
ENDBRANCH   7   8
ENDBRANCH   6   7
ENDBRANCH   5   6
ENDBRANCH   4   5
ENDBRANCH   3   4
ENDBRANCH   2   3
TORSDOF 14
ENDMDL
MODEL      123
REMARK 921   NORMALIZED FREE ENERGY PREDICTED BY IDOCK:   -3.74 KCAL/MOL
REMARK 922        TOTAL FREE ENERGY PREDICTED BY IDOCK:   -8.38 KCAL/MOL
REMARK 923 INTER-LIGAND FREE ENERGY PREDICTED BY IDOCK:   -6.74 KCAL/MOL
REMARK 924 INTRA-LIGAND FREE ENERGY PREDICTED BY IDOCK:   -1.64 KCAL/MOL
REMARK 927      BINDING AFFINITY PREDICTED BY RF-SCORE:    0.00 PKD
ROOT
HETATM    1  C   UNL     1     -12.844   9.980  71.722  1.00  0.00    -0.546 C  
HETATM    2  C   UNL     1     -12.859  11.446  71.321  1.00  0.00    -0.481 C  
ENDROOT
BRANCH   2   3
HETATM    3  C   UNL     1     -12.121  11.665  70.002  1.00  0.00    -0.395 C  
BRANCH   3   4
HETATM    4  C   UNL     1     -11.083  10.570  69.759  1.00  0.00    -0.354 C  
BRANCH   4   5
HETATM    5  C   UNL     1     -10.975  10.243  68.270  1.00  0.00    -0.315 C  
BRANCH   5   6
HETATM    6  C   UNL     1      -9.524  10.006  67.859  1.00  0.00    -0.159 C  
BRANCH   6   7
HETATM    7  C   UNL     1      -9.204  10.732  66.554  1.00  0.00    -0.187 C  
BRANCH   7   8
HETATM    8  C   UNL     1      -9.481   9.840  65.346  1.00  0.00    -0.333 C  
BRANCH   8   9
HETATM    9  C   UNL     1     -10.154  10.630  64.225  1.00  0.00    -0.411 C  
BRANCH   9  10
HETATM   10  C   UNL     1     -10.298  12.099  64.611  1.00  0.00    -0.328 C  
BRANCH  10  11
HETATM   11  C   UNL     1     -11.763  12.528  64.673  1.00  0.00    -0.416 C  
BRANCH  11  12
HETATM   12  C   UNL     1     -12.147  12.864  66.111  1.00  0.00    -0.458 C  
BRANCH  12  13
HETATM   13  C   UNL     1     -11.901  14.331  66.455  1.00  0.00    -0.433 C  
BRANCH  13  14
HETATM   14  C   UNL     1     -10.633  14.474  67.263  1.00  0.00    -0.280 C  
HETATM   15  O   UNL     1      -9.507  14.566  66.794  1.00  0.00    -0.245 OA 
BRANCH  14  16
HETATM   16  O   UNL     1     -10.927  14.483  68.594  1.00  0.00    -0.234 OA 
BRANCH  16  17
HETATM   17  C   UNL     1     -11.590  15.671  69.066  1.00  0.00    -0.386 C  
HETATM   18  C   UNL     1     -12.359  15.358  70.345  1.00  0.00    -0.443 C  
HETATM   19  C   UNL     1     -10.519  16.722  69.322  1.00  0.00    -0.331 C  
ENDBRANCH  16  17
ENDBRANCH  14  16
ENDBRANCH  13  14
ENDBRANCH  12  13
ENDBRANCH  11  12
ENDBRANCH  10  11
ENDBRANCH   9  10
ENDBRANCH   8   9
ENDBRANCH   7   8
ENDBRANCH   6   7
ENDBRANCH   5   6
ENDBRANCH   4   5
ENDBRANCH   3   4
ENDBRANCH   2   3
TORSDOF 14
ENDMDL
MODEL      124
REMARK 921   NORMALIZED FREE ENERGY PREDICTED BY IDOCK:   -3.74 KCAL/MOL
REMARK 922        TOTAL FREE ENERGY PREDICTED BY IDOCK:   -8.38 KCAL/MOL
REMARK 923 INTER-LIGAND FREE ENERGY PREDICTED BY IDOCK:   -6.48 KCAL/MOL
REMARK 924 INTRA-LIGAND FREE ENERGY PREDICTED BY IDOCK:   -1.89 KCAL/MOL
REMARK 927      BINDING AFFINITY PREDICTED BY RF-SCORE:    0.00 PKD
ROOT
HETATM    1  C   UNL     1      -6.505  18.575  66.840  1.00  0.00    -0.202 C  
HETATM    2  C   UNL     1      -7.252  19.785  66.302  1.00  0.00    -0.276 C  
ENDROOT
BRANCH   2   3
HETATM    3  C   UNL     1      -8.371  20.211  67.249  1.00  0.00    -0.394 C  
BRANCH   3   4
HETATM    4  C   UNL     1      -9.723  20.225  66.539  1.00  0.00    -0.519 C  
BRANCH   4   5
HETATM    5  C   UNL     1     -10.772  19.465  67.348  1.00  0.00    -0.594 C  
BRANCH   5   6
HETATM    6  C   UNL     1     -10.121  18.603  68.428  1.00  0.00    -0.426 C  
BRANCH   6   7
HETATM    7  C   UNL     1     -10.404  17.122  68.183  1.00  0.00    -0.350 C  
BRANCH   7   8
HETATM    8  C   UNL     1      -9.517  16.570  67.070  1.00  0.00    -0.249 C  
BRANCH   8   9
HETATM    9  C   UNL     1     -10.342  16.235  65.828  1.00  0.00    -0.393 C  
BRANCH   9  10
HETATM   10  C   UNL     1     -10.523  14.727  65.690  1.00  0.00    -0.365 C  
BRANCH  10  11
HETATM   11  C   UNL     1     -11.952  14.295  66.015  1.00  0.00    -0.412 C  
BRANCH  11  12
HETATM   12  C   UNL     1     -12.012  13.709  67.422  1.00  0.00    -0.413 C  
BRANCH  12  13
HETATM   13  C   UNL     1     -10.733  12.970  67.804  1.00  0.00    -0.242 C  
BRANCH  13  14
HETATM   14  C   UNL     1     -11.008  11.493  67.963  1.00  0.00    -0.231 C  
HETATM   15  O   UNL     1     -10.943  10.875  69.017  1.00  0.00    -0.201 OA 
BRANCH  14  16
HETATM   16  O   UNL     1     -11.339  10.949  66.758  1.00  0.00    -0.288 OA 
BRANCH  16  17
HETATM   17  C   UNL     1     -10.223  10.640  65.900  1.00  0.00    -0.251 C  
HETATM   18  C   UNL     1      -9.862   9.165  66.036  1.00  0.00    -0.342 C  
HETATM   19  C   UNL     1     -10.641  10.965  64.472  1.00  0.00    -0.335 C  
ENDBRANCH  16  17
ENDBRANCH  14  16
ENDBRANCH  13  14
ENDBRANCH  12  13
ENDBRANCH  11  12
ENDBRANCH  10  11
ENDBRANCH   9  10
ENDBRANCH   8   9
ENDBRANCH   7   8
ENDBRANCH   6   7
ENDBRANCH   5   6
ENDBRANCH   4   5
ENDBRANCH   3   4
ENDBRANCH   2   3
TORSDOF 14
ENDMDL
MODEL      125
REMARK 921   NORMALIZED FREE ENERGY PREDICTED BY IDOCK:   -3.74 KCAL/MOL
REMARK 922        TOTAL FREE ENERGY PREDICTED BY IDOCK:   -8.37 KCAL/MOL
REMARK 923 INTER-LIGAND FREE ENERGY PREDICTED BY IDOCK:   -6.74 KCAL/MOL
REMARK 924 INTRA-LIGAND FREE ENERGY PREDICTED BY IDOCK:   -1.63 KCAL/MOL
REMARK 927      BINDING AFFINITY PREDICTED BY RF-SCORE:    0.00 PKD
ROOT
HETATM    1  C   UNL     1     -12.022  12.550  63.506  1.00  0.00    -0.629 C  
HETATM    2  C   UNL     1     -11.156  11.362  63.893  1.00  0.00    -0.410 C  
ENDROOT
BRANCH   2   3
HETATM    3  C   UNL     1     -10.649  11.492  65.328  1.00  0.00    -0.339 C  
BRANCH   3   4
HETATM    4  C   UNL     1     -11.624  12.292  66.190  1.00  0.00    -0.450 C  
BRANCH   4   5
HETATM    5  C   UNL     1     -11.600  11.803  67.637  1.00  0.00    -0.364 C  
BRANCH   5   6
HETATM    6  C   UNL     1     -11.785  12.960  68.616  1.00  0.00    -0.359 C  
BRANCH   6   7
HETATM    7  C   UNL     1     -12.012  12.440  70.034  1.00  0.00    -0.372 C  
BRANCH   7   8
HETATM    8  C   UNL     1     -12.392  10.961  70.023  1.00  0.00    -0.385 C  
BRANCH   8   9
HETATM    9  C   UNL     1     -12.681  10.460  71.437  1.00  0.00    -0.551 C  
BRANCH   9  10
HETATM   10  C   UNL     1     -12.634   8.936  71.489  1.00  0.00    -0.385 C  
BRANCH  10  11
HETATM   11  C   UNL     1     -11.478   8.434  72.352  1.00  0.00    -0.451 C  
BRANCH  11  12
HETATM   12  C   UNL     1     -11.049   7.044  71.891  1.00  0.00    -0.274 C  
BRANCH  12  13
HETATM   13  C   UNL     1     -11.713   6.631  70.580  1.00  0.00    -0.452 C  
BRANCH  13  14
HETATM   14  C   UNL     1     -10.677   6.125  69.605  1.00  0.00    -0.319 C  
HETATM   15  O   UNL     1     -10.661   5.003  69.116  1.00  0.00    -0.121 OA 
BRANCH  14  16
HETATM   16  O   UNL     1      -9.760   7.100  69.351  1.00  0.00    -0.159 OA 
BRANCH  16  17
HETATM   17  C   UNL     1     -10.251   8.217  68.583  1.00  0.00    -0.207 C  
HETATM   18  C   UNL     1      -9.346   9.425  68.797  1.00  0.00    -0.146 C  
HETATM   19  C   UNL     1     -10.258   7.798  67.120  1.00  0.00    -0.365 C  
ENDBRANCH  16  17
ENDBRANCH  14  16
ENDBRANCH  13  14
ENDBRANCH  12  13
ENDBRANCH  11  12
ENDBRANCH  10  11
ENDBRANCH   9  10
ENDBRANCH   8   9
ENDBRANCH   7   8
ENDBRANCH   6   7
ENDBRANCH   5   6
ENDBRANCH   4   5
ENDBRANCH   3   4
ENDBRANCH   2   3
TORSDOF 14
ENDMDL
MODEL      126
REMARK 921   NORMALIZED FREE ENERGY PREDICTED BY IDOCK:   -3.74 KCAL/MOL
REMARK 922        TOTAL FREE ENERGY PREDICTED BY IDOCK:   -8.37 KCAL/MOL
REMARK 923 INTER-LIGAND FREE ENERGY PREDICTED BY IDOCK:   -6.93 KCAL/MOL
REMARK 924 INTRA-LIGAND FREE ENERGY PREDICTED BY IDOCK:   -1.44 KCAL/MOL
REMARK 927      BINDING AFFINITY PREDICTED BY RF-SCORE:    0.00 PKD
ROOT
HETATM    1  C   UNL     1     -11.084   6.230  68.603  1.00  0.00    -0.409 C  
HETATM    2  C   UNL     1     -10.930   7.029  69.887  1.00  0.00    -0.296 C  
ENDROOT
BRANCH   2   3
HETATM    3  C   UNL     1     -11.633   6.339  71.055  1.00  0.00    -0.337 C  
BRANCH   3   4
HETATM    4  C   UNL     1     -12.386   7.347  71.921  1.00  0.00    -0.343 C  
BRANCH   4   5
HETATM    5  C   UNL     1     -11.673   8.698  71.930  1.00  0.00    -0.422 C  
BRANCH   5   6
HETATM    6  C   UNL     1     -12.673   9.852  71.968  1.00  0.00    -0.456 C  
BRANCH   6   7
HETATM    7  C   UNL     1     -12.938  10.386  70.561  1.00  0.00    -0.280 C  
BRANCH   7   8
HETATM    8  C   UNL     1     -11.632  10.717  69.844  1.00  0.00    -0.410 C  
BRANCH   8   9
HETATM    9  C   UNL     1     -11.748  12.033  69.075  1.00  0.00    -0.382 C  
BRANCH   9  10
HETATM   10  C   UNL     1     -11.997  13.196  70.030  1.00  0.00    -0.391 C  
BRANCH  10  11
HETATM   11  C   UNL     1     -11.774  14.546  69.350  1.00  0.00    -0.361 C  
BRANCH  11  12
HETATM   12  C   UNL     1     -10.788  14.392  68.197  1.00  0.00    -0.251 C  
BRANCH  12  13
HETATM   13  C   UNL     1     -10.880  15.538  67.192  1.00  0.00    -0.316 C  
BRANCH  13  14
HETATM   14  C   UNL     1     -11.056  14.995  65.794  1.00  0.00    -0.346 C  
HETATM   15  O   UNL     1     -10.722  15.573  64.768  1.00  0.00    -0.421 OA 
BRANCH  14  16
HETATM   16  O   UNL     1     -11.645  13.768  65.841  1.00  0.00    -0.317 OA 
BRANCH  16  17
HETATM   17  C   UNL     1     -11.155  12.816  64.876  1.00  0.00    -0.292 C  
HETATM   18  C   UNL     1     -10.563  11.610  65.598  1.00  0.00    -0.324 C  
HETATM   19  C   UNL     1     -12.332  12.401  64.004  1.00  0.00    -0.579 C  
ENDBRANCH  16  17
ENDBRANCH  14  16
ENDBRANCH  13  14
ENDBRANCH  12  13
ENDBRANCH  11  12
ENDBRANCH  10  11
ENDBRANCH   9  10
ENDBRANCH   8   9
ENDBRANCH   7   8
ENDBRANCH   6   7
ENDBRANCH   5   6
ENDBRANCH   4   5
ENDBRANCH   3   4
ENDBRANCH   2   3
TORSDOF 14
ENDMDL
MODEL      127
REMARK 921   NORMALIZED FREE ENERGY PREDICTED BY IDOCK:   -3.74 KCAL/MOL
REMARK 922        TOTAL FREE ENERGY PREDICTED BY IDOCK:   -8.37 KCAL/MOL
REMARK 923 INTER-LIGAND FREE ENERGY PREDICTED BY IDOCK:   -6.64 KCAL/MOL
REMARK 924 INTRA-LIGAND FREE ENERGY PREDICTED BY IDOCK:   -1.72 KCAL/MOL
REMARK 927      BINDING AFFINITY PREDICTED BY RF-SCORE:    0.00 PKD
ROOT
HETATM    1  C   UNL     1      -6.956  16.895  68.308  1.00  0.00    -0.170 C  
HETATM    2  C   UNL     1      -6.699  18.049  69.263  1.00  0.00    -0.212 C  
ENDROOT
BRANCH   2   3
HETATM    3  C   UNL     1      -7.454  19.304  68.831  1.00  0.00    -0.397 C  
BRANCH   3   4
HETATM    4  C   UNL     1      -7.057  19.731  67.418  1.00  0.00    -0.252 C  
BRANCH   4   5
HETATM    5  C   UNL     1      -8.281  20.172  66.618  1.00  0.00    -0.328 C  
BRANCH   5   6
HETATM    6  C   UNL     1      -9.520  20.263  67.506  1.00  0.00    -0.539 C  
BRANCH   6   7
HETATM    7  C   UNL     1     -10.674  19.457  66.910  1.00  0.00    -0.570 C  
BRANCH   7   8
HETATM    8  C   UNL     1     -10.618  18.000  67.364  1.00  0.00    -0.378 C  
BRANCH   8   9
HETATM    9  C   UNL     1     -10.341  17.070  66.184  1.00  0.00    -0.326 C  
BRANCH   9  10
HETATM   10  C   UNL     1      -9.947  15.680  66.674  1.00  0.00    -0.269 C  
BRANCH  10  11
HETATM   11  C   UNL     1     -11.157  14.754  66.788  1.00  0.00    -0.338 C  
BRANCH  11  12
HETATM   12  C   UNL     1     -11.313  14.274  68.227  1.00  0.00    -0.314 C  
BRANCH  12  13
HETATM   13  C   UNL     1     -12.309  15.117  69.021  1.00  0.00    -0.050 C  
BRANCH  13  14
HETATM   14  C   UNL     1     -11.752  15.436  70.388  1.00  0.00    -0.319 C  
HETATM   15  O   UNL     1     -11.162  16.466  70.683  1.00  0.00    -0.358 OA 
BRANCH  14  16
HETATM   16  O   UNL     1     -12.001  14.406  71.245  1.00  0.00    -0.335 OA 
BRANCH  16  17
HETATM   17  C   UNL     1     -13.389  14.042  71.376  1.00  0.00    -0.317 C  
HETATM   18  C   UNL     1     -13.501  12.687  72.067  1.00  0.00    -0.516 C  
HETATM   19  C   UNL     1     -14.071  15.127  72.199  1.00  0.00    -0.654 C  
ENDBRANCH  16  17
ENDBRANCH  14  16
ENDBRANCH  13  14
ENDBRANCH  12  13
ENDBRANCH  11  12
ENDBRANCH  10  11
ENDBRANCH   9  10
ENDBRANCH   8   9
ENDBRANCH   7   8
ENDBRANCH   6   7
ENDBRANCH   5   6
ENDBRANCH   4   5
ENDBRANCH   3   4
ENDBRANCH   2   3
TORSDOF 14
ENDMDL
MODEL      128
REMARK 921   NORMALIZED FREE ENERGY PREDICTED BY IDOCK:   -3.74 KCAL/MOL
REMARK 922        TOTAL FREE ENERGY PREDICTED BY IDOCK:   -8.36 KCAL/MOL
REMARK 923 INTER-LIGAND FREE ENERGY PREDICTED BY IDOCK:   -7.07 KCAL/MOL
REMARK 924 INTRA-LIGAND FREE ENERGY PREDICTED BY IDOCK:   -1.29 KCAL/MOL
REMARK 927      BINDING AFFINITY PREDICTED BY RF-SCORE:    0.00 PKD
ROOT
HETATM    1  C   UNL     1      -9.314  19.337  66.753  1.00  0.00    -0.379 C  
HETATM    2  C   UNL     1     -10.331  18.216  66.895  1.00  0.00    -0.386 C  
ENDROOT
BRANCH   2   3
HETATM    3  C   UNL     1     -10.247  17.565  68.274  1.00  0.00    -0.365 C  
BRANCH   3   4
HETATM    4  C   UNL     1      -9.519  16.224  68.210  1.00  0.00    -0.214 C  
BRANCH   4   5
HETATM    5  C   UNL     1     -10.350  15.121  68.863  1.00  0.00    -0.243 C  
BRANCH   5   6
HETATM    6  C   UNL     1     -11.729  15.011  68.216  1.00  0.00    -0.338 C  
BRANCH   6   7
HETATM    7  C   UNL     1     -11.615  14.514  66.776  1.00  0.00    -0.388 C  
BRANCH   7   8
HETATM    8  C   UNL     1     -12.019  13.046  66.667  1.00  0.00    -0.453 C  
BRANCH   8   9
HETATM    9  C   UNL     1     -10.789  12.143  66.589  1.00  0.00    -0.307 C  
BRANCH   9  10
HETATM   10  C   UNL     1     -10.797  11.120  67.720  1.00  0.00    -0.288 C  
BRANCH  10  11
HETATM   11  C   UNL     1     -11.904  11.404  68.734  1.00  0.00    -0.388 C  
BRANCH  11  12
HETATM   12  C   UNL     1     -11.568  10.750  70.070  1.00  0.00    -0.417 C  
BRANCH  12  13
HETATM   13  C   UNL     1     -12.690  10.900  71.094  1.00  0.00    -0.530 C  
BRANCH  13  14
HETATM   14  C   UNL     1     -12.802   9.651  71.936  1.00  0.00    -0.425 C  
HETATM   15  O   UNL     1     -13.827   9.255  72.473  1.00  0.00    -0.468 OA 
BRANCH  14  16
HETATM   16  O   UNL     1     -11.592   9.029  72.010  1.00  0.00    -0.361 OA 
BRANCH  16  17
HETATM   17  C   UNL     1     -11.643   7.626  72.332  1.00  0.00    -0.336 C  
HETATM   18  C   UNL     1     -11.523   6.800  71.056  1.00  0.00    -0.372 C  
HETATM   19  C   UNL     1     -10.488   7.331  73.279  1.00  0.00    -0.416 C  
ENDBRANCH  16  17
ENDBRANCH  14  16
ENDBRANCH  13  14
ENDBRANCH  12  13
ENDBRANCH  11  12
ENDBRANCH  10  11
ENDBRANCH   9  10
ENDBRANCH   8   9
ENDBRANCH   7   8
ENDBRANCH   6   7
ENDBRANCH   5   6
ENDBRANCH   4   5
ENDBRANCH   3   4
ENDBRANCH   2   3
TORSDOF 14
ENDMDL
MODEL      129
REMARK 921   NORMALIZED FREE ENERGY PREDICTED BY IDOCK:   -3.74 KCAL/MOL
REMARK 922        TOTAL FREE ENERGY PREDICTED BY IDOCK:   -8.36 KCAL/MOL
REMARK 923 INTER-LIGAND FREE ENERGY PREDICTED BY IDOCK:   -6.59 KCAL/MOL
REMARK 924 INTRA-LIGAND FREE ENERGY PREDICTED BY IDOCK:   -1.78 KCAL/MOL
REMARK 927      BINDING AFFINITY PREDICTED BY RF-SCORE:    0.00 PKD
ROOT
HETATM    1  C   UNL     1     -10.621   5.414  70.300  1.00  0.00    -0.329 C  
HETATM    2  C   UNL     1     -11.245   6.458  69.388  1.00  0.00    -0.459 C  
ENDROOT
BRANCH   2   3
HETATM    3  C   UNL     1     -10.331   6.777  68.207  1.00  0.00    -0.215 C  
BRANCH   3   4
HETATM    4  C   UNL     1      -8.925   7.144  68.678  1.00  0.00    -0.131 C  
BRANCH   4   5
HETATM    5  C   UNL     1      -8.583   8.585  68.303  1.00  0.00    -0.139 C  
BRANCH   5   6
HETATM    6  C   UNL     1      -9.032   9.561  69.388  1.00  0.00    -0.174 C  
BRANCH   6   7
HETATM    7  C   UNL     1      -8.548   9.104  70.763  1.00  0.00    -0.265 C  
BRANCH   7   8
HETATM    8  C   UNL     1      -9.714   8.964  71.738  1.00  0.00    -0.365 C  
BRANCH   8   9
HETATM    9  C   UNL     1     -11.004   9.515  71.131  1.00  0.00    -0.438 C  
BRANCH   9  10
HETATM   10  C   UNL     1     -12.209   9.132  71.984  1.00  0.00    -0.443 C  
BRANCH  10  11
HETATM   11  C   UNL     1     -13.392  10.069  71.748  1.00  0.00    -0.492 C  
BRANCH  11  12
HETATM   12  C   UNL     1     -12.892  11.440  71.307  1.00  0.00    -0.481 C  
BRANCH  12  13
HETATM   13  C   UNL     1     -13.410  12.567  72.198  1.00  0.00    -0.540 C  
BRANCH  13  14
HETATM   14  C   UNL     1     -13.317  13.890  71.476  1.00  0.00    -0.335 C  
HETATM   15  O   UNL     1     -14.198  14.739  71.448  1.00  0.00    -0.435 OA 
BRANCH  14  16
HETATM   16  O   UNL     1     -12.108  14.000  70.858  1.00  0.00    -0.333 OA 
BRANCH  16  17
HETATM   17  C   UNL     1     -12.068  14.921  69.750  1.00  0.00    -0.314 C  
HETATM   18  C   UNL     1     -10.879  15.863  69.906  1.00  0.00    -0.333 C  
HETATM   19  C   UNL     1     -11.944  14.098  68.475  1.00  0.00    -0.367 C  
ENDBRANCH  16  17
ENDBRANCH  14  16
ENDBRANCH  13  14
ENDBRANCH  12  13
ENDBRANCH  11  12
ENDBRANCH  10  11
ENDBRANCH   9  10
ENDBRANCH   8   9
ENDBRANCH   7   8
ENDBRANCH   6   7
ENDBRANCH   5   6
ENDBRANCH   4   5
ENDBRANCH   3   4
ENDBRANCH   2   3
TORSDOF 14
ENDMDL
MODEL      130
REMARK 921   NORMALIZED FREE ENERGY PREDICTED BY IDOCK:   -3.74 KCAL/MOL
REMARK 922        TOTAL FREE ENERGY PREDICTED BY IDOCK:   -8.36 KCAL/MOL
REMARK 923 INTER-LIGAND FREE ENERGY PREDICTED BY IDOCK:   -6.78 KCAL/MOL
REMARK 924 INTRA-LIGAND FREE ENERGY PREDICTED BY IDOCK:   -1.58 KCAL/MOL
REMARK 927      BINDING AFFINITY PREDICTED BY RF-SCORE:    0.00 PKD
ROOT
HETATM    1  C   UNL     1     -14.401   7.986  71.665  1.00  0.00    -0.581 C  
HETATM    2  C   UNL     1     -12.947   7.580  71.484  1.00  0.00    -0.400 C  
ENDROOT
BRANCH   2   3
HETATM    3  C   UNL     1     -12.008   8.751  71.760  1.00  0.00    -0.418 C  
BRANCH   3   4
HETATM    4  C   UNL     1     -11.513   9.383  70.461  1.00  0.00    -0.317 C  
BRANCH   4   5
HETATM    5  C   UNL     1     -12.066  10.798  70.298  1.00  0.00    -0.433 C  
BRANCH   5   6
HETATM    6  C   UNL     1     -11.151  11.654  69.424  1.00  0.00    -0.268 C  
BRANCH   6   7
HETATM    7  C   UNL     1     -11.901  12.173  68.199  1.00  0.00    -0.362 C  
BRANCH   7   8
HETATM    8  C   UNL     1     -11.775  13.690  68.079  1.00  0.00    -0.387 C  
BRANCH   8   9
HETATM    9  C   UNL     1     -12.066  14.152  66.652  1.00  0.00    -0.480 C  
BRANCH   9  10
HETATM   10  C   UNL     1     -12.159  12.959  65.707  1.00  0.00    -0.513 C  
BRANCH  10  11
HETATM   11  C   UNL     1     -11.998  13.378  64.246  1.00  0.00    -0.481 C  
BRANCH  11  12
HETATM   12  C   UNL     1     -11.124  12.370  63.508  1.00  0.00    -0.521 C  
BRANCH  12  13
HETATM   13  C   UNL     1     -10.871  11.105  64.324  1.00  0.00    -0.354 C  
BRANCH  13  14
HETATM   14  C   UNL     1      -9.572  10.460  63.903  1.00  0.00    -0.312 C  
HETATM   15  O   UNL     1      -9.386   9.883  62.840  1.00  0.00    -0.286 OA 
BRANCH  14  16
HETATM   16  O   UNL     1      -8.637  10.613  64.882  1.00  0.00    -0.178 OA 
BRANCH  16  17
HETATM   17  C   UNL     1      -9.163  10.713  66.220  1.00  0.00    -0.170 C  
HETATM   18  C   UNL     1      -9.030   9.368  66.927  1.00  0.00    -0.148 C  
HETATM   19  C   UNL     1      -8.365  11.787  66.946  1.00  0.00    -0.170 C  
ENDBRANCH  16  17
ENDBRANCH  14  16
ENDBRANCH  13  14
ENDBRANCH  12  13
ENDBRANCH  11  12
ENDBRANCH  10  11
ENDBRANCH   9  10
ENDBRANCH   8   9
ENDBRANCH   7   8
ENDBRANCH   6   7
ENDBRANCH   5   6
ENDBRANCH   4   5
ENDBRANCH   3   4
ENDBRANCH   2   3
TORSDOF 14
ENDMDL
MODEL      131
REMARK 921   NORMALIZED FREE ENERGY PREDICTED BY IDOCK:   -3.73 KCAL/MOL
REMARK 922        TOTAL FREE ENERGY PREDICTED BY IDOCK:   -8.35 KCAL/MOL
REMARK 923 INTER-LIGAND FREE ENERGY PREDICTED BY IDOCK:   -6.53 KCAL/MOL
REMARK 924 INTRA-LIGAND FREE ENERGY PREDICTED BY IDOCK:   -1.82 KCAL/MOL
REMARK 927      BINDING AFFINITY PREDICTED BY RF-SCORE:    0.00 PKD
ROOT
HETATM    1  C   UNL     1     -11.316   6.169  69.661  1.00  0.00    -0.442 C  
HETATM    2  C   UNL     1     -10.693   6.363  68.288  1.00  0.00    -0.351 C  
ENDROOT
BRANCH   2   3
HETATM    3  C   UNL     1      -9.274   6.914  68.397  1.00  0.00    -0.124 C  
BRANCH   3   4
HETATM    4  C   UNL     1      -9.018   7.517  69.778  1.00  0.00    -0.141 C  
BRANCH   4   5
HETATM    5  C   UNL     1      -8.913   9.039  69.697  1.00  0.00    -0.153 C  
BRANCH   5   6
HETATM    6  C   UNL     1     -10.183   9.710  70.217  1.00  0.00    -0.333 C  
BRANCH   6   7
HETATM    7  C   UNL     1     -10.609   9.103  71.553  1.00  0.00    -0.428 C  
BRANCH   7   8
HETATM    8  C   UNL     1     -12.123   9.174  71.731  1.00  0.00    -0.446 C  
BRANCH   8   9
HETATM    9  C   UNL     1     -12.718  10.317  70.909  1.00  0.00    -0.462 C  
BRANCH   9  10
HETATM   10  C   UNL     1     -13.186  11.448  71.819  1.00  0.00    -0.472 C  
BRANCH  10  11
HETATM   11  C   UNL     1     -12.737  12.814  71.302  1.00  0.00    -0.364 C  
BRANCH  11  12
HETATM   12  C   UNL     1     -12.063  12.662  69.943  1.00  0.00    -0.322 C  
BRANCH  12  13
HETATM   13  C   UNL     1     -11.465  13.972  69.435  1.00  0.00    -0.343 C  
BRANCH  13  14
HETATM   14  C   UNL     1     -11.766  14.151  67.966  1.00  0.00    -0.359 C  
HETATM   15  O   UNL     1     -11.668  15.205  67.352  1.00  0.00    -0.306 OA 
BRANCH  14  16
HETATM   16  O   UNL     1     -12.165  12.966  67.424  1.00  0.00    -0.330 OA 
BRANCH  16  17
HETATM   17  C   UNL     1     -11.320  12.458  66.374  1.00  0.00    -0.342 C  
HETATM   18  C   UNL     1     -10.871  11.041  66.715  1.00  0.00    -0.307 C  
HETATM   19  C   UNL     1     -12.132  12.473  65.086  1.00  0.00    -0.503 C  
ENDBRANCH  16  17
ENDBRANCH  14  16
ENDBRANCH  13  14
ENDBRANCH  12  13
ENDBRANCH  11  12
ENDBRANCH  10  11
ENDBRANCH   9  10
ENDBRANCH   8   9
ENDBRANCH   7   8
ENDBRANCH   6   7
ENDBRANCH   5   6
ENDBRANCH   4   5
ENDBRANCH   3   4
ENDBRANCH   2   3
TORSDOF 14
ENDMDL
MODEL      132
REMARK 921   NORMALIZED FREE ENERGY PREDICTED BY IDOCK:   -3.72 KCAL/MOL
REMARK 922        TOTAL FREE ENERGY PREDICTED BY IDOCK:   -8.33 KCAL/MOL
REMARK 923 INTER-LIGAND FREE ENERGY PREDICTED BY IDOCK:   -6.65 KCAL/MOL
REMARK 924 INTRA-LIGAND FREE ENERGY PREDICTED BY IDOCK:   -1.69 KCAL/MOL
REMARK 927      BINDING AFFINITY PREDICTED BY RF-SCORE:    0.00 PKD
ROOT
HETATM    1  C   UNL     1     -11.707   9.474  71.533  1.00  0.00    -0.472 C  
HETATM    2  C   UNL     1     -12.771  10.552  71.665  1.00  0.00    -0.550 C  
ENDROOT
BRANCH   2   3
HETATM    3  C   UNL     1     -12.416  11.783  70.835  1.00  0.00    -0.416 C  
BRANCH   3   4
HETATM    4  C   UNL     1     -12.824  13.070  71.550  1.00  0.00    -0.386 C  
BRANCH   4   5
HETATM    5  C   UNL     1     -12.505  14.294  70.693  1.00  0.00    -0.428 C  
BRANCH   5   6
HETATM    6  C   UNL     1     -12.062  13.887  69.289  1.00  0.00    -0.383 C  
BRANCH   6   7
HETATM    7  C   UNL     1     -11.134  14.941  68.687  1.00  0.00    -0.272 C  
BRANCH   7   8
HETATM    8  C   UNL     1     -11.427  15.147  67.203  1.00  0.00    -0.254 C  
BRANCH   8   9
HETATM    9  C   UNL     1     -10.133  15.178  66.390  1.00  0.00    -0.286 C  
BRANCH   9  10
HETATM   10  C   UNL     1     -10.370  14.649  64.979  1.00  0.00    -0.432 C  
BRANCH  10  11
HETATM   11  C   UNL     1     -11.824  14.227  64.768  1.00  0.00    -0.436 C  
BRANCH  11  12
HETATM   12  C   UNL     1     -11.891  12.743  64.421  1.00  0.00    -0.446 C  
BRANCH  12  13
HETATM   13  C   UNL     1     -10.712  11.955  64.988  1.00  0.00    -0.341 C  
BRANCH  13  14
HETATM   14  C   UNL     1     -11.027  11.474  66.385  1.00  0.00    -0.284 C  
HETATM   15  O   UNL     1     -12.096  11.633  66.958  1.00  0.00    -0.547 OA 
BRANCH  14  16
HETATM   16  O   UNL     1      -9.944  10.839  66.914  1.00  0.00    -0.188 OA 
BRANCH  16  17
HETATM   17  C   UNL     1      -9.638  11.186  68.279  1.00  0.00    -0.185 C  
HETATM   18  C   UNL     1      -9.063   9.973  69.001  1.00  0.00    -0.172 C  
HETATM   19  C   UNL     1      -8.628  12.325  68.246  1.00  0.00    -0.172 C  
ENDBRANCH  16  17
ENDBRANCH  14  16
ENDBRANCH  13  14
ENDBRANCH  12  13
ENDBRANCH  11  12
ENDBRANCH  10  11
ENDBRANCH   9  10
ENDBRANCH   8   9
ENDBRANCH   7   8
ENDBRANCH   6   7
ENDBRANCH   5   6
ENDBRANCH   4   5
ENDBRANCH   3   4
ENDBRANCH   2   3
TORSDOF 14
ENDMDL
MODEL      133
REMARK 921   NORMALIZED FREE ENERGY PREDICTED BY IDOCK:   -3.71 KCAL/MOL
REMARK 922        TOTAL FREE ENERGY PREDICTED BY IDOCK:   -8.31 KCAL/MOL
REMARK 923 INTER-LIGAND FREE ENERGY PREDICTED BY IDOCK:   -7.02 KCAL/MOL
REMARK 924 INTRA-LIGAND FREE ENERGY PREDICTED BY IDOCK:   -1.29 KCAL/MOL
REMARK 927      BINDING AFFINITY PREDICTED BY RF-SCORE:    0.00 PKD
ROOT
HETATM    1  C   UNL     1      -8.362   7.060  72.383  1.00  0.00    -0.120 C  
HETATM    2  C   UNL     1      -9.531   7.961  72.749  1.00  0.00    -0.304 C  
ENDROOT
BRANCH   2   3
HETATM    3  C   UNL     1     -10.662   7.164  73.394  1.00  0.00    -0.410 C  
BRANCH   3   4
HETATM    4  C   UNL     1     -11.263   6.160  72.410  1.00  0.00    -0.329 C  
BRANCH   4   5
HETATM    5  C   UNL     1     -11.978   6.879  71.267  1.00  0.00    -0.402 C  
BRANCH   5   6
HETATM    6  C   UNL     1     -13.462   7.068  71.575  1.00  0.00    -0.363 C  
BRANCH   6   7
HETATM    7  C   UNL     1     -13.787   8.546  71.788  1.00  0.00    -0.462 C  
BRANCH   7   8
HETATM    8  C   UNL     1     -12.600   9.429  71.414  1.00  0.00    -0.430 C  
BRANCH   8   9
HETATM    9  C   UNL     1     -12.939  10.908  71.598  1.00  0.00    -0.569 C  
BRANCH   9  10
HETATM   10  C   UNL     1     -12.326  11.745  70.480  1.00  0.00    -0.387 C  
BRANCH  10  11
HETATM   11  C   UNL     1     -11.815  10.874  69.333  1.00  0.00    -0.400 C  
BRANCH  11  12
HETATM   12  C   UNL     1     -11.535  11.737  68.108  1.00  0.00    -0.382 C  
BRANCH  12  13
HETATM   13  C   UNL     1     -11.127  13.162  68.476  1.00  0.00    -0.296 C  
BRANCH  13  14
HETATM   14  C   UNL     1     -11.910  14.159  67.656  1.00  0.00    -0.392 C  
HETATM   15  O   UNL     1     -12.380  13.944  66.547  1.00  0.00    -0.445 OA 
BRANCH  14  16
HETATM   16  O   UNL     1     -12.016  15.338  68.332  1.00  0.00    -0.303 OA 
BRANCH  16  17
HETATM   17  C   UNL     1     -11.544  15.306  69.693  1.00  0.00    -0.321 C  
HETATM   18  C   UNL     1     -10.602  16.480  69.938  1.00  0.00    -0.215 C  
HETATM   19  C   UNL     1     -12.762  15.391  70.602  1.00  0.00    -0.490 C  
ENDBRANCH  16  17
ENDBRANCH  14  16
ENDBRANCH  13  14
ENDBRANCH  12  13
ENDBRANCH  11  12
ENDBRANCH  10  11
ENDBRANCH   9  10
ENDBRANCH   8   9
ENDBRANCH   7   8
ENDBRANCH   6   7
ENDBRANCH   5   6
ENDBRANCH   4   5
ENDBRANCH   3   4
ENDBRANCH   2   3
TORSDOF 14
ENDMDL
MODEL      134
REMARK 921   NORMALIZED FREE ENERGY PREDICTED BY IDOCK:   -3.70 KCAL/MOL
REMARK 922        TOTAL FREE ENERGY PREDICTED BY IDOCK:   -8.30 KCAL/MOL
REMARK 923 INTER-LIGAND FREE ENERGY PREDICTED BY IDOCK:   -7.11 KCAL/MOL
REMARK 924 INTRA-LIGAND FREE ENERGY PREDICTED BY IDOCK:   -1.19 KCAL/MOL
REMARK 927      BINDING AFFINITY PREDICTED BY RF-SCORE:    0.00 PKD
ROOT
HETATM    1  C   UNL     1     -11.127   4.441  73.388  1.00  0.00    -0.394 C  
HETATM    2  C   UNL     1     -10.882   5.903  73.051  1.00  0.00    -0.300 C  
ENDROOT
BRANCH   2   3
HETATM    3  C   UNL     1     -10.576   6.083  71.566  1.00  0.00    -0.295 C  
BRANCH   3   4
HETATM    4  C   UNL     1     -11.038   7.452  71.066  1.00  0.00    -0.277 C  
BRANCH   4   5
HETATM    5  C   UNL     1     -11.450   8.347  72.234  1.00  0.00    -0.454 C  
BRANCH   5   6
HETATM    6  C   UNL     1     -12.755   9.081  71.935  1.00  0.00    -0.450 C  
BRANCH   6   7
HETATM    7  C   UNL     1     -12.598   9.994  70.720  1.00  0.00    -0.372 C  
BRANCH   7   8
HETATM    8  C   UNL     1     -12.457  11.453  71.143  1.00  0.00    -0.465 C  
BRANCH   8   9
HETATM    9  C   UNL     1     -11.930  12.308  69.991  1.00  0.00    -0.379 C  
BRANCH   9  10
HETATM   10  C   UNL     1     -11.613  13.721  70.470  1.00  0.00    -0.087 C  
BRANCH  10  11
HETATM   11  C   UNL     1     -11.114  14.608  69.329  1.00  0.00    -0.290 C  
BRANCH  11  12
HETATM   12  C   UNL     1     -12.094  14.555  68.161  1.00  0.00    -0.232 C  
BRANCH  12  13
HETATM   13  C   UNL     1     -11.393  14.367  66.817  1.00  0.00    -0.360 C  
BRANCH  13  14
HETATM   14  C   UNL     1     -12.239  13.516  65.900  1.00  0.00    -0.460 C  
HETATM   15  O   UNL     1     -12.970  13.945  65.018  1.00  0.00    -0.731 OA 
BRANCH  14  16
HETATM   16  O   UNL     1     -12.069  12.197  66.201  1.00  0.00    -0.621 OA 
BRANCH  16  17
HETATM   17  C   UNL     1     -10.714  11.717  66.104  1.00  0.00    -0.277 C  
HETATM   18  C   UNL     1     -10.460  10.675  67.187  1.00  0.00    -0.295 C  
HETATM   19  C   UNL     1     -10.541  11.111  64.718  1.00  0.00    -0.371 C  
ENDBRANCH  16  17
ENDBRANCH  14  16
ENDBRANCH  13  14
ENDBRANCH  12  13
ENDBRANCH  11  12
ENDBRANCH  10  11
ENDBRANCH   9  10
ENDBRANCH   8   9
ENDBRANCH   7   8
ENDBRANCH   6   7
ENDBRANCH   5   6
ENDBRANCH   4   5
ENDBRANCH   3   4
ENDBRANCH   2   3
TORSDOF 14
ENDMDL
MODEL      135
REMARK 921   NORMALIZED FREE ENERGY PREDICTED BY IDOCK:   -3.70 KCAL/MOL
REMARK 922        TOTAL FREE ENERGY PREDICTED BY IDOCK:   -8.30 KCAL/MOL
REMARK 923 INTER-LIGAND FREE ENERGY PREDICTED BY IDOCK:   -6.75 KCAL/MOL
REMARK 924 INTRA-LIGAND FREE ENERGY PREDICTED BY IDOCK:   -1.55 KCAL/MOL
REMARK 927      BINDING AFFINITY PREDICTED BY RF-SCORE:    0.00 PKD
ROOT
HETATM    1  C   UNL     1      -8.024  10.004  69.153  1.00  0.00    -0.116 C  
HETATM    2  C   UNL     1      -8.846   9.370  70.263  1.00  0.00    -0.269 C  
ENDROOT
BRANCH   2   3
HETATM    3  C   UNL     1      -9.498   8.070  69.795  1.00  0.00    -0.159 C  
BRANCH   3   4
HETATM    4  C   UNL     1      -9.099   6.897  70.689  1.00  0.00    -0.155 C  
BRANCH   4   5
HETATM    5  C   UNL     1     -10.311   6.029  71.022  1.00  0.00    -0.270 C  
BRANCH   5   6
HETATM    6  C   UNL     1     -11.581   6.581  70.378  1.00  0.00    -0.470 C  
BRANCH   6   7
HETATM    7  C   UNL     1     -12.610   6.956  71.443  1.00  0.00    -0.400 C  
BRANCH   7   8
HETATM    8  C   UNL     1     -12.247   8.277  72.117  1.00  0.00    -0.418 C  
BRANCH   8   9
HETATM    9  C   UNL     1     -13.479   9.168  72.273  1.00  0.00    -0.546 C  
BRANCH   9  10
HETATM   10  C   UNL     1     -13.157  10.607  71.882  1.00  0.00    -0.563 C  
BRANCH  10  11
HETATM   11  C   UNL     1     -11.956  10.683  70.940  1.00  0.00    -0.469 C  
BRANCH  11  12
HETATM   12  C   UNL     1     -11.978  12.001  70.172  1.00  0.00    -0.401 C  
BRANCH  12  13
HETATM   13  C   UNL     1     -11.611  11.828  68.701  1.00  0.00    -0.367 C  
BRANCH  13  14
HETATM   14  C   UNL     1     -11.580  13.169  68.007  1.00  0.00    -0.334 C  
HETATM   15  O   UNL     1     -12.160  14.175  68.395  1.00  0.00    -0.344 OA 
BRANCH  14  16
HETATM   16  O   UNL     1     -10.814  13.095  66.883  1.00  0.00    -0.262 OA 
BRANCH  16  17
HETATM   17  C   UNL     1     -11.335  12.244  65.842  1.00  0.00    -0.360 C  
HETATM   18  C   UNL     1     -12.391  12.999  65.042  1.00  0.00    -0.526 C  
HETATM   19  C   UNL     1     -10.166  11.842  64.953  1.00  0.00    -0.315 C  
ENDBRANCH  16  17
ENDBRANCH  14  16
ENDBRANCH  13  14
ENDBRANCH  12  13
ENDBRANCH  11  12
ENDBRANCH  10  11
ENDBRANCH   9  10
ENDBRANCH   8   9
ENDBRANCH   7   8
ENDBRANCH   6   7
ENDBRANCH   5   6
ENDBRANCH   4   5
ENDBRANCH   3   4
ENDBRANCH   2   3
TORSDOF 14
ENDMDL
MODEL      136
REMARK 921   NORMALIZED FREE ENERGY PREDICTED BY IDOCK:   -3.69 KCAL/MOL
REMARK 922        TOTAL FREE ENERGY PREDICTED BY IDOCK:   -8.28 KCAL/MOL
REMARK 923 INTER-LIGAND FREE ENERGY PREDICTED BY IDOCK:   -6.12 KCAL/MOL
REMARK 924 INTRA-LIGAND FREE ENERGY PREDICTED BY IDOCK:   -2.16 KCAL/MOL
REMARK 927      BINDING AFFINITY PREDICTED BY RF-SCORE:    0.00 PKD
ROOT
HETATM    1  C   UNL     1      -6.994  15.131  67.543  1.00  0.00    -0.220 C  
HETATM    2  C   UNL     1      -6.839  16.125  68.682  1.00  0.00    -0.131 C  
ENDROOT
BRANCH   2   3
HETATM    3  C   UNL     1      -6.530  17.525  68.156  1.00  0.00    -0.178 C  
BRANCH   3   4
HETATM    4  C   UNL     1      -6.387  18.528  69.300  1.00  0.00    -0.272 C  
BRANCH   4   5
HETATM    5  C   UNL     1      -7.270  19.752  69.065  1.00  0.00    -0.340 C  
BRANCH   5   6
HETATM    6  C   UNL     1      -7.310  20.130  67.586  1.00  0.00    -0.328 C  
BRANCH   6   7
HETATM    7  C   UNL     1      -8.710  20.591  67.182  1.00  0.00    -0.375 C  
BRANCH   7   8
HETATM    8  C   UNL     1      -9.782  19.874  67.998  1.00  0.00    -0.510 C  
BRANCH   8   9
HETATM    9  C   UNL     1     -10.575  18.902  67.126  1.00  0.00    -0.531 C  
BRANCH   9  10
HETATM   10  C   UNL     1     -10.244  17.458  67.490  1.00  0.00    -0.332 C  
BRANCH  10  11
HETATM   11  C   UNL     1     -10.574  17.151  68.950  1.00  0.00    -0.314 C  
BRANCH  11  12
HETATM   12  C   UNL     1     -10.389  15.662  69.224  1.00  0.00    -0.250 C  
BRANCH  12  13
HETATM   13  C   UNL     1     -11.634  15.019  69.830  1.00  0.00    -0.328 C  
BRANCH  13  14
HETATM   14  C   UNL     1     -12.066  13.831  69.003  1.00  0.00    -0.322 C  
HETATM   15  O   UNL     1     -12.370  12.734  69.453  1.00  0.00    -0.128 OA 
BRANCH  14  16
HETATM   16  O   UNL     1     -12.066  14.159  67.681  1.00  0.00    -0.378 OA 
BRANCH  16  17
HETATM   17  C   UNL     1     -11.766  13.074  66.781  1.00  0.00    -0.382 C  
HETATM   18  C   UNL     1     -12.517  13.272  65.469  1.00  0.00    -0.531 C  
HETATM   19  C   UNL     1     -10.262  13.074  66.550  1.00  0.00    -0.270 C  
ENDBRANCH  16  17
ENDBRANCH  14  16
ENDBRANCH  13  14
ENDBRANCH  12  13
ENDBRANCH  11  12
ENDBRANCH  10  11
ENDBRANCH   9  10
ENDBRANCH   8   9
ENDBRANCH   7   8
ENDBRANCH   6   7
ENDBRANCH   5   6
ENDBRANCH   4   5
ENDBRANCH   3   4
ENDBRANCH   2   3
TORSDOF 14
ENDMDL
MODEL      137
REMARK 921   NORMALIZED FREE ENERGY PREDICTED BY IDOCK:   -3.68 KCAL/MOL
REMARK 922        TOTAL FREE ENERGY PREDICTED BY IDOCK:   -8.25 KCAL/MOL
REMARK 923 INTER-LIGAND FREE ENERGY PREDICTED BY IDOCK:   -6.21 KCAL/MOL
REMARK 924 INTRA-LIGAND FREE ENERGY PREDICTED BY IDOCK:   -2.04 KCAL/MOL
REMARK 927      BINDING AFFINITY PREDICTED BY RF-SCORE:    0.00 PKD
ROOT
HETATM    1  C   UNL     1     -10.800  15.009  69.446  1.00  0.00    -0.265 C  
HETATM    2  C   UNL     1     -11.958  14.880  68.471  1.00  0.00    -0.275 C  
ENDROOT
BRANCH   2   3
HETATM    3  C   UNL     1     -11.471  14.926  67.024  1.00  0.00    -0.333 C  
BRANCH   3   4
HETATM    4  C   UNL     1     -12.209  13.907  66.158  1.00  0.00    -0.498 C  
BRANCH   4   5
HETATM    5  C   UNL     1     -11.223  13.014  65.406  1.00  0.00    -0.317 C  
BRANCH   5   6
HETATM    6  C   UNL     1     -11.054  11.666  66.102  1.00  0.00    -0.335 C  
BRANCH   6   7
HETATM    7  C   UNL     1      -9.798  11.657  66.972  1.00  0.00    -0.211 C  
BRANCH   7   8
HETATM    8  C   UNL     1     -10.125  11.247  68.405  1.00  0.00    -0.202 C  
BRANCH   8   9
HETATM    9  C   UNL     1     -11.634  11.124  68.609  1.00  0.00    -0.383 C  
BRANCH   9  10
HETATM   10  C   UNL     1     -12.034  11.621  69.994  1.00  0.00    -0.429 C  
BRANCH  10  11
HETATM   11  C   UNL     1     -11.765  10.572  71.073  1.00  0.00    -0.384 C  
BRANCH  11  12
HETATM   12  C   UNL     1     -12.962   9.635  71.198  1.00  0.00    -0.389 C  
BRANCH  12  13
HETATM   13  C   UNL     1     -12.854   8.705  72.404  1.00  0.00    -0.413 C  
BRANCH  13  14
HETATM   14  C   UNL     1     -11.632   7.827  72.281  1.00  0.00    -0.338 C  
HETATM   15  O   UNL     1     -10.714   7.782  73.089  1.00  0.00    -0.378 OA 
BRANCH  14  16
HETATM   16  O   UNL     1     -11.700   7.092  71.136  1.00  0.00    -0.290 OA 
BRANCH  16  17
HETATM   17  C   UNL     1     -10.429   6.771  70.538  1.00  0.00    -0.209 C  
HETATM   18  C   UNL     1     -10.400   5.296  70.152  1.00  0.00    -0.354 C  
HETATM   19  C   UNL     1     -10.265   7.656  69.310  1.00  0.00    -0.210 C  
ENDBRANCH  16  17
ENDBRANCH  14  16
ENDBRANCH  13  14
ENDBRANCH  12  13
ENDBRANCH  11  12
ENDBRANCH  10  11
ENDBRANCH   9  10
ENDBRANCH   8   9
ENDBRANCH   7   8
ENDBRANCH   6   7
ENDBRANCH   5   6
ENDBRANCH   4   5
ENDBRANCH   3   4
ENDBRANCH   2   3
TORSDOF 14
ENDMDL
MODEL      138
REMARK 921   NORMALIZED FREE ENERGY PREDICTED BY IDOCK:   -3.68 KCAL/MOL
REMARK 922        TOTAL FREE ENERGY PREDICTED BY IDOCK:   -8.25 KCAL/MOL
REMARK 923 INTER-LIGAND FREE ENERGY PREDICTED BY IDOCK:   -6.44 KCAL/MOL
REMARK 924 INTRA-LIGAND FREE ENERGY PREDICTED BY IDOCK:   -1.81 KCAL/MOL
REMARK 927      BINDING AFFINITY PREDICTED BY RF-SCORE:    0.00 PKD
ROOT
HETATM    1  C   UNL     1     -10.538   6.669  67.766  1.00  0.00    -0.311 C  
HETATM    2  C   UNL     1     -11.227   6.247  69.054  1.00  0.00    -0.415 C  
ENDROOT
BRANCH   2   3
HETATM    3  C   UNL     1     -10.218   5.727  70.075  1.00  0.00    -0.304 C  
BRANCH   3   4
HETATM    4  C   UNL     1      -8.959   6.592  70.100  1.00  0.00    -0.152 C  
BRANCH   4   5
HETATM    5  C   UNL     1      -8.571   6.947  71.535  1.00  0.00    -0.122 C  
BRANCH   5   6
HETATM    6  C   UNL     1      -9.781   6.895  72.465  1.00  0.00    -0.169 C  
BRANCH   6   7
HETATM    7  C   UNL     1     -10.355   8.293  72.688  1.00  0.00    -0.374 C  
BRANCH   7   8
HETATM    8  C   UNL     1     -11.857   8.320  72.417  1.00  0.00    -0.461 C  
BRANCH   8   9
HETATM    9  C   UNL     1     -12.170   9.109  71.147  1.00  0.00    -0.350 C  
BRANCH   9  10
HETATM   10  C   UNL     1     -10.922   9.820  70.633  1.00  0.00    -0.398 C  
BRANCH  10  11
HETATM   11  C   UNL     1     -11.020  10.129  69.139  1.00  0.00    -0.270 C  
BRANCH  11  12
HETATM   12  C   UNL     1     -11.837  11.398  68.921  1.00  0.00    -0.413 C  
BRANCH  12  13
HETATM   13  C   UNL     1     -11.137  12.394  68.000  1.00  0.00    -0.288 C  
BRANCH  13  14
HETATM   14  C   UNL     1     -11.869  13.715  68.004  1.00  0.00    -0.362 C  
HETATM   15  O   UNL     1     -12.154  14.358  69.006  1.00  0.00    -0.312 OA 
BRANCH  14  16
HETATM   16  O   UNL     1     -12.167  14.087  66.727  1.00  0.00    -0.439 OA 
BRANCH  16  17
HETATM   17  C   UNL     1     -11.503  13.327  65.698  1.00  0.00    -0.318 C  
HETATM   18  C   UNL     1     -12.540  12.656  64.804  1.00  0.00    -0.530 C  
HETATM   19  C   UNL     1     -10.643  14.295  64.898  1.00  0.00    -0.452 C  
ENDBRANCH  16  17
ENDBRANCH  14  16
ENDBRANCH  13  14
ENDBRANCH  12  13
ENDBRANCH  11  12
ENDBRANCH  10  11
ENDBRANCH   9  10
ENDBRANCH   8   9
ENDBRANCH   7   8
ENDBRANCH   6   7
ENDBRANCH   5   6
ENDBRANCH   4   5
ENDBRANCH   3   4
ENDBRANCH   2   3
TORSDOF 14
ENDMDL
MODEL      139
REMARK 921   NORMALIZED FREE ENERGY PREDICTED BY IDOCK:   -3.67 KCAL/MOL
REMARK 922        TOTAL FREE ENERGY PREDICTED BY IDOCK:   -8.24 KCAL/MOL
REMARK 923 INTER-LIGAND FREE ENERGY PREDICTED BY IDOCK:   -6.57 KCAL/MOL
REMARK 924 INTRA-LIGAND FREE ENERGY PREDICTED BY IDOCK:   -1.67 KCAL/MOL
REMARK 927      BINDING AFFINITY PREDICTED BY RF-SCORE:    0.00 PKD
ROOT
HETATM    1  C   UNL     1     -12.219  15.764  71.485  1.00  0.00    -0.513 C  
HETATM    2  C   UNL     1     -12.892  14.463  71.081  1.00  0.00    -0.417 C  
ENDROOT
BRANCH   2   3
HETATM    3  C   UNL     1     -12.168  13.808  69.907  1.00  0.00    -0.383 C  
BRANCH   3   4
HETATM    4  C   UNL     1     -11.704  14.850  68.891  1.00  0.00    -0.343 C  
BRANCH   4   5
HETATM    5  C   UNL     1     -11.978  14.379  67.463  1.00  0.00    -0.389 C  
BRANCH   5   6
HETATM    6  C   UNL     1     -12.135  12.861  67.401  1.00  0.00    -0.258 C  
BRANCH   6   7
HETATM    7  C   UNL     1     -12.049  12.366  65.958  1.00  0.00    -0.327 C  
BRANCH   7   8
HETATM    8  C   UNL     1     -10.635  11.901  65.620  1.00  0.00    -0.311 C  
BRANCH   8   9
HETATM    9  C   UNL     1      -9.986  11.207  66.816  1.00  0.00    -0.242 C  
BRANCH   9  10
HETATM   10  C   UNL     1     -10.211   9.700  66.753  1.00  0.00    -0.308 C  
BRANCH  10  11
HETATM   11  C   UNL     1     -10.418   9.098  68.142  1.00  0.00    -0.260 C  
BRANCH  11  12
HETATM   12  C   UNL     1      -9.868  10.041  69.206  1.00  0.00    -0.227 C  
BRANCH  12  13
HETATM   13  C   UNL     1     -10.808  10.190  70.400  1.00  0.00    -0.365 C  
BRANCH  13  14
HETATM   14  C   UNL     1     -10.353   9.308  71.538  1.00  0.00    -0.294 C  
HETATM   15  O   UNL     1      -9.190   9.011  71.775  1.00  0.00    -0.329 OA 
BRANCH  14  16
HETATM   16  O   UNL     1     -11.428   8.890  72.263  1.00  0.00    -0.348 OA 
BRANCH  16  17
HETATM   17  C   UNL     1     -12.619   8.627  71.495  1.00  0.00    -0.322 C  
HETATM   18  C   UNL     1     -12.768   7.126  71.275  1.00  0.00    -0.412 C  
HETATM   19  C   UNL     1     -13.801   9.180  72.279  1.00  0.00    -0.527 C  
ENDBRANCH  16  17
ENDBRANCH  14  16
ENDBRANCH  13  14
ENDBRANCH  12  13
ENDBRANCH  11  12
ENDBRANCH  10  11
ENDBRANCH   9  10
ENDBRANCH   8   9
ENDBRANCH   7   8
ENDBRANCH   6   7
ENDBRANCH   5   6
ENDBRANCH   4   5
ENDBRANCH   3   4
ENDBRANCH   2   3
TORSDOF 14
ENDMDL
MODEL      140
REMARK 921   NORMALIZED FREE ENERGY PREDICTED BY IDOCK:   -3.67 KCAL/MOL
REMARK 922        TOTAL FREE ENERGY PREDICTED BY IDOCK:   -8.24 KCAL/MOL
REMARK 923 INTER-LIGAND FREE ENERGY PREDICTED BY IDOCK:   -5.61 KCAL/MOL
REMARK 924 INTRA-LIGAND FREE ENERGY PREDICTED BY IDOCK:   -2.62 KCAL/MOL
REMARK 927      BINDING AFFINITY PREDICTED BY RF-SCORE:    0.00 PKD
ROOT
HETATM    1  C   UNL     1     -11.289  11.927  63.481  1.00  0.00    -0.516 C  
HETATM    2  C   UNL     1     -11.706  13.321  63.921  1.00  0.00    -0.486 C  
ENDROOT
BRANCH   2   3
HETATM    3  C   UNL     1     -10.597  14.004  64.719  1.00  0.00    -0.441 C  
BRANCH   3   4
HETATM    4  C   UNL     1     -11.167  14.787  65.901  1.00  0.00    -0.340 C  
BRANCH   4   5
HETATM    5  C   UNL     1     -12.072  13.902  66.756  1.00  0.00    -0.476 C  
BRANCH   5   6
HETATM    6  C   UNL     1     -11.892  14.199  68.243  1.00  0.00    -0.391 C  
BRANCH   6   7
HETATM    7  C   UNL     1     -11.894  12.906  69.058  1.00  0.00    -0.352 C  
BRANCH   7   8
HETATM    8  C   UNL     1     -11.687  11.690  68.159  1.00  0.00    -0.365 C  
BRANCH   8   9
HETATM    9  C   UNL     1     -10.252  11.174  68.260  1.00  0.00    -0.197 C  
BRANCH   9  10
HETATM   10  C   UNL     1      -9.630  11.035  66.874  1.00  0.00    -0.205 C  
BRANCH  10  11
HETATM   11  C   UNL     1      -8.317  11.808  66.761  1.00  0.00    -0.165 C  
BRANCH  11  12
HETATM   12  C   UNL     1      -8.391  13.084  67.593  1.00  0.00    -0.181 C  
BRANCH  12  13
HETATM   13  C   UNL     1      -7.011  13.619  67.969  1.00  0.00    -0.135 C  
BRANCH  13  14
HETATM   14  C   UNL     1      -6.806  14.996  67.384  1.00  0.00    -0.111 C  
HETATM   15  O   UNL     1      -5.722  15.550  67.253  1.00  0.00    -0.336 OA 
BRANCH  14  16
HETATM   16  O   UNL     1      -8.005  15.534  67.026  1.00  0.00    -0.201 OA 
BRANCH  16  17
HETATM   17  C   UNL     1      -8.267  16.850  67.552  1.00  0.00    -0.178 C  
HETATM   18  C   UNL     1      -8.862  17.732  66.459  1.00  0.00    -0.283 C  
HETATM   19  C   UNL     1      -9.242  16.693  68.711  1.00  0.00    -0.253 C  
ENDBRANCH  16  17
ENDBRANCH  14  16
ENDBRANCH  13  14
ENDBRANCH  12  13
ENDBRANCH  11  12
ENDBRANCH  10  11
ENDBRANCH   9  10
ENDBRANCH   8   9
ENDBRANCH   7   8
ENDBRANCH   6   7
ENDBRANCH   5   6
ENDBRANCH   4   5
ENDBRANCH   3   4
ENDBRANCH   2   3
TORSDOF 14
ENDMDL
MODEL      141
REMARK 921   NORMALIZED FREE ENERGY PREDICTED BY IDOCK:   -3.67 KCAL/MOL
REMARK 922        TOTAL FREE ENERGY PREDICTED BY IDOCK:   -8.23 KCAL/MOL
REMARK 923 INTER-LIGAND FREE ENERGY PREDICTED BY IDOCK:   -6.76 KCAL/MOL
REMARK 924 INTRA-LIGAND FREE ENERGY PREDICTED BY IDOCK:   -1.48 KCAL/MOL
REMARK 927      BINDING AFFINITY PREDICTED BY RF-SCORE:    0.00 PKD
ROOT
HETATM    1  C   UNL     1     -10.873   8.957  71.730  1.00  0.00    -0.436 C  
HETATM    2  C   UNL     1     -12.341   9.105  71.368  1.00  0.00    -0.404 C  
ENDROOT
BRANCH   2   3
HETATM    3  C   UNL     1     -12.666  10.539  70.955  1.00  0.00    -0.495 C  
BRANCH   3   4
HETATM    4  C   UNL     1     -13.490  11.252  72.026  1.00  0.00    -0.289 C  
BRANCH   4   5
HETATM    5  C   UNL     1     -13.037  12.702  72.186  1.00  0.00    -0.438 C  
BRANCH   5   6
HETATM    6  C   UNL     1     -14.209  13.669  72.033  1.00  0.00    -0.374 C  
BRANCH   6   7
HETATM    7  C   UNL     1     -13.711  15.097  71.823  1.00  0.00    -0.578 C  
BRANCH   7   8
HETATM    8  C   UNL     1     -12.196  15.181  71.990  1.00  0.00    -0.438 C  
BRANCH   8   9
HETATM    9  C   UNL     1     -11.607  16.276  71.103  1.00  0.00    -0.376 C  
BRANCH   9  10
HETATM   10  C   UNL     1     -11.547  15.819  69.649  1.00  0.00    -0.363 C  
BRANCH  10  11
HETATM   11  C   UNL     1     -10.487  14.740  69.436  1.00  0.00    -0.210 C  
BRANCH  11  12
HETATM   12  C   UNL     1     -10.962  13.741  68.387  1.00  0.00    -0.275 C  
BRANCH  12  13
HETATM   13  C   UNL     1     -10.415  12.336  68.624  1.00  0.00    -0.228 C  
BRANCH  13  14
HETATM   14  C   UNL     1     -11.086  11.349  67.700  1.00  0.00    -0.268 C  
HETATM   15  O   UNL     1     -11.993  11.617  66.923  1.00  0.00    -0.567 OA 
BRANCH  14  16
HETATM   16  O   UNL     1     -10.535  10.113  67.858  1.00  0.00    -0.191 OA 
BRANCH  16  17
HETATM   17  C   UNL     1     -10.483   9.308  66.664  1.00  0.00    -0.167 C  
HETATM   18  C   UNL     1      -9.203   9.613  65.894  1.00  0.00    -0.246 C  
HETATM   19  C   UNL     1     -10.522   7.848  67.093  1.00  0.00    -0.414 C  
ENDBRANCH  16  17
ENDBRANCH  14  16
ENDBRANCH  13  14
ENDBRANCH  12  13
ENDBRANCH  11  12
ENDBRANCH  10  11
ENDBRANCH   9  10
ENDBRANCH   8   9
ENDBRANCH   7   8
ENDBRANCH   6   7
ENDBRANCH   5   6
ENDBRANCH   4   5
ENDBRANCH   3   4
ENDBRANCH   2   3
TORSDOF 14
ENDMDL
MODEL      142
REMARK 921   NORMALIZED FREE ENERGY PREDICTED BY IDOCK:   -3.66 KCAL/MOL
REMARK 922        TOTAL FREE ENERGY PREDICTED BY IDOCK:   -8.23 KCAL/MOL
REMARK 923 INTER-LIGAND FREE ENERGY PREDICTED BY IDOCK:   -6.50 KCAL/MOL
REMARK 924 INTRA-LIGAND FREE ENERGY PREDICTED BY IDOCK:   -1.74 KCAL/MOL
REMARK 927      BINDING AFFINITY PREDICTED BY RF-SCORE:    0.00 PKD
ROOT
HETATM    1  C   UNL     1     -11.600  14.859  65.063  1.00  0.00    -0.357 C  
HETATM    2  C   UNL     1     -12.714  13.894  65.431  1.00  0.00    -0.525 C  
ENDROOT
BRANCH   2   3
HETATM    3  C   UNL     1     -12.552  12.560  64.706  1.00  0.00    -0.493 C  
BRANCH   3   4
HETATM    4  C   UNL     1     -11.817  12.736  63.378  1.00  0.00    -0.591 C  
BRANCH   4   5
HETATM    5  C   UNL     1     -10.503  11.955  63.375  1.00  0.00    -0.487 C  
BRANCH   5   6
HETATM    6  C   UNL     1     -10.513  10.851  64.430  1.00  0.00    -0.403 C  
BRANCH   6   7
HETATM    7  C   UNL     1      -9.278  10.946  65.325  1.00  0.00    -0.236 C  
BRANCH   7   8
HETATM    8  C   UNL     1      -9.321  12.203  66.190  1.00  0.00    -0.198 C  
BRANCH   8   9
HETATM    9  C   UNL     1     -10.093  11.950  67.484  1.00  0.00    -0.206 C  
BRANCH   9  10
HETATM   10  C   UNL     1      -9.835  10.538  68.000  1.00  0.00    -0.166 C  
BRANCH  10  11
HETATM   11  C   UNL     1      -8.783  10.522  69.108  1.00  0.00    -0.155 C  
BRANCH  11  12
HETATM   12  C   UNL     1      -9.125   9.448  70.135  1.00  0.00    -0.262 C  
BRANCH  12  13
HETATM   13  C   UNL     1     -10.122   8.422  69.601  1.00  0.00    -0.199 C  
BRANCH  13  14
HETATM   14  C   UNL     1     -11.085   8.011  70.689  1.00  0.00    -0.262 C  
HETATM   15  O   UNL     1     -11.484   6.870  70.881  1.00  0.00    -0.286 OA 
BRANCH  14  16
HETATM   16  O   UNL     1     -11.448   9.099  71.425  1.00  0.00    -0.294 OA 
BRANCH  16  17
HETATM   17  C   UNL     1     -12.773   9.602  71.161  1.00  0.00    -0.320 C  
HETATM   18  C   UNL     1     -13.725   9.145  72.261  1.00  0.00    -0.548 C  
HETATM   19  C   UNL     1     -12.685  11.121  71.118  1.00  0.00    -0.510 C  
ENDBRANCH  16  17
ENDBRANCH  14  16
ENDBRANCH  13  14
ENDBRANCH  12  13
ENDBRANCH  11  12
ENDBRANCH  10  11
ENDBRANCH   9  10
ENDBRANCH   8   9
ENDBRANCH   7   8
ENDBRANCH   6   7
ENDBRANCH   5   6
ENDBRANCH   4   5
ENDBRANCH   3   4
ENDBRANCH   2   3
TORSDOF 14
ENDMDL
MODEL      143
REMARK 921   NORMALIZED FREE ENERGY PREDICTED BY IDOCK:   -3.66 KCAL/MOL
REMARK 922        TOTAL FREE ENERGY PREDICTED BY IDOCK:   -8.22 KCAL/MOL
REMARK 923 INTER-LIGAND FREE ENERGY PREDICTED BY IDOCK:   -6.64 KCAL/MOL
REMARK 924 INTRA-LIGAND FREE ENERGY PREDICTED BY IDOCK:   -1.58 KCAL/MOL
REMARK 927      BINDING AFFINITY PREDICTED BY RF-SCORE:    0.00 PKD
ROOT
HETATM    1  C   UNL     1     -12.789  15.292  73.446  1.00  0.00    -0.667 C  
HETATM    2  C   UNL     1     -13.769  14.748  72.420  1.00  0.00    -0.576 C  
ENDROOT
BRANCH   2   3
HETATM    3  C   UNL     1     -13.104  13.714  71.514  1.00  0.00    -0.431 C  
BRANCH   3   4
HETATM    4  C   UNL     1     -13.321  12.296  72.039  1.00  0.00    -0.491 C  
BRANCH   4   5
HETATM    5  C   UNL     1     -12.466  11.292  71.267  1.00  0.00    -0.441 C  
BRANCH   5   6
HETATM    6  C   UNL     1     -13.246  10.014  70.968  1.00  0.00    -0.399 C  
BRANCH   6   7
HETATM    7  C   UNL     1     -13.041   8.981  72.075  1.00  0.00    -0.474 C  
BRANCH   7   8
HETATM    8  C   UNL     1     -13.086   7.561  71.517  1.00  0.00    -0.402 C  
BRANCH   8   9
HETATM    9  C   UNL     1     -11.921   6.727  72.048  1.00  0.00    -0.355 C  
BRANCH   9  10
HETATM   10  C   UNL     1     -11.047   7.555  72.984  1.00  0.00    -0.413 C  
BRANCH  10  11
HETATM   11  C   UNL     1      -9.566   7.211  72.831  1.00  0.00    -0.188 C  
BRANCH  11  12
HETATM   12  C   UNL     1      -9.037   7.764  71.511  1.00  0.00    -0.158 C  
BRANCH  12  13
HETATM   13  C   UNL     1      -9.537   9.178  71.226  1.00  0.00    -0.331 C  
BRANCH  13  14
HETATM   14  C   UNL     1      -9.237   9.561  69.796  1.00  0.00    -0.208 C  
HETATM   15  O   UNL     1      -8.210  10.106  69.415  1.00  0.00    -0.140 OA 
BRANCH  14  16
HETATM   16  O   UNL     1     -10.279   9.212  68.991  1.00  0.00    -0.195 OA 
BRANCH  16  17
HETATM   17  C   UNL     1      -9.994   8.169  68.039  1.00  0.00    -0.184 C  
HETATM   18  C   UNL     1     -10.880   6.960  68.321  1.00  0.00    -0.244 C  
HETATM   19  C   UNL     1     -10.269   8.729  66.651  1.00  0.00    -0.340 C  
ENDBRANCH  16  17
ENDBRANCH  14  16
ENDBRANCH  13  14
ENDBRANCH  12  13
ENDBRANCH  11  12
ENDBRANCH  10  11
ENDBRANCH   9  10
ENDBRANCH   8   9
ENDBRANCH   7   8
ENDBRANCH   6   7
ENDBRANCH   5   6
ENDBRANCH   4   5
ENDBRANCH   3   4
ENDBRANCH   2   3
TORSDOF 14
ENDMDL
MODEL      144
REMARK 921   NORMALIZED FREE ENERGY PREDICTED BY IDOCK:   -3.65 KCAL/MOL
REMARK 922        TOTAL FREE ENERGY PREDICTED BY IDOCK:   -8.20 KCAL/MOL
REMARK 923 INTER-LIGAND FREE ENERGY PREDICTED BY IDOCK:   -7.32 KCAL/MOL
REMARK 924 INTRA-LIGAND FREE ENERGY PREDICTED BY IDOCK:   -0.88 KCAL/MOL
REMARK 927      BINDING AFFINITY PREDICTED BY RF-SCORE:    0.00 PKD
ROOT
HETATM    1  C   UNL     1     -12.336   6.949  71.157  1.00  0.00    -0.419 C  
HETATM    2  C   UNL     1     -12.111   8.292  71.833  1.00  0.00    -0.382 C  
ENDROOT
BRANCH   2   3
HETATM    3  C   UNL     1     -13.389   9.127  71.844  1.00  0.00    -0.490 C  
BRANCH   3   4
HETATM    4  C   UNL     1     -13.092  10.600  71.564  1.00  0.00    -0.527 C  
BRANCH   4   5
HETATM    5  C   UNL     1     -11.800  10.752  70.763  1.00  0.00    -0.443 C  
BRANCH   5   6
HETATM    6  C   UNL     1     -12.014  11.625  69.528  1.00  0.00    -0.383 C  
BRANCH   6   7
HETATM    7  C   UNL     1     -11.537  10.907  68.267  1.00  0.00    -0.335 C  
BRANCH   7   8
HETATM    8  C   UNL     1     -11.241  11.901  67.147  1.00  0.00    -0.377 C  
BRANCH   8   9
HETATM    9  C   UNL     1     -10.902  13.278  67.713  1.00  0.00    -0.268 C  
BRANCH   9  10
HETATM   10  C   UNL     1      -9.681  13.865  67.012  1.00  0.00    -0.250 C  
BRANCH  10  11
HETATM   11  C   UNL     1     -10.039  14.458  65.650  1.00  0.00    -0.377 C  
BRANCH  11  12
HETATM   12  C   UNL     1      -9.925  15.978  65.698  1.00  0.00    -0.346 C  
BRANCH  12  13
HETATM   13  C   UNL     1      -9.152  16.470  66.920  1.00  0.00    -0.241 C  
BRANCH  13  14
HETATM   14  C   UNL     1      -8.375  17.719  66.580  1.00  0.00    -0.259 C  
HETATM   15  O   UNL     1      -7.554  17.813  65.678  1.00  0.00    -0.541 OA 
BRANCH  14  16
HETATM   16  O   UNL     1      -8.720  18.728  67.429  1.00  0.00    -0.270 OA 
BRANCH  16  17
HETATM   17  C   UNL     1     -10.124  19.052  67.454  1.00  0.00    -0.370 C  
HETATM   18  C   UNL     1     -10.400  20.057  68.568  1.00  0.00    -0.425 C  
HETATM   19  C   UNL     1     -10.483  19.638  66.095  1.00  0.00    -0.624 C  
ENDBRANCH  16  17
ENDBRANCH  14  16
ENDBRANCH  13  14
ENDBRANCH  12  13
ENDBRANCH  11  12
ENDBRANCH  10  11
ENDBRANCH   9  10
ENDBRANCH   8   9
ENDBRANCH   7   8
ENDBRANCH   6   7
ENDBRANCH   5   6
ENDBRANCH   4   5
ENDBRANCH   3   4
ENDBRANCH   2   3
TORSDOF 14
ENDMDL
MODEL      145
REMARK 921   NORMALIZED FREE ENERGY PREDICTED BY IDOCK:   -3.64 KCAL/MOL
REMARK 922        TOTAL FREE ENERGY PREDICTED BY IDOCK:   -8.18 KCAL/MOL
REMARK 923 INTER-LIGAND FREE ENERGY PREDICTED BY IDOCK:   -6.95 KCAL/MOL
REMARK 924 INTRA-LIGAND FREE ENERGY PREDICTED BY IDOCK:   -1.23 KCAL/MOL
REMARK 927      BINDING AFFINITY PREDICTED BY RF-SCORE:    0.00 PKD
ROOT
HETATM    1  C   UNL     1     -10.906   7.174  72.628  1.00  0.00    -0.315 C  
HETATM    2  C   UNL     1     -11.963   8.190  72.227  1.00  0.00    -0.434 C  
ENDROOT
BRANCH   2   3
HETATM    3  C   UNL     1     -11.335   9.394  71.528  1.00  0.00    -0.464 C  
BRANCH   3   4
HETATM    4  C   UNL     1     -12.396  10.421  71.133  1.00  0.00    -0.505 C  
BRANCH   4   5
HETATM    5  C   UNL     1     -12.220  10.852  69.677  1.00  0.00    -0.354 C  
BRANCH   5   6
HETATM    6  C   UNL     1     -11.467  12.177  69.579  1.00  0.00    -0.334 C  
BRANCH   6   7
HETATM    7  C   UNL     1     -11.861  12.932  68.311  1.00  0.00    -0.372 C  
BRANCH   7   8
HETATM    8  C   UNL     1     -12.101  14.411  68.604  1.00  0.00    -0.274 C  
BRANCH   8   9
HETATM    9  C   UNL     1     -12.187  14.664  70.109  1.00  0.00    -0.391 C  
BRANCH   9  10
HETATM   10  C   UNL     1     -11.316  15.851  70.507  1.00  0.00    -0.409 C  
BRANCH  10  11
HETATM   11  C   UNL     1     -10.141  16.040  69.549  1.00  0.00    -0.266 C  
BRANCH  11  12
HETATM   12  C   UNL     1     -10.226  17.410  68.884  1.00  0.00    -0.352 C  
BRANCH  12  13
HETATM   13  C   UNL     1      -9.290  17.538  67.685  1.00  0.00    -0.244 C  
BRANCH  13  14
HETATM   14  C   UNL     1     -10.068  17.941  66.454  1.00  0.00    -0.369 C  
HETATM   15  O   UNL     1     -10.764  18.943  66.360  1.00  0.00    -0.392 OA 
BRANCH  14  16
HETATM   16  O   UNL     1      -9.883  17.023  65.464  1.00  0.00    -0.551 OA 
BRANCH  16  17
HETATM   17  C   UNL     1     -10.700  15.841  65.566  1.00  0.00    -0.383 C  
HETATM   18  C   UNL     1     -11.613  15.741  64.348  1.00  0.00    -0.240 C  
HETATM   19  C   UNL     1      -9.764  14.643  65.640  1.00  0.00    -0.302 C  
ENDBRANCH  16  17
ENDBRANCH  14  16
ENDBRANCH  13  14
ENDBRANCH  12  13
ENDBRANCH  11  12
ENDBRANCH  10  11
ENDBRANCH   9  10
ENDBRANCH   8   9
ENDBRANCH   7   8
ENDBRANCH   6   7
ENDBRANCH   5   6
ENDBRANCH   4   5
ENDBRANCH   3   4
ENDBRANCH   2   3
TORSDOF 14
ENDMDL
MODEL      146
REMARK 921   NORMALIZED FREE ENERGY PREDICTED BY IDOCK:   -3.63 KCAL/MOL
REMARK 922        TOTAL FREE ENERGY PREDICTED BY IDOCK:   -8.17 KCAL/MOL
REMARK 923 INTER-LIGAND FREE ENERGY PREDICTED BY IDOCK:   -6.58 KCAL/MOL
REMARK 924 INTRA-LIGAND FREE ENERGY PREDICTED BY IDOCK:   -1.59 KCAL/MOL
REMARK 927      BINDING AFFINITY PREDICTED BY RF-SCORE:    0.00 PKD
ROOT
HETATM    1  C   UNL     1     -10.164   5.578  73.904  1.00  0.00    -0.259 C  
HETATM    2  C   UNL     1     -10.824   4.358  73.283  1.00  0.00    -0.336 C  
ENDROOT
BRANCH   2   3
HETATM    3  C   UNL     1     -10.129   3.954  71.984  1.00  0.00    -0.220 C  
BRANCH   3   4
HETATM    4  C   UNL     1      -9.575   5.175  71.250  1.00  0.00    -0.218 C  
BRANCH   4   5
HETATM    5  C   UNL     1     -10.099   5.233  69.817  1.00  0.00    -0.334 C  
BRANCH   5   6
HETATM    6  C   UNL     1     -11.337   6.121  69.715  1.00  0.00    -0.452 C  
BRANCH   6   7
HETATM    7  C   UNL     1     -11.347   7.167  70.829  1.00  0.00    -0.322 C  
BRANCH   7   8
HETATM    8  C   UNL     1     -12.669   7.147  71.591  1.00  0.00    -0.415 C  
BRANCH   8   9
HETATM    9  C   UNL     1     -12.989   8.524  72.169  1.00  0.00    -0.403 C  
BRANCH   9  10
HETATM   10  C   UNL     1     -11.992   9.564  71.669  1.00  0.00    -0.474 C  
BRANCH  10  11
HETATM   11  C   UNL     1     -12.670  10.899  71.361  1.00  0.00    -0.539 C  
BRANCH  11  12
HETATM   12  C   UNL     1     -12.459  11.265  69.896  1.00  0.00    -0.220 C  
BRANCH  12  13
HETATM   13  C   UNL     1     -11.408  10.390  69.218  1.00  0.00    -0.296 C  
BRANCH  13  14
HETATM   14  C   UNL     1     -10.702  11.165  68.131  1.00  0.00    -0.204 C  
HETATM   15  O   UNL     1      -9.561  11.600  68.207  1.00  0.00    -0.187 OA 
BRANCH  14  16
HETATM   16  O   UNL     1     -11.524  11.311  67.054  1.00  0.00    -0.455 OA 
BRANCH  16  17
HETATM   17  C   UNL     1     -11.315  12.511  66.284  1.00  0.00    -0.338 C  
HETATM   18  C   UNL     1     -11.979  12.369  64.919  1.00  0.00    -0.458 C  
HETATM   19  C   UNL     1     -11.924  13.668  67.065  1.00  0.00    -0.448 C  
ENDBRANCH  16  17
ENDBRANCH  14  16
ENDBRANCH  13  14
ENDBRANCH  12  13
ENDBRANCH  11  12
ENDBRANCH  10  11
ENDBRANCH   9  10
ENDBRANCH   8   9
ENDBRANCH   7   8
ENDBRANCH   6   7
ENDBRANCH   5   6
ENDBRANCH   4   5
ENDBRANCH   3   4
ENDBRANCH   2   3
TORSDOF 14
ENDMDL
MODEL      147
REMARK 921   NORMALIZED FREE ENERGY PREDICTED BY IDOCK:   -3.63 KCAL/MOL
REMARK 922        TOTAL FREE ENERGY PREDICTED BY IDOCK:   -8.17 KCAL/MOL
REMARK 923 INTER-LIGAND FREE ENERGY PREDICTED BY IDOCK:   -6.96 KCAL/MOL
REMARK 924 INTRA-LIGAND FREE ENERGY PREDICTED BY IDOCK:   -1.21 KCAL/MOL
REMARK 927      BINDING AFFINITY PREDICTED BY RF-SCORE:    0.00 PKD
ROOT
HETATM    1  C   UNL     1     -12.680  11.870  63.494  1.00  0.00    -0.530 C  
HETATM    2  C   UNL     1     -11.418  12.711  63.599  1.00  0.00    -0.563 C  
ENDROOT
BRANCH   2   3
HETATM    3  C   UNL     1     -11.694  14.037  64.303  1.00  0.00    -0.388 C  
BRANCH   3   4
HETATM    4  C   UNL     1     -12.760  13.879  65.386  1.00  0.00    -0.525 C  
BRANCH   4   5
HETATM    5  C   UNL     1     -12.133  13.920  66.778  1.00  0.00    -0.476 C  
BRANCH   5   6
HETATM    6  C   UNL     1     -10.682  14.394  66.718  1.00  0.00    -0.292 C  
BRANCH   6   7
HETATM    7  C   UNL     1     -10.564  15.838  67.202  1.00  0.00    -0.313 C  
BRANCH   7   8
HETATM    8  C   UNL     1      -9.974  15.900  68.609  1.00  0.00    -0.214 C  
BRANCH   8   9
HETATM    9  C   UNL     1     -11.039  16.291  69.632  1.00  0.00    -0.333 C  
BRANCH   9  10
HETATM   10  C   UNL     1     -10.937  15.418  70.878  1.00  0.00    -0.330 C  
BRANCH  10  11
HETATM   11  C   UNL     1     -12.315  15.020  71.407  1.00  0.00    -0.395 C  
BRANCH  11  12
HETATM   12  C   UNL     1     -12.871  13.859  70.590  1.00  0.00    -0.291 C  
BRANCH  12  13
HETATM   13  C   UNL     1     -12.780  12.526  71.328  1.00  0.00    -0.350 C  
BRANCH  13  14
HETATM   14  C   UNL     1     -12.111  11.489  70.457  1.00  0.00    -0.378 C  
HETATM   15  O   UNL     1     -11.271  11.727  69.600  1.00  0.00    -0.232 OA 
BRANCH  14  16
HETATM   16  O   UNL     1     -12.582  10.248  70.765  1.00  0.00    -0.325 OA 
BRANCH  16  17
HETATM   17  C   UNL     1     -11.623   9.364  71.376  1.00  0.00    -0.381 C  
HETATM   18  C   UNL     1     -12.312   8.511  72.436  1.00  0.00    -0.424 C  
HETATM   19  C   UNL     1     -11.038   8.491  70.274  1.00  0.00    -0.222 C  
ENDBRANCH  16  17
ENDBRANCH  14  16
ENDBRANCH  13  14
ENDBRANCH  12  13
ENDBRANCH  11  12
ENDBRANCH  10  11
ENDBRANCH   9  10
ENDBRANCH   8   9
ENDBRANCH   7   8
ENDBRANCH   6   7
ENDBRANCH   5   6
ENDBRANCH   4   5
ENDBRANCH   3   4
ENDBRANCH   2   3
TORSDOF 14
ENDMDL
MODEL      148
REMARK 921   NORMALIZED FREE ENERGY PREDICTED BY IDOCK:   -3.63 KCAL/MOL
REMARK 922        TOTAL FREE ENERGY PREDICTED BY IDOCK:   -8.16 KCAL/MOL
REMARK 923 INTER-LIGAND FREE ENERGY PREDICTED BY IDOCK:   -6.43 KCAL/MOL
REMARK 924 INTRA-LIGAND FREE ENERGY PREDICTED BY IDOCK:   -1.73 KCAL/MOL
REMARK 927      BINDING AFFINITY PREDICTED BY RF-SCORE:    0.00 PKD
ROOT
HETATM    1  C   UNL     1     -11.165  16.298  69.432  1.00  0.00    -0.311 C  
HETATM    2  C   UNL     1     -11.212  15.091  70.354  1.00  0.00    -0.290 C  
ENDROOT
BRANCH   2   3
HETATM    3  C   UNL     1     -12.578  14.410  70.304  1.00  0.00    -0.380 C  
BRANCH   3   4
HETATM    4  C   UNL     1     -13.239  14.391  71.682  1.00  0.00    -0.425 C  
BRANCH   4   5
HETATM    5  C   UNL     1     -13.649  12.972  72.070  1.00  0.00    -0.530 C  
BRANCH   5   6
HETATM    6  C   UNL     1     -12.833  11.931  71.307  1.00  0.00    -0.391 C  
BRANCH   6   7
HETATM    7  C   UNL     1     -13.218  10.517  71.738  1.00  0.00    -0.522 C  
BRANCH   7   8
HETATM    8  C   UNL     1     -12.400   9.471  70.986  1.00  0.00    -0.363 C  
BRANCH   8   9
HETATM    9  C   UNL     1     -10.907   9.638  71.266  1.00  0.00    -0.366 C  
BRANCH   9  10
HETATM   10  C   UNL     1     -10.132   9.831  69.967  1.00  0.00    -0.301 C  
BRANCH  10  11
HETATM   11  C   UNL     1     -11.045   9.748  68.744  1.00  0.00    -0.140 C  
BRANCH  11  12
HETATM   12  C   UNL     1     -11.241  11.137  68.145  1.00  0.00    -0.356 C  
BRANCH  12  13
HETATM   13  C   UNL     1     -10.137  12.111  68.550  1.00  0.00    -0.192 C  
BRANCH  13  14
HETATM   14  C   UNL     1      -9.844  13.070  67.421  1.00  0.00    -0.215 C  
HETATM   15  O   UNL     1      -8.832  13.750  67.321  1.00  0.00    -0.200 OA 
BRANCH  14  16
HETATM   16  O   UNL     1     -10.874  13.068  66.529  1.00  0.00    -0.275 OA 
BRANCH  16  17
HETATM   17  C   UNL     1     -10.531  13.503  65.198  1.00  0.00    -0.364 C  
HETATM   18  C   UNL     1     -10.306  12.289  64.303  1.00  0.00    -0.375 C  
HETATM   19  C   UNL     1     -11.687  14.350  64.682  1.00  0.00    -0.438 C  
ENDBRANCH  16  17
ENDBRANCH  14  16
ENDBRANCH  13  14
ENDBRANCH  12  13
ENDBRANCH  11  12
ENDBRANCH  10  11
ENDBRANCH   9  10
ENDBRANCH   8   9
ENDBRANCH   7   8
ENDBRANCH   6   7
ENDBRANCH   5   6
ENDBRANCH   4   5
ENDBRANCH   3   4
ENDBRANCH   2   3
TORSDOF 14
ENDMDL
MODEL      149
REMARK 921   NORMALIZED FREE ENERGY PREDICTED BY IDOCK:   -3.62 KCAL/MOL
REMARK 922        TOTAL FREE ENERGY PREDICTED BY IDOCK:   -8.16 KCAL/MOL
REMARK 923 INTER-LIGAND FREE ENERGY PREDICTED BY IDOCK:   -6.77 KCAL/MOL
REMARK 924 INTRA-LIGAND FREE ENERGY PREDICTED BY IDOCK:   -1.39 KCAL/MOL
REMARK 927      BINDING AFFINITY PREDICTED BY RF-SCORE:    0.00 PKD
ROOT
HETATM    1  C   UNL     1     -12.303  16.341  73.430  1.00  0.00    -0.631 C  
HETATM    2  C   UNL     1     -11.776  15.203  72.571  1.00  0.00    -0.475 C  
ENDROOT
BRANCH   2   3
HETATM    3  C   UNL     1     -11.576  15.648  71.124  1.00  0.00    -0.462 C  
BRANCH   3   4
HETATM    4  C   UNL     1     -12.609  15.006  70.199  1.00  0.00    -0.312 C  
BRANCH   4   5
HETATM    5  C   UNL     1     -11.963  14.557  68.889  1.00  0.00    -0.326 C  
BRANCH   5   6
HETATM    6  C   UNL     1     -11.696  13.054  68.890  1.00  0.00    -0.371 C  
BRANCH   6   7
HETATM    7  C   UNL     1     -11.727  12.496  67.468  1.00  0.00    -0.439 C  
BRANCH   7   8
HETATM    8  C   UNL     1     -11.948  13.609  66.447  1.00  0.00    -0.466 C  
BRANCH   8   9
HETATM    9  C   UNL     1     -10.710  13.801  65.571  1.00  0.00    -0.304 C  
BRANCH   9  10
HETATM   10  C   UNL     1     -10.707  15.188  64.937  1.00  0.00    -0.421 C  
BRANCH  10  11
HETATM   11  C   UNL     1     -10.210  16.256  65.911  1.00  0.00    -0.384 C  
BRANCH  11  12
HETATM   12  C   UNL     1      -9.055  15.706  66.742  1.00  0.00    -0.281 C  
BRANCH  12  13
HETATM   13  C   UNL     1      -7.800  16.569  66.644  1.00  0.00    -0.321 C  
BRANCH  13  14
HETATM   14  C   UNL     1      -7.070  16.586  67.966  1.00  0.00    -0.143 C  
HETATM   15  O   UNL     1      -6.131  15.859  68.260  1.00  0.00    -0.100 OA 
BRANCH  14  16
HETATM   16  O   UNL     1      -7.614  17.529  68.786  1.00  0.00    -0.261 OA 
BRANCH  16  17
HETATM   17  C   UNL     1      -7.994  18.758  68.138  1.00  0.00    -0.290 C  
HETATM   18  C   UNL     1      -9.361  19.205  68.644  1.00  0.00    -0.439 C  
HETATM   19  C   UNL     1      -6.930  19.796  68.465  1.00  0.00    -0.345 C  
ENDBRANCH  16  17
ENDBRANCH  14  16
ENDBRANCH  13  14
ENDBRANCH  12  13
ENDBRANCH  11  12
ENDBRANCH  10  11
ENDBRANCH   9  10
ENDBRANCH   8   9
ENDBRANCH   7   8
ENDBRANCH   6   7
ENDBRANCH   5   6
ENDBRANCH   4   5
ENDBRANCH   3   4
ENDBRANCH   2   3
TORSDOF 14
ENDMDL
MODEL      150
REMARK 921   NORMALIZED FREE ENERGY PREDICTED BY IDOCK:   -3.62 KCAL/MOL
REMARK 922        TOTAL FREE ENERGY PREDICTED BY IDOCK:   -8.15 KCAL/MOL
REMARK 923 INTER-LIGAND FREE ENERGY PREDICTED BY IDOCK:   -7.12 KCAL/MOL
REMARK 924 INTRA-LIGAND FREE ENERGY PREDICTED BY IDOCK:   -1.03 KCAL/MOL
REMARK 927      BINDING AFFINITY PREDICTED BY RF-SCORE:    0.00 PKD
ROOT
HETATM    1  C   UNL     1     -10.024   9.878  70.149  1.00  0.00    -0.291 C  
HETATM    2  C   UNL     1     -10.025   8.891  71.304  1.00  0.00    -0.358 C  
ENDROOT
BRANCH   2   3
HETATM    3  C   UNL     1     -11.436   8.388  71.601  1.00  0.00    -0.349 C  
BRANCH   3   4
HETATM    4  C   UNL     1     -11.550   6.883  71.363  1.00  0.00    -0.340 C  
BRANCH   4   5
HETATM    5  C   UNL     1     -11.574   6.568  69.868  1.00  0.00    -0.433 C  
BRANCH   5   6
HETATM    6  C   UNL     1     -10.416   5.653  69.477  1.00  0.00    -0.372 C  
BRANCH   6   7
HETATM    7  C   UNL     1      -9.667   6.212  68.268  1.00  0.00    -0.129 C  
BRANCH   7   8
HETATM    8  C   UNL     1     -10.486   7.292  67.566  1.00  0.00    -0.337 C  
BRANCH   8   9
HETATM    9  C   UNL     1      -9.592   8.182  66.703  1.00  0.00    -0.295 C  
BRANCH   9  10
HETATM   10  C   UNL     1     -10.256   9.532  66.453  1.00  0.00    -0.302 C  
BRANCH  10  11
HETATM   11  C   UNL     1      -9.456  10.385  65.469  1.00  0.00    -0.267 C  
BRANCH  11  12
HETATM   12  C   UNL     1     -10.116  10.352  64.094  1.00  0.00    -0.262 C  
BRANCH  12  13
HETATM   13  C   UNL     1     -10.456  11.747  63.575  1.00  0.00    -0.500 C  
BRANCH  13  14
HETATM   14  C   UNL     1     -11.857  12.132  63.988  1.00  0.00    -0.434 C  
HETATM   15  O   UNL     1     -12.838  12.099  63.258  1.00  0.00    -0.735 OA 
BRANCH  14  16
HETATM   16  O   UNL     1     -11.867  12.525  65.292  1.00  0.00    -0.374 OA 
BRANCH  16  17
HETATM   17  C   UNL     1     -12.554  13.765  65.553  1.00  0.00    -0.512 C  
HETATM   18  C   UNL     1     -12.280  14.214  66.984  1.00  0.00    -0.374 C  
HETATM   19  C   UNL     1     -12.039  14.792  64.554  1.00  0.00    -0.460 C  
ENDBRANCH  16  17
ENDBRANCH  14  16
ENDBRANCH  13  14
ENDBRANCH  12  13
ENDBRANCH  11  12
ENDBRANCH  10  11
ENDBRANCH   9  10
ENDBRANCH   8   9
ENDBRANCH   7   8
ENDBRANCH   6   7
ENDBRANCH   5   6
ENDBRANCH   4   5
ENDBRANCH   3   4
ENDBRANCH   2   3
TORSDOF 14
ENDMDL
MODEL      151
REMARK 921   NORMALIZED FREE ENERGY PREDICTED BY IDOCK:   -3.62 KCAL/MOL
REMARK 922        TOTAL FREE ENERGY PREDICTED BY IDOCK:   -8.15 KCAL/MOL
REMARK 923 INTER-LIGAND FREE ENERGY PREDICTED BY IDOCK:   -6.54 KCAL/MOL
REMARK 924 INTRA-LIGAND FREE ENERGY PREDICTED BY IDOCK:   -1.61 KCAL/MOL
REMARK 927      BINDING AFFINITY PREDICTED BY RF-SCORE:    0.00 PKD
ROOT
HETATM    1  C   UNL     1      -6.594  17.335  67.261  1.00  0.00    -0.188 C  
HETATM    2  C   UNL     1      -6.394  18.044  68.591  1.00  0.00    -0.211 C  
ENDROOT
BRANCH   2   3
HETATM    3  C   UNL     1      -7.454  19.121  68.808  1.00  0.00    -0.379 C  
BRANCH   3   4
HETATM    4  C   UNL     1      -7.369  20.206  67.735  1.00  0.00    -0.333 C  
BRANCH   4   5
HETATM    5  C   UNL     1      -8.741  20.467  67.115  1.00  0.00    -0.375 C  
BRANCH   5   6
HETATM    6  C   UNL     1      -9.859  19.887  67.980  1.00  0.00    -0.534 C  
BRANCH   6   7
HETATM    7  C   UNL     1     -10.812  19.041  67.137  1.00  0.00    -0.473 C  
BRANCH   7   8
HETATM    8  C   UNL     1     -10.457  17.559  67.225  1.00  0.00    -0.327 C  
BRANCH   8   9
HETATM    9  C   UNL     1     -10.284  16.954  65.833  1.00  0.00    -0.330 C  
BRANCH   9  10
HETATM   10  C   UNL     1      -9.510  15.643  65.907  1.00  0.00    -0.376 C  
BRANCH  10  11
HETATM   11  C   UNL     1     -10.404  14.438  65.615  1.00  0.00    -0.360 C  
BRANCH  11  12
HETATM   12  C   UNL     1     -10.546  13.579  66.867  1.00  0.00    -0.270 C  
BRANCH  12  13
HETATM   13  C   UNL     1     -11.948  13.648  67.469  1.00  0.00    -0.393 C  
BRANCH  13  14
HETATM   14  C   UNL     1     -11.870  13.676  68.977  1.00  0.00    -0.352 C  
HETATM   15  O   UNL     1     -12.324  14.562  69.688  1.00  0.00    -0.306 OA 
BRANCH  14  16
HETATM   16  O   UNL     1     -11.216  12.570  69.431  1.00  0.00    -0.225 OA 
BRANCH  16  17
HETATM   17  C   UNL     1     -11.977  11.347  69.384  1.00  0.00    -0.339 C  
HETATM   18  C   UNL     1     -11.106  10.219  68.842  1.00  0.00    -0.278 C  
HETATM   19  C   UNL     1     -12.438  11.041  70.802  1.00  0.00    -0.491 C  
ENDBRANCH  16  17
ENDBRANCH  14  16
ENDBRANCH  13  14
ENDBRANCH  12  13
ENDBRANCH  11  12
ENDBRANCH  10  11
ENDBRANCH   9  10
ENDBRANCH   8   9
ENDBRANCH   7   8
ENDBRANCH   6   7
ENDBRANCH   5   6
ENDBRANCH   4   5
ENDBRANCH   3   4
ENDBRANCH   2   3
TORSDOF 14
ENDMDL
MODEL      152
REMARK 921   NORMALIZED FREE ENERGY PREDICTED BY IDOCK:   -3.61 KCAL/MOL
REMARK 922        TOTAL FREE ENERGY PREDICTED BY IDOCK:   -8.14 KCAL/MOL
REMARK 923 INTER-LIGAND FREE ENERGY PREDICTED BY IDOCK:   -6.15 KCAL/MOL
REMARK 924 INTRA-LIGAND FREE ENERGY PREDICTED BY IDOCK:   -1.99 KCAL/MOL
REMARK 927      BINDING AFFINITY PREDICTED BY RF-SCORE:    0.00 PKD
ROOT
HETATM    1  C   UNL     1     -11.923  12.720  63.466  1.00  0.00    -0.633 C  
HETATM    2  C   UNL     1     -12.413  12.625  64.902  1.00  0.00    -0.564 C  
ENDROOT
BRANCH   2   3
HETATM    3  C   UNL     1     -11.311  12.116  65.829  1.00  0.00    -0.402 C  
BRANCH   3   4
HETATM    4  C   UNL     1     -11.809  11.995  67.268  1.00  0.00    -0.257 C  
BRANCH   4   5
HETATM    5  C   UNL     1     -11.179  10.788  67.963  1.00  0.00    -0.372 C  
BRANCH   5   6
HETATM    6  C   UNL     1     -10.224  11.224  69.072  1.00  0.00    -0.169 C  
BRANCH   6   7
HETATM    7  C   UNL     1      -8.890  10.490  68.958  1.00  0.00    -0.174 C  
BRANCH   7   8
HETATM    8  C   UNL     1      -7.933  11.230  68.027  1.00  0.00    -0.119 C  
BRANCH   8   9
HETATM    9  C   UNL     1      -7.907  12.724  68.344  1.00  0.00    -0.132 C  
BRANCH   9  10
HETATM   10  C   UNL     1      -8.228  13.546  67.100  1.00  0.00    -0.126 C  
BRANCH  10  11
HETATM   11  C   UNL     1      -8.547  14.999  67.446  1.00  0.00    -0.208 C  
BRANCH  11  12
HETATM   12  C   UNL     1      -9.893  15.081  68.160  1.00  0.00    -0.216 C  
BRANCH  12  13
HETATM   13  C   UNL     1     -11.031  15.473  67.221  1.00  0.00    -0.303 C  
BRANCH  13  14
HETATM   14  C   UNL     1     -10.660  16.706  66.433  1.00  0.00    -0.200 C  
HETATM   15  O   UNL     1     -10.420  16.729  65.233  1.00  0.00    -0.630 OA 
BRANCH  14  16
HETATM   16  O   UNL     1     -10.630  17.793  67.255  1.00  0.00    -0.362 OA 
BRANCH  16  17
HETATM   17  C   UNL     1      -9.517  18.685  67.049  1.00  0.00    -0.298 C  
HETATM   18  C   UNL     1     -10.021  20.017  66.504  1.00  0.00    -0.603 C  
HETATM   19  C   UNL     1      -8.828  18.875  68.393  1.00  0.00    -0.379 C  
ENDBRANCH  16  17
ENDBRANCH  14  16
ENDBRANCH  13  14
ENDBRANCH  12  13
ENDBRANCH  11  12
ENDBRANCH  10  11
ENDBRANCH   9  10
ENDBRANCH   8   9
ENDBRANCH   7   8
ENDBRANCH   6   7
ENDBRANCH   5   6
ENDBRANCH   4   5
ENDBRANCH   3   4
ENDBRANCH   2   3
TORSDOF 14
ENDMDL
MODEL      153
REMARK 921   NORMALIZED FREE ENERGY PREDICTED BY IDOCK:   -3.61 KCAL/MOL
REMARK 922        TOTAL FREE ENERGY PREDICTED BY IDOCK:   -8.13 KCAL/MOL
REMARK 923 INTER-LIGAND FREE ENERGY PREDICTED BY IDOCK:   -6.00 KCAL/MOL
REMARK 924 INTRA-LIGAND FREE ENERGY PREDICTED BY IDOCK:   -2.13 KCAL/MOL
REMARK 927      BINDING AFFINITY PREDICTED BY RF-SCORE:    0.00 PKD
ROOT
HETATM    1  C   UNL     1     -12.962  10.697  71.790  1.00  0.00    -0.577 C  
HETATM    2  C   UNL     1     -12.284  11.277  70.559  1.00  0.00    -0.474 C  
ENDROOT
BRANCH   2   3
HETATM    3  C   UNL     1     -11.649  10.178  69.709  1.00  0.00    -0.245 C  
BRANCH   3   4
HETATM    4  C   UNL     1     -10.189  10.498  69.391  1.00  0.00    -0.245 C  
BRANCH   4   5
HETATM    5  C   UNL     1      -9.266   9.390  69.894  1.00  0.00    -0.226 C  
BRANCH   5   6
HETATM    6  C   UNL     1     -10.058   8.141  70.276  1.00  0.00    -0.192 C  
BRANCH   6   7
HETATM    7  C   UNL     1      -9.721   6.979  69.344  1.00  0.00    -0.159 C  
BRANCH   7   8
HETATM    8  C   UNL     1     -10.902   6.639  68.439  1.00  0.00    -0.320 C  
BRANCH   8   9
HETATM    9  C   UNL     1     -10.525   6.792  66.966  1.00  0.00    -0.369 C  
BRANCH   9  10
HETATM   10  C   UNL     1      -9.105   7.330  66.825  1.00  0.00    -0.172 C  
BRANCH  10  11
HETATM   11  C   UNL     1      -9.012   8.414  65.752  1.00  0.00    -0.207 C  
BRANCH  11  12
HETATM   12  C   UNL     1     -10.030   9.514  66.033  1.00  0.00    -0.348 C  
BRANCH  12  13
HETATM   13  C   UNL     1      -9.460  10.912  65.805  1.00  0.00    -0.246 C  
BRANCH  13  14
HETATM   14  C   UNL     1     -10.329  11.681  64.838  1.00  0.00    -0.283 C  
HETATM   15  O   UNL     1     -10.665  11.287  63.730  1.00  0.00    -0.370 OA 
BRANCH  14  16
HETATM   16  O   UNL     1     -10.681  12.880  65.381  1.00  0.00    -0.276 OA 
BRANCH  16  17
HETATM   17  C   UNL     1     -11.930  12.882  66.100  1.00  0.00    -0.429 C  
HETATM   18  C   UNL     1     -11.696  13.343  67.535  1.00  0.00    -0.406 C  
HETATM   19  C   UNL     1     -12.874  13.830  65.374  1.00  0.00    -0.455 C  
ENDBRANCH  16  17
ENDBRANCH  14  16
ENDBRANCH  13  14
ENDBRANCH  12  13
ENDBRANCH  11  12
ENDBRANCH  10  11
ENDBRANCH   9  10
ENDBRANCH   8   9
ENDBRANCH   7   8
ENDBRANCH   6   7
ENDBRANCH   5   6
ENDBRANCH   4   5
ENDBRANCH   3   4
ENDBRANCH   2   3
TORSDOF 14
ENDMDL
MODEL      154
REMARK 921   NORMALIZED FREE ENERGY PREDICTED BY IDOCK:   -3.61 KCAL/MOL
REMARK 922        TOTAL FREE ENERGY PREDICTED BY IDOCK:   -8.12 KCAL/MOL
REMARK 923 INTER-LIGAND FREE ENERGY PREDICTED BY IDOCK:   -7.39 KCAL/MOL
REMARK 924 INTRA-LIGAND FREE ENERGY PREDICTED BY IDOCK:   -0.74 KCAL/MOL
REMARK 927      BINDING AFFINITY PREDICTED BY RF-SCORE:    0.00 PKD
ROOT
HETATM    1  C   UNL     1     -10.186   7.565  71.610  1.00  0.00    -0.209 C  
HETATM    2  C   UNL     1     -11.371   7.785  72.536  1.00  0.00    -0.429 C  
ENDROOT
BRANCH   2   3
HETATM    3  C   UNL     1     -12.485   8.557  71.833  1.00  0.00    -0.402 C  
BRANCH   3   4
HETATM    4  C   UNL     1     -12.051   9.985  71.509  1.00  0.00    -0.475 C  
BRANCH   4   5
HETATM    5  C   UNL     1     -13.258  10.919  71.440  1.00  0.00    -0.355 C  
BRANCH   5   6
HETATM    6  C   UNL     1     -12.823  12.381  71.358  1.00  0.00    -0.360 C  
BRANCH   6   7
HETATM    7  C   UNL     1     -13.598  13.234  72.361  1.00  0.00    -0.694 C  
BRANCH   7   8
HETATM    8  C   UNL     1     -12.887  14.560  72.620  1.00  0.00    -0.498 C  
BRANCH   8   9
HETATM    9  C   UNL     1     -12.966  15.472  71.396  1.00  0.00    -0.553 C  
BRANCH   9  10
HETATM   10  C   UNL     1     -11.570  15.806  70.881  1.00  0.00    -0.440 C  
BRANCH  10  11
HETATM   11  C   UNL     1     -11.496  15.734  69.356  1.00  0.00    -0.357 C  
BRANCH  11  12
HETATM   12  C   UNL     1     -10.262  16.480  68.858  1.00  0.00    -0.268 C  
BRANCH  12  13
HETATM   13  C   UNL     1     -10.611  17.804  68.184  1.00  0.00    -0.350 C  
BRANCH  13  14
HETATM   14  C   UNL     1      -9.853  17.946  66.885  1.00  0.00    -0.321 C  
HETATM   15  O   UNL     1     -10.360  17.931  65.771  1.00  0.00    -0.577 OA 
BRANCH  14  16
HETATM   16  O   UNL     1      -8.522  18.092  67.135  1.00  0.00    -0.227 OA 
BRANCH  16  17
HETATM   17  C   UNL     1      -7.650  17.362  66.250  1.00  0.00    -0.313 C  
HETATM   18  C   UNL     1      -6.517  18.269  65.781  1.00  0.00    -0.310 C  
HETATM   19  C   UNL     1      -7.104  16.170  67.025  1.00  0.00    -0.248 C  
ENDBRANCH  16  17
ENDBRANCH  14  16
ENDBRANCH  13  14
ENDBRANCH  12  13
ENDBRANCH  11  12
ENDBRANCH  10  11
ENDBRANCH   9  10
ENDBRANCH   8   9
ENDBRANCH   7   8
ENDBRANCH   6   7
ENDBRANCH   5   6
ENDBRANCH   4   5
ENDBRANCH   3   4
ENDBRANCH   2   3
TORSDOF 14
ENDMDL
MODEL      155
REMARK 921   NORMALIZED FREE ENERGY PREDICTED BY IDOCK:   -3.59 KCAL/MOL
REMARK 922        TOTAL FREE ENERGY PREDICTED BY IDOCK:   -8.10 KCAL/MOL
REMARK 923 INTER-LIGAND FREE ENERGY PREDICTED BY IDOCK:   -6.39 KCAL/MOL
REMARK 924 INTRA-LIGAND FREE ENERGY PREDICTED BY IDOCK:   -1.71 KCAL/MOL
REMARK 927      BINDING AFFINITY PREDICTED BY RF-SCORE:    0.00 PKD
ROOT
HETATM    1  C   UNL     1     -14.177  13.909  72.296  1.00  0.00    -0.584 C  
HETATM    2  C   UNL     1     -13.471  12.569  72.161  1.00  0.00    -0.523 C  
ENDROOT
BRANCH   2   3
HETATM    3  C   UNL     1     -12.519  12.564  70.967  1.00  0.00    -0.353 C  
BRANCH   3   4
HETATM    4  C   UNL     1     -12.074  11.145  70.619  1.00  0.00    -0.477 C  
BRANCH   4   5
HETATM    5  C   UNL     1     -12.715  10.126  71.561  1.00  0.00    -0.541 C  
BRANCH   5   6
HETATM    6  C   UNL     1     -11.691   9.106  72.053  1.00  0.00    -0.384 C  
BRANCH   6   7
HETATM    7  C   UNL     1     -12.194   7.681  71.829  1.00  0.00    -0.341 C  
BRANCH   7   8
HETATM    8  C   UNL     1     -11.138   6.655  72.232  1.00  0.00    -0.292 C  
BRANCH   8   9
HETATM    9  C   UNL     1     -10.494   6.020  71.000  1.00  0.00    -0.285 C  
BRANCH   9  10
HETATM   10  C   UNL     1     -11.272   6.381  69.739  1.00  0.00    -0.484 C  
BRANCH  10  11
HETATM   11  C   UNL     1     -10.357   6.934  68.647  1.00  0.00    -0.200 C  
BRANCH  11  12
HETATM   12  C   UNL     1     -10.180   8.438  68.826  1.00  0.00    -0.223 C  
BRANCH  12  13
HETATM   13  C   UNL     1     -10.502   9.221  67.556  1.00  0.00    -0.338 C  
BRANCH  13  14
HETATM   14  C   UNL     1      -9.374  10.169  67.225  1.00  0.00    -0.152 C  
HETATM   15  O   UNL     1      -8.188   9.951  67.433  1.00  0.00    -0.117 OA 
BRANCH  14  16
HETATM   16  O   UNL     1      -9.870  11.306  66.662  1.00  0.00    -0.198 OA 
BRANCH  16  17
HETATM   17  C   UNL     1     -10.588  12.172  67.563  1.00  0.00    -0.214 C  
HETATM   18  C   UNL     1      -9.641  13.223  68.130  1.00  0.00    -0.227 C  
HETATM   19  C   UNL     1     -11.712  12.827  66.770  1.00  0.00    -0.459 C  
ENDBRANCH  16  17
ENDBRANCH  14  16
ENDBRANCH  13  14
ENDBRANCH  12  13
ENDBRANCH  11  12
ENDBRANCH  10  11
ENDBRANCH   9  10
ENDBRANCH   8   9
ENDBRANCH   7   8
ENDBRANCH   6   7
ENDBRANCH   5   6
ENDBRANCH   4   5
ENDBRANCH   3   4
ENDBRANCH   2   3
TORSDOF 14
ENDMDL
MODEL      156
REMARK 921   NORMALIZED FREE ENERGY PREDICTED BY IDOCK:   -3.59 KCAL/MOL
REMARK 922        TOTAL FREE ENERGY PREDICTED BY IDOCK:   -8.10 KCAL/MOL
REMARK 923 INTER-LIGAND FREE ENERGY PREDICTED BY IDOCK:   -6.05 KCAL/MOL
REMARK 924 INTRA-LIGAND FREE ENERGY PREDICTED BY IDOCK:   -2.05 KCAL/MOL
REMARK 927      BINDING AFFINITY PREDICTED BY RF-SCORE:    0.00 PKD
ROOT
HETATM    1  C   UNL     1     -10.397  19.619  68.499  1.00  0.00    -0.459 C  
HETATM    2  C   UNL     1     -10.742  19.435  67.030  1.00  0.00    -0.582 C  
ENDROOT
BRANCH   2   3
HETATM    3  C   UNL     1      -9.556  19.787  66.135  1.00  0.00    -0.484 C  
BRANCH   3   4
HETATM    4  C   UNL     1      -8.368  20.282  66.959  1.00  0.00    -0.373 C  
BRANCH   4   5
HETATM    5  C   UNL     1      -7.080  20.237  66.139  1.00  0.00    -0.295 C  
BRANCH   5   6
HETATM    6  C   UNL     1      -6.786  18.821  65.647  1.00  0.00    -0.311 C  
BRANCH   6   7
HETATM    7  C   UNL     1      -6.052  18.017  66.719  1.00  0.00    -0.190 C  
BRANCH   7   8
HETATM    8  C   UNL     1      -6.802  16.729  67.050  1.00  0.00    -0.246 C  
BRANCH   8   9
HETATM    9  C   UNL     1      -8.099  16.630  66.248  1.00  0.00    -0.361 C  
BRANCH   9  10
HETATM   10  C   UNL     1      -9.105  15.729  66.957  1.00  0.00    -0.240 C  
BRANCH  10  11
HETATM   11  C   UNL     1      -8.631  15.343  68.358  1.00  0.00    -0.162 C  
BRANCH  11  12
HETATM   12  C   UNL     1      -9.488  16.040  69.409  1.00  0.00    -0.226 C  
BRANCH  12  13
HETATM   13  C   UNL     1     -10.500  15.099  70.058  1.00  0.00    -0.207 C  
BRANCH  13  14
HETATM   14  C   UNL     1     -11.753  15.018  69.218  1.00  0.00    -0.323 C  
HETATM   15  O   UNL     1     -12.275  15.963  68.641  1.00  0.00    -0.139 OA 
BRANCH  14  16
HETATM   16  O   UNL     1     -12.220  13.738  69.200  1.00  0.00    -0.344 OA 
BRANCH  16  17
HETATM   17  C   UNL     1     -11.385  12.792  68.504  1.00  0.00    -0.291 C  
HETATM   18  C   UNL     1     -11.594  11.398  69.085  1.00  0.00    -0.381 C  
HETATM   19  C   UNL     1     -11.777  12.831  67.033  1.00  0.00    -0.440 C  
ENDBRANCH  16  17
ENDBRANCH  14  16
ENDBRANCH  13  14
ENDBRANCH  12  13
ENDBRANCH  11  12
ENDBRANCH  10  11
ENDBRANCH   9  10
ENDBRANCH   8   9
ENDBRANCH   7   8
ENDBRANCH   6   7
ENDBRANCH   5   6
ENDBRANCH   4   5
ENDBRANCH   3   4
ENDBRANCH   2   3
TORSDOF 14
ENDMDL
MODEL      157
REMARK 921   NORMALIZED FREE ENERGY PREDICTED BY IDOCK:   -3.59 KCAL/MOL
REMARK 922        TOTAL FREE ENERGY PREDICTED BY IDOCK:   -8.10 KCAL/MOL
REMARK 923 INTER-LIGAND FREE ENERGY PREDICTED BY IDOCK:   -6.86 KCAL/MOL
REMARK 924 INTRA-LIGAND FREE ENERGY PREDICTED BY IDOCK:   -1.24 KCAL/MOL
REMARK 927      BINDING AFFINITY PREDICTED BY RF-SCORE:    0.00 PKD
ROOT
HETATM    1  C   UNL     1     -10.365   8.546  71.669  1.00  0.00    -0.333 C  
HETATM    2  C   UNL     1     -11.289   9.498  70.926  1.00  0.00    -0.410 C  
ENDROOT
BRANCH   2   3
HETATM    3  C   UNL     1     -12.754   9.208  71.245  1.00  0.00    -0.340 C  
BRANCH   3   4
HETATM    4  C   UNL     1     -13.381  10.345  72.051  1.00  0.00    -0.440 C  
BRANCH   4   5
HETATM    5  C   UNL     1     -12.793  11.693  71.640  1.00  0.00    -0.454 C  
BRANCH   5   6
HETATM    6  C   UNL     1     -13.549  12.849  72.291  1.00  0.00    -0.611 C  
BRANCH   6   7
HETATM    7  C   UNL     1     -13.492  14.098  71.412  1.00  0.00    -0.388 C  
BRANCH   7   8
HETATM    8  C   UNL     1     -12.351  15.018  71.838  1.00  0.00    -0.413 C  
BRANCH   8   9
HETATM    9  C   UNL     1     -11.564  15.511  70.625  1.00  0.00    -0.378 C  
BRANCH   9  10
HETATM   10  C   UNL     1     -11.326  14.374  69.638  1.00  0.00    -0.309 C  
BRANCH  10  11
HETATM   11  C   UNL     1     -11.711  14.769  68.213  1.00  0.00    -0.340 C  
BRANCH  11  12
HETATM   12  C   UNL     1     -11.404  16.245  67.980  1.00  0.00    -0.205 C  
BRANCH  12  13
HETATM   13  C   UNL     1     -10.077  16.461  67.257  1.00  0.00    -0.270 C  
BRANCH  13  14
HETATM   14  C   UNL     1      -9.095  17.166  68.163  1.00  0.00    -0.247 C  
HETATM   15  O   UNL     1      -8.383  16.615  68.992  1.00  0.00    -0.235 OA 
BRANCH  14  16
HETATM   16  O   UNL     1      -9.120  18.507  67.923  1.00  0.00    -0.281 OA 
BRANCH  16  17
HETATM   17  C   UNL     1      -9.259  18.878  66.538  1.00  0.00    -0.331 C  
HETATM   18  C   UNL     1     -10.243  20.037  66.413  1.00  0.00    -0.598 C  
HETATM   19  C   UNL     1      -7.881  19.280  66.031  1.00  0.00    -0.274 C  
ENDBRANCH  16  17
ENDBRANCH  14  16
ENDBRANCH  13  14
ENDBRANCH  12  13
ENDBRANCH  11  12
ENDBRANCH  10  11
ENDBRANCH   9  10
ENDBRANCH   8   9
ENDBRANCH   7   8
ENDBRANCH   6   7
ENDBRANCH   5   6
ENDBRANCH   4   5
ENDBRANCH   3   4
ENDBRANCH   2   3
TORSDOF 14
ENDMDL
MODEL      158
REMARK 921   NORMALIZED FREE ENERGY PREDICTED BY IDOCK:   -3.59 KCAL/MOL
REMARK 922        TOTAL FREE ENERGY PREDICTED BY IDOCK:   -8.10 KCAL/MOL
REMARK 923 INTER-LIGAND FREE ENERGY PREDICTED BY IDOCK:   -6.39 KCAL/MOL
REMARK 924 INTRA-LIGAND FREE ENERGY PREDICTED BY IDOCK:   -1.71 KCAL/MOL
REMARK 927      BINDING AFFINITY PREDICTED BY RF-SCORE:    0.00 PKD
ROOT
HETATM    1  C   UNL     1     -10.103   5.644  73.609  1.00  0.00    -0.209 C  
HETATM    2  C   UNL     1     -10.636   4.279  73.204  1.00  0.00    -0.270 C  
ENDROOT
BRANCH   2   3
HETATM    3  C   UNL     1      -9.956   3.774  71.934  1.00  0.00    -0.230 C  
BRANCH   3   4
HETATM    4  C   UNL     1      -9.479   4.935  71.062  1.00  0.00    -0.225 C  
BRANCH   4   5
HETATM    5  C   UNL     1      -9.982   4.782  69.628  1.00  0.00    -0.297 C  
BRANCH   5   6
HETATM    6  C   UNL     1     -10.996   5.869  69.278  1.00  0.00    -0.397 C  
BRANCH   6   7
HETATM    7  C   UNL     1     -11.094   6.901  70.401  1.00  0.00    -0.341 C  
BRANCH   7   8
HETATM    8  C   UNL     1     -12.536   7.062  70.875  1.00  0.00    -0.273 C  
BRANCH   8   9
HETATM    9  C   UNL     1     -12.610   7.963  72.107  1.00  0.00    -0.283 C  
BRANCH   9  10
HETATM   10  C   UNL     1     -11.687   9.167  71.951  1.00  0.00    -0.436 C  
BRANCH  10  11
HETATM   11  C   UNL     1     -12.465  10.441  71.627  1.00  0.00    -0.471 C  
BRANCH  11  12
HETATM   12  C   UNL     1     -12.533  10.641  70.116  1.00  0.00    -0.342 C  
BRANCH  12  13
HETATM   13  C   UNL     1     -11.210  11.127  69.530  1.00  0.00    -0.341 C  
BRANCH  13  14
HETATM   14  C   UNL     1     -11.448  12.291  68.597  1.00  0.00    -0.307 C  
HETATM   15  O   UNL     1     -11.919  12.205  67.471  1.00  0.00    -0.544 OA 
BRANCH  14  16
HETATM   16  O   UNL     1     -11.057  13.453  69.193  1.00  0.00    -0.252 OA 
BRANCH  16  17
HETATM   17  C   UNL     1     -12.131  14.334  69.577  1.00  0.00    -0.330 C  
HETATM   18  C   UNL     1     -12.361  14.239  71.081  1.00  0.00    -0.440 C  
HETATM   19  C   UNL     1     -11.727  15.747  69.179  1.00  0.00    -0.398 C  
ENDBRANCH  16  17
ENDBRANCH  14  16
ENDBRANCH  13  14
ENDBRANCH  12  13
ENDBRANCH  11  12
ENDBRANCH  10  11
ENDBRANCH   9  10
ENDBRANCH   8   9
ENDBRANCH   7   8
ENDBRANCH   6   7
ENDBRANCH   5   6
ENDBRANCH   4   5
ENDBRANCH   3   4
ENDBRANCH   2   3
TORSDOF 14
ENDMDL
MODEL      159
REMARK 921   NORMALIZED FREE ENERGY PREDICTED BY IDOCK:   -3.59 KCAL/MOL
REMARK 922        TOTAL FREE ENERGY PREDICTED BY IDOCK:   -8.09 KCAL/MOL
REMARK 923 INTER-LIGAND FREE ENERGY PREDICTED BY IDOCK:   -6.13 KCAL/MOL
REMARK 924 INTRA-LIGAND FREE ENERGY PREDICTED BY IDOCK:   -1.97 KCAL/MOL
REMARK 927      BINDING AFFINITY PREDICTED BY RF-SCORE:    0.00 PKD
ROOT
HETATM    1  C   UNL     1      -7.526   9.442  69.029  1.00  0.00    -0.073 C  
HETATM    2  C   UNL     1      -8.674   9.015  69.928  1.00  0.00    -0.160 C  
ENDROOT
BRANCH   2   3
HETATM    3  C   UNL     1      -9.542   7.956  69.252  1.00  0.00    -0.157 C  
BRANCH   3   4
HETATM    4  C   UNL     1      -9.262   6.565  69.819  1.00  0.00    -0.145 C  
BRANCH   4   5
HETATM    5  C   UNL     1     -10.374   6.130  70.771  1.00  0.00    -0.266 C  
BRANCH   5   6
HETATM    6  C   UNL     1     -11.733   6.657  70.313  1.00  0.00    -0.432 C  
BRANCH   6   7
HETATM    7  C   UNL     1     -12.584   7.075  71.510  1.00  0.00    -0.426 C  
BRANCH   7   8
HETATM    8  C   UNL     1     -11.986   8.290  72.213  1.00  0.00    -0.448 C  
BRANCH   8   9
HETATM    9  C   UNL     1     -13.061   9.335  72.509  1.00  0.00    -0.416 C  
BRANCH   9  10
HETATM   10  C   UNL     1     -13.061  10.426  71.443  1.00  0.00    -0.512 C  
BRANCH  10  11
HETATM   11  C   UNL     1     -11.689  10.580  70.788  1.00  0.00    -0.454 C  
BRANCH  11  12
HETATM   12  C   UNL     1     -11.850  10.811  69.289  1.00  0.00    -0.359 C  
BRANCH  12  13
HETATM   13  C   UNL     1     -10.874  11.852  68.749  1.00  0.00    -0.270 C  
BRANCH  13  14
HETATM   14  C   UNL     1     -11.580  12.790  67.799  1.00  0.00    -0.353 C  
HETATM   15  O   UNL     1     -11.571  12.693  66.579  1.00  0.00    -0.339 OA 
BRANCH  14  16
HETATM   16  O   UNL     1     -12.229  13.762  68.499  1.00  0.00    -0.348 OA 
BRANCH  16  17
HETATM   17  C   UNL     1     -11.532  14.243  69.665  1.00  0.00    -0.282 C  
HETATM   18  C   UNL     1     -10.889  15.592  69.360  1.00  0.00    -0.261 C  
HETATM   19  C   UNL     1     -12.554  14.373  70.787  1.00  0.00    -0.426 C  
ENDBRANCH  16  17
ENDBRANCH  14  16
ENDBRANCH  13  14
ENDBRANCH  12  13
ENDBRANCH  11  12
ENDBRANCH  10  11
ENDBRANCH   9  10
ENDBRANCH   8   9
ENDBRANCH   7   8
ENDBRANCH   6   7
ENDBRANCH   5   6
ENDBRANCH   4   5
ENDBRANCH   3   4
ENDBRANCH   2   3
TORSDOF 14
ENDMDL
MODEL      160
REMARK 921   NORMALIZED FREE ENERGY PREDICTED BY IDOCK:   -3.59 KCAL/MOL
REMARK 922        TOTAL FREE ENERGY PREDICTED BY IDOCK:   -8.09 KCAL/MOL
REMARK 923 INTER-LIGAND FREE ENERGY PREDICTED BY IDOCK:   -6.76 KCAL/MOL
REMARK 924 INTRA-LIGAND FREE ENERGY PREDICTED BY IDOCK:   -1.33 KCAL/MOL
REMARK 927      BINDING AFFINITY PREDICTED BY RF-SCORE:    0.00 PKD
ROOT
HETATM    1  C   UNL     1     -13.652  13.227  72.247  1.00  0.00    -0.703 C  
HETATM    2  C   UNL     1     -13.258  14.532  72.919  1.00  0.00    -0.612 C  
ENDROOT
BRANCH   2   3
HETATM    3  C   UNL     1     -12.136  15.231  72.154  1.00  0.00    -0.477 C  
BRANCH   3   4
HETATM    4  C   UNL     1     -12.412  15.240  70.651  1.00  0.00    -0.458 C  
BRANCH   4   5
HETATM    5  C   UNL     1     -11.107  15.214  69.857  1.00  0.00    -0.302 C  
BRANCH   5   6
HETATM    6  C   UNL     1     -10.911  16.508  69.070  1.00  0.00    -0.306 C  
BRANCH   6   7
HETATM    7  C   UNL     1     -10.678  16.211  67.589  1.00  0.00    -0.318 C  
BRANCH   7   8
HETATM    8  C   UNL     1     -11.291  14.870  67.194  1.00  0.00    -0.348 C  
BRANCH   8   9
HETATM    9  C   UNL     1     -10.340  14.077  66.298  1.00  0.00    -0.294 C  
BRANCH   9  10
HETATM   10  C   UNL     1     -10.817  14.101  64.850  1.00  0.00    -0.423 C  
BRANCH  10  11
HETATM   11  C   UNL     1     -10.828  12.704  64.232  1.00  0.00    -0.411 C  
BRANCH  11  12
HETATM   12  C   UNL     1     -11.119  11.661  65.306  1.00  0.00    -0.298 C  
BRANCH  12  13
HETATM   13  C   UNL     1     -10.084  10.539  65.329  1.00  0.00    -0.369 C  
BRANCH  13  14
HETATM   14  C   UNL     1      -9.682  10.226  66.750  1.00  0.00    -0.185 C  
HETATM   15  O   UNL     1      -8.529  10.116  67.147  1.00  0.00    -0.125 OA 
BRANCH  14  16
HETATM   16  O   UNL     1     -10.791  10.081  67.528  1.00  0.00    -0.277 OA 
BRANCH  16  17
HETATM   17  C   UNL     1     -10.605  10.389  68.923  1.00  0.00    -0.216 C  
HETATM   18  C   UNL     1     -11.726  11.306  69.402  1.00  0.00    -0.409 C  
HETATM   19  C   UNL     1     -10.618   9.073  69.688  1.00  0.00    -0.230 C  
ENDBRANCH  16  17
ENDBRANCH  14  16
ENDBRANCH  13  14
ENDBRANCH  12  13
ENDBRANCH  11  12
ENDBRANCH  10  11
ENDBRANCH   9  10
ENDBRANCH   8   9
ENDBRANCH   7   8
ENDBRANCH   6   7
ENDBRANCH   5   6
ENDBRANCH   4   5
ENDBRANCH   3   4
ENDBRANCH   2   3
TORSDOF 14
ENDMDL
MODEL      161
REMARK 921   NORMALIZED FREE ENERGY PREDICTED BY IDOCK:   -3.58 KCAL/MOL
REMARK 922        TOTAL FREE ENERGY PREDICTED BY IDOCK:   -8.09 KCAL/MOL
REMARK 923 INTER-LIGAND FREE ENERGY PREDICTED BY IDOCK:   -6.40 KCAL/MOL
REMARK 924 INTRA-LIGAND FREE ENERGY PREDICTED BY IDOCK:   -1.68 KCAL/MOL
REMARK 927      BINDING AFFINITY PREDICTED BY RF-SCORE:    0.00 PKD
ROOT
HETATM    1  C   UNL     1     -10.498   5.328  66.829  1.00  0.00    -0.330 C  
HETATM    2  C   UNL     1     -11.157   6.462  67.597  1.00  0.00    -0.388 C  
ENDROOT
BRANCH   2   3
HETATM    3  C   UNL     1     -10.551   6.611  68.991  1.00  0.00    -0.273 C  
BRANCH   3   4
HETATM    4  C   UNL     1      -9.308   5.737  69.151  1.00  0.00    -0.146 C  
BRANCH   4   5
HETATM    5  C   UNL     1      -9.238   5.142  70.556  1.00  0.00    -0.191 C  
BRANCH   5   6
HETATM    6  C   UNL     1     -10.518   5.422  71.341  1.00  0.00    -0.294 C  
BRANCH   6   7
HETATM    7  C   UNL     1     -10.197   5.782  72.791  1.00  0.00    -0.211 C  
BRANCH   7   8
HETATM    8  C   UNL     1     -10.667   7.196  73.124  1.00  0.00    -0.385 C  
BRANCH   8   9
HETATM    9  C   UNL     1      -9.666   8.237  72.626  1.00  0.00    -0.357 C  
BRANCH   9  10
HETATM   10  C   UNL     1     -10.288   9.106  71.537  1.00  0.00    -0.414 C  
BRANCH  10  11
HETATM   11  C   UNL     1     -11.800   9.239  71.712  1.00  0.00    -0.454 C  
BRANCH  11  12
HETATM   12  C   UNL     1     -12.346  10.287  70.748  1.00  0.00    -0.445 C  
BRANCH  12  13
HETATM   13  C   UNL     1     -11.471  10.455  69.508  1.00  0.00    -0.311 C  
BRANCH  13  14
HETATM   14  C   UNL     1     -11.891  11.681  68.733  1.00  0.00    -0.325 C  
HETATM   15  O   UNL     1     -12.258  12.736  69.231  1.00  0.00    -0.208 OA 
BRANCH  14  16
HETATM   16  O   UNL     1     -11.802  11.439  67.395  1.00  0.00    -0.609 OA 
BRANCH  16  17
HETATM   17  C   UNL     1     -11.090  12.438  66.638  1.00  0.00    -0.289 C  
HETATM   18  C   UNL     1      -9.938  11.786  65.881  1.00  0.00    -0.266 C  
HETATM   19  C   UNL     1     -12.081  13.073  65.673  1.00  0.00    -0.507 C  
ENDBRANCH  16  17
ENDBRANCH  14  16
ENDBRANCH  13  14
ENDBRANCH  12  13
ENDBRANCH  11  12
ENDBRANCH  10  11
ENDBRANCH   9  10
ENDBRANCH   8   9
ENDBRANCH   7   8
ENDBRANCH   6   7
ENDBRANCH   5   6
ENDBRANCH   4   5
ENDBRANCH   3   4
ENDBRANCH   2   3
TORSDOF 14
ENDMDL
MODEL      162
REMARK 921   NORMALIZED FREE ENERGY PREDICTED BY IDOCK:   -3.58 KCAL/MOL
REMARK 922        TOTAL FREE ENERGY PREDICTED BY IDOCK:   -8.07 KCAL/MOL
REMARK 923 INTER-LIGAND FREE ENERGY PREDICTED BY IDOCK:   -6.56 KCAL/MOL
REMARK 924 INTRA-LIGAND FREE ENERGY PREDICTED BY IDOCK:   -1.51 KCAL/MOL
REMARK 927      BINDING AFFINITY PREDICTED BY RF-SCORE:    0.00 PKD
ROOT
HETATM    1  C   UNL     1     -12.734  15.350  73.793  1.00  0.00    -0.723 C  
HETATM    2  C   UNL     1     -13.291  14.418  72.729  1.00  0.00    -0.606 C  
ENDROOT
BRANCH   2   3
HETATM    3  C   UNL     1     -13.415  15.128  71.383  1.00  0.00    -0.561 C  
BRANCH   3   4
HETATM    4  C   UNL     1     -12.215  14.829  70.486  1.00  0.00    -0.385 C  
BRANCH   4   5
HETATM    5  C   UNL     1     -11.163  15.931  70.600  1.00  0.00    -0.402 C  
BRANCH   5   6
HETATM    6  C   UNL     1     -10.274  15.978  69.358  1.00  0.00    -0.270 C  
BRANCH   6   7
HETATM    7  C   UNL     1     -11.028  16.583  68.175  1.00  0.00    -0.336 C  
BRANCH   7   8
HETATM    8  C   UNL     1     -10.571  15.963  66.857  1.00  0.00    -0.309 C  
BRANCH   8   9
HETATM    9  C   UNL     1     -11.280  14.634  66.603  1.00  0.00    -0.349 C  
BRANCH   9  10
HETATM   10  C   UNL     1     -10.268  13.521  66.350  1.00  0.00    -0.291 C  
BRANCH  10  11
HETATM   11  C   UNL     1     -10.028  12.677  67.601  1.00  0.00    -0.216 C  
BRANCH  11  12
HETATM   12  C   UNL     1      -8.935  11.648  67.333  1.00  0.00    -0.166 C  
BRANCH  12  13
HETATM   13  C   UNL     1      -8.982  10.476  68.311  1.00  0.00    -0.139 C  
BRANCH  13  14
HETATM   14  C   UNL     1     -10.190   9.613  68.037  1.00  0.00    -0.194 C  
HETATM   15  O   UNL     1     -10.665   9.399  66.930  1.00  0.00    -0.205 OA 
BRANCH  14  16
HETATM   16  O   UNL     1     -10.678   9.110  69.206  1.00  0.00    -0.225 OA 
BRANCH  16  17
HETATM   17  C   UNL     1     -10.897  10.082  70.247  1.00  0.00    -0.313 C  
HETATM   18  C   UNL     1     -12.177  10.860  69.961  1.00  0.00    -0.422 C  
HETATM   19  C   UNL     1     -11.006   9.326  71.564  1.00  0.00    -0.446 C  
ENDBRANCH  16  17
ENDBRANCH  14  16
ENDBRANCH  13  14
ENDBRANCH  12  13
ENDBRANCH  11  12
ENDBRANCH  10  11
ENDBRANCH   9  10
ENDBRANCH   8   9
ENDBRANCH   7   8
ENDBRANCH   6   7
ENDBRANCH   5   6
ENDBRANCH   4   5
ENDBRANCH   3   4
ENDBRANCH   2   3
TORSDOF 14
ENDMDL
MODEL      163
REMARK 921   NORMALIZED FREE ENERGY PREDICTED BY IDOCK:   -3.57 KCAL/MOL
REMARK 922        TOTAL FREE ENERGY PREDICTED BY IDOCK:   -8.07 KCAL/MOL
REMARK 923 INTER-LIGAND FREE ENERGY PREDICTED BY IDOCK:   -6.15 KCAL/MOL
REMARK 924 INTRA-LIGAND FREE ENERGY PREDICTED BY IDOCK:   -1.92 KCAL/MOL
REMARK 927      BINDING AFFINITY PREDICTED BY RF-SCORE:    0.00 PKD
ROOT
HETATM    1  C   UNL     1     -10.713  19.832  65.679  1.00  0.00    -0.418 C  
HETATM    2  C   UNL     1      -9.868  19.344  66.845  1.00  0.00    -0.447 C  
ENDROOT
BRANCH   2   3
HETATM    3  C   UNL     1     -10.508  18.135  67.523  1.00  0.00    -0.425 C  
BRANCH   3   4
HETATM    4  C   UNL     1      -9.451  17.122  67.962  1.00  0.00    -0.262 C  
BRANCH   4   5
HETATM    5  C   UNL     1      -8.620  16.651  66.769  1.00  0.00    -0.268 C  
BRANCH   5   6
HETATM    6  C   UNL     1      -7.600  15.594  67.188  1.00  0.00    -0.258 C  
BRANCH   6   7
HETATM    7  C   UNL     1      -7.817  15.177  68.642  1.00  0.00    -0.140 C  
BRANCH   7   8
HETATM    8  C   UNL     1      -7.846  13.657  68.779  1.00  0.00    -0.043 C  
BRANCH   8   9
HETATM    9  C   UNL     1      -8.019  12.987  67.417  1.00  0.00    -0.173 C  
BRANCH   9  10
HETATM   10  C   UNL     1      -9.384  12.316  67.314  1.00  0.00    -0.185 C  
BRANCH  10  11
HETATM   11  C   UNL     1     -10.334  12.790  68.413  1.00  0.00    -0.248 C  
BRANCH  11  12
HETATM   12  C   UNL     1     -11.646  13.266  67.799  1.00  0.00    -0.380 C  
BRANCH  12  13
HETATM   13  C   UNL     1     -11.433  14.249  66.651  1.00  0.00    -0.374 C  
BRANCH  13  14
HETATM   14  C   UNL     1     -12.350  13.915  65.499  1.00  0.00    -0.480 C  
HETATM   15  O   UNL     1     -13.572  13.926  65.547  1.00  0.00    -0.579 OA 
BRANCH  14  16
HETATM   16  O   UNL     1     -11.615  13.598  64.396  1.00  0.00    -0.369 OA 
BRANCH  16  17
HETATM   17  C   UNL     1     -11.476  12.187  64.138  1.00  0.00    -0.387 C  
HETATM   18  C   UNL     1     -12.545  11.738  63.148  1.00  0.00    -0.247 C  
HETATM   19  C   UNL     1     -10.082  11.960  63.571  1.00  0.00    -0.464 C  
ENDBRANCH  16  17
ENDBRANCH  14  16
ENDBRANCH  13  14
ENDBRANCH  12  13
ENDBRANCH  11  12
ENDBRANCH  10  11
ENDBRANCH   9  10
ENDBRANCH   8   9
ENDBRANCH   7   8
ENDBRANCH   6   7
ENDBRANCH   5   6
ENDBRANCH   4   5
ENDBRANCH   3   4
ENDBRANCH   2   3
TORSDOF 14
ENDMDL
MODEL      164
REMARK 921   NORMALIZED FREE ENERGY PREDICTED BY IDOCK:   -3.57 KCAL/MOL
REMARK 922        TOTAL FREE ENERGY PREDICTED BY IDOCK:   -8.07 KCAL/MOL
REMARK 923 INTER-LIGAND FREE ENERGY PREDICTED BY IDOCK:   -6.54 KCAL/MOL
REMARK 924 INTRA-LIGAND FREE ENERGY PREDICTED BY IDOCK:   -1.52 KCAL/MOL
REMARK 927      BINDING AFFINITY PREDICTED BY RF-SCORE:    0.00 PKD
ROOT
HETATM    1  C   UNL     1     -13.254  14.780  72.744  1.00  0.00    -0.581 C  
HETATM    2  C   UNL     1     -13.950  13.483  72.364  1.00  0.00    -0.638 C  
ENDROOT
BRANCH   2   3
HETATM    3  C   UNL     1     -13.023  12.575  71.559  1.00  0.00    -0.379 C  
BRANCH   3   4
HETATM    4  C   UNL     1     -12.206  13.375  70.546  1.00  0.00    -0.425 C  
BRANCH   4   5
HETATM    5  C   UNL     1     -12.075  12.613  69.228  1.00  0.00    -0.218 C  
BRANCH   5   6
HETATM    6  C   UNL     1     -12.062  11.104  69.459  1.00  0.00    -0.396 C  
BRANCH   6   7
HETATM    7  C   UNL     1     -10.862  10.460  68.766  1.00  0.00    -0.269 C  
BRANCH   7   8
HETATM    8  C   UNL     1     -10.967  10.594  67.249  1.00  0.00    -0.348 C  
BRANCH   8   9
HETATM    9  C   UNL     1      -9.718  11.258  66.671  1.00  0.00    -0.222 C  
BRANCH   9  10
HETATM   10  C   UNL     1      -8.948  11.998  67.759  1.00  0.00    -0.176 C  
BRANCH  10  11
HETATM   11  C   UNL     1      -8.226  13.227  67.208  1.00  0.00    -0.164 C  
BRANCH  11  12
HETATM   12  C   UNL     1      -8.882  14.498  67.737  1.00  0.00    -0.183 C  
BRANCH  12  13
HETATM   13  C   UNL     1     -10.108  14.907  66.925  1.00  0.00    -0.242 C  
BRANCH  13  14
HETATM   14  C   UNL     1     -10.777  16.106  67.553  1.00  0.00    -0.304 C  
HETATM   15  O   UNL     1     -11.601  16.058  68.457  1.00  0.00    -0.381 OA 
BRANCH  14  16
HETATM   16  O   UNL     1     -10.331  17.251  66.964  1.00  0.00    -0.318 OA 
BRANCH  16  17
HETATM   17  C   UNL     1     -10.196  18.381  67.848  1.00  0.00    -0.381 C  
HETATM   18  C   UNL     1      -8.731  18.560  68.233  1.00  0.00    -0.333 C  
HETATM   19  C   UNL     1     -10.714  19.606  67.107  1.00  0.00    -0.587 C  
ENDBRANCH  16  17
ENDBRANCH  14  16
ENDBRANCH  13  14
ENDBRANCH  12  13
ENDBRANCH  11  12
ENDBRANCH  10  11
ENDBRANCH   9  10
ENDBRANCH   8   9
ENDBRANCH   7   8
ENDBRANCH   6   7
ENDBRANCH   5   6
ENDBRANCH   4   5
ENDBRANCH   3   4
ENDBRANCH   2   3
TORSDOF 14
ENDMDL
MODEL      165
REMARK 921   NORMALIZED FREE ENERGY PREDICTED BY IDOCK:   -3.57 KCAL/MOL
REMARK 922        TOTAL FREE ENERGY PREDICTED BY IDOCK:   -8.06 KCAL/MOL
REMARK 923 INTER-LIGAND FREE ENERGY PREDICTED BY IDOCK:   -6.59 KCAL/MOL
REMARK 924 INTRA-LIGAND FREE ENERGY PREDICTED BY IDOCK:   -1.47 KCAL/MOL
REMARK 927      BINDING AFFINITY PREDICTED BY RF-SCORE:    0.00 PKD
ROOT
HETATM    1  C   UNL     1      -9.265  16.222  65.959  1.00  0.00    -0.351 C  
HETATM    2  C   UNL     1     -10.710  15.946  66.341  1.00  0.00    -0.256 C  
ENDROOT
BRANCH   2   3
HETATM    3  C   UNL     1     -10.916  14.475  66.695  1.00  0.00    -0.321 C  
BRANCH   3   4
HETATM    4  C   UNL     1     -12.164  13.911  66.016  1.00  0.00    -0.495 C  
BRANCH   4   5
HETATM    5  C   UNL     1     -11.937  12.468  65.570  1.00  0.00    -0.500 C  
BRANCH   5   6
HETATM    6  C   UNL     1     -10.492  12.034  65.811  1.00  0.00    -0.290 C  
BRANCH   6   7
HETATM    7  C   UNL     1     -10.424  10.552  66.173  1.00  0.00    -0.237 C  
BRANCH   7   8
HETATM    8  C   UNL     1     -10.915  10.311  67.598  1.00  0.00    -0.356 C  
BRANCH   8   9
HETATM    9  C   UNL     1     -10.262  11.288  68.574  1.00  0.00    -0.214 C  
BRANCH   9  10
HETATM   10  C   UNL     1     -11.319  12.002  69.411  1.00  0.00    -0.317 C  
BRANCH  10  11
HETATM   11  C   UNL     1     -12.501  11.088  69.732  1.00  0.00    -0.251 C  
BRANCH  11  12
HETATM   12  C   UNL     1     -12.543  10.794  71.228  1.00  0.00    -0.532 C  
BRANCH  12  13
HETATM   13  C   UNL     1     -11.972   9.421  71.572  1.00  0.00    -0.456 C  
BRANCH  13  14
HETATM   14  C   UNL     1     -13.086   8.464  71.924  1.00  0.00    -0.358 C  
HETATM   15  O   UNL     1     -14.262   8.773  72.056  1.00  0.00    -0.428 OA 
BRANCH  14  16
HETATM   16  O   UNL     1     -12.587   7.205  72.078  1.00  0.00    -0.290 OA 
BRANCH  16  17
HETATM   17  C   UNL     1     -11.150   7.108  72.044  1.00  0.00    -0.245 C  
HETATM   18  C   UNL     1     -10.624   6.788  73.440  1.00  0.00    -0.351 C  
HETATM   19  C   UNL     1     -10.789   6.001  71.063  1.00  0.00    -0.345 C  
ENDBRANCH  16  17
ENDBRANCH  14  16
ENDBRANCH  13  14
ENDBRANCH  12  13
ENDBRANCH  11  12
ENDBRANCH  10  11
ENDBRANCH   9  10
ENDBRANCH   8   9
ENDBRANCH   7   8
ENDBRANCH   6   7
ENDBRANCH   5   6
ENDBRANCH   4   5
ENDBRANCH   3   4
ENDBRANCH   2   3
TORSDOF 14
ENDMDL
MODEL      166
REMARK 921   NORMALIZED FREE ENERGY PREDICTED BY IDOCK:   -3.57 KCAL/MOL
REMARK 922        TOTAL FREE ENERGY PREDICTED BY IDOCK:   -8.06 KCAL/MOL
REMARK 923 INTER-LIGAND FREE ENERGY PREDICTED BY IDOCK:   -6.40 KCAL/MOL
REMARK 924 INTRA-LIGAND FREE ENERGY PREDICTED BY IDOCK:   -1.66 KCAL/MOL
REMARK 927      BINDING AFFINITY PREDICTED BY RF-SCORE:    0.00 PKD
ROOT
HETATM    1  C   UNL     1     -11.266  16.126  68.347  1.00  0.00    -0.358 C  
HETATM    2  C   UNL     1     -11.871  14.745  68.537  1.00  0.00    -0.340 C  
ENDROOT
BRANCH   2   3
HETATM    3  C   UNL     1     -11.911  13.974  67.219  1.00  0.00    -0.445 C  
BRANCH   3   4
HETATM    4  C   UNL     1     -11.675  12.480  67.444  1.00  0.00    -0.432 C  
BRANCH   4   5
HETATM    5  C   UNL     1     -11.439  12.182  68.923  1.00  0.00    -0.350 C  
BRANCH   5   6
HETATM    6  C   UNL     1     -11.769  10.728  69.255  1.00  0.00    -0.374 C  
BRANCH   6   7
HETATM    7  C   UNL     1     -11.812  10.514  70.767  1.00  0.00    -0.465 C  
BRANCH   7   8
HETATM    8  C   UNL     1     -13.168   9.968  71.206  1.00  0.00    -0.469 C  
BRANCH   8   9
HETATM    9  C   UNL     1     -13.008   8.946  72.331  1.00  0.00    -0.467 C  
BRANCH   9  10
HETATM   10  C   UNL     1     -12.747   7.555  71.763  1.00  0.00    -0.360 C  
BRANCH  10  11
HETATM   11  C   UNL     1     -11.341   7.059  72.101  1.00  0.00    -0.302 C  
BRANCH  11  12
HETATM   12  C   UNL     1     -10.588   6.714  70.820  1.00  0.00    -0.265 C  
BRANCH  12  13
HETATM   13  C   UNL     1     -11.522   6.301  69.685  1.00  0.00    -0.425 C  
BRANCH  13  14
HETATM   14  C   UNL     1     -10.810   6.407  68.357  1.00  0.00    -0.311 C  
HETATM   15  O   UNL     1     -10.338   5.464  67.735  1.00  0.00    -0.189 OA 
BRANCH  14  16
HETATM   16  O   UNL     1     -10.769   7.707  67.952  1.00  0.00    -0.189 OA 
BRANCH  16  17
HETATM   17  C   UNL     1      -9.551   8.104  67.291  1.00  0.00    -0.163 C  
HETATM   18  C   UNL     1      -9.850   9.206  66.281  1.00  0.00    -0.359 C  
HETATM   19  C   UNL     1      -8.589   8.598  68.363  1.00  0.00    -0.135 C  
ENDBRANCH  16  17
ENDBRANCH  14  16
ENDBRANCH  13  14
ENDBRANCH  12  13
ENDBRANCH  11  12
ENDBRANCH  10  11
ENDBRANCH   9  10
ENDBRANCH   8   9
ENDBRANCH   7   8
ENDBRANCH   6   7
ENDBRANCH   5   6
ENDBRANCH   4   5
ENDBRANCH   3   4
ENDBRANCH   2   3
TORSDOF 14
ENDMDL
MODEL      167
REMARK 921   NORMALIZED FREE ENERGY PREDICTED BY IDOCK:   -3.56 KCAL/MOL
REMARK 922        TOTAL FREE ENERGY PREDICTED BY IDOCK:   -8.05 KCAL/MOL
REMARK 923 INTER-LIGAND FREE ENERGY PREDICTED BY IDOCK:   -6.10 KCAL/MOL
REMARK 924 INTRA-LIGAND FREE ENERGY PREDICTED BY IDOCK:   -1.95 KCAL/MOL
REMARK 927      BINDING AFFINITY PREDICTED BY RF-SCORE:    0.00 PKD
ROOT
HETATM    1  C   UNL     1     -12.338  14.377  64.514  1.00  0.00    -0.440 C  
HETATM    2  C   UNL     1     -11.416  14.775  65.656  1.00  0.00    -0.327 C  
ENDROOT
BRANCH   2   3
HETATM    3  C   UNL     1     -11.956  14.286  66.998  1.00  0.00    -0.463 C  
BRANCH   3   4
HETATM    4  C   UNL     1     -10.876  14.330  68.079  1.00  0.00    -0.247 C  
BRANCH   4   5
HETATM    5  C   UNL     1      -9.486  14.164  67.467  1.00  0.00    -0.210 C  
BRANCH   5   6
HETATM    6  C   UNL     1      -8.710  13.041  68.151  1.00  0.00    -0.190 C  
BRANCH   6   7
HETATM    7  C   UNL     1      -8.420  11.906  67.170  1.00  0.00    -0.173 C  
BRANCH   7   8
HETATM    8  C   UNL     1      -9.702  11.420  66.498  1.00  0.00    -0.226 C  
BRANCH   8   9
HETATM    9  C   UNL     1      -9.994   9.965  66.864  1.00  0.00    -0.268 C  
BRANCH   9  10
HETATM   10  C   UNL     1     -10.393   9.847  68.331  1.00  0.00    -0.226 C  
BRANCH  10  11
HETATM   11  C   UNL     1     -11.564  10.765  68.676  1.00  0.00    -0.342 C  
BRANCH  11  12
HETATM   12  C   UNL     1     -11.572  11.061  70.173  1.00  0.00    -0.421 C  
BRANCH  12  13
HETATM   13  C   UNL     1     -11.169   9.850  71.011  1.00  0.00    -0.435 C  
BRANCH  13  14
HETATM   14  C   UNL     1     -12.396   9.162  71.561  1.00  0.00    -0.347 C  
HETATM   15  O   UNL     1     -13.137   9.625  72.417  1.00  0.00    -0.403 OA 
BRANCH  14  16
HETATM   16  O   UNL     1     -12.556   7.947  70.964  1.00  0.00    -0.224 OA 
BRANCH  16  17
HETATM   17  C   UNL     1     -11.435   7.050  71.093  1.00  0.00    -0.294 C  
HETATM   18  C   UNL     1     -11.647   6.132  72.292  1.00  0.00    -0.362 C  
HETATM   19  C   UNL     1     -11.343   6.245  69.804  1.00  0.00    -0.506 C  
ENDBRANCH  16  17
ENDBRANCH  14  16
ENDBRANCH  13  14
ENDBRANCH  12  13
ENDBRANCH  11  12
ENDBRANCH  10  11
ENDBRANCH   9  10
ENDBRANCH   8   9
ENDBRANCH   7   8
ENDBRANCH   6   7
ENDBRANCH   5   6
ENDBRANCH   4   5
ENDBRANCH   3   4
ENDBRANCH   2   3
TORSDOF 14
ENDMDL
MODEL      168
REMARK 921   NORMALIZED FREE ENERGY PREDICTED BY IDOCK:   -3.56 KCAL/MOL
REMARK 922        TOTAL FREE ENERGY PREDICTED BY IDOCK:   -8.04 KCAL/MOL
REMARK 923 INTER-LIGAND FREE ENERGY PREDICTED BY IDOCK:   -6.50 KCAL/MOL
REMARK 924 INTRA-LIGAND FREE ENERGY PREDICTED BY IDOCK:   -1.54 KCAL/MOL
REMARK 927      BINDING AFFINITY PREDICTED BY RF-SCORE:    0.00 PKD
ROOT
HETATM    1  C   UNL     1     -11.849  10.006  71.062  1.00  0.00    -0.476 C  
HETATM    2  C   UNL     1     -13.152  10.636  71.526  1.00  0.00    -0.527 C  
ENDROOT
BRANCH   2   3
HETATM    3  C   UNL     1     -13.035  12.157  71.598  1.00  0.00    -0.427 C  
BRANCH   3   4
HETATM    4  C   UNL     1     -14.033  12.743  72.596  1.00  0.00     0.094 C  
BRANCH   4   5
HETATM    5  C   UNL     1     -14.281  14.223  72.313  1.00  0.00    -0.587 C  
BRANCH   5   6
HETATM    6  C   UNL     1     -13.409  14.721  71.162  1.00  0.00    -0.460 C  
BRANCH   6   7
HETATM    7  C   UNL     1     -12.530  15.887  71.612  1.00  0.00    -0.502 C  
BRANCH   7   8
HETATM    8  C   UNL     1     -11.228  15.933  70.817  1.00  0.00    -0.398 C  
BRANCH   8   9
HETATM    9  C   UNL     1     -11.195  14.833  69.757  1.00  0.00    -0.306 C  
BRANCH   9  10
HETATM   10  C   UNL     1     -10.986  15.428  68.368  1.00  0.00    -0.284 C  
BRANCH  10  11
HETATM   11  C   UNL     1     -10.752  14.345  67.316  1.00  0.00    -0.285 C  
BRANCH  11  12
HETATM   12  C   UNL     1     -11.753  13.209  67.506  1.00  0.00    -0.414 C  
BRANCH  12  13
HETATM   13  C   UNL     1     -11.078  11.890  67.876  1.00  0.00    -0.297 C  
BRANCH  13  14
HETATM   14  C   UNL     1     -10.034  11.528  66.847  1.00  0.00    -0.205 C  
HETATM   15  O   UNL     1      -8.827  11.518  67.044  1.00  0.00    -0.162 OA 
BRANCH  14  16
HETATM   16  O   UNL     1     -10.635  11.216  65.664  1.00  0.00    -0.259 OA 
BRANCH  16  17
HETATM   17  C   UNL     1      -9.957  11.699  64.488  1.00  0.00    -0.253 C  
HETATM   18  C   UNL     1      -9.929  10.605  63.425  1.00  0.00    -0.329 C  
HETATM   19  C   UNL     1     -10.718  12.919  63.989  1.00  0.00    -0.429 C  
ENDBRANCH  16  17
ENDBRANCH  14  16
ENDBRANCH  13  14
ENDBRANCH  12  13
ENDBRANCH  11  12
ENDBRANCH  10  11
ENDBRANCH   9  10
ENDBRANCH   8   9
ENDBRANCH   7   8
ENDBRANCH   6   7
ENDBRANCH   5   6
ENDBRANCH   4   5
ENDBRANCH   3   4
ENDBRANCH   2   3
TORSDOF 14
ENDMDL
MODEL      169
REMARK 921   NORMALIZED FREE ENERGY PREDICTED BY IDOCK:   -3.56 KCAL/MOL
REMARK 922        TOTAL FREE ENERGY PREDICTED BY IDOCK:   -8.04 KCAL/MOL
REMARK 923 INTER-LIGAND FREE ENERGY PREDICTED BY IDOCK:   -6.31 KCAL/MOL
REMARK 924 INTRA-LIGAND FREE ENERGY PREDICTED BY IDOCK:   -1.73 KCAL/MOL
REMARK 927      BINDING AFFINITY PREDICTED BY RF-SCORE:    0.00 PKD
ROOT
HETATM    1  C   UNL     1      -9.818   6.842  69.332  1.00  0.00    -0.162 C  
HETATM    2  C   UNL     1     -11.061   6.064  69.734  1.00  0.00    -0.476 C  
ENDROOT
BRANCH   2   3
HETATM    3  C   UNL     1     -11.900   6.846  70.742  1.00  0.00    -0.427 C  
BRANCH   3   4
HETATM    4  C   UNL     1     -11.031   7.420  71.860  1.00  0.00    -0.267 C  
BRANCH   4   5
HETATM    5  C   UNL     1     -11.502   8.819  72.253  1.00  0.00    -0.376 C  
BRANCH   5   6
HETATM    6  C   UNL     1     -12.485   9.381  71.227  1.00  0.00    -0.416 C  
BRANCH   6   7
HETATM    7  C   UNL     1     -12.173  10.845  70.923  1.00  0.00    -0.485 C  
BRANCH   7   8
HETATM    8  C   UNL     1     -11.624  11.009  69.508  1.00  0.00    -0.384 C  
BRANCH   8   9
HETATM    9  C   UNL     1     -10.133  10.677  69.458  1.00  0.00    -0.164 C  
BRANCH   9  10
HETATM   10  C   UNL     1      -9.728  10.223  68.059  1.00  0.00    -0.167 C  
BRANCH  10  11
HETATM   11  C   UNL     1      -8.793  11.227  67.386  1.00  0.00    -0.145 C  
BRANCH  11  12
HETATM   12  C   UNL     1      -8.900  11.104  65.870  1.00  0.00    -0.193 C  
BRANCH  12  13
HETATM   13  C   UNL     1     -10.264  10.585  65.419  1.00  0.00    -0.340 C  
BRANCH  13  14
HETATM   14  C   UNL     1     -10.815  11.452  64.312  1.00  0.00    -0.349 C  
HETATM   15  O   UNL     1     -10.382  11.491  63.168  1.00  0.00    -0.361 OA 
BRANCH  14  16
HETATM   16  O   UNL     1     -11.864  12.188  64.774  1.00  0.00    -0.357 OA 
BRANCH  16  17
HETATM   17  C   UNL     1     -11.514  13.468  65.336  1.00  0.00    -0.302 C  
HETATM   18  C   UNL     1     -12.166  14.581  64.523  1.00  0.00    -0.483 C  
HETATM   19  C   UNL     1     -12.010  13.487  66.775  1.00  0.00    -0.453 C  
ENDBRANCH  16  17
ENDBRANCH  14  16
ENDBRANCH  13  14
ENDBRANCH  12  13
ENDBRANCH  11  12
ENDBRANCH  10  11
ENDBRANCH   9  10
ENDBRANCH   8   9
ENDBRANCH   7   8
ENDBRANCH   6   7
ENDBRANCH   5   6
ENDBRANCH   4   5
ENDBRANCH   3   4
ENDBRANCH   2   3
TORSDOF 14
ENDMDL
MODEL      170
REMARK 921   NORMALIZED FREE ENERGY PREDICTED BY IDOCK:   -3.55 KCAL/MOL
REMARK 922        TOTAL FREE ENERGY PREDICTED BY IDOCK:   -8.03 KCAL/MOL
REMARK 923 INTER-LIGAND FREE ENERGY PREDICTED BY IDOCK:   -7.15 KCAL/MOL
REMARK 924 INTRA-LIGAND FREE ENERGY PREDICTED BY IDOCK:   -0.88 KCAL/MOL
REMARK 927      BINDING AFFINITY PREDICTED BY RF-SCORE:    0.00 PKD
ROOT
HETATM    1  C   UNL     1     -11.514   6.574  70.352  1.00  0.00    -0.465 C  
HETATM    2  C   UNL     1     -12.106   7.158  71.625  1.00  0.00    -0.371 C  
ENDROOT
BRANCH   2   3
HETATM    3  C   UNL     1     -11.299   8.361  72.108  1.00  0.00    -0.437 C  
BRANCH   3   4
HETATM    4  C   UNL     1     -11.193   9.430  71.022  1.00  0.00    -0.412 C  
BRANCH   4   5
HETATM    5  C   UNL     1     -12.557  10.059  70.742  1.00  0.00    -0.372 C  
BRANCH   5   6
HETATM    6  C   UNL     1     -13.056  10.858  71.944  1.00  0.00    -0.537 C  
BRANCH   6   7
HETATM    7  C   UNL     1     -12.708  12.338  71.794  1.00  0.00    -0.257 C  
BRANCH   7   8
HETATM    8  C   UNL     1     -13.844  13.223  72.300  1.00  0.00    -0.637 C  
BRANCH   8   9
HETATM    9  C   UNL     1     -13.441  14.697  72.276  1.00  0.00    -0.507 C  
BRANCH   9  10
HETATM   10  C   UNL     1     -11.928  14.840  72.145  1.00  0.00    -0.350 C  
BRANCH  10  11
HETATM   11  C   UNL     1     -11.538  16.167  71.494  1.00  0.00    -0.502 C  
BRANCH  11  12
HETATM   12  C   UNL     1     -11.083  15.929  70.058  1.00  0.00    -0.356 C  
BRANCH  12  13
HETATM   13  C   UNL     1     -12.230  15.508  69.142  1.00  0.00    -0.175 C  
BRANCH  13  14
HETATM   14  C   UNL     1     -11.689  14.878  67.881  1.00  0.00    -0.321 C  
HETATM   15  O   UNL     1     -12.300  14.092  67.170  1.00  0.00    -0.373 OA 
BRANCH  14  16
HETATM   16  O   UNL     1     -10.417  15.311  67.652  1.00  0.00    -0.254 OA 
BRANCH  16  17
HETATM   17  C   UNL     1     -10.307  16.439  66.761  1.00  0.00    -0.293 C  
HETATM   18  C   UNL     1      -9.103  17.288  67.155  1.00  0.00    -0.234 C  
HETATM   19  C   UNL     1     -10.146  15.893  65.349  1.00  0.00    -0.296 C  
ENDBRANCH  16  17
ENDBRANCH  14  16
ENDBRANCH  13  14
ENDBRANCH  12  13
ENDBRANCH  11  12
ENDBRANCH  10  11
ENDBRANCH   9  10
ENDBRANCH   8   9
ENDBRANCH   7   8
ENDBRANCH   6   7
ENDBRANCH   5   6
ENDBRANCH   4   5
ENDBRANCH   3   4
ENDBRANCH   2   3
TORSDOF 14
ENDMDL
MODEL      171
REMARK 921   NORMALIZED FREE ENERGY PREDICTED BY IDOCK:   -3.55 KCAL/MOL
REMARK 922        TOTAL FREE ENERGY PREDICTED BY IDOCK:   -8.02 KCAL/MOL
REMARK 923 INTER-LIGAND FREE ENERGY PREDICTED BY IDOCK:   -5.96 KCAL/MOL
REMARK 924 INTRA-LIGAND FREE ENERGY PREDICTED BY IDOCK:   -2.06 KCAL/MOL
REMARK 927      BINDING AFFINITY PREDICTED BY RF-SCORE:    0.00 PKD
ROOT
HETATM    1  C   UNL     1     -10.257  19.430  68.691  1.00  0.00    -0.462 C  
HETATM    2  C   UNL     1     -10.878  19.239  67.317  1.00  0.00    -0.554 C  
ENDROOT
BRANCH   2   3
HETATM    3  C   UNL     1      -9.857  19.487  66.210  1.00  0.00    -0.513 C  
BRANCH   3   4
HETATM    4  C   UNL     1      -8.686  20.330  66.714  1.00  0.00    -0.353 C  
BRANCH   4   5
HETATM    5  C   UNL     1      -7.394  19.958  65.989  1.00  0.00    -0.324 C  
BRANCH   5   6
HETATM    6  C   UNL     1      -7.103  18.463  66.108  1.00  0.00    -0.300 C  
BRANCH   6   7
HETATM    7  C   UNL     1      -6.382  18.154  67.419  1.00  0.00    -0.184 C  
BRANCH   7   8
HETATM    8  C   UNL     1      -7.293  17.395  68.381  1.00  0.00    -0.227 C  
BRANCH   8   9
HETATM    9  C   UNL     1      -6.936  15.910  68.416  1.00  0.00    -0.116 C  
BRANCH   9  10
HETATM   10  C   UNL     1      -8.187  15.051  68.259  1.00  0.00    -0.146 C  
BRANCH  10  11
HETATM   11  C   UNL     1      -9.123  15.602  67.184  1.00  0.00    -0.227 C  
BRANCH  11  12
HETATM   12  C   UNL     1      -9.545  14.483  66.237  1.00  0.00    -0.328 C  
BRANCH  12  13
HETATM   13  C   UNL     1     -11.013  14.096  66.406  1.00  0.00    -0.311 C  
BRANCH  13  14
HETATM   14  C   UNL     1     -11.181  13.187  67.600  1.00  0.00    -0.282 C  
HETATM   15  O   UNL     1     -10.546  12.159  67.795  1.00  0.00    -0.197 OA 
BRANCH  14  16
HETATM   16  O   UNL     1     -12.145  13.678  68.428  1.00  0.00    -0.361 OA 
BRANCH  16  17
HETATM   17  C   UNL     1     -11.661  14.252  69.658  1.00  0.00    -0.296 C  
HETATM   18  C   UNL     1     -11.860  15.764  69.632  1.00  0.00    -0.352 C  
HETATM   19  C   UNL     1     -12.448  13.622  70.798  1.00  0.00    -0.432 C  
ENDBRANCH  16  17
ENDBRANCH  14  16
ENDBRANCH  13  14
ENDBRANCH  12  13
ENDBRANCH  11  12
ENDBRANCH  10  11
ENDBRANCH   9  10
ENDBRANCH   8   9
ENDBRANCH   7   8
ENDBRANCH   6   7
ENDBRANCH   5   6
ENDBRANCH   4   5
ENDBRANCH   3   4
ENDBRANCH   2   3
TORSDOF 14
ENDMDL
MODEL      172
REMARK 921   NORMALIZED FREE ENERGY PREDICTED BY IDOCK:   -3.55 KCAL/MOL
REMARK 922        TOTAL FREE ENERGY PREDICTED BY IDOCK:   -8.02 KCAL/MOL
REMARK 923 INTER-LIGAND FREE ENERGY PREDICTED BY IDOCK:   -6.30 KCAL/MOL
REMARK 924 INTRA-LIGAND FREE ENERGY PREDICTED BY IDOCK:   -1.72 KCAL/MOL
REMARK 927      BINDING AFFINITY PREDICTED BY RF-SCORE:    0.00 PKD
ROOT
HETATM    1  C   UNL     1      -9.861  19.608  69.091  1.00  0.00    -0.408 C  
HETATM    2  C   UNL     1     -10.108  20.406  67.821  1.00  0.00    -0.444 C  
ENDROOT
BRANCH   2   3
HETATM    3  C   UNL     1      -9.535  19.691  66.599  1.00  0.00    -0.467 C  
BRANCH   3   4
HETATM    4  C   UNL     1      -8.063  19.335  66.805  1.00  0.00    -0.290 C  
BRANCH   4   5
HETATM    5  C   UNL     1      -7.730  17.995  66.152  1.00  0.00    -0.266 C  
BRANCH   5   6
HETATM    6  C   UNL     1      -8.794  16.945  66.468  1.00  0.00    -0.305 C  
BRANCH   6   7
HETATM    7  C   UNL     1      -8.210  15.537  66.373  1.00  0.00    -0.055 C  
BRANCH   7   8
HETATM    8  C   UNL     1      -8.013  14.929  67.760  1.00  0.00    -0.161 C  
BRANCH   8   9
HETATM    9  C   UNL     1      -8.829  15.683  68.809  1.00  0.00    -0.208 C  
BRANCH   9  10
HETATM   10  C   UNL     1     -10.010  14.841  69.281  1.00  0.00    -0.146 C  
BRANCH  10  11
HETATM   11  C   UNL     1     -11.347  15.480  68.908  1.00  0.00    -0.329 C  
BRANCH  11  12
HETATM   12  C   UNL     1     -11.709  15.129  67.468  1.00  0.00    -0.214 C  
BRANCH  12  13
HETATM   13  C   UNL     1     -11.687  13.625  67.209  1.00  0.00    -0.416 C  
BRANCH  13  14
HETATM   14  C   UNL     1     -12.194  13.326  65.818  1.00  0.00    -0.456 C  
HETATM   15  O   UNL     1     -12.938  14.049  65.170  1.00  0.00    -0.744 OA 
BRANCH  14  16
HETATM   16  O   UNL     1     -11.701  12.129  65.390  1.00  0.00    -0.364 OA 
BRANCH  16  17
HETATM   17  C   UNL     1     -10.334  12.158  64.936  1.00  0.00    -0.289 C  
HETATM   18  C   UNL     1      -9.501  11.174  65.751  1.00  0.00    -0.248 C  
HETATM   19  C   UNL     1     -10.333  11.777  63.462  1.00  0.00    -0.490 C  
ENDBRANCH  16  17
ENDBRANCH  14  16
ENDBRANCH  13  14
ENDBRANCH  12  13
ENDBRANCH  11  12
ENDBRANCH  10  11
ENDBRANCH   9  10
ENDBRANCH   8   9
ENDBRANCH   7   8
ENDBRANCH   6   7
ENDBRANCH   5   6
ENDBRANCH   4   5
ENDBRANCH   3   4
ENDBRANCH   2   3
TORSDOF 14
ENDMDL
MODEL      173
REMARK 921   NORMALIZED FREE ENERGY PREDICTED BY IDOCK:   -3.55 KCAL/MOL
REMARK 922        TOTAL FREE ENERGY PREDICTED BY IDOCK:   -8.02 KCAL/MOL
REMARK 923 INTER-LIGAND FREE ENERGY PREDICTED BY IDOCK:   -6.42 KCAL/MOL
REMARK 924 INTRA-LIGAND FREE ENERGY PREDICTED BY IDOCK:   -1.60 KCAL/MOL
REMARK 927      BINDING AFFINITY PREDICTED BY RF-SCORE:    0.00 PKD
ROOT
HETATM    1  C   UNL     1     -14.303  15.162  71.680  1.00  0.00    -0.685 C  
HETATM    2  C   UNL     1     -13.441  13.952  71.998  1.00  0.00    -0.543 C  
ENDROOT
BRANCH   2   3
HETATM    3  C   UNL     1     -12.380  13.730  70.922  1.00  0.00    -0.456 C  
BRANCH   3   4
HETATM    4  C   UNL     1     -12.434  12.303  70.377  1.00  0.00    -0.221 C  
BRANCH   4   5
HETATM    5  C   UNL     1     -12.733  11.304  71.494  1.00  0.00    -0.481 C  
BRANCH   5   6
HETATM    6  C   UNL     1     -13.338  10.017  70.938  1.00  0.00    -0.281 C  
BRANCH   6   7
HETATM    7  C   UNL     1     -13.576   9.003  72.055  1.00  0.00    -0.500 C  
BRANCH   7   8
HETATM    8  C   UNL     1     -12.632   7.810  71.925  1.00  0.00    -0.339 C  
BRANCH   8   9
HETATM    9  C   UNL     1     -11.430   7.959  72.857  1.00  0.00    -0.357 C  
BRANCH   9  10
HETATM   10  C   UNL     1     -10.126   7.774  72.089  1.00  0.00    -0.265 C  
BRANCH  10  11
HETATM   11  C   UNL     1      -9.644   9.083  71.465  1.00  0.00    -0.340 C  
BRANCH  11  12
HETATM   12  C   UNL     1      -9.584   8.946  69.947  1.00  0.00    -0.185 C  
BRANCH  12  13
HETATM   13  C   UNL     1      -9.961  10.239  69.227  1.00  0.00    -0.244 C  
BRANCH  13  14
HETATM   14  C   UNL     1     -10.569   9.931  67.880  1.00  0.00    -0.254 C  
HETATM   15  O   UNL     1     -10.714   8.809  67.414  1.00  0.00    -0.267 OA 
BRANCH  14  16
HETATM   16  O   UNL     1     -10.932  11.087  67.257  1.00  0.00    -0.267 OA 
BRANCH  16  17
HETATM   17  C   UNL     1      -9.849  11.825  66.657  1.00  0.00    -0.202 C  
HETATM   18  C   UNL     1      -9.333  11.076  65.433  1.00  0.00    -0.244 C  
HETATM   19  C   UNL     1     -10.389  13.194  66.267  1.00  0.00    -0.291 C  
ENDBRANCH  16  17
ENDBRANCH  14  16
ENDBRANCH  13  14
ENDBRANCH  12  13
ENDBRANCH  11  12
ENDBRANCH  10  11
ENDBRANCH   9  10
ENDBRANCH   8   9
ENDBRANCH   7   8
ENDBRANCH   6   7
ENDBRANCH   5   6
ENDBRANCH   4   5
ENDBRANCH   3   4
ENDBRANCH   2   3
TORSDOF 14
ENDMDL
MODEL      174
REMARK 921   NORMALIZED FREE ENERGY PREDICTED BY IDOCK:   -3.55 KCAL/MOL
REMARK 922        TOTAL FREE ENERGY PREDICTED BY IDOCK:   -8.02 KCAL/MOL
REMARK 923 INTER-LIGAND FREE ENERGY PREDICTED BY IDOCK:   -6.75 KCAL/MOL
REMARK 924 INTRA-LIGAND FREE ENERGY PREDICTED BY IDOCK:   -1.27 KCAL/MOL
REMARK 927      BINDING AFFINITY PREDICTED BY RF-SCORE:    0.00 PKD
ROOT
HETATM    1  C   UNL     1      -6.498  20.058  69.291  1.00  0.00    -0.360 C  
HETATM    2  C   UNL     1      -7.304  18.965  68.608  1.00  0.00    -0.343 C  
ENDROOT
BRANCH   2   3
HETATM    3  C   UNL     1      -8.712  19.448  68.267  1.00  0.00    -0.376 C  
BRANCH   3   4
HETATM    4  C   UNL     1      -9.657  18.272  68.023  1.00  0.00    -0.314 C  
BRANCH   4   5
HETATM    5  C   UNL     1      -9.812  17.998  66.528  1.00  0.00    -0.353 C  
BRANCH   5   6
HETATM    6  C   UNL     1      -8.934  16.830  66.085  1.00  0.00    -0.295 C  
BRANCH   6   7
HETATM    7  C   UNL     1      -9.244  15.578  66.903  1.00  0.00    -0.257 C  
BRANCH   7   8
HETATM    8  C   UNL     1      -9.841  14.482  66.024  1.00  0.00    -0.342 C  
BRANCH   8   9
HETATM    9  C   UNL     1     -11.337  14.707  65.810  1.00  0.00    -0.340 C  
BRANCH   9  10
HETATM   10  C   UNL     1     -12.156  13.784  66.706  1.00  0.00    -0.460 C  
BRANCH  10  11
HETATM   11  C   UNL     1     -11.786  12.316  66.498  1.00  0.00    -0.420 C  
BRANCH  11  12
HETATM   12  C   UNL     1     -11.679  11.609  67.846  1.00  0.00    -0.329 C  
BRANCH  12  13
HETATM   13  C   UNL     1     -11.478  12.584  69.004  1.00  0.00    -0.355 C  
BRANCH  13  14
HETATM   14  C   UNL     1     -12.258  12.127  70.214  1.00  0.00    -0.264 C  
HETATM   15  O   UNL     1     -12.660  12.859  71.109  1.00  0.00    -0.370 OA 
BRANCH  14  16
HETATM   16  O   UNL     1     -12.448  10.778  70.165  1.00  0.00    -0.323 OA 
BRANCH  16  17
HETATM   17  C   UNL     1     -12.053  10.061  71.351  1.00  0.00    -0.407 C  
HETATM   18  C   UNL     1     -13.164   9.103  71.765  1.00  0.00    -0.459 C  
HETATM   19  C   UNL     1     -10.776   9.301  71.022  1.00  0.00    -0.387 C  
ENDBRANCH  16  17
ENDBRANCH  14  16
ENDBRANCH  13  14
ENDBRANCH  12  13
ENDBRANCH  11  12
ENDBRANCH  10  11
ENDBRANCH   9  10
ENDBRANCH   8   9
ENDBRANCH   7   8
ENDBRANCH   6   7
ENDBRANCH   5   6
ENDBRANCH   4   5
ENDBRANCH   3   4
ENDBRANCH   2   3
TORSDOF 14
ENDMDL
MODEL      175
REMARK 921   NORMALIZED FREE ENERGY PREDICTED BY IDOCK:   -3.55 KCAL/MOL
REMARK 922        TOTAL FREE ENERGY PREDICTED BY IDOCK:   -8.02 KCAL/MOL
REMARK 923 INTER-LIGAND FREE ENERGY PREDICTED BY IDOCK:   -6.91 KCAL/MOL
REMARK 924 INTRA-LIGAND FREE ENERGY PREDICTED BY IDOCK:   -1.10 KCAL/MOL
REMARK 927      BINDING AFFINITY PREDICTED BY RF-SCORE:    0.00 PKD
ROOT
HETATM    1  C   UNL     1     -12.411   6.988  71.275  1.00  0.00    -0.426 C  
HETATM    2  C   UNL     1     -12.137   8.340  71.913  1.00  0.00    -0.382 C  
ENDROOT
BRANCH   2   3
HETATM    3  C   UNL     1     -13.404   9.189  71.975  1.00  0.00    -0.507 C  
BRANCH   3   4
HETATM    4  C   UNL     1     -13.129  10.628  71.543  1.00  0.00    -0.527 C  
BRANCH   4   5
HETATM    5  C   UNL     1     -11.855  10.712  70.705  1.00  0.00    -0.463 C  
BRANCH   5   6
HETATM    6  C   UNL     1     -11.939  11.840  69.678  1.00  0.00    -0.378 C  
BRANCH   6   7
HETATM    7  C   UNL     1     -11.197  11.463  68.397  1.00  0.00    -0.324 C  
BRANCH   7   8
HETATM    8  C   UNL     1     -11.056  12.668  67.470  1.00  0.00    -0.313 C  
BRANCH   8   9
HETATM    9  C   UNL     1     -12.015  13.786  67.875  1.00  0.00    -0.391 C  
BRANCH   9  10
HETATM   10  C   UNL     1     -11.283  15.121  67.957  1.00  0.00    -0.329 C  
BRANCH  10  11
HETATM   11  C   UNL     1     -10.296  15.298  66.804  1.00  0.00    -0.279 C  
BRANCH  11  12
HETATM   12  C   UNL     1     -10.648  16.547  66.002  1.00  0.00    -0.259 C  
BRANCH  12  13
HETATM   13  C   UNL     1      -9.663  17.690  66.235  1.00  0.00    -0.275 C  
BRANCH  13  14
HETATM   14  C   UNL     1     -10.148  18.581  67.354  1.00  0.00    -0.352 C  
HETATM   15  O   UNL     1     -11.024  19.429  67.248  1.00  0.00    -0.491 OA 
BRANCH  14  16
HETATM   16  O   UNL     1      -9.467  18.303  68.500  1.00  0.00    -0.310 OA 
BRANCH  16  17
HETATM   17  C   UNL     1      -8.036  18.206  68.353  1.00  0.00    -0.303 C  
HETATM   18  C   UNL     1      -7.367  19.384  69.053  1.00  0.00    -0.395 C  
HETATM   19  C   UNL     1      -7.601  16.887  68.976  1.00  0.00    -0.210 C  
ENDBRANCH  16  17
ENDBRANCH  14  16
ENDBRANCH  13  14
ENDBRANCH  12  13
ENDBRANCH  11  12
ENDBRANCH  10  11
ENDBRANCH   9  10
ENDBRANCH   8   9
ENDBRANCH   7   8
ENDBRANCH   6   7
ENDBRANCH   5   6
ENDBRANCH   4   5
ENDBRANCH   3   4
ENDBRANCH   2   3
TORSDOF 14
ENDMDL
MODEL      176
REMARK 921   NORMALIZED FREE ENERGY PREDICTED BY IDOCK:   -3.54 KCAL/MOL
REMARK 922        TOTAL FREE ENERGY PREDICTED BY IDOCK:   -8.01 KCAL/MOL
REMARK 923 INTER-LIGAND FREE ENERGY PREDICTED BY IDOCK:   -5.77 KCAL/MOL
REMARK 924 INTRA-LIGAND FREE ENERGY PREDICTED BY IDOCK:   -2.24 KCAL/MOL
REMARK 927      BINDING AFFINITY PREDICTED BY RF-SCORE:    0.00 PKD
ROOT
HETATM    1  C   UNL     1     -10.161   7.571  66.806  1.00  0.00    -0.324 C  
HETATM    2  C   UNL     1     -11.026   6.384  67.198  1.00  0.00    -0.476 C  
ENDROOT
BRANCH   2   3
HETATM    3  C   UNL     1     -10.544   5.757  68.504  1.00  0.00    -0.299 C  
BRANCH   3   4
HETATM    4  C   UNL     1     -11.382   6.233  69.690  1.00  0.00    -0.492 C  
BRANCH   4   5
HETATM    5  C   UNL     1     -10.833   5.676  71.003  1.00  0.00    -0.289 C  
BRANCH   5   6
HETATM    6  C   UNL     1     -11.679   6.127  72.192  1.00  0.00    -0.361 C  
BRANCH   6   7
HETATM    7  C   UNL     1     -11.080   7.373  72.843  1.00  0.00    -0.397 C  
BRANCH   7   8
HETATM    8  C   UNL     1      -9.564   7.249  72.973  1.00  0.00    -0.219 C  
BRANCH   8   9
HETATM    9  C   UNL     1      -8.861   8.456  72.354  1.00  0.00    -0.294 C  
BRANCH   9  10
HETATM   10  C   UNL     1      -8.183   8.072  71.043  1.00  0.00    -0.106 C  
BRANCH  10  11
HETATM   11  C   UNL     1      -8.698   8.906  69.871  1.00  0.00    -0.140 C  
BRANCH  11  12
HETATM   12  C   UNL     1      -9.719   9.924  70.365  1.00  0.00    -0.151 C  
BRANCH  12  13
HETATM   13  C   UNL     1     -11.077   9.770  69.684  1.00  0.00    -0.251 C  
BRANCH  13  14
HETATM   14  C   UNL     1     -11.314  10.910  68.723  1.00  0.00    -0.292 C  
HETATM   15  O   UNL     1     -11.866  10.810  67.635  1.00  0.00    -0.505 OA 
BRANCH  14  16
HETATM   16  O   UNL     1     -10.820  12.069  69.243  1.00  0.00    -0.184 OA 
BRANCH  16  17
HETATM   17  C   UNL     1     -11.618  13.242  68.990  1.00  0.00    -0.312 C  
HETATM   18  C   UNL     1     -12.106  13.826  70.312  1.00  0.00    -0.425 C  
HETATM   19  C   UNL     1     -10.742  14.241  68.248  1.00  0.00    -0.253 C  
ENDBRANCH  16  17
ENDBRANCH  14  16
ENDBRANCH  13  14
ENDBRANCH  12  13
ENDBRANCH  11  12
ENDBRANCH  10  11
ENDBRANCH   9  10
ENDBRANCH   8   9
ENDBRANCH   7   8
ENDBRANCH   6   7
ENDBRANCH   5   6
ENDBRANCH   4   5
ENDBRANCH   3   4
ENDBRANCH   2   3
TORSDOF 14
ENDMDL
MODEL      177
REMARK 921   NORMALIZED FREE ENERGY PREDICTED BY IDOCK:   -3.54 KCAL/MOL
REMARK 922        TOTAL FREE ENERGY PREDICTED BY IDOCK:   -8.01 KCAL/MOL
REMARK 923 INTER-LIGAND FREE ENERGY PREDICTED BY IDOCK:   -6.21 KCAL/MOL
REMARK 924 INTRA-LIGAND FREE ENERGY PREDICTED BY IDOCK:   -1.80 KCAL/MOL
REMARK 927      BINDING AFFINITY PREDICTED BY RF-SCORE:    0.00 PKD
ROOT
HETATM    1  C   UNL     1     -10.908   6.403  67.809  1.00  0.00    -0.418 C  
HETATM    2  C   UNL     1     -11.284   5.973  69.218  1.00  0.00    -0.367 C  
ENDROOT
BRANCH   2   3
HETATM    3  C   UNL     1     -10.062   5.479  69.989  1.00  0.00    -0.311 C  
BRANCH   3   4
HETATM    4  C   UNL     1      -8.768   6.023  69.384  1.00  0.00    -0.121 C  
BRANCH   4   5
HETATM    5  C   UNL     1      -8.064   6.964  70.360  1.00  0.00    -0.116 C  
BRANCH   5   6
HETATM    6  C   UNL     1      -8.998   7.386  71.493  1.00  0.00    -0.132 C  
BRANCH   6   7
HETATM    7  C   UNL     1      -9.286   8.885  71.429  1.00  0.00    -0.338 C  
BRANCH   7   8
HETATM    8  C   UNL     1     -10.787   9.153  71.358  1.00  0.00    -0.419 C  
BRANCH   8   9
HETATM    9  C   UNL     1     -11.219   9.470  69.926  1.00  0.00    -0.209 C  
BRANCH   9  10
HETATM   10  C   UNL     1     -10.087  10.144  69.158  1.00  0.00    -0.226 C  
BRANCH  10  11
HETATM   11  C   UNL     1     -10.356  10.165  67.654  1.00  0.00    -0.265 C  
BRANCH  11  12
HETATM   12  C   UNL     1     -11.224  11.367  67.296  1.00  0.00    -0.370 C  
BRANCH  12  13
HETATM   13  C   UNL     1     -10.983  11.861  65.872  1.00  0.00    -0.354 C  
BRANCH  13  14
HETATM   14  C   UNL     1     -12.173  12.650  65.381  1.00  0.00    -0.459 C  
HETATM   15  O   UNL     1     -12.964  12.271  64.527  1.00  0.00    -0.738 OA 
BRANCH  14  16
HETATM   16  O   UNL     1     -12.238  13.847  66.029  1.00  0.00    -0.412 OA 
BRANCH  16  17
HETATM   17  C   UNL     1     -11.149  14.750  65.756  1.00  0.00    -0.338 C  
HETATM   18  C   UNL     1     -11.524  15.674  64.602  1.00  0.00    -0.306 C  
HETATM   19  C   UNL     1     -10.886  15.548  67.025  1.00  0.00    -0.314 C  
ENDBRANCH  16  17
ENDBRANCH  14  16
ENDBRANCH  13  14
ENDBRANCH  12  13
ENDBRANCH  11  12
ENDBRANCH  10  11
ENDBRANCH   9  10
ENDBRANCH   8   9
ENDBRANCH   7   8
ENDBRANCH   6   7
ENDBRANCH   5   6
ENDBRANCH   4   5
ENDBRANCH   3   4
ENDBRANCH   2   3
TORSDOF 14
ENDMDL
MODEL      178
REMARK 921   NORMALIZED FREE ENERGY PREDICTED BY IDOCK:   -3.54 KCAL/MOL
REMARK 922        TOTAL FREE ENERGY PREDICTED BY IDOCK:   -8.00 KCAL/MOL
REMARK 923 INTER-LIGAND FREE ENERGY PREDICTED BY IDOCK:   -6.12 KCAL/MOL
REMARK 924 INTRA-LIGAND FREE ENERGY PREDICTED BY IDOCK:   -1.88 KCAL/MOL
REMARK 927      BINDING AFFINITY PREDICTED BY RF-SCORE:    0.00 PKD
ROOT
HETATM    1  C   UNL     1      -6.857  14.261  69.059  1.00  0.00    -0.109 C  
HETATM    2  C   UNL     1      -6.713  15.714  69.483  1.00  0.00    -0.185 C  
ENDROOT
BRANCH   2   3
HETATM    3  C   UNL     1      -6.295  16.594  68.308  1.00  0.00    -0.136 C  
BRANCH   3   4
HETATM    4  C   UNL     1      -7.010  17.945  68.345  1.00  0.00    -0.234 C  
BRANCH   4   5
HETATM    5  C   UNL     1      -7.733  18.215  67.027  1.00  0.00    -0.237 C  
BRANCH   5   6
HETATM    6  C   UNL     1      -7.887  16.936  66.207  1.00  0.00    -0.346 C  
BRANCH   6   7
HETATM    7  C   UNL     1      -9.329  16.432  66.256  1.00  0.00    -0.348 C  
BRANCH   7   8
HETATM    8  C   UNL     1     -10.242  17.443  66.944  1.00  0.00    -0.322 C  
BRANCH   8   9
HETATM    9  C   UNL     1     -11.111  16.765  68.001  1.00  0.00    -0.220 C  
BRANCH   9  10
HETATM   10  C   UNL     1     -10.272  15.841  68.878  1.00  0.00    -0.219 C  
BRANCH  10  11
HETATM   11  C   UNL     1     -11.102  14.692  69.449  1.00  0.00    -0.293 C  
BRANCH  11  12
HETATM   12  C   UNL     1     -10.696  13.378  68.790  1.00  0.00    -0.257 C  
BRANCH  12  13
HETATM   13  C   UNL     1     -10.857  13.410  67.272  1.00  0.00    -0.278 C  
BRANCH  13  14
HETATM   14  C   UNL     1     -11.776  12.300  66.820  1.00  0.00    -0.342 C  
HETATM   15  O   UNL     1     -11.846  11.192  67.333  1.00  0.00    -0.570 OA 
BRANCH  14  16
HETATM   16  O   UNL     1     -12.517  12.714  65.753  1.00  0.00    -0.607 OA 
BRANCH  16  17
HETATM   17  C   UNL     1     -11.753  13.153  64.612  1.00  0.00    -0.361 C  
HETATM   18  C   UNL     1     -12.063  12.263  63.413  1.00  0.00    -0.615 C  
HETATM   19  C   UNL     1     -12.143  14.597  64.329  1.00  0.00    -0.437 C  
ENDBRANCH  16  17
ENDBRANCH  14  16
ENDBRANCH  13  14
ENDBRANCH  12  13
ENDBRANCH  11  12
ENDBRANCH  10  11
ENDBRANCH   9  10
ENDBRANCH   8   9
ENDBRANCH   7   8
ENDBRANCH   6   7
ENDBRANCH   5   6
ENDBRANCH   4   5
ENDBRANCH   3   4
ENDBRANCH   2   3
TORSDOF 14
ENDMDL
MODEL      179
REMARK 921   NORMALIZED FREE ENERGY PREDICTED BY IDOCK:   -3.54 KCAL/MOL
REMARK 922        TOTAL FREE ENERGY PREDICTED BY IDOCK:   -8.00 KCAL/MOL
REMARK 923 INTER-LIGAND FREE ENERGY PREDICTED BY IDOCK:   -6.10 KCAL/MOL
REMARK 924 INTRA-LIGAND FREE ENERGY PREDICTED BY IDOCK:   -1.90 KCAL/MOL
REMARK 927      BINDING AFFINITY PREDICTED BY RF-SCORE:    0.00 PKD
ROOT
HETATM    1  C   UNL     1      -8.080   8.399  63.325  1.00  0.00    -0.151 C  
HETATM    2  C   UNL     1      -8.710   9.782  63.353  1.00  0.00    -0.235 C  
ENDROOT
BRANCH   2   3
HETATM    3  C   UNL     1      -9.047  10.207  64.781  1.00  0.00    -0.262 C  
BRANCH   3   4
HETATM    4  C   UNL     1     -10.341  11.019  64.827  1.00  0.00    -0.389 C  
BRANCH   4   5
HETATM    5  C   UNL     1     -10.761  11.455  63.424  1.00  0.00    -0.405 C  
BRANCH   5   6
HETATM    6  C   UNL     1     -11.671  12.680  63.475  1.00  0.00    -0.604 C  
BRANCH   6   7
HETATM    7  C   UNL     1     -12.629  12.595  64.662  1.00  0.00    -0.517 C  
BRANCH   7   8
HETATM    8  C   UNL     1     -12.697  13.924  65.409  1.00  0.00    -0.525 C  
BRANCH   8   9
HETATM    9  C   UNL     1     -11.296  14.476  65.673  1.00  0.00    -0.336 C  
BRANCH   9  10
HETATM   10  C   UNL     1     -10.746  13.944  66.993  1.00  0.00    -0.283 C  
BRANCH  10  11
HETATM   11  C   UNL     1     -11.865  13.548  67.955  1.00  0.00    -0.400 C  
BRANCH  11  12
HETATM   12  C   UNL     1     -11.702  12.091  68.374  1.00  0.00    -0.390 C  
BRANCH  12  13
HETATM   13  C   UNL     1     -10.240  11.655  68.421  1.00  0.00    -0.211 C  
BRANCH  13  14
HETATM   14  C   UNL     1     -10.108  10.338  69.149  1.00  0.00    -0.218 C  
HETATM   15  O   UNL     1     -10.477  10.130  70.297  1.00  0.00    -0.281 OA 
BRANCH  14  16
HETATM   16  O   UNL     1      -9.516   9.416  68.340  1.00  0.00    -0.141 OA 
BRANCH  16  17
HETATM   17  C   UNL     1     -10.060   8.084  68.430  1.00  0.00    -0.195 C  
HETATM   18  C   UNL     1     -10.467   7.600  67.042  1.00  0.00    -0.419 C  
HETATM   19  C   UNL     1      -8.981   7.188  69.022  1.00  0.00    -0.134 C  
ENDBRANCH  16  17
ENDBRANCH  14  16
ENDBRANCH  13  14
ENDBRANCH  12  13
ENDBRANCH  11  12
ENDBRANCH  10  11
ENDBRANCH   9  10
ENDBRANCH   8   9
ENDBRANCH   7   8
ENDBRANCH   6   7
ENDBRANCH   5   6
ENDBRANCH   4   5
ENDBRANCH   3   4
ENDBRANCH   2   3
TORSDOF 14
ENDMDL
MODEL      180
REMARK 921   NORMALIZED FREE ENERGY PREDICTED BY IDOCK:   -3.53 KCAL/MOL
REMARK 922        TOTAL FREE ENERGY PREDICTED BY IDOCK:   -7.99 KCAL/MOL
REMARK 923 INTER-LIGAND FREE ENERGY PREDICTED BY IDOCK:   -6.08 KCAL/MOL
REMARK 924 INTRA-LIGAND FREE ENERGY PREDICTED BY IDOCK:   -1.91 KCAL/MOL
REMARK 927      BINDING AFFINITY PREDICTED BY RF-SCORE:    0.00 PKD
ROOT
HETATM    1  C   UNL     1     -10.675  16.651  69.451  1.00  0.00    -0.331 C  
HETATM    2  C   UNL     1     -11.131  16.452  68.015  1.00  0.00    -0.292 C  
ENDROOT
BRANCH   2   3
HETATM    3  C   UNL     1     -10.369  17.369  67.061  1.00  0.00    -0.318 C  
BRANCH   3   4
HETATM    4  C   UNL     1     -10.743  18.834  67.282  1.00  0.00    -0.490 C  
BRANCH   4   5
HETATM    5  C   UNL     1      -9.947  19.746  66.351  1.00  0.00    -0.578 C  
BRANCH   5   6
HETATM    6  C   UNL     1      -8.446  19.495  66.479  1.00  0.00    -0.365 C  
BRANCH   6   7
HETATM    7  C   UNL     1      -7.913  20.058  67.796  1.00  0.00    -0.324 C  
BRANCH   7   8
HETATM    8  C   UNL     1      -7.171  18.988  68.591  1.00  0.00    -0.351 C  
BRANCH   8   9
HETATM    9  C   UNL     1      -6.855  17.776  67.716  1.00  0.00    -0.187 C  
BRANCH   9  10
HETATM   10  C   UNL     1      -7.104  16.479  68.479  1.00  0.00    -0.164 C  
BRANCH  10  11
HETATM   11  C   UNL     1      -7.085  15.263  67.553  1.00  0.00    -0.224 C  
BRANCH  11  12
HETATM   12  C   UNL     1      -8.299  14.381  67.825  1.00  0.00    -0.172 C  
BRANCH  12  13
HETATM   13  C   UNL     1      -8.539  13.359  66.718  1.00  0.00    -0.043 C  
BRANCH  13  14
HETATM   14  C   UNL     1     -10.013  13.265  66.402  1.00  0.00    -0.288 C  
HETATM   15  O   UNL     1     -10.909  13.228  67.235  1.00  0.00    -0.260 OA 
BRANCH  14  16
HETATM   16  O   UNL     1     -10.200  13.223  65.053  1.00  0.00    -0.321 OA 
BRANCH  16  17
HETATM   17  C   UNL     1     -11.077  12.179  64.589  1.00  0.00    -0.317 C  
HETATM   18  C   UNL     1     -12.007  12.729  63.513  1.00  0.00    -0.633 C  
HETATM   19  C   UNL     1     -10.205  11.063  64.031  1.00  0.00    -0.420 C  
ENDBRANCH  16  17
ENDBRANCH  14  16
ENDBRANCH  13  14
ENDBRANCH  12  13
ENDBRANCH  11  12
ENDBRANCH  10  11
ENDBRANCH   9  10
ENDBRANCH   8   9
ENDBRANCH   7   8
ENDBRANCH   6   7
ENDBRANCH   5   6
ENDBRANCH   4   5
ENDBRANCH   3   4
ENDBRANCH   2   3
TORSDOF 14
ENDMDL
MODEL      181
REMARK 921   NORMALIZED FREE ENERGY PREDICTED BY IDOCK:   -3.53 KCAL/MOL
REMARK 922        TOTAL FREE ENERGY PREDICTED BY IDOCK:   -7.99 KCAL/MOL
REMARK 923 INTER-LIGAND FREE ENERGY PREDICTED BY IDOCK:   -6.89 KCAL/MOL
REMARK 924 INTRA-LIGAND FREE ENERGY PREDICTED BY IDOCK:   -1.10 KCAL/MOL
REMARK 927      BINDING AFFINITY PREDICTED BY RF-SCORE:    0.00 PKD
ROOT
HETATM    1  C   UNL     1     -10.710  16.806  68.743  1.00  0.00    -0.341 C  
HETATM    2  C   UNL     1     -10.971  15.449  68.111  1.00  0.00    -0.297 C  
ENDROOT
BRANCH   2   3
HETATM    3  C   UNL     1     -11.994  14.651  68.916  1.00  0.00    -0.309 C  
BRANCH   3   4
HETATM    4  C   UNL     1     -12.500  15.451  70.116  1.00  0.00    -0.370 C  
BRANCH   4   5
HETATM    5  C   UNL     1     -12.321  14.662  71.412  1.00  0.00    -0.411 C  
BRANCH   5   6
HETATM    6  C   UNL     1     -13.665  14.195  71.966  1.00  0.00    -0.554 C  
BRANCH   6   7
HETATM    7  C   UNL     1     -13.587  12.738  72.421  1.00  0.00    -0.507 C  
BRANCH   7   8
HETATM    8  C   UNL     1     -12.894  11.871  71.373  1.00  0.00    -0.411 C  
BRANCH   8   9
HETATM    9  C   UNL     1     -12.981  10.391  71.744  1.00  0.00    -0.580 C  
BRANCH   9  10
HETATM   10  C   UNL     1     -11.823   9.612  71.128  1.00  0.00    -0.448 C  
BRANCH  10  11
HETATM   11  C   UNL     1     -11.109   8.745  72.164  1.00  0.00    -0.406 C  
BRANCH  11  12
HETATM   12  C   UNL     1     -11.648   7.319  72.111  1.00  0.00    -0.324 C  
BRANCH  12  13
HETATM   13  C   UNL     1     -12.028   6.889  70.696  1.00  0.00    -0.400 C  
BRANCH  13  14
HETATM   14  C   UNL     1     -10.988   5.946  70.138  1.00  0.00    -0.342 C  
HETATM   15  O   UNL     1     -10.311   5.173  70.803  1.00  0.00    -0.240 OA 
BRANCH  14  16
HETATM   16  O   UNL     1     -10.913   6.084  68.785  1.00  0.00    -0.317 OA 
BRANCH  16  17
HETATM   17  C   UNL     1     -10.399   7.350  68.327  1.00  0.00    -0.194 C  
HETATM   18  C   UNL     1      -8.971   7.537  68.828  1.00  0.00    -0.129 C  
HETATM   19  C   UNL     1     -10.441   7.338  66.805  1.00  0.00    -0.311 C  
ENDBRANCH  16  17
ENDBRANCH  14  16
ENDBRANCH  13  14
ENDBRANCH  12  13
ENDBRANCH  11  12
ENDBRANCH  10  11
ENDBRANCH   9  10
ENDBRANCH   8   9
ENDBRANCH   7   8
ENDBRANCH   6   7
ENDBRANCH   5   6
ENDBRANCH   4   5
ENDBRANCH   3   4
ENDBRANCH   2   3
TORSDOF 14
ENDMDL
MODEL      182
REMARK 921   NORMALIZED FREE ENERGY PREDICTED BY IDOCK:   -3.53 KCAL/MOL
REMARK 922        TOTAL FREE ENERGY PREDICTED BY IDOCK:   -7.98 KCAL/MOL
REMARK 923 INTER-LIGAND FREE ENERGY PREDICTED BY IDOCK:   -6.09 KCAL/MOL
REMARK 924 INTRA-LIGAND FREE ENERGY PREDICTED BY IDOCK:   -1.88 KCAL/MOL
REMARK 927      BINDING AFFINITY PREDICTED BY RF-SCORE:    0.00 PKD
ROOT
HETATM    1  C   UNL     1     -10.126   7.341  66.910  1.00  0.00    -0.317 C  
HETATM    2  C   UNL     1     -11.006   6.281  67.551  1.00  0.00    -0.444 C  
ENDROOT
BRANCH   2   3
HETATM    3  C   UNL     1     -11.189   6.543  69.044  1.00  0.00    -0.354 C  
BRANCH   3   4
HETATM    4  C   UNL     1     -10.247   5.675  69.878  1.00  0.00    -0.320 C  
BRANCH   4   5
HETATM    5  C   UNL     1     -10.505   5.872  71.371  1.00  0.00    -0.291 C  
BRANCH   5   6
HETATM    6  C   UNL     1     -11.596   6.912  71.613  1.00  0.00    -0.325 C  
BRANCH   6   7
HETATM    7  C   UNL     1     -11.053   8.091  72.420  1.00  0.00    -0.416 C  
BRANCH   7   8
HETATM    8  C   UNL     1     -10.673   9.253  71.506  1.00  0.00    -0.425 C  
BRANCH   8   9
HETATM    9  C   UNL     1     -11.913  10.027  71.061  1.00  0.00    -0.469 C  
BRANCH   9  10
HETATM   10  C   UNL     1     -11.843  10.347  69.572  1.00  0.00    -0.218 C  
BRANCH  10  11
HETATM   11  C   UNL     1     -10.417  10.240  69.034  1.00  0.00    -0.238 C  
BRANCH  11  12
HETATM   12  C   UNL     1     -10.304  10.980  67.705  1.00  0.00    -0.218 C  
BRANCH  12  13
HETATM   13  C   UNL     1      -9.905  12.443  67.881  1.00  0.00    -0.202 C  
BRANCH  13  14
HETATM   14  C   UNL     1     -10.704  13.320  66.946  1.00  0.00    -0.271 C  
HETATM   15  O   UNL     1     -10.427  13.532  65.773  1.00  0.00    -0.280 OA 
BRANCH  14  16
HETATM   16  O   UNL     1     -11.777  13.844  67.602  1.00  0.00    -0.327 OA 
BRANCH  16  17
HETATM   17  C   UNL     1     -11.473  14.502  68.847  1.00  0.00    -0.300 C  
HETATM   18  C   UNL     1     -11.493  16.014  68.647  1.00  0.00    -0.377 C  
HETATM   19  C   UNL     1     -12.526  14.076  69.860  1.00  0.00    -0.301 C  
ENDBRANCH  16  17
ENDBRANCH  14  16
ENDBRANCH  13  14
ENDBRANCH  12  13
ENDBRANCH  11  12
ENDBRANCH  10  11
ENDBRANCH   9  10
ENDBRANCH   8   9
ENDBRANCH   7   8
ENDBRANCH   6   7
ENDBRANCH   5   6
ENDBRANCH   4   5
ENDBRANCH   3   4
ENDBRANCH   2   3
TORSDOF 14
ENDMDL
MODEL      183
REMARK 921   NORMALIZED FREE ENERGY PREDICTED BY IDOCK:   -3.52 KCAL/MOL
REMARK 922        TOTAL FREE ENERGY PREDICTED BY IDOCK:   -7.97 KCAL/MOL
REMARK 923 INTER-LIGAND FREE ENERGY PREDICTED BY IDOCK:   -6.37 KCAL/MOL
REMARK 924 INTRA-LIGAND FREE ENERGY PREDICTED BY IDOCK:   -1.60 KCAL/MOL
REMARK 927      BINDING AFFINITY PREDICTED BY RF-SCORE:    0.00 PKD
ROOT
HETATM    1  C   UNL     1      -9.757   9.837  65.465  1.00  0.00    -0.382 C  
HETATM    2  C   UNL     1      -9.560   8.617  66.351  1.00  0.00    -0.316 C  
ENDROOT
BRANCH   2   3
HETATM    3  C   UNL     1     -10.485   8.661  67.565  1.00  0.00    -0.335 C  
BRANCH   3   4
HETATM    4  C   UNL     1      -9.701   8.926  68.850  1.00  0.00    -0.173 C  
BRANCH   4   5
HETATM    5  C   UNL     1     -10.264  10.138  69.591  1.00  0.00    -0.272 C  
BRANCH   5   6
HETATM    6  C   UNL     1     -11.454  10.739  68.847  1.00  0.00    -0.362 C  
BRANCH   6   7
HETATM    7  C   UNL     1     -11.850  12.084  69.453  1.00  0.00    -0.384 C  
BRANCH   7   8
HETATM    8  C   UNL     1     -11.874  13.180  68.391  1.00  0.00    -0.386 C  
BRANCH   8   9
HETATM    9  C   UNL     1     -11.437  12.635  67.032  1.00  0.00    -0.406 C  
BRANCH   9  10
HETATM   10  C   UNL     1     -10.294  13.467  66.459  1.00  0.00    -0.284 C  
BRANCH  10  11
HETATM   11  C   UNL     1     -10.588  13.929  65.033  1.00  0.00    -0.418 C  
BRANCH  11  12
HETATM   12  C   UNL     1     -10.703  15.449  64.990  1.00  0.00    -0.460 C  
BRANCH  12  13
HETATM   13  C   UNL     1     -10.631  16.081  66.378  1.00  0.00    -0.284 C  
BRANCH  13  14
HETATM   14  C   UNL     1     -10.224  17.532  66.273  1.00  0.00    -0.355 C  
HETATM   15  O   UNL     1     -10.702  18.341  65.490  1.00  0.00    -0.596 OA 
BRANCH  14  16
HETATM   16  O   UNL     1      -9.243  17.807  67.178  1.00  0.00    -0.245 OA 
BRANCH  16  17
HETATM   17  C   UNL     1      -8.256  16.771  67.345  1.00  0.00    -0.177 C  
HETATM   18  C   UNL     1      -7.024  17.095  66.507  1.00  0.00    -0.296 C  
HETATM   19  C   UNL     1      -7.903  16.709  68.825  1.00  0.00    -0.238 C  
ENDBRANCH  16  17
ENDBRANCH  14  16
ENDBRANCH  13  14
ENDBRANCH  12  13
ENDBRANCH  11  12
ENDBRANCH  10  11
ENDBRANCH   9  10
ENDBRANCH   8   9
ENDBRANCH   7   8
ENDBRANCH   6   7
ENDBRANCH   5   6
ENDBRANCH   4   5
ENDBRANCH   3   4
ENDBRANCH   2   3
TORSDOF 14
ENDMDL
MODEL      184
REMARK 921   NORMALIZED FREE ENERGY PREDICTED BY IDOCK:   -3.51 KCAL/MOL
REMARK 922        TOTAL FREE ENERGY PREDICTED BY IDOCK:   -7.96 KCAL/MOL
REMARK 923 INTER-LIGAND FREE ENERGY PREDICTED BY IDOCK:   -6.76 KCAL/MOL
REMARK 924 INTRA-LIGAND FREE ENERGY PREDICTED BY IDOCK:   -1.20 KCAL/MOL
REMARK 927      BINDING AFFINITY PREDICTED BY RF-SCORE:    0.00 PKD
ROOT
HETATM    1  C   UNL     1     -12.119  13.331  63.669  1.00  0.00    -0.551 C  
HETATM    2  C   UNL     1     -11.768  11.865  63.478  1.00  0.00    -0.550 C  
ENDROOT
BRANCH   2   3
HETATM    3  C   UNL     1     -10.304  11.598  63.820  1.00  0.00    -0.445 C  
BRANCH   3   4
HETATM    4  C   UNL     1     -10.175  10.757  65.089  1.00  0.00    -0.365 C  
BRANCH   4   5
HETATM    5  C   UNL     1      -9.876  11.640  66.300  1.00  0.00    -0.245 C  
BRANCH   5   6
HETATM    6  C   UNL     1     -11.161  12.074  67.001  1.00  0.00    -0.377 C  
BRANCH   6   7
HETATM    7  C   UNL     1     -11.454  11.176  68.201  1.00  0.00    -0.373 C  
BRANCH   7   8
HETATM    8  C   UNL     1     -11.887  11.999  69.411  1.00  0.00    -0.384 C  
BRANCH   8   9
HETATM    9  C   UNL     1     -12.105  13.462  69.028  1.00  0.00    -0.299 C  
BRANCH   9  10
HETATM   10  C   UNL     1     -11.584  14.389  70.122  1.00  0.00    -0.327 C  
BRANCH  10  11
HETATM   11  C   UNL     1     -11.383  15.815  69.609  1.00  0.00    -0.334 C  
BRANCH  11  12
HETATM   12  C   UNL     1     -11.409  15.829  68.084  1.00  0.00    -0.337 C  
BRANCH  12  13
HETATM   13  C   UNL     1     -10.600  16.982  67.495  1.00  0.00    -0.310 C  
BRANCH  13  14
HETATM   14  C   UNL     1      -9.706  16.482  66.385  1.00  0.00    -0.285 C  
HETATM   15  O   UNL     1      -9.755  15.363  65.893  1.00  0.00    -0.311 OA 
BRANCH  14  16
HETATM   16  O   UNL     1      -8.834  17.460  66.013  1.00  0.00    -0.498 OA 
BRANCH  16  17
HETATM   17  C   UNL     1      -7.441  17.146  66.210  1.00  0.00    -0.309 C  
HETATM   18  C   UNL     1      -6.577  18.278  65.667  1.00  0.00    -0.298 C  
HETATM   19  C   UNL     1      -7.220  16.965  67.705  1.00  0.00    -0.158 C  
ENDBRANCH  16  17
ENDBRANCH  14  16
ENDBRANCH  13  14
ENDBRANCH  12  13
ENDBRANCH  11  12
ENDBRANCH  10  11
ENDBRANCH   9  10
ENDBRANCH   8   9
ENDBRANCH   7   8
ENDBRANCH   6   7
ENDBRANCH   5   6
ENDBRANCH   4   5
ENDBRANCH   3   4
ENDBRANCH   2   3
TORSDOF 14
ENDMDL
MODEL      185
REMARK 921   NORMALIZED FREE ENERGY PREDICTED BY IDOCK:   -3.51 KCAL/MOL
REMARK 922        TOTAL FREE ENERGY PREDICTED BY IDOCK:   -7.95 KCAL/MOL
REMARK 923 INTER-LIGAND FREE ENERGY PREDICTED BY IDOCK:   -6.33 KCAL/MOL
REMARK 924 INTRA-LIGAND FREE ENERGY PREDICTED BY IDOCK:   -1.61 KCAL/MOL
REMARK 927      BINDING AFFINITY PREDICTED BY RF-SCORE:    0.00 PKD
ROOT
HETATM    1  C   UNL     1     -10.425   5.365  69.456  1.00  0.00    -0.343 C  
HETATM    2  C   UNL     1     -11.098   6.585  68.848  1.00  0.00    -0.371 C  
ENDROOT
BRANCH   2   3
HETATM    3  C   UNL     1     -10.109   7.409  68.026  1.00  0.00    -0.216 C  
BRANCH   3   4
HETATM    4  C   UNL     1     -10.643   8.818  67.768  1.00  0.00    -0.256 C  
BRANCH   4   5
HETATM    5  C   UNL     1     -10.222   9.315  66.386  1.00  0.00    -0.298 C  
BRANCH   5   6
HETATM    6  C   UNL     1      -8.813   9.904  66.414  1.00  0.00    -0.159 C  
BRANCH   6   7
HETATM    7  C   UNL     1      -8.460  10.530  65.066  1.00  0.00    -0.166 C  
BRANCH   7   8
HETATM    8  C   UNL     1      -9.554  10.267  64.034  1.00  0.00    -0.365 C  
BRANCH   8   9
HETATM    9  C   UNL     1     -10.028  11.571  63.395  1.00  0.00    -0.445 C  
BRANCH   9  10
HETATM   10  C   UNL     1     -11.496  11.830  63.722  1.00  0.00    -0.510 C  
BRANCH  10  11
HETATM   11  C   UNL     1     -11.728  13.264  64.194  1.00  0.00    -0.470 C  
BRANCH  11  12
HETATM   12  C   UNL     1     -10.930  13.530  65.466  1.00  0.00    -0.295 C  
BRANCH  12  13
HETATM   13  C   UNL     1     -11.584  12.924  66.706  1.00  0.00    -0.416 C  
BRANCH  13  14
HETATM   14  C   UNL     1     -11.565  13.914  67.846  1.00  0.00    -0.342 C  
HETATM   15  O   UNL     1     -11.895  15.090  67.761  1.00  0.00    -0.336 OA 
BRANCH  14  16
HETATM   16  O   UNL     1     -11.123  13.308  68.983  1.00  0.00    -0.255 OA 
BRANCH  16  17
HETATM   17  C   UNL     1     -12.153  12.729  69.808  1.00  0.00    -0.237 C  
HETATM   18  C   UNL     1     -11.728  11.336  70.259  1.00  0.00    -0.415 C  
HETATM   19  C   UNL     1     -12.352  13.649  71.004  1.00  0.00    -0.436 C  
ENDBRANCH  16  17
ENDBRANCH  14  16
ENDBRANCH  13  14
ENDBRANCH  12  13
ENDBRANCH  11  12
ENDBRANCH  10  11
ENDBRANCH   9  10
ENDBRANCH   8   9
ENDBRANCH   7   8
ENDBRANCH   6   7
ENDBRANCH   5   6
ENDBRANCH   4   5
ENDBRANCH   3   4
ENDBRANCH   2   3
TORSDOF 14
ENDMDL
MODEL      186
REMARK 921   NORMALIZED FREE ENERGY PREDICTED BY IDOCK:   -3.51 KCAL/MOL
REMARK 922        TOTAL FREE ENERGY PREDICTED BY IDOCK:   -7.94 KCAL/MOL
REMARK 923 INTER-LIGAND FREE ENERGY PREDICTED BY IDOCK:   -6.74 KCAL/MOL
REMARK 924 INTRA-LIGAND FREE ENERGY PREDICTED BY IDOCK:   -1.20 KCAL/MOL
REMARK 927      BINDING AFFINITY PREDICTED BY RF-SCORE:    0.00 PKD
ROOT
HETATM    1  C   UNL     1      -7.079  10.056  63.749  1.00  0.00    -0.129 C  
HETATM    2  C   UNL     1      -7.980   9.867  64.959  1.00  0.00    -0.137 C  
ENDROOT
BRANCH   2   3
HETATM    3  C   UNL     1      -9.453   9.990  64.576  1.00  0.00    -0.359 C  
BRANCH   3   4
HETATM    4  C   UNL     1      -9.916  11.446  64.616  1.00  0.00    -0.315 C  
BRANCH   4   5
HETATM    5  C   UNL     1     -10.610  11.833  63.311  1.00  0.00    -0.427 C  
BRANCH   5   6
HETATM    6  C   UNL     1     -11.807  12.745  63.569  1.00  0.00    -0.618 C  
BRANCH   6   7
HETATM    7  C   UNL     1     -12.241  12.668  65.032  1.00  0.00    -0.535 C  
BRANCH   7   8
HETATM    8  C   UNL     1     -12.539  14.057  65.591  1.00  0.00    -0.542 C  
BRANCH   8   9
HETATM    9  C   UNL     1     -11.734  14.319  66.863  1.00  0.00    -0.430 C  
BRANCH   9  10
HETATM   10  C   UNL     1     -10.238  14.225  66.584  1.00  0.00    -0.272 C  
BRANCH  10  11
HETATM   11  C   UNL     1      -9.680  15.536  66.032  1.00  0.00    -0.378 C  
BRANCH  11  12
HETATM   12  C   UNL     1     -10.038  16.689  66.964  1.00  0.00    -0.281 C  
BRANCH  12  13
HETATM   13  C   UNL     1     -10.374  17.972  66.208  1.00  0.00    -0.384 C  
BRANCH  13  14
HETATM   14  C   UNL     1      -9.913  19.178  66.991  1.00  0.00    -0.347 C  
HETATM   15  O   UNL     1     -10.502  19.661  67.949  1.00  0.00    -0.426 OA 
BRANCH  14  16
HETATM   16  O   UNL     1      -8.744  19.651  66.474  1.00  0.00    -0.328 OA 
BRANCH  16  17
HETATM   17  C   UNL     1      -7.549  19.075  67.035  1.00  0.00    -0.228 C  
HETATM   18  C   UNL     1      -6.605  18.654  65.914  1.00  0.00    -0.291 C  
HETATM   19  C   UNL     1      -6.902  20.133  67.919  1.00  0.00    -0.313 C  
ENDBRANCH  16  17
ENDBRANCH  14  16
ENDBRANCH  13  14
ENDBRANCH  12  13
ENDBRANCH  11  12
ENDBRANCH  10  11
ENDBRANCH   9  10
ENDBRANCH   8   9
ENDBRANCH   7   8
ENDBRANCH   6   7
ENDBRANCH   5   6
ENDBRANCH   4   5
ENDBRANCH   3   4
ENDBRANCH   2   3
TORSDOF 14
ENDMDL
MODEL      187
REMARK 921   NORMALIZED FREE ENERGY PREDICTED BY IDOCK:   -3.50 KCAL/MOL
REMARK 922        TOTAL FREE ENERGY PREDICTED BY IDOCK:   -7.94 KCAL/MOL
REMARK 923 INTER-LIGAND FREE ENERGY PREDICTED BY IDOCK:   -6.47 KCAL/MOL
REMARK 924 INTRA-LIGAND FREE ENERGY PREDICTED BY IDOCK:   -1.47 KCAL/MOL
REMARK 927      BINDING AFFINITY PREDICTED BY RF-SCORE:    0.00 PKD
ROOT
HETATM    1  C   UNL     1     -11.174  15.477  68.177  1.00  0.00    -0.343 C  
HETATM    2  C   UNL     1     -12.145  14.324  67.978  1.00  0.00    -0.289 C  
ENDROOT
BRANCH   2   3
HETATM    3  C   UNL     1     -12.057  13.767  66.559  1.00  0.00    -0.483 C  
BRANCH   3   4
HETATM    4  C   UNL     1     -11.736  12.273  66.569  1.00  0.00    -0.420 C  
BRANCH   4   5
HETATM    5  C   UNL     1     -10.894  11.904  67.789  1.00  0.00    -0.254 C  
BRANCH   5   6
HETATM    6  C   UNL     1     -11.364  10.591  68.410  1.00  0.00    -0.328 C  
BRANCH   6   7
HETATM    7  C   UNL     1     -11.223  10.628  69.931  1.00  0.00    -0.378 C  
BRANCH   7   8
HETATM    8  C   UNL     1     -12.154  11.670  70.544  1.00  0.00    -0.458 C  
BRANCH   8   9
HETATM    9  C   UNL     1     -13.007  11.057  71.654  1.00  0.00    -0.561 C  
BRANCH   9  10
HETATM   10  C   UNL     1     -13.772   9.843  71.138  1.00  0.00    -0.117 C  
BRANCH  10  11
HETATM   11  C   UNL     1     -13.853   8.735  72.187  1.00  0.00    -0.513 C  
BRANCH  11  12
HETATM   12  C   UNL     1     -13.472   7.396  71.562  1.00  0.00    -0.445 C  
BRANCH  12  13
HETATM   13  C   UNL     1     -11.976   7.287  71.277  1.00  0.00    -0.359 C  
BRANCH  13  14
HETATM   14  C   UNL     1     -11.234   6.869  72.524  1.00  0.00    -0.267 C  
HETATM   15  O   UNL     1     -11.271   5.751  73.022  1.00  0.00    -0.273 OA 
BRANCH  14  16
HETATM   16  O   UNL     1     -10.518   7.919  73.016  1.00  0.00    -0.334 OA 
BRANCH  16  17
HETATM   17  C   UNL     1      -9.091   7.818  72.848  1.00  0.00    -0.197 C  
HETATM   18  C   UNL     1      -8.639   8.746  71.725  1.00  0.00    -0.198 C  
HETATM   19  C   UNL     1      -8.446   8.213  74.169  1.00  0.00    -0.250 C  
ENDBRANCH  16  17
ENDBRANCH  14  16
ENDBRANCH  13  14
ENDBRANCH  12  13
ENDBRANCH  11  12
ENDBRANCH  10  11
ENDBRANCH   9  10
ENDBRANCH   8   9
ENDBRANCH   7   8
ENDBRANCH   6   7
ENDBRANCH   5   6
ENDBRANCH   4   5
ENDBRANCH   3   4
ENDBRANCH   2   3
TORSDOF 14
ENDMDL
MODEL      188
REMARK 921   NORMALIZED FREE ENERGY PREDICTED BY IDOCK:   -3.50 KCAL/MOL
REMARK 922        TOTAL FREE ENERGY PREDICTED BY IDOCK:   -7.94 KCAL/MOL
REMARK 923 INTER-LIGAND FREE ENERGY PREDICTED BY IDOCK:   -6.21 KCAL/MOL
REMARK 924 INTRA-LIGAND FREE ENERGY PREDICTED BY IDOCK:   -1.73 KCAL/MOL
REMARK 927      BINDING AFFINITY PREDICTED BY RF-SCORE:    0.00 PKD
ROOT
HETATM    1  C   UNL     1     -12.370  12.633  63.937  1.00  0.00    -0.546 C  
HETATM    2  C   UNL     1     -12.065  12.230  65.370  1.00  0.00    -0.343 C  
ENDROOT
BRANCH   2   3
HETATM    3  C   UNL     1     -10.780  11.409  65.453  1.00  0.00    -0.313 C  
BRANCH   3   4
HETATM    4  C   UNL     1     -10.236  11.091  64.061  1.00  0.00    -0.420 C  
BRANCH   4   5
HETATM    5  C   UNL     1      -9.357   9.841  64.092  1.00  0.00    -0.237 C  
BRANCH   5   6
HETATM    6  C   UNL     1      -8.522   9.783  65.369  1.00  0.00    -0.154 C  
BRANCH   6   7
HETATM    7  C   UNL     1      -8.540   8.377  65.966  1.00  0.00    -0.164 C  
BRANCH   7   8
HETATM    8  C   UNL     1      -9.235   8.365  67.325  1.00  0.00    -0.165 C  
BRANCH   8   9
HETATM    9  C   UNL     1     -10.722   8.047  67.176  1.00  0.00    -0.285 C  
BRANCH   9  10
HETATM   10  C   UNL     1     -10.955   6.540  67.182  1.00  0.00    -0.480 C  
BRANCH  10  11
HETATM   11  C   UNL     1     -10.462   5.895  68.477  1.00  0.00    -0.297 C  
BRANCH  11  12
HETATM   12  C   UNL     1     -11.305   6.376  69.653  1.00  0.00    -0.479 C  
BRANCH  12  13
HETATM   13  C   UNL     1     -10.480   6.573  70.923  1.00  0.00    -0.263 C  
BRANCH  13  14
HETATM   14  C   UNL     1     -10.749   7.935  71.516  1.00  0.00    -0.227 C  
HETATM   15  O   UNL     1     -10.285   8.347  72.572  1.00  0.00    -0.306 OA 
BRANCH  14  16
HETATM   16  O   UNL     1     -11.587   8.640  70.705  1.00  0.00    -0.278 OA 
BRANCH  16  17
HETATM   17  C   UNL     1     -11.579  10.067  70.909  1.00  0.00    -0.378 C  
HETATM   18  C   UNL     1     -11.110  10.765  69.637  1.00  0.00    -0.339 C  
HETATM   19  C   UNL     1     -12.999  10.486  71.264  1.00  0.00    -0.532 C  
ENDBRANCH  16  17
ENDBRANCH  14  16
ENDBRANCH  13  14
ENDBRANCH  12  13
ENDBRANCH  11  12
ENDBRANCH  10  11
ENDBRANCH   9  10
ENDBRANCH   8   9
ENDBRANCH   7   8
ENDBRANCH   6   7
ENDBRANCH   5   6
ENDBRANCH   4   5
ENDBRANCH   3   4
ENDBRANCH   2   3
TORSDOF 14
ENDMDL
MODEL      189
REMARK 921   NORMALIZED FREE ENERGY PREDICTED BY IDOCK:   -3.50 KCAL/MOL
REMARK 922        TOTAL FREE ENERGY PREDICTED BY IDOCK:   -7.93 KCAL/MOL
REMARK 923 INTER-LIGAND FREE ENERGY PREDICTED BY IDOCK:   -6.15 KCAL/MOL
REMARK 924 INTRA-LIGAND FREE ENERGY PREDICTED BY IDOCK:   -1.78 KCAL/MOL
REMARK 927      BINDING AFFINITY PREDICTED BY RF-SCORE:    0.00 PKD
ROOT
HETATM    1  C   UNL     1      -9.738   5.943  67.572  1.00  0.00    -0.123 C  
HETATM    2  C   UNL     1     -10.897   6.742  66.999  1.00  0.00    -0.453 C  
ENDROOT
BRANCH   2   3
HETATM    3  C   UNL     1     -10.741   8.232  67.293  1.00  0.00    -0.241 C  
BRANCH   3   4
HETATM    4  C   UNL     1      -9.268   8.625  67.396  1.00  0.00    -0.158 C  
BRANCH   4   5
HETATM    5  C   UNL     1      -9.012   9.963  66.705  1.00  0.00    -0.157 C  
BRANCH   5   6
HETATM    6  C   UNL     1      -9.738  10.042  65.363  1.00  0.00    -0.368 C  
BRANCH   6   7
HETATM    7  C   UNL     1      -9.912  11.495  64.925  1.00  0.00    -0.303 C  
BRANCH   7   8
HETATM    8  C   UNL     1     -11.333  11.753  64.429  1.00  0.00    -0.373 C  
BRANCH   8   9
HETATM    9  C   UNL     1     -12.059  12.743  65.339  1.00  0.00    -0.512 C  
BRANCH   9  10
HETATM   10  C   UNL     1     -11.221  13.054  66.575  1.00  0.00    -0.335 C  
BRANCH  10  11
HETATM   11  C   UNL     1     -11.997  13.892  67.591  1.00  0.00    -0.403 C  
BRANCH  11  12
HETATM   12  C   UNL     1     -11.803  13.323  68.993  1.00  0.00    -0.365 C  
BRANCH  12  13
HETATM   13  C   UNL     1     -11.434  11.842  68.978  1.00  0.00    -0.358 C  
BRANCH  13  14
HETATM   14  C   UNL     1     -12.012  11.146  70.188  1.00  0.00    -0.365 C  
HETATM   15  O   UNL     1     -12.644  11.696  71.080  1.00  0.00    -0.378 OA 
BRANCH  14  16
HETATM   16  O   UNL     1     -11.725   9.815  70.141  1.00  0.00    -0.221 OA 
BRANCH  16  17
HETATM   17  C   UNL     1     -11.126   9.276  71.336  1.00  0.00    -0.367 C  
HETATM   18  C   UNL     1     -11.725   7.907  71.639  1.00  0.00    -0.320 C  
HETATM   19  C   UNL     1      -9.628   9.169  71.088  1.00  0.00    -0.347 C  
ENDBRANCH  16  17
ENDBRANCH  14  16
ENDBRANCH  13  14
ENDBRANCH  12  13
ENDBRANCH  11  12
ENDBRANCH  10  11
ENDBRANCH   9  10
ENDBRANCH   8   9
ENDBRANCH   7   8
ENDBRANCH   6   7
ENDBRANCH   5   6
ENDBRANCH   4   5
ENDBRANCH   3   4
ENDBRANCH   2   3
TORSDOF 14
ENDMDL
MODEL      190
REMARK 921   NORMALIZED FREE ENERGY PREDICTED BY IDOCK:   -3.50 KCAL/MOL
REMARK 922        TOTAL FREE ENERGY PREDICTED BY IDOCK:   -7.93 KCAL/MOL
REMARK 923 INTER-LIGAND FREE ENERGY PREDICTED BY IDOCK:   -6.90 KCAL/MOL
REMARK 924 INTRA-LIGAND FREE ENERGY PREDICTED BY IDOCK:   -1.02 KCAL/MOL
REMARK 927      BINDING AFFINITY PREDICTED BY RF-SCORE:    0.00 PKD
ROOT
HETATM    1  C   UNL     1      -8.404   9.132  70.156  1.00  0.00    -0.174 C  
HETATM    2  C   UNL     1      -9.214   7.974  70.716  1.00  0.00    -0.165 C  
ENDROOT
BRANCH   2   3
HETATM    3  C   UNL     1     -10.269   8.465  71.705  1.00  0.00    -0.323 C  
BRANCH   3   4
HETATM    4  C   UNL     1     -11.597   8.748  71.004  1.00  0.00    -0.337 C  
BRANCH   4   5
HETATM    5  C   UNL     1     -12.090  10.159  71.322  1.00  0.00    -0.489 C  
BRANCH   5   6
HETATM    6  C   UNL     1     -12.590  10.867  70.064  1.00  0.00    -0.253 C  
BRANCH   6   7
HETATM    7  C   UNL     1     -11.455  11.052  69.059  1.00  0.00    -0.368 C  
BRANCH   7   8
HETATM    8  C   UNL     1     -11.768  12.178  68.077  1.00  0.00    -0.409 C  
BRANCH   8   9
HETATM    9  C   UNL     1     -11.196  11.873  66.693  1.00  0.00    -0.384 C  
BRANCH   9  10
HETATM   10  C   UNL     1     -12.027  12.546  65.605  1.00  0.00    -0.492 C  
BRANCH  10  11
HETATM   11  C   UNL     1     -12.435  13.965  65.999  1.00  0.00    -0.501 C  
BRANCH  11  12
HETATM   12  C   UNL     1     -11.362  14.956  65.561  1.00  0.00    -0.339 C  
BRANCH  12  13
HETATM   13  C   UNL     1     -10.743  15.707  66.738  1.00  0.00    -0.300 C  
BRANCH  13  14
HETATM   14  C   UNL     1      -9.583  16.552  66.269  1.00  0.00    -0.306 C  
HETATM   15  O   UNL     1      -8.433  16.154  66.133  1.00  0.00    -0.327 OA 
BRANCH  14  16
HETATM   16  O   UNL     1     -10.003  17.824  66.020  1.00  0.00    -0.482 OA 
BRANCH  16  17
HETATM   17  C   UNL     1      -9.477  18.827  66.911  1.00  0.00    -0.310 C  
HETATM   18  C   UNL     1      -8.426  19.660  66.186  1.00  0.00    -0.354 C  
HETATM   19  C   UNL     1     -10.643  19.698  67.359  1.00  0.00    -0.589 C  
ENDBRANCH  16  17
ENDBRANCH  14  16
ENDBRANCH  13  14
ENDBRANCH  12  13
ENDBRANCH  11  12
ENDBRANCH  10  11
ENDBRANCH   9  10
ENDBRANCH   8   9
ENDBRANCH   7   8
ENDBRANCH   6   7
ENDBRANCH   5   6
ENDBRANCH   4   5
ENDBRANCH   3   4
ENDBRANCH   2   3
TORSDOF 14
ENDMDL
MODEL      191
REMARK 921   NORMALIZED FREE ENERGY PREDICTED BY IDOCK:   -3.47 KCAL/MOL
REMARK 922        TOTAL FREE ENERGY PREDICTED BY IDOCK:   -7.87 KCAL/MOL
REMARK 923 INTER-LIGAND FREE ENERGY PREDICTED BY IDOCK:   -5.85 KCAL/MOL
REMARK 924 INTRA-LIGAND FREE ENERGY PREDICTED BY IDOCK:   -2.02 KCAL/MOL
REMARK 927      BINDING AFFINITY PREDICTED BY RF-SCORE:    0.00 PKD
ROOT
HETATM    1  C   UNL     1     -11.676  16.274  71.485  1.00  0.00    -0.467 C  
HETATM    2  C   UNL     1     -12.150  15.316  70.404  1.00  0.00    -0.388 C  
ENDROOT
BRANCH   2   3
HETATM    3  C   UNL     1     -11.650  15.747  69.027  1.00  0.00    -0.406 C  
BRANCH   3   4
HETATM    4  C   UNL     1     -10.167  15.424  68.849  1.00  0.00    -0.219 C  
BRANCH   4   5
HETATM    5  C   UNL     1      -9.575  16.208  67.680  1.00  0.00    -0.222 C  
BRANCH   5   6
HETATM    6  C   UNL     1      -9.560  15.371  66.402  1.00  0.00    -0.319 C  
BRANCH   6   7
HETATM    7  C   UNL     1     -10.479  15.979  65.345  1.00  0.00    -0.415 C  
BRANCH   7   8
HETATM    8  C   UNL     1     -11.318  14.903  64.661  1.00  0.00    -0.362 C  
BRANCH   8   9
HETATM    9  C   UNL     1     -12.458  14.440  65.566  1.00  0.00    -0.356 C  
BRANCH   9  10
HETATM   10  C   UNL     1     -12.617  12.924  65.503  1.00  0.00    -0.359 C  
BRANCH  10  11
HETATM   11  C   UNL     1     -11.435  12.203  66.150  1.00  0.00    -0.429 C  
BRANCH  11  12
HETATM   12  C   UNL     1     -11.493  12.363  67.665  1.00  0.00    -0.399 C  
BRANCH  12  13
HETATM   13  C   UNL     1     -10.233  11.848  68.357  1.00  0.00    -0.205 C  
BRANCH  13  14
HETATM   14  C   UNL     1     -10.527  10.562  69.092  1.00  0.00    -0.228 C  
HETATM   15  O   UNL     1     -10.617  10.452  70.307  1.00  0.00    -0.262 OA 
BRANCH  14  16
HETATM   16  O   UNL     1     -10.674   9.540  68.203  1.00  0.00    -0.227 OA 
BRANCH  16  17
HETATM   17  C   UNL     1      -9.447   8.911  67.785  1.00  0.00    -0.141 C  
HETATM   18  C   UNL     1      -9.347   7.519  68.400  1.00  0.00    -0.141 C  
HETATM   19  C   UNL     1      -9.468   8.831  66.265  1.00  0.00    -0.300 C  
ENDBRANCH  16  17
ENDBRANCH  14  16
ENDBRANCH  13  14
ENDBRANCH  12  13
ENDBRANCH  11  12
ENDBRANCH  10  11
ENDBRANCH   9  10
ENDBRANCH   8   9
ENDBRANCH   7   8
ENDBRANCH   6   7
ENDBRANCH   5   6
ENDBRANCH   4   5
ENDBRANCH   3   4
ENDBRANCH   2   3
TORSDOF 14
ENDMDL
MODEL      192
REMARK 921   NORMALIZED FREE ENERGY PREDICTED BY IDOCK:   -3.46 KCAL/MOL
REMARK 922        TOTAL FREE ENERGY PREDICTED BY IDOCK:   -7.87 KCAL/MOL
REMARK 923 INTER-LIGAND FREE ENERGY PREDICTED BY IDOCK:   -6.20 KCAL/MOL
REMARK 924 INTRA-LIGAND FREE ENERGY PREDICTED BY IDOCK:   -1.67 KCAL/MOL
REMARK 927      BINDING AFFINITY PREDICTED BY RF-SCORE:    0.00 PKD
ROOT
HETATM    1  C   UNL     1     -10.409   8.848  71.703  1.00  0.00    -0.416 C  
HETATM    2  C   UNL     1     -11.330   9.776  70.928  1.00  0.00    -0.439 C  
ENDROOT
BRANCH   2   3
HETATM    3  C   UNL     1     -12.795   9.514  71.272  1.00  0.00    -0.414 C  
BRANCH   3   4
HETATM    4  C   UNL     1     -13.420  10.714  71.982  1.00  0.00    -0.310 C  
BRANCH   4   5
HETATM    5  C   UNL     1     -12.876  12.026  71.419  1.00  0.00    -0.391 C  
BRANCH   5   6
HETATM    6  C   UNL     1     -13.498  13.231  72.121  1.00  0.00    -0.655 C  
BRANCH   6   7
HETATM    7  C   UNL     1     -13.317  14.497  71.287  1.00  0.00    -0.430 C  
BRANCH   7   8
HETATM    8  C   UNL     1     -11.901  15.049  71.426  1.00  0.00    -0.413 C  
BRANCH   8   9
HETATM    9  C   UNL     1     -11.282  15.319  70.055  1.00  0.00    -0.306 C  
BRANCH   9  10
HETATM   10  C   UNL     1     -11.905  14.416  68.995  1.00  0.00    -0.358 C  
BRANCH  10  11
HETATM   11  C   UNL     1     -11.657  14.945  67.583  1.00  0.00    -0.357 C  
BRANCH  11  12
HETATM   12  C   UNL     1     -10.312  15.663  67.524  1.00  0.00    -0.277 C  
BRANCH  12  13
HETATM   13  C   UNL     1      -9.270  14.889  66.719  1.00  0.00    -0.281 C  
BRANCH  13  14
HETATM   14  C   UNL     1      -8.536  13.917  67.611  1.00  0.00    -0.192 C  
HETATM   15  O   UNL     1      -7.900  14.223  68.611  1.00  0.00    -0.133 OA 
BRANCH  14  16
HETATM   16  O   UNL     1      -8.683  12.648  67.138  1.00  0.00    -0.189 OA 
BRANCH  16  17
HETATM   17  C   UNL     1      -9.579  11.812  67.897  1.00  0.00    -0.187 C  
HETATM   18  C   UNL     1     -10.603  11.176  66.963  1.00  0.00    -0.295 C  
HETATM   19  C   UNL     1      -8.738  10.746  68.585  1.00  0.00    -0.152 C  
ENDBRANCH  16  17
ENDBRANCH  14  16
ENDBRANCH  13  14
ENDBRANCH  12  13
ENDBRANCH  11  12
ENDBRANCH  10  11
ENDBRANCH   9  10
ENDBRANCH   8   9
ENDBRANCH   7   8
ENDBRANCH   6   7
ENDBRANCH   5   6
ENDBRANCH   4   5
ENDBRANCH   3   4
ENDBRANCH   2   3
TORSDOF 14
ENDMDL
MODEL      193
REMARK 921   NORMALIZED FREE ENERGY PREDICTED BY IDOCK:   -3.45 KCAL/MOL
REMARK 922        TOTAL FREE ENERGY PREDICTED BY IDOCK:   -7.84 KCAL/MOL
REMARK 923 INTER-LIGAND FREE ENERGY PREDICTED BY IDOCK:   -6.66 KCAL/MOL
REMARK 924 INTRA-LIGAND FREE ENERGY PREDICTED BY IDOCK:   -1.18 KCAL/MOL
REMARK 927      BINDING AFFINITY PREDICTED BY RF-SCORE:    0.00 PKD
ROOT
HETATM    1  C   UNL     1      -8.857   8.782  68.953  1.00  0.00    -0.137 C  
HETATM    2  C   UNL     1     -10.253   8.212  68.760  1.00  0.00    -0.221 C  
ENDROOT
BRANCH   2   3
HETATM    3  C   UNL     1     -10.233   6.685  68.770  1.00  0.00    -0.186 C  
BRANCH   3   4
HETATM    4  C   UNL     1     -11.311   6.122  69.695  1.00  0.00    -0.442 C  
BRANCH   4   5
HETATM    5  C   UNL     1     -10.739   5.822  71.079  1.00  0.00    -0.326 C  
BRANCH   5   6
HETATM    6  C   UNL     1     -11.761   6.114  72.176  1.00  0.00    -0.361 C  
BRANCH   6   7
HETATM    7  C   UNL     1     -11.617   7.548  72.684  1.00  0.00    -0.331 C  
BRANCH   7   8
HETATM    8  C   UNL     1     -12.628   8.473  72.011  1.00  0.00    -0.414 C  
BRANCH   8   9
HETATM    9  C   UNL     1     -11.939   9.707  71.430  1.00  0.00    -0.480 C  
BRANCH   9  10
HETATM   10  C   UNL     1     -12.968  10.730  70.961  1.00  0.00    -0.425 C  
BRANCH  10  11
HETATM   11  C   UNL     1     -13.138  11.866  71.969  1.00  0.00    -0.441 C  
BRANCH  11  12
HETATM   12  C   UNL     1     -12.776  13.198  71.319  1.00  0.00    -0.396 C  
BRANCH  12  13
HETATM   13  C   UNL     1     -13.155  14.395  72.188  1.00  0.00    -0.450 C  
BRANCH  13  14
HETATM   14  C   UNL     1     -12.329  15.600  71.806  1.00  0.00    -0.427 C  
HETATM   15  O   UNL     1     -11.798  16.367  72.598  1.00  0.00    -0.533 OA 
BRANCH  14  16
HETATM   16  O   UNL     1     -12.264  15.711  70.450  1.00  0.00    -0.381 OA 
BRANCH  16  17
HETATM   17  C   UNL     1     -11.013  16.209  69.936  1.00  0.00    -0.362 C  
HETATM   18  C   UNL     1      -9.971  15.096  69.954  1.00  0.00    -0.107 C  
HETATM   19  C   UNL     1     -11.263  16.693  68.514  1.00  0.00    -0.239 C  
ENDBRANCH  16  17
ENDBRANCH  14  16
ENDBRANCH  13  14
ENDBRANCH  12  13
ENDBRANCH  11  12
ENDBRANCH  10  11
ENDBRANCH   9  10
ENDBRANCH   8   9
ENDBRANCH   7   8
ENDBRANCH   6   7
ENDBRANCH   5   6
ENDBRANCH   4   5
ENDBRANCH   3   4
ENDBRANCH   2   3
TORSDOF 14
ENDMDL
MODEL      194
REMARK 921   NORMALIZED FREE ENERGY PREDICTED BY IDOCK:   -3.44 KCAL/MOL
REMARK 922        TOTAL FREE ENERGY PREDICTED BY IDOCK:   -7.83 KCAL/MOL
REMARK 923 INTER-LIGAND FREE ENERGY PREDICTED BY IDOCK:   -6.50 KCAL/MOL
REMARK 924 INTRA-LIGAND FREE ENERGY PREDICTED BY IDOCK:   -1.33 KCAL/MOL
REMARK 927      BINDING AFFINITY PREDICTED BY RF-SCORE:    0.00 PKD
ROOT
HETATM    1  C   UNL     1     -11.261  14.817  65.100  1.00  0.00    -0.384 C  
HETATM    2  C   UNL     1     -12.572  14.083  65.338  1.00  0.00    -0.529 C  
ENDROOT
BRANCH   2   3
HETATM    3  C   UNL     1     -12.482  12.629  64.881  1.00  0.00    -0.564 C  
BRANCH   3   4
HETATM    4  C   UNL     1     -11.863  12.523  63.488  1.00  0.00    -0.616 C  
BRANCH   4   5
HETATM    5  C   UNL     1     -10.768  11.458  63.458  1.00  0.00    -0.453 C  
BRANCH   5   6
HETATM    6  C   UNL     1     -10.293  11.112  64.867  1.00  0.00    -0.375 C  
BRANCH   6   7
HETATM    7  C   UNL     1      -9.489   9.813  64.865  1.00  0.00    -0.331 C  
BRANCH   7   8
HETATM    8  C   UNL     1      -8.228   9.945  65.715  1.00  0.00    -0.125 C  
BRANCH   8   9
HETATM    9  C   UNL     1      -8.567  10.415  67.128  1.00  0.00    -0.130 C  
BRANCH   9  10
HETATM   10  C   UNL     1      -9.273   9.311  67.909  1.00  0.00    -0.140 C  
BRANCH  10  11
HETATM   11  C   UNL     1     -10.623   9.776  68.454  1.00  0.00    -0.264 C  
BRANCH  11  12
HETATM   12  C   UNL     1     -10.530   9.995  69.960  1.00  0.00    -0.337 C  
BRANCH  12  13
HETATM   13  C   UNL     1      -9.305   9.323  70.576  1.00  0.00    -0.316 C  
BRANCH  13  14
HETATM   14  C   UNL     1      -9.687   8.598  71.844  1.00  0.00    -0.313 C  
HETATM   15  O   UNL     1      -9.035   8.602  72.880  1.00  0.00    -0.343 OA 
BRANCH  14  16
HETATM   16  O   UNL     1     -10.864   7.936  71.666  1.00  0.00    -0.225 OA 
BRANCH  16  17
HETATM   17  C   UNL     1     -10.737   6.539  71.338  1.00  0.00    -0.238 C  
HETATM   18  C   UNL     1     -11.404   5.695  72.419  1.00  0.00    -0.327 C  
HETATM   19  C   UNL     1     -11.409   6.322  69.990  1.00  0.00    -0.486 C  
ENDBRANCH  16  17
ENDBRANCH  14  16
ENDBRANCH  13  14
ENDBRANCH  12  13
ENDBRANCH  11  12
ENDBRANCH  10  11
ENDBRANCH   9  10
ENDBRANCH   8   9
ENDBRANCH   7   8
ENDBRANCH   6   7
ENDBRANCH   5   6
ENDBRANCH   4   5
ENDBRANCH   3   4
ENDBRANCH   2   3
TORSDOF 14
ENDMDL
MODEL      195
REMARK 921   NORMALIZED FREE ENERGY PREDICTED BY IDOCK:   -3.43 KCAL/MOL
REMARK 922        TOTAL FREE ENERGY PREDICTED BY IDOCK:   -7.81 KCAL/MOL
REMARK 923 INTER-LIGAND FREE ENERGY PREDICTED BY IDOCK:   -6.01 KCAL/MOL
REMARK 924 INTRA-LIGAND FREE ENERGY PREDICTED BY IDOCK:   -1.80 KCAL/MOL
REMARK 927      BINDING AFFINITY PREDICTED BY RF-SCORE:    0.00 PKD
ROOT
HETATM    1  C   UNL     1     -10.886  15.936  70.066  1.00  0.00    -0.356 C  
HETATM    2  C   UNL     1     -12.051  15.121  69.529  1.00  0.00    -0.316 C  
ENDROOT
BRANCH   2   3
HETATM    3  C   UNL     1     -11.689  14.441  68.210  1.00  0.00    -0.376 C  
BRANCH   3   4
HETATM    4  C   UNL     1     -10.370  14.975  67.655  1.00  0.00    -0.243 C  
BRANCH   4   5
HETATM    5  C   UNL     1     -10.609  15.839  66.418  1.00  0.00    -0.307 C  
BRANCH   5   6
HETATM    6  C   UNL     1     -10.510  15.013  65.138  1.00  0.00    -0.438 C  
BRANCH   6   7
HETATM    7  C   UNL     1     -11.868  14.926  64.442  1.00  0.00    -0.372 C  
BRANCH   7   8
HETATM    8  C   UNL     1     -12.089  13.541  63.840  1.00  0.00    -0.493 C  
BRANCH   8   9
HETATM    9  C   UNL     1     -12.069  12.463  64.923  1.00  0.00    -0.470 C  
BRANCH   9  10
HETATM   10  C   UNL     1     -11.155  11.311  64.520  1.00  0.00    -0.245 C  
BRANCH  10  11
HETATM   11  C   UNL     1      -9.726  11.518  65.023  1.00  0.00    -0.268 C  
BRANCH  11  12
HETATM   12  C   UNL     1      -9.669  11.308  66.532  1.00  0.00    -0.230 C  
BRANCH  12  13
HETATM   13  C   UNL     1     -10.261   9.968  66.961  1.00  0.00    -0.295 C  
BRANCH  13  14
HETATM   14  C   UNL     1     -11.156  10.150  68.163  1.00  0.00    -0.230 C  
HETATM   15  O   UNL     1     -11.993  11.034  68.289  1.00  0.00    -0.593 OA 
BRANCH  14  16
HETATM   16  O   UNL     1     -10.895   9.186  69.089  1.00  0.00    -0.203 OA 
BRANCH  16  17
HETATM   17  C   UNL     1      -9.525   8.741  69.140  1.00  0.00    -0.157 C  
HETATM   18  C   UNL     1      -8.786   9.481  70.250  1.00  0.00    -0.270 C  
HETATM   19  C   UNL     1      -9.540   7.242  69.404  1.00  0.00    -0.154 C  
ENDBRANCH  16  17
ENDBRANCH  14  16
ENDBRANCH  13  14
ENDBRANCH  12  13
ENDBRANCH  11  12
ENDBRANCH  10  11
ENDBRANCH   9  10
ENDBRANCH   8   9
ENDBRANCH   7   8
ENDBRANCH   6   7
ENDBRANCH   5   6
ENDBRANCH   4   5
ENDBRANCH   3   4
ENDBRANCH   2   3
TORSDOF 14
ENDMDL
MODEL      196
REMARK 921   NORMALIZED FREE ENERGY PREDICTED BY IDOCK:   -3.43 KCAL/MOL
REMARK 922        TOTAL FREE ENERGY PREDICTED BY IDOCK:   -7.81 KCAL/MOL
REMARK 923 INTER-LIGAND FREE ENERGY PREDICTED BY IDOCK:   -6.07 KCAL/MOL
REMARK 924 INTRA-LIGAND FREE ENERGY PREDICTED BY IDOCK:   -1.74 KCAL/MOL
REMARK 927      BINDING AFFINITY PREDICTED BY RF-SCORE:    0.00 PKD
ROOT
HETATM    1  C   UNL     1     -12.569  15.933  73.816  1.00  0.00    -0.728 C  
HETATM    2  C   UNL     1     -11.592  15.457  72.753  1.00  0.00    -0.464 C  
ENDROOT
BRANCH   2   3
HETATM    3  C   UNL     1     -11.776  16.229  71.449  1.00  0.00    -0.427 C  
BRANCH   3   4
HETATM    4  C   UNL     1     -12.593  15.425  70.439  1.00  0.00    -0.433 C  
BRANCH   4   5
HETATM    5  C   UNL     1     -11.859  15.320  69.103  1.00  0.00    -0.345 C  
BRANCH   5   6
HETATM    6  C   UNL     1     -10.598  14.467  69.230  1.00  0.00    -0.224 C  
BRANCH   6   7
HETATM    7  C   UNL     1     -10.100  14.028  67.854  1.00  0.00    -0.237 C  
BRANCH   7   8
HETATM    8  C   UNL     1     -10.930  14.663  66.741  1.00  0.00    -0.323 C  
BRANCH   8   9
HETATM    9  C   UNL     1     -10.075  15.599  65.888  1.00  0.00    -0.378 C  
BRANCH   9  10
HETATM   10  C   UNL     1     -10.860  16.851  65.509  1.00  0.00    -0.101 C  
BRANCH  10  11
HETATM   11  C   UNL     1     -10.261  18.108  66.137  1.00  0.00    -0.372 C  
BRANCH  11  12
HETATM   12  C   UNL     1     -10.844  18.325  67.530  1.00  0.00    -0.282 C  
BRANCH  12  13
HETATM   13  C   UNL     1      -9.780  18.281  68.624  1.00  0.00    -0.379 C  
BRANCH  13  14
HETATM   14  C   UNL     1      -8.500  18.917  68.136  1.00  0.00    -0.309 C  
HETATM   15  O   UNL     1      -8.362  20.103  67.870  1.00  0.00    -0.286 OA 
BRANCH  14  16
HETATM   16  O   UNL     1      -7.521  17.975  68.033  1.00  0.00    -0.226 OA 
BRANCH  16  17
HETATM   17  C   UNL     1      -7.073  17.419  69.285  1.00  0.00    -0.142 C  
HETATM   18  C   UNL     1      -7.043  15.897  69.190  1.00  0.00    -0.185 C  
HETATM   19  C   UNL     1      -5.682  17.972  69.559  1.00  0.00    -0.228 C  
ENDBRANCH  16  17
ENDBRANCH  14  16
ENDBRANCH  13  14
ENDBRANCH  12  13
ENDBRANCH  11  12
ENDBRANCH  10  11
ENDBRANCH   9  10
ENDBRANCH   8   9
ENDBRANCH   7   8
ENDBRANCH   6   7
ENDBRANCH   5   6
ENDBRANCH   4   5
ENDBRANCH   3   4
ENDBRANCH   2   3
TORSDOF 14
ENDMDL
MODEL      197
REMARK 921   NORMALIZED FREE ENERGY PREDICTED BY IDOCK:   -3.43 KCAL/MOL
REMARK 922        TOTAL FREE ENERGY PREDICTED BY IDOCK:   -7.80 KCAL/MOL
REMARK 923 INTER-LIGAND FREE ENERGY PREDICTED BY IDOCK:   -6.11 KCAL/MOL
REMARK 924 INTRA-LIGAND FREE ENERGY PREDICTED BY IDOCK:   -1.69 KCAL/MOL
REMARK 927      BINDING AFFINITY PREDICTED BY RF-SCORE:    0.00 PKD
ROOT
HETATM    1  C   UNL     1     -12.304  12.372  64.530  1.00  0.00    -0.519 C  
HETATM    2  C   UNL     1     -11.524  13.677  64.540  1.00  0.00    -0.401 C  
ENDROOT
BRANCH   2   3
HETATM    3  C   UNL     1     -11.843  14.502  65.784  1.00  0.00    -0.327 C  
BRANCH   3   4
HETATM    4  C   UNL     1     -12.273  13.609  66.947  1.00  0.00    -0.398 C  
BRANCH   4   5
HETATM    5  C   UNL     1     -11.060  13.121  67.737  1.00  0.00    -0.287 C  
BRANCH   5   6
HETATM    6  C   UNL     1     -11.485  12.352  68.986  1.00  0.00    -0.352 C  
BRANCH   6   7
HETATM    7  C   UNL     1     -11.477  10.847  68.725  1.00  0.00    -0.376 C  
BRANCH   7   8
HETATM    8  C   UNL     1     -10.436  10.476  67.672  1.00  0.00    -0.276 C  
BRANCH   8   9
HETATM    9  C   UNL     1     -10.771   9.136  67.019  1.00  0.00    -0.189 C  
BRANCH   9  10
HETATM   10  C   UNL     1     -10.325   7.978  67.905  1.00  0.00    -0.282 C  
BRANCH  10  11
HETATM   11  C   UNL     1      -8.911   8.187  68.444  1.00  0.00    -0.136 C  
BRANCH  11  12
HETATM   12  C   UNL     1      -8.852   7.800  69.918  1.00  0.00    -0.142 C  
BRANCH  12  13
HETATM   13  C   UNL     1      -8.953   9.008  70.846  1.00  0.00    -0.300 C  
BRANCH  13  14
HETATM   14  C   UNL     1      -9.910   8.720  71.978  1.00  0.00    -0.306 C  
HETATM   15  O   UNL     1      -9.633   8.087  72.989  1.00  0.00    -0.248 OA 
BRANCH  14  16
HETATM   16  O   UNL     1     -11.129   9.266  71.709  1.00  0.00    -0.364 OA 
BRANCH  16  17
HETATM   17  C   UNL     1     -12.259   8.451  72.075  1.00  0.00    -0.362 C  
HETATM   18  C   UNL     1     -13.517   9.311  72.132  1.00  0.00    -0.539 C  
HETATM   19  C   UNL     1     -12.396   7.360  71.021  1.00  0.00    -0.303 C  
ENDBRANCH  16  17
ENDBRANCH  14  16
ENDBRANCH  13  14
ENDBRANCH  12  13
ENDBRANCH  11  12
ENDBRANCH  10  11
ENDBRANCH   9  10
ENDBRANCH   8   9
ENDBRANCH   7   8
ENDBRANCH   6   7
ENDBRANCH   5   6
ENDBRANCH   4   5
ENDBRANCH   3   4
ENDBRANCH   2   3
TORSDOF 14
ENDMDL
MODEL      198
REMARK 921   NORMALIZED FREE ENERGY PREDICTED BY IDOCK:   -3.42 KCAL/MOL
REMARK 922        TOTAL FREE ENERGY PREDICTED BY IDOCK:   -7.79 KCAL/MOL
REMARK 923 INTER-LIGAND FREE ENERGY PREDICTED BY IDOCK:   -6.39 KCAL/MOL
REMARK 924 INTRA-LIGAND FREE ENERGY PREDICTED BY IDOCK:   -1.41 KCAL/MOL
REMARK 927      BINDING AFFINITY PREDICTED BY RF-SCORE:    0.00 PKD
ROOT
HETATM    1  C   UNL     1     -10.249   7.196  68.218  1.00  0.00    -0.210 C  
HETATM    2  C   UNL     1     -11.095   6.173  68.959  1.00  0.00    -0.437 C  
ENDROOT
BRANCH   2   3
HETATM    3  C   UNL     1     -10.625   6.009  70.403  1.00  0.00    -0.332 C  
BRANCH   3   4
HETATM    4  C   UNL     1     -11.689   6.487  71.390  1.00  0.00    -0.378 C  
BRANCH   4   5
HETATM    5  C   UNL     1     -11.066   7.345  72.489  1.00  0.00    -0.350 C  
BRANCH   5   6
HETATM    6  C   UNL     1     -11.691   8.738  72.526  1.00  0.00    -0.241 C  
BRANCH   6   7
HETATM    7  C   UNL     1     -12.233   9.125  71.151  1.00  0.00    -0.350 C  
BRANCH   7   8
HETATM    8  C   UNL     1     -11.260  10.042  70.414  1.00  0.00    -0.393 C  
BRANCH   8   9
HETATM    9  C   UNL     1     -12.004  10.984  69.469  1.00  0.00    -0.413 C  
BRANCH   9  10
HETATM   10  C   UNL     1     -11.982  12.412  70.002  1.00  0.00    -0.372 C  
BRANCH  10  11
HETATM   11  C   UNL     1     -11.730  13.429  68.890  1.00  0.00    -0.369 C  
BRANCH  11  12
HETATM   12  C   UNL     1     -11.807  12.744  67.529  1.00  0.00    -0.402 C  
BRANCH  12  13
HETATM   13  C   UNL     1     -10.656  13.140  66.608  1.00  0.00    -0.284 C  
BRANCH  13  14
HETATM   14  C   UNL     1     -11.111  14.188  65.621  1.00  0.00    -0.307 C  
HETATM   15  O   UNL     1     -12.211  14.219  65.086  1.00  0.00    -0.396 OA 
BRANCH  14  16
HETATM   16  O   UNL     1     -10.115  15.094  65.411  1.00  0.00    -0.339 OA 
BRANCH  16  17
HETATM   17  C   UNL     1      -9.644  15.771  66.593  1.00  0.00    -0.247 C  
HETATM   18  C   UNL     1      -8.214  16.252  66.374  1.00  0.00    -0.354 C  
HETATM   19  C   UNL     1     -10.578  16.945  66.851  1.00  0.00    -0.214 C  
ENDBRANCH  16  17
ENDBRANCH  14  16
ENDBRANCH  13  14
ENDBRANCH  12  13
ENDBRANCH  11  12
ENDBRANCH  10  11
ENDBRANCH   9  10
ENDBRANCH   8   9
ENDBRANCH   7   8
ENDBRANCH   6   7
ENDBRANCH   5   6
ENDBRANCH   4   5
ENDBRANCH   3   4
ENDBRANCH   2   3
TORSDOF 14
ENDMDL
MODEL      199
REMARK 921   NORMALIZED FREE ENERGY PREDICTED BY IDOCK:   -3.42 KCAL/MOL
REMARK 922        TOTAL FREE ENERGY PREDICTED BY IDOCK:   -7.79 KCAL/MOL
REMARK 923 INTER-LIGAND FREE ENERGY PREDICTED BY IDOCK:   -6.58 KCAL/MOL
REMARK 924 INTRA-LIGAND FREE ENERGY PREDICTED BY IDOCK:   -1.21 KCAL/MOL
REMARK 927      BINDING AFFINITY PREDICTED BY RF-SCORE:    0.00 PKD
ROOT
HETATM    1  C   UNL     1     -14.307  15.007  71.701  1.00  0.00    -0.680 C  
HETATM    2  C   UNL     1     -12.902  15.588  71.700  1.00  0.00    -0.518 C  
ENDROOT
BRANCH   2   3
HETATM    3  C   UNL     1     -12.244  15.440  70.330  1.00  0.00    -0.414 C  
BRANCH   3   4
HETATM    4  C   UNL     1     -11.982  13.972  69.997  1.00  0.00    -0.404 C  
BRANCH   4   5
HETATM    5  C   UNL     1     -11.265  13.837  68.655  1.00  0.00    -0.308 C  
BRANCH   5   6
HETATM    6  C   UNL     1     -11.947  14.675  67.576  1.00  0.00    -0.309 C  
BRANCH   6   7
HETATM    7  C   UNL     1     -11.284  14.453  66.217  1.00  0.00    -0.338 C  
BRANCH   7   8
HETATM    8  C   UNL     1     -12.272  13.865  65.213  1.00  0.00    -0.449 C  
BRANCH   8   9
HETATM    9  C   UNL     1     -11.969  12.392  64.947  1.00  0.00    -0.458 C  
BRANCH   9  10
HETATM   10  C   UNL     1     -10.592  12.017  65.486  1.00  0.00    -0.313 C  
BRANCH  10  11
HETATM   11  C   UNL     1     -10.150  10.637  65.003  1.00  0.00    -0.388 C  
BRANCH  11  12
HETATM   12  C   UNL     1      -9.739   9.775  66.192  1.00  0.00    -0.309 C  
BRANCH  12  13
HETATM   13  C   UNL     1     -10.293  10.299  67.514  1.00  0.00    -0.276 C  
BRANCH  13  14
HETATM   14  C   UNL     1     -10.323   9.195  68.544  1.00  0.00    -0.207 C  
HETATM   15  O   UNL     1     -10.604   8.027  68.315  1.00  0.00    -0.183 OA 
BRANCH  14  16
HETATM   16  O   UNL     1      -9.993   9.692  69.770  1.00  0.00    -0.198 OA 
BRANCH  16  17
HETATM   17  C   UNL     1      -9.622   8.703  70.751  1.00  0.00    -0.188 C  
HETATM   18  C   UNL     1      -8.185   8.941  71.203  1.00  0.00    -0.218 C  
HETATM   19  C   UNL     1     -10.587   8.837  71.921  1.00  0.00    -0.425 C  
ENDBRANCH  16  17
ENDBRANCH  14  16
ENDBRANCH  13  14
ENDBRANCH  12  13
ENDBRANCH  11  12
ENDBRANCH  10  11
ENDBRANCH   9  10
ENDBRANCH   8   9
ENDBRANCH   7   8
ENDBRANCH   6   7
ENDBRANCH   5   6
ENDBRANCH   4   5
ENDBRANCH   3   4
ENDBRANCH   2   3
TORSDOF 14
ENDMDL
MODEL      200
REMARK 921   NORMALIZED FREE ENERGY PREDICTED BY IDOCK:   -3.42 KCAL/MOL
REMARK 922        TOTAL FREE ENERGY PREDICTED BY IDOCK:   -7.78 KCAL/MOL
REMARK 923 INTER-LIGAND FREE ENERGY PREDICTED BY IDOCK:   -6.33 KCAL/MOL
REMARK 924 INTRA-LIGAND FREE ENERGY PREDICTED BY IDOCK:   -1.44 KCAL/MOL
REMARK 927      BINDING AFFINITY PREDICTED BY RF-SCORE:    0.00 PKD
ROOT
HETATM    1  C   UNL     1      -8.559   8.832  66.315  1.00  0.00    -0.144 C  
HETATM    2  C   UNL     1      -8.530  10.287  65.877  1.00  0.00    -0.154 C  
ENDROOT
BRANCH   2   3
HETATM    3  C   UNL     1      -9.338  10.496  64.598  1.00  0.00    -0.294 C  
BRANCH   3   4
HETATM    4  C   UNL     1     -10.781  10.888  64.912  1.00  0.00    -0.240 C  
BRANCH   4   5
HETATM    5  C   UNL     1     -11.016  12.371  64.629  1.00  0.00    -0.344 C  
BRANCH   5   6
HETATM    6  C   UNL     1     -12.065  12.955  65.574  1.00  0.00    -0.507 C  
BRANCH   6   7
HETATM    7  C   UNL     1     -11.412  13.480  66.851  1.00  0.00    -0.374 C  
BRANCH   7   8
HETATM    8  C   UNL     1     -11.756  12.597  68.047  1.00  0.00    -0.402 C  
BRANCH   8   9
HETATM    9  C   UNL     1     -10.509  11.903  68.593  1.00  0.00    -0.231 C  
BRANCH   9  10
HETATM   10  C   UNL     1     -10.891  10.716  69.470  1.00  0.00    -0.303 C  
BRANCH  10  11
HETATM   11  C   UNL     1     -12.327  10.827  69.982  1.00  0.00    -0.371 C  
BRANCH  11  12
HETATM   12  C   UNL     1     -12.400  10.369  71.434  1.00  0.00    -0.500 C  
BRANCH  12  13
HETATM   13  C   UNL     1     -11.785   8.987  71.644  1.00  0.00    -0.431 C  
BRANCH  13  14
HETATM   14  C   UNL     1     -12.854   7.923  71.584  1.00  0.00    -0.334 C  
HETATM   15  O   UNL     1     -14.012   8.068  71.952  1.00  0.00    -0.367 OA 
BRANCH  14  16
HETATM   16  O   UNL     1     -12.340   6.774  71.062  1.00  0.00    -0.378 OA 
BRANCH  16  17
HETATM   17  C   UNL     1     -11.094   6.342  71.643  1.00  0.00    -0.274 C  
HETATM   18  C   UNL     1     -11.370   5.388  72.801  1.00  0.00    -0.358 C  
HETATM   19  C   UNL     1     -10.294   5.648  70.549  1.00  0.00    -0.327 C  
ENDBRANCH  16  17
ENDBRANCH  14  16
ENDBRANCH  13  14
ENDBRANCH  12  13
ENDBRANCH  11  12
ENDBRANCH  10  11
ENDBRANCH   9  10
ENDBRANCH   8   9
ENDBRANCH   7   8
ENDBRANCH   6   7
ENDBRANCH   5   6
ENDBRANCH   4   5
ENDBRANCH   3   4
ENDBRANCH   2   3
TORSDOF 14
ENDMDL
MODEL      201
REMARK 921   NORMALIZED FREE ENERGY PREDICTED BY IDOCK:   -3.41 KCAL/MOL
REMARK 922        TOTAL FREE ENERGY PREDICTED BY IDOCK:   -7.78 KCAL/MOL
REMARK 923 INTER-LIGAND FREE ENERGY PREDICTED BY IDOCK:   -6.08 KCAL/MOL
REMARK 924 INTRA-LIGAND FREE ENERGY PREDICTED BY IDOCK:   -1.69 KCAL/MOL
REMARK 927      BINDING AFFINITY PREDICTED BY RF-SCORE:    0.00 PKD
ROOT
HETATM    1  C   UNL     1     -11.351  12.276  63.560  1.00  0.00    -0.549 C  
HETATM    2  C   UNL     1     -10.320  11.602  64.451  1.00  0.00    -0.362 C  
ENDROOT
BRANCH   2   3
HETATM    3  C   UNL     1      -9.670  10.415  63.744  1.00  0.00    -0.351 C  
BRANCH   3   4
HETATM    4  C   UNL     1      -8.399   9.968  64.465  1.00  0.00    -0.168 C  
BRANCH   4   5
HETATM    5  C   UNL     1      -8.459   8.479  64.802  1.00  0.00    -0.146 C  
BRANCH   5   6
HETATM    6  C   UNL     1      -8.459   8.253  66.313  1.00  0.00    -0.134 C  
BRANCH   6   7
HETATM    7  C   UNL     1      -9.703   7.480  66.745  1.00  0.00    -0.283 C  
BRANCH   7   8
HETATM    8  C   UNL     1     -10.370   8.140  67.949  1.00  0.00    -0.280 C  
BRANCH   8   9
HETATM    9  C   UNL     1     -10.007   9.622  68.032  1.00  0.00    -0.190 C  
BRANCH   9  10
HETATM   10  C   UNL     1     -11.173  10.489  67.569  1.00  0.00    -0.299 C  
BRANCH  10  11
HETATM   11  C   UNL     1     -11.467  11.618  68.557  1.00  0.00    -0.358 C  
BRANCH  11  12
HETATM   12  C   UNL     1     -11.206  11.144  69.983  1.00  0.00    -0.261 C  
BRANCH  12  13
HETATM   13  C   UNL     1     -12.447  11.240  70.868  1.00  0.00    -0.493 C  
BRANCH  13  14
HETATM   14  C   UNL     1     -12.764   9.893  71.473  1.00  0.00    -0.415 C  
HETATM   15  O   UNL     1     -13.704   9.663  72.222  1.00  0.00    -0.417 OA 
BRANCH  14  16
HETATM   16  O   UNL     1     -11.847   8.971  71.065  1.00  0.00    -0.283 OA 
BRANCH  16  17
HETATM   17  C   UNL     1     -11.641   7.870  71.972  1.00  0.00    -0.308 C  
HETATM   18  C   UNL     1     -11.590   6.562  71.190  1.00  0.00    -0.390 C  
HETATM   19  C   UNL     1     -10.327   8.117  72.700  1.00  0.00    -0.398 C  
ENDBRANCH  16  17
ENDBRANCH  14  16
ENDBRANCH  13  14
ENDBRANCH  12  13
ENDBRANCH  11  12
ENDBRANCH  10  11
ENDBRANCH   9  10
ENDBRANCH   8   9
ENDBRANCH   7   8
ENDBRANCH   6   7
ENDBRANCH   5   6
ENDBRANCH   4   5
ENDBRANCH   3   4
ENDBRANCH   2   3
TORSDOF 14
ENDMDL
MODEL      202
REMARK 921   NORMALIZED FREE ENERGY PREDICTED BY IDOCK:   -3.41 KCAL/MOL
REMARK 922        TOTAL FREE ENERGY PREDICTED BY IDOCK:   -7.77 KCAL/MOL
REMARK 923 INTER-LIGAND FREE ENERGY PREDICTED BY IDOCK:   -5.69 KCAL/MOL
REMARK 924 INTRA-LIGAND FREE ENERGY PREDICTED BY IDOCK:   -2.08 KCAL/MOL
REMARK 927      BINDING AFFINITY PREDICTED BY RF-SCORE:    0.00 PKD
ROOT
HETATM    1  C   UNL     1      -8.000   8.498  69.950  1.00  0.00    -0.106 C  
HETATM    2  C   UNL     1      -8.780   8.816  71.216  1.00  0.00    -0.273 C  
ENDROOT
BRANCH   2   3
HETATM    3  C   UNL     1     -10.232   9.165  70.898  1.00  0.00    -0.351 C  
BRANCH   3   4
HETATM    4  C   UNL     1     -11.186   8.559  71.926  1.00  0.00    -0.397 C  
BRANCH   4   5
HETATM    5  C   UNL     1     -11.844   7.293  71.378  1.00  0.00    -0.338 C  
BRANCH   5   6
HETATM    6  C   UNL     1     -11.055   6.045  71.770  1.00  0.00    -0.332 C  
BRANCH   6   7
HETATM    7  C   UNL     1     -10.286   5.492  70.572  1.00  0.00    -0.311 C  
BRANCH   7   8
HETATM    8  C   UNL     1     -10.967   5.868  69.259  1.00  0.00    -0.397 C  
BRANCH   8   9
HETATM    9  C   UNL     1      -9.945   6.350  68.231  1.00  0.00    -0.147 C  
BRANCH   9  10
HETATM   10  C   UNL     1     -10.506   7.510  67.414  1.00  0.00    -0.367 C  
BRANCH  10  11
HETATM   11  C   UNL     1      -9.426   8.185  66.570  1.00  0.00    -0.286 C  
BRANCH  11  12
HETATM   12  C   UNL     1      -9.919   9.542  66.080  1.00  0.00    -0.348 C  
BRANCH  12  13
HETATM   13  C   UNL     1     -10.617  10.343  67.177  1.00  0.00    -0.319 C  
BRANCH  13  14
HETATM   14  C   UNL     1      -9.794  11.554  67.546  1.00  0.00    -0.190 C  
HETATM   15  O   UNL     1      -8.782  11.533  68.233  1.00  0.00    -0.150 OA 
BRANCH  14  16
HETATM   16  O   UNL     1     -10.346  12.675  67.003  1.00  0.00    -0.230 OA 
BRANCH  16  17
HETATM   17  C   UNL     1     -11.632  13.045  67.538  1.00  0.00    -0.356 C  
HETATM   18  C   UNL     1     -11.447  13.763  68.871  1.00  0.00    -0.344 C  
HETATM   19  C   UNL     1     -12.306  13.956  66.521  1.00  0.00    -0.447 C  
ENDBRANCH  16  17
ENDBRANCH  14  16
ENDBRANCH  13  14
ENDBRANCH  12  13
ENDBRANCH  11  12
ENDBRANCH  10  11
ENDBRANCH   9  10
ENDBRANCH   8   9
ENDBRANCH   7   8
ENDBRANCH   6   7
ENDBRANCH   5   6
ENDBRANCH   4   5
ENDBRANCH   3   4
ENDBRANCH   2   3
TORSDOF 14
ENDMDL
MODEL      203
REMARK 921   NORMALIZED FREE ENERGY PREDICTED BY IDOCK:   -3.40 KCAL/MOL
REMARK 922        TOTAL FREE ENERGY PREDICTED BY IDOCK:   -7.75 KCAL/MOL
REMARK 923 INTER-LIGAND FREE ENERGY PREDICTED BY IDOCK:   -5.39 KCAL/MOL
REMARK 924 INTRA-LIGAND FREE ENERGY PREDICTED BY IDOCK:   -2.36 KCAL/MOL
REMARK 927      BINDING AFFINITY PREDICTED BY RF-SCORE:    0.00 PKD
ROOT
HETATM    1  C   UNL     1      -7.714  13.022  68.437  1.00  0.00    -0.137 C  
HETATM    2  C   UNL     1      -7.848  12.318  67.096  1.00  0.00    -0.149 C  
ENDROOT
BRANCH   2   3
HETATM    3  C   UNL     1      -7.327  10.884  67.170  1.00  0.00    -0.105 C  
BRANCH   3   4
HETATM    4  C   UNL     1      -8.421   9.878  66.814  1.00  0.00    -0.125 C  
BRANCH   4   5
HETATM    5  C   UNL     1      -9.703  10.594  66.392  1.00  0.00    -0.241 C  
BRANCH   5   6
HETATM    6  C   UNL     1     -10.903  10.102  67.198  1.00  0.00    -0.257 C  
BRANCH   6   7
HETATM    7  C   UNL     1     -10.459   9.561  68.556  1.00  0.00    -0.247 C  
BRANCH   7   8
HETATM    8  C   UNL     1     -10.828  10.526  69.680  1.00  0.00    -0.320 C  
BRANCH   8   9
HETATM    9  C   UNL     1     -12.150  11.233  69.382  1.00  0.00    -0.384 C  
BRANCH   9  10
HETATM   10  C   UNL     1     -12.058  12.716  69.725  1.00  0.00    -0.301 C  
BRANCH  10  11
HETATM   11  C   UNL     1     -11.082  13.451  68.807  1.00  0.00    -0.297 C  
BRANCH  11  12
HETATM   12  C   UNL     1     -11.823  14.005  67.595  1.00  0.00    -0.430 C  
BRANCH  12  13
HETATM   13  C   UNL     1     -10.924  14.136  66.368  1.00  0.00    -0.311 C  
BRANCH  13  14
HETATM   14  C   UNL     1     -10.796  15.585  65.964  1.00  0.00    -0.300 C  
HETATM   15  O   UNL     1     -10.682  15.987  64.813  1.00  0.00    -0.611 OA 
BRANCH  14  16
HETATM   16  O   UNL     1     -10.825  16.382  67.069  1.00  0.00    -0.267 OA 
BRANCH  16  17
HETATM   17  C   UNL     1      -9.724  17.304  67.187  1.00  0.00    -0.259 C  
HETATM   18  C   UNL     1     -10.247  18.682  67.579  1.00  0.00    -0.425 C  
HETATM   19  C   UNL     1      -8.783  16.759  68.253  1.00  0.00    -0.227 C  
ENDBRANCH  16  17
ENDBRANCH  14  16
ENDBRANCH  13  14
ENDBRANCH  12  13
ENDBRANCH  11  12
ENDBRANCH  10  11
ENDBRANCH   9  10
ENDBRANCH   8   9
ENDBRANCH   7   8
ENDBRANCH   6   7
ENDBRANCH   5   6
ENDBRANCH   4   5
ENDBRANCH   3   4
ENDBRANCH   2   3
TORSDOF 14
ENDMDL
MODEL      204
REMARK 921   NORMALIZED FREE ENERGY PREDICTED BY IDOCK:   -3.40 KCAL/MOL
REMARK 922        TOTAL FREE ENERGY PREDICTED BY IDOCK:   -7.75 KCAL/MOL
REMARK 923 INTER-LIGAND FREE ENERGY PREDICTED BY IDOCK:   -5.12 KCAL/MOL
REMARK 924 INTRA-LIGAND FREE ENERGY PREDICTED BY IDOCK:   -2.63 KCAL/MOL
REMARK 927      BINDING AFFINITY PREDICTED BY RF-SCORE:    0.00 PKD
ROOT
HETATM    1  C   UNL     1      -7.013   6.362  71.251  1.00  0.00    -0.075 C  
HETATM    2  C   UNL     1      -8.093   6.275  72.317  1.00  0.00    -0.108 C  
ENDROOT
BRANCH   2   3
HETATM    3  C   UNL     1      -8.726   7.641  72.575  1.00  0.00    -0.176 C  
BRANCH   3   4
HETATM    4  C   UNL     1     -10.010   7.511  73.393  1.00  0.00    -0.378 C  
BRANCH   4   5
HETATM    5  C   UNL     1     -11.223   7.956  72.577  1.00  0.00    -0.436 C  
BRANCH   5   6
HETATM    6  C   UNL     1     -12.009   6.756  72.054  1.00  0.00    -0.355 C  
BRANCH   6   7
HETATM    7  C   UNL     1     -11.956   6.697  70.528  1.00  0.00    -0.377 C  
BRANCH   7   8
HETATM    8  C   UNL     1     -10.907   5.695  70.053  1.00  0.00    -0.366 C  
BRANCH   8   9
HETATM    9  C   UNL     1      -9.928   6.349  69.078  1.00  0.00    -0.171 C  
BRANCH   9  10
HETATM   10  C   UNL     1     -10.279   7.818  68.866  1.00  0.00    -0.220 C  
BRANCH  10  11
HETATM   11  C   UNL     1      -9.040   8.711  68.927  1.00  0.00    -0.145 C  
BRANCH  11  12
HETATM   12  C   UNL     1      -9.320   9.931  69.798  1.00  0.00    -0.248 C  
BRANCH  12  13
HETATM   13  C   UNL     1     -10.798  10.315  69.812  1.00  0.00    -0.332 C  
BRANCH  13  14
HETATM   14  C   UNL     1     -11.123  11.192  68.626  1.00  0.00    -0.239 C  
HETATM   15  O   UNL     1     -12.032  10.992  67.832  1.00  0.00    -0.620 OA 
BRANCH  14  16
HETATM   16  O   UNL     1     -10.253  12.239  68.569  1.00  0.00    -0.221 OA 
BRANCH  16  17
HETATM   17  C   UNL     1      -9.898  12.668  67.240  1.00  0.00    -0.206 C  
HETATM   18  C   UNL     1     -10.415  14.082  67.000  1.00  0.00    -0.275 C  
HETATM   19  C   UNL     1      -8.380  12.622  67.135  1.00  0.00    -0.172 C  
ENDBRANCH  16  17
ENDBRANCH  14  16
ENDBRANCH  13  14
ENDBRANCH  12  13
ENDBRANCH  11  12
ENDBRANCH  10  11
ENDBRANCH   9  10
ENDBRANCH   8   9
ENDBRANCH   7   8
ENDBRANCH   6   7
ENDBRANCH   5   6
ENDBRANCH   4   5
ENDBRANCH   3   4
ENDBRANCH   2   3
TORSDOF 14
ENDMDL
MODEL      205
REMARK 921   NORMALIZED FREE ENERGY PREDICTED BY IDOCK:   -3.39 KCAL/MOL
REMARK 922        TOTAL FREE ENERGY PREDICTED BY IDOCK:   -7.74 KCAL/MOL
REMARK 923 INTER-LIGAND FREE ENERGY PREDICTED BY IDOCK:   -6.34 KCAL/MOL
REMARK 924 INTRA-LIGAND FREE ENERGY PREDICTED BY IDOCK:   -1.40 KCAL/MOL
REMARK 927      BINDING AFFINITY PREDICTED BY RF-SCORE:    0.00 PKD
ROOT
HETATM    1  C   UNL     1     -11.629  15.462  71.732  1.00  0.00    -0.501 C  
HETATM    2  C   UNL     1     -12.571  14.884  70.688  1.00  0.00    -0.420 C  
ENDROOT
BRANCH   2   3
HETATM    3  C   UNL     1     -11.885  14.765  69.330  1.00  0.00    -0.352 C  
BRANCH   3   4
HETATM    4  C   UNL     1     -10.715  15.741  69.213  1.00  0.00    -0.246 C  
BRANCH   4   5
HETATM    5  C   UNL     1     -10.871  16.634  67.983  1.00  0.00    -0.337 C  
BRANCH   5   6
HETATM    6  C   UNL     1      -9.929  16.201  66.861  1.00  0.00    -0.258 C  
BRANCH   6   7
HETATM    7  C   UNL     1     -10.601  16.356  65.498  1.00  0.00    -0.346 C  
BRANCH   7   8
HETATM    8  C   UNL     1     -10.750  15.005  64.802  1.00  0.00    -0.354 C  
BRANCH   8   9
HETATM    9  C   UNL     1     -12.161  14.448  64.984  1.00  0.00    -0.417 C  
BRANCH   9  10
HETATM   10  C   UNL     1     -12.282  13.067  64.349  1.00  0.00    -0.471 C  
BRANCH  10  11
HETATM   11  C   UNL     1     -10.969  12.621  63.706  1.00  0.00    -0.481 C  
BRANCH  11  12
HETATM   12  C   UNL     1     -10.301  11.557  64.570  1.00  0.00    -0.354 C  
BRANCH  12  13
HETATM   13  C   UNL     1     -11.248  10.969  65.613  1.00  0.00     0.099 C  
BRANCH  13  14
HETATM   14  C   UNL     1     -10.872  11.452  66.993  1.00  0.00    -0.282 C  
HETATM   15  O   UNL     1     -10.058  12.334  67.232  1.00  0.00    -0.203 OA 
BRANCH  14  16
HETATM   16  O   UNL     1     -11.572  10.760  67.936  1.00  0.00    -0.504 OA 
BRANCH  16  17
HETATM   17  C   UNL     1     -11.129  10.956  69.293  1.00  0.00    -0.248 C  
HETATM   18  C   UNL     1     -12.338  11.079  70.215  1.00  0.00    -0.410 C  
HETATM   19  C   UNL     1     -10.276   9.755  69.675  1.00  0.00    -0.254 C  
ENDBRANCH  16  17
ENDBRANCH  14  16
ENDBRANCH  13  14
ENDBRANCH  12  13
ENDBRANCH  11  12
ENDBRANCH  10  11
ENDBRANCH   9  10
ENDBRANCH   8   9
ENDBRANCH   7   8
ENDBRANCH   6   7
ENDBRANCH   5   6
ENDBRANCH   4   5
ENDBRANCH   3   4
ENDBRANCH   2   3
TORSDOF 14
ENDMDL
MODEL      206
REMARK 921   NORMALIZED FREE ENERGY PREDICTED BY IDOCK:   -3.39 KCAL/MOL
REMARK 922        TOTAL FREE ENERGY PREDICTED BY IDOCK:   -7.73 KCAL/MOL
REMARK 923 INTER-LIGAND FREE ENERGY PREDICTED BY IDOCK:   -5.73 KCAL/MOL
REMARK 924 INTRA-LIGAND FREE ENERGY PREDICTED BY IDOCK:   -2.01 KCAL/MOL
REMARK 927      BINDING AFFINITY PREDICTED BY RF-SCORE:    0.00 PKD
ROOT
HETATM    1  C   UNL     1      -7.490   6.919  71.686  1.00  0.00    -0.085 C  
HETATM    2  C   UNL     1      -8.451   6.917  72.864  1.00  0.00    -0.127 C  
ENDROOT
BRANCH   2   3
HETATM    3  C   UNL     1      -9.448   8.069  72.766  1.00  0.00    -0.336 C  
BRANCH   3   4
HETATM    4  C   UNL     1     -10.812   7.671  73.327  1.00  0.00    -0.379 C  
BRANCH   4   5
HETATM    5  C   UNL     1     -11.927   8.007  72.338  1.00  0.00    -0.405 C  
BRANCH   5   6
HETATM    6  C   UNL     1     -12.382   6.765  71.574  1.00  0.00    -0.407 C  
BRANCH   6   7
HETATM    7  C   UNL     1     -12.094   6.912  70.081  1.00  0.00    -0.111 C  
BRANCH   7   8
HETATM    8  C   UNL     1     -10.723   6.343  69.727  1.00  0.00    -0.341 C  
BRANCH   8   9
HETATM    9  C   UNL     1      -9.827   7.416  69.110  1.00  0.00    -0.168 C  
BRANCH   9  10
HETATM   10  C   UNL     1     -10.600   8.717  68.915  1.00  0.00    -0.166 C  
BRANCH  10  11
HETATM   11  C   UNL     1      -9.962   9.876  69.679  1.00  0.00    -0.255 C  
BRANCH  11  12
HETATM   12  C   UNL     1     -10.928  11.055  69.739  1.00  0.00    -0.258 C  
BRANCH  12  13
HETATM   13  C   UNL     1     -11.835  11.132  68.514  1.00  0.00    -0.330 C  
BRANCH  13  14
HETATM   14  C   UNL     1     -11.200  11.988  67.444  1.00  0.00    -0.307 C  
HETATM   15  O   UNL     1     -10.144  12.594  67.565  1.00  0.00    -0.208 OA 
BRANCH  14  16
HETATM   16  O   UNL     1     -11.976  11.987  66.325  1.00  0.00    -0.596 OA 
BRANCH  16  17
HETATM   17  C   UNL     1     -11.625  12.976  65.337  1.00  0.00    -0.341 C  
HETATM   18  C   UNL     1     -11.332  12.292  64.006  1.00  0.00    -0.469 C  
HETATM   19  C   UNL     1     -12.804  13.931  65.207  1.00  0.00    -0.437 C  
ENDBRANCH  16  17
ENDBRANCH  14  16
ENDBRANCH  13  14
ENDBRANCH  12  13
ENDBRANCH  11  12
ENDBRANCH  10  11
ENDBRANCH   9  10
ENDBRANCH   8   9
ENDBRANCH   7   8
ENDBRANCH   6   7
ENDBRANCH   5   6
ENDBRANCH   4   5
ENDBRANCH   3   4
ENDBRANCH   2   3
TORSDOF 14
ENDMDL
MODEL      207
REMARK 921   NORMALIZED FREE ENERGY PREDICTED BY IDOCK:   -3.39 KCAL/MOL
REMARK 922        TOTAL FREE ENERGY PREDICTED BY IDOCK:   -7.72 KCAL/MOL
REMARK 923 INTER-LIGAND FREE ENERGY PREDICTED BY IDOCK:   -5.94 KCAL/MOL
REMARK 924 INTRA-LIGAND FREE ENERGY PREDICTED BY IDOCK:   -1.79 KCAL/MOL
REMARK 927      BINDING AFFINITY PREDICTED BY RF-SCORE:    0.00 PKD
ROOT
HETATM    1  C   UNL     1      -7.622  10.104  70.003  1.00  0.00    -0.164 C  
HETATM    2  C   UNL     1      -8.275   8.741  70.156  1.00  0.00    -0.117 C  
ENDROOT
BRANCH   2   3
HETATM    3  C   UNL     1      -9.388   8.775  71.201  1.00  0.00    -0.297 C  
BRANCH   3   4
HETATM    4  C   UNL     1     -10.761   8.919  70.545  1.00  0.00    -0.271 C  
BRANCH   4   5
HETATM    5  C   UNL     1     -11.533  10.092  71.147  1.00  0.00    -0.432 C  
BRANCH   5   6
HETATM    6  C   UNL     1     -12.233  10.908  70.063  1.00  0.00    -0.422 C  
BRANCH   6   7
HETATM    7  C   UNL     1     -11.213  11.580  69.145  1.00  0.00    -0.337 C  
BRANCH   7   8
HETATM    8  C   UNL     1     -11.444  11.189  67.688  1.00  0.00    -0.328 C  
BRANCH   8   9
HETATM    9  C   UNL     1     -10.132  11.199  66.904  1.00  0.00    -0.250 C  
BRANCH   9  10
HETATM   10  C   UNL     1     -10.268  10.398  65.614  1.00  0.00    -0.308 C  
BRANCH  10  11
HETATM   11  C   UNL     1     -10.600  11.295  64.422  1.00  0.00    -0.410 C  
BRANCH  11  12
HETATM   12  C   UNL     1      -9.928  12.654  64.588  1.00  0.00    -0.168 C  
BRANCH  12  13
HETATM   13  C   UNL     1     -10.903  13.815  64.410  1.00  0.00    -0.343 C  
BRANCH  13  14
HETATM   14  C   UNL     1     -10.394  15.041  65.130  1.00  0.00    -0.392 C  
HETATM   15  O   UNL     1     -10.479  16.188  64.711  1.00  0.00    -0.592 OA 
BRANCH  14  16
HETATM   16  O   UNL     1      -9.823  14.684  66.314  1.00  0.00    -0.271 OA 
BRANCH  16  17
HETATM   17  C   UNL     1     -10.297  15.410  67.465  1.00  0.00    -0.264 C  
HETATM   18  C   UNL     1     -11.634  14.836  67.921  1.00  0.00    -0.373 C  
HETATM   19  C   UNL     1      -9.246  15.270  68.558  1.00  0.00    -0.200 C  
ENDBRANCH  16  17
ENDBRANCH  14  16
ENDBRANCH  13  14
ENDBRANCH  12  13
ENDBRANCH  11  12
ENDBRANCH  10  11
ENDBRANCH   9  10
ENDBRANCH   8   9
ENDBRANCH   7   8
ENDBRANCH   6   7
ENDBRANCH   5   6
ENDBRANCH   4   5
ENDBRANCH   3   4
ENDBRANCH   2   3
TORSDOF 14
ENDMDL
MODEL      208
REMARK 921   NORMALIZED FREE ENERGY PREDICTED BY IDOCK:   -3.39 KCAL/MOL
REMARK 922        TOTAL FREE ENERGY PREDICTED BY IDOCK:   -7.72 KCAL/MOL
REMARK 923 INTER-LIGAND FREE ENERGY PREDICTED BY IDOCK:   -6.02 KCAL/MOL
REMARK 924 INTRA-LIGAND FREE ENERGY PREDICTED BY IDOCK:   -1.70 KCAL/MOL
REMARK 927      BINDING AFFINITY PREDICTED BY RF-SCORE:    0.00 PKD
ROOT
HETATM    1  C   UNL     1      -8.328   8.674  70.669  1.00  0.00    -0.157 C  
HETATM    2  C   UNL     1      -9.213   8.507  71.893  1.00  0.00    -0.326 C  
ENDROOT
BRANCH   2   3
HETATM    3  C   UNL     1     -10.691   8.597  71.523  1.00  0.00    -0.352 C  
BRANCH   3   4
HETATM    4  C   UNL     1     -11.367   7.229  71.598  1.00  0.00    -0.285 C  
BRANCH   4   5
HETATM    5  C   UNL     1     -11.604   6.660  70.201  1.00  0.00    -0.446 C  
BRANCH   5   6
HETATM    6  C   UNL     1     -10.580   5.578  69.862  1.00  0.00    -0.387 C  
BRANCH   6   7
HETATM    7  C   UNL     1      -9.838   5.918  68.571  1.00  0.00    -0.166 C  
BRANCH   7   8
HETATM    8  C   UNL     1     -10.742   6.674  67.600  1.00  0.00    -0.373 C  
BRANCH   8   9
HETATM    9  C   UNL     1      -9.998   7.843  66.957  1.00  0.00    -0.322 C  
BRANCH   9  10
HETATM   10  C   UNL     1     -10.569   9.174  67.435  1.00  0.00    -0.315 C  
BRANCH  10  11
HETATM   11  C   UNL     1     -10.226  10.315  66.477  1.00  0.00    -0.289 C  
BRANCH  11  12
HETATM   12  C   UNL     1     -10.224  11.643  67.227  1.00  0.00    -0.226 C  
BRANCH  12  13
HETATM   13  C   UNL     1     -11.627  12.092  67.626  1.00  0.00    -0.413 C  
BRANCH  13  14
HETATM   14  C   UNL     1     -11.702  12.312  69.119  1.00  0.00    -0.323 C  
HETATM   15  O   UNL     1     -12.159  11.513  69.925  1.00  0.00    -0.309 OA 
BRANCH  14  16
HETATM   16  O   UNL     1     -11.189  13.534  69.436  1.00  0.00    -0.248 OA 
BRANCH  16  17
HETATM   17  C   UNL     1     -12.132  14.622  69.401  1.00  0.00    -0.280 C  
HETATM   18  C   UNL     1     -12.613  14.931  70.815  1.00  0.00    -0.414 C  
HETATM   19  C   UNL     1     -11.422  15.825  68.796  1.00  0.00    -0.391 C  
ENDBRANCH  16  17
ENDBRANCH  14  16
ENDBRANCH  13  14
ENDBRANCH  12  13
ENDBRANCH  11  12
ENDBRANCH  10  11
ENDBRANCH   9  10
ENDBRANCH   8   9
ENDBRANCH   7   8
ENDBRANCH   6   7
ENDBRANCH   5   6
ENDBRANCH   4   5
ENDBRANCH   3   4
ENDBRANCH   2   3
TORSDOF 14
ENDMDL
MODEL      209
REMARK 921   NORMALIZED FREE ENERGY PREDICTED BY IDOCK:   -3.38 KCAL/MOL
REMARK 922        TOTAL FREE ENERGY PREDICTED BY IDOCK:   -7.72 KCAL/MOL
REMARK 923 INTER-LIGAND FREE ENERGY PREDICTED BY IDOCK:   -5.86 KCAL/MOL
REMARK 924 INTRA-LIGAND FREE ENERGY PREDICTED BY IDOCK:   -1.86 KCAL/MOL
REMARK 927      BINDING AFFINITY PREDICTED BY RF-SCORE:    0.00 PKD
ROOT
HETATM    1  C   UNL     1      -7.296  14.440  68.148  1.00  0.00    -0.130 C  
HETATM    2  C   UNL     1      -7.350  15.599  69.130  1.00  0.00    -0.187 C  
ENDROOT
BRANCH   2   3
HETATM    3  C   UNL     1      -6.375  16.705  68.733  1.00  0.00    -0.152 C  
BRANCH   3   4
HETATM    4  C   UNL     1      -6.842  18.067  69.246  1.00  0.00    -0.183 C  
BRANCH   4   5
HETATM    5  C   UNL     1      -6.374  19.188  68.320  1.00  0.00    -0.250 C  
BRANCH   5   6
HETATM    6  C   UNL     1      -6.244  18.698  66.879  1.00  0.00    -0.193 C  
BRANCH   6   7
HETATM    7  C   UNL     1      -7.607  18.670  66.191  1.00  0.00    -0.276 C  
BRANCH   7   8
HETATM    8  C   UNL     1      -8.464  19.858  66.618  1.00  0.00    -0.381 C  
BRANCH   8   9
HETATM    9  C   UNL     1      -9.908  19.429  66.871  1.00  0.00    -0.447 C  
BRANCH   9  10
HETATM   10  C   UNL     1      -9.959  18.253  67.842  1.00  0.00    -0.359 C  
BRANCH  10  11
HETATM   11  C   UNL     1     -10.904  17.155  67.354  1.00  0.00    -0.164 C  
BRANCH  11  12
HETATM   12  C   UNL     1     -10.122  16.100  66.579  1.00  0.00    -0.301 C  
BRANCH  12  13
HETATM   13  C   UNL     1     -10.700  15.848  65.188  1.00  0.00    -0.449 C  
BRANCH  13  14
HETATM   14  C   UNL     1     -11.696  14.714  65.233  1.00  0.00    -0.346 C  
HETATM   15  O   UNL     1     -12.592  14.533  64.419  1.00  0.00    -0.665 OA 
BRANCH  14  16
HETATM   16  O   UNL     1     -11.452  13.921  66.314  1.00  0.00    -0.319 OA 
BRANCH  16  17
HETATM   17  C   UNL     1     -11.455  12.505  66.047  1.00  0.00    -0.377 C  
HETATM   18  C   UNL     1     -10.211  12.128  65.250  1.00  0.00    -0.304 C  
HETATM   19  C   UNL     1     -11.476  11.786  67.389  1.00  0.00    -0.375 C  
ENDBRANCH  16  17
ENDBRANCH  14  16
ENDBRANCH  13  14
ENDBRANCH  12  13
ENDBRANCH  11  12
ENDBRANCH  10  11
ENDBRANCH   9  10
ENDBRANCH   8   9
ENDBRANCH   7   8
ENDBRANCH   6   7
ENDBRANCH   5   6
ENDBRANCH   4   5
ENDBRANCH   3   4
ENDBRANCH   2   3
TORSDOF 14
ENDMDL
MODEL      210
REMARK 921   NORMALIZED FREE ENERGY PREDICTED BY IDOCK:   -3.38 KCAL/MOL
REMARK 922        TOTAL FREE ENERGY PREDICTED BY IDOCK:   -7.71 KCAL/MOL
REMARK 923 INTER-LIGAND FREE ENERGY PREDICTED BY IDOCK:   -5.76 KCAL/MOL
REMARK 924 INTRA-LIGAND FREE ENERGY PREDICTED BY IDOCK:   -1.95 KCAL/MOL
REMARK 927      BINDING AFFINITY PREDICTED BY RF-SCORE:    0.00 PKD
ROOT
HETATM    1  C   UNL     1     -11.267   4.394  73.247  1.00  0.00    -0.364 C  
HETATM    2  C   UNL     1      -9.902   4.669  72.637  1.00  0.00    -0.197 C  
ENDROOT
BRANCH   2   3
HETATM    3  C   UNL     1      -9.314   5.976  73.165  1.00  0.00    -0.139 C  
BRANCH   3   4
HETATM    4  C   UNL     1     -10.413   6.982  73.504  1.00  0.00    -0.413 C  
BRANCH   4   5
HETATM    5  C   UNL     1     -10.566   8.017  72.391  1.00  0.00    -0.373 C  
BRANCH   5   6
HETATM    6  C   UNL     1     -11.892   7.845  71.653  1.00  0.00    -0.325 C  
BRANCH   6   7
HETATM    7  C   UNL     1     -11.736   6.889  70.472  1.00  0.00    -0.401 C  
BRANCH   7   8
HETATM    8  C   UNL     1     -10.379   7.066  69.797  1.00  0.00    -0.225 C  
BRANCH   8   9
HETATM    9  C   UNL     1     -10.506   7.905  68.526  1.00  0.00    -0.202 C  
BRANCH   9  10
HETATM   10  C   UNL     1      -9.974   9.316  68.755  1.00  0.00    -0.193 C  
BRANCH  10  11
HETATM   11  C   UNL     1     -10.820  10.365  68.036  1.00  0.00    -0.319 C  
BRANCH  11  12
HETATM   12  C   UNL     1     -11.992  10.784  68.918  1.00  0.00    -0.210 C  
BRANCH  12  13
HETATM   13  C   UNL     1     -11.550  11.197  70.320  1.00  0.00    -0.388 C  
BRANCH  13  14
HETATM   14  C   UNL     1     -12.552  12.152  70.925  1.00  0.00    -0.247 C  
HETATM   15  O   UNL     1     -13.188  11.948  71.950  1.00  0.00    -0.482 OA 
BRANCH  14  16
HETATM   16  O   UNL     1     -12.647  13.275  70.159  1.00  0.00    -0.184 OA 
BRANCH  16  17
HETATM   17  C   UNL     1     -11.824  14.378  70.585  1.00  0.00    -0.295 C  
HETATM   18  C   UNL     1     -10.991  14.882  69.412  1.00  0.00    -0.284 C  
HETATM   19  C   UNL     1     -12.752  15.470  71.099  1.00  0.00    -0.525 C  
ENDBRANCH  16  17
ENDBRANCH  14  16
ENDBRANCH  13  14
ENDBRANCH  12  13
ENDBRANCH  11  12
ENDBRANCH  10  11
ENDBRANCH   9  10
ENDBRANCH   8   9
ENDBRANCH   7   8
ENDBRANCH   6   7
ENDBRANCH   5   6
ENDBRANCH   4   5
ENDBRANCH   3   4
ENDBRANCH   2   3
TORSDOF 14
ENDMDL
MODEL      211
REMARK 921   NORMALIZED FREE ENERGY PREDICTED BY IDOCK:   -3.37 KCAL/MOL
REMARK 922        TOTAL FREE ENERGY PREDICTED BY IDOCK:   -7.69 KCAL/MOL
REMARK 923 INTER-LIGAND FREE ENERGY PREDICTED BY IDOCK:   -5.63 KCAL/MOL
REMARK 924 INTRA-LIGAND FREE ENERGY PREDICTED BY IDOCK:   -2.07 KCAL/MOL
REMARK 927      BINDING AFFINITY PREDICTED BY RF-SCORE:    0.00 PKD
ROOT
HETATM    1  C   UNL     1      -6.655  12.819  67.359  1.00  0.00    -0.140 C  
HETATM    2  C   UNL     1      -7.718  11.769  67.637  1.00  0.00    -0.137 C  
ENDROOT
BRANCH   2   3
HETATM    3  C   UNL     1      -7.846  10.791  66.472  1.00  0.00    -0.145 C  
BRANCH   3   4
HETATM    4  C   UNL     1      -7.025   9.526  66.716  1.00  0.00    -0.081 C  
BRANCH   4   5
HETATM    5  C   UNL     1      -7.933   8.308  66.876  1.00  0.00    -0.099 C  
BRANCH   5   6
HETATM    6  C   UNL     1      -9.296   8.544  66.228  1.00  0.00    -0.287 C  
BRANCH   6   7
HETATM    7  C   UNL     1     -10.425   8.158  67.182  1.00  0.00    -0.396 C  
BRANCH   7   8
HETATM    8  C   UNL     1      -9.959   8.212  68.635  1.00  0.00    -0.201 C  
BRANCH   8   9
HETATM    9  C   UNL     1     -10.894   9.079  69.477  1.00  0.00    -0.177 C  
BRANCH   9  10
HETATM   10  C   UNL     1     -10.617  10.560  69.239  1.00  0.00    -0.265 C  
BRANCH  10  11
HETATM   11  C   UNL     1     -11.908  11.372  69.148  1.00  0.00    -0.413 C  
BRANCH  11  12
HETATM   12  C   UNL     1     -11.800  12.401  68.028  1.00  0.00    -0.376 C  
BRANCH  12  13
HETATM   13  C   UNL     1     -11.389  11.777  66.697  1.00  0.00    -0.381 C  
BRANCH  13  14
HETATM   14  C   UNL     1     -11.849  12.644  65.548  1.00  0.00    -0.431 C  
HETATM   15  O   UNL     1     -12.971  12.629  65.062  1.00  0.00    -0.812 OA 
BRANCH  14  16
HETATM   16  O   UNL     1     -10.828  13.444  65.131  1.00  0.00    -0.291 OA 
BRANCH  16  17
HETATM   17  C   UNL     1     -10.875  14.800  65.618  1.00  0.00    -0.339 C  
HETATM   18  C   UNL     1      -9.460  15.291  65.907  1.00  0.00    -0.351 C  
HETATM   19  C   UNL     1     -11.534  15.650  64.542  1.00  0.00    -0.304 C  
ENDBRANCH  16  17
ENDBRANCH  14  16
ENDBRANCH  13  14
ENDBRANCH  12  13
ENDBRANCH  11  12
ENDBRANCH  10  11
ENDBRANCH   9  10
ENDBRANCH   8   9
ENDBRANCH   7   8
ENDBRANCH   6   7
ENDBRANCH   5   6
ENDBRANCH   4   5
ENDBRANCH   3   4
ENDBRANCH   2   3
TORSDOF 14
ENDMDL
MODEL      212
REMARK 921   NORMALIZED FREE ENERGY PREDICTED BY IDOCK:   -3.37 KCAL/MOL
REMARK 922        TOTAL FREE ENERGY PREDICTED BY IDOCK:   -7.69 KCAL/MOL
REMARK 923 INTER-LIGAND FREE ENERGY PREDICTED BY IDOCK:   -6.60 KCAL/MOL
REMARK 924 INTRA-LIGAND FREE ENERGY PREDICTED BY IDOCK:   -1.09 KCAL/MOL
REMARK 927      BINDING AFFINITY PREDICTED BY RF-SCORE:    0.00 PKD
ROOT
HETATM    1  C   UNL     1      -9.962   9.685  65.688  1.00  0.00    -0.321 C  
HETATM    2  C   UNL     1     -10.146   8.743  66.867  1.00  0.00    -0.348 C  
ENDROOT
BRANCH   2   3
HETATM    3  C   UNL     1     -10.553   9.506  68.126  1.00  0.00    -0.265 C  
BRANCH   3   4
HETATM    4  C   UNL     1     -10.394   8.639  69.374  1.00  0.00    -0.221 C  
BRANCH   4   5
HETATM    5  C   UNL     1     -10.533   9.480  70.642  1.00  0.00    -0.374 C  
BRANCH   5   6
HETATM    6  C   UNL     1     -11.499  10.644  70.432  1.00  0.00    -0.422 C  
BRANCH   6   7
HETATM    7  C   UNL     1     -12.872  10.322  71.019  1.00  0.00    -0.490 C  
BRANCH   7   8
HETATM    8  C   UNL     1     -13.302  11.384  72.027  1.00  0.00    -0.388 C  
BRANCH   8   9
HETATM    9  C   UNL     1     -12.977  12.787  71.516  1.00  0.00    -0.388 C  
BRANCH   9  10
HETATM   10  C   UNL     1     -13.822  13.833  72.235  1.00  0.00    -0.679 C  
BRANCH  10  11
HETATM   11  C   UNL     1     -13.579  15.237  71.682  1.00  0.00    -0.586 C  
BRANCH  11  12
HETATM   12  C   UNL     1     -12.245  15.283  70.943  1.00  0.00    -0.409 C  
BRANCH  12  13
HETATM   13  C   UNL     1     -12.411  15.575  69.454  1.00  0.00    -0.143 C  
BRANCH  13  14
HETATM   14  C   UNL     1     -11.411  14.777  68.649  1.00  0.00    -0.302 C  
HETATM   15  O   UNL     1     -11.466  13.570  68.458  1.00  0.00    -0.266 OA 
BRANCH  14  16
HETATM   16  O   UNL     1     -10.437  15.600  68.169  1.00  0.00    -0.248 OA 
BRANCH  16  17
HETATM   17  C   UNL     1      -9.128  15.006  68.073  1.00  0.00    -0.178 C  
HETATM   18  C   UNL     1      -8.430  15.501  66.811  1.00  0.00    -0.314 C  
HETATM   19  C   UNL     1      -8.349  15.411  69.317  1.00  0.00    -0.254 C  
ENDBRANCH  16  17
ENDBRANCH  14  16
ENDBRANCH  13  14
ENDBRANCH  12  13
ENDBRANCH  11  12
ENDBRANCH  10  11
ENDBRANCH   9  10
ENDBRANCH   8   9
ENDBRANCH   7   8
ENDBRANCH   6   7
ENDBRANCH   5   6
ENDBRANCH   4   5
ENDBRANCH   3   4
ENDBRANCH   2   3
TORSDOF 14
ENDMDL
MODEL      213
REMARK 921   NORMALIZED FREE ENERGY PREDICTED BY IDOCK:   -3.36 KCAL/MOL
REMARK 922        TOTAL FREE ENERGY PREDICTED BY IDOCK:   -7.68 KCAL/MOL
REMARK 923 INTER-LIGAND FREE ENERGY PREDICTED BY IDOCK:   -6.44 KCAL/MOL
REMARK 924 INTRA-LIGAND FREE ENERGY PREDICTED BY IDOCK:   -1.24 KCAL/MOL
REMARK 927      BINDING AFFINITY PREDICTED BY RF-SCORE:    0.00 PKD
ROOT
HETATM    1  C   UNL     1     -11.571  11.665  63.753  1.00  0.00    -0.430 C  
HETATM    2  C   UNL     1     -11.098  13.106  63.856  1.00  0.00    -0.345 C  
ENDROOT
BRANCH   2   3
HETATM    3  C   UNL     1     -11.696  13.798  65.078  1.00  0.00    -0.356 C  
BRANCH   3   4
HETATM    4  C   UNL     1     -11.977  12.799  66.199  1.00  0.00    -0.476 C  
BRANCH   4   5
HETATM    5  C   UNL     1     -10.808  12.739  67.181  1.00  0.00    -0.282 C  
BRANCH   5   6
HETATM    6  C   UNL     1     -10.450  11.295  67.528  1.00  0.00    -0.234 C  
BRANCH   6   7
HETATM    7  C   UNL     1     -10.639  11.033  69.021  1.00  0.00    -0.258 C  
BRANCH   7   8
HETATM    8  C   UNL     1     -12.118  10.888  69.371  1.00  0.00    -0.362 C  
BRANCH   8   9
HETATM    9  C   UNL     1     -12.499  11.810  70.528  1.00  0.00    -0.317 C  
BRANCH   9  10
HETATM   10  C   UNL     1     -12.921  10.999  71.748  1.00  0.00    -0.544 C  
BRANCH  10  11
HETATM   11  C   UNL     1     -13.523   9.651  71.353  1.00  0.00    -0.403 C  
BRANCH  11  12
HETATM   12  C   UNL     1     -12.949   8.546  72.234  1.00  0.00    -0.384 C  
BRANCH  12  13
HETATM   13  C   UNL     1     -11.567   8.088  71.774  1.00  0.00    -0.331 C  
BRANCH  13  14
HETATM   14  C   UNL     1     -11.653   6.726  71.129  1.00  0.00    -0.329 C  
HETATM   15  O   UNL     1     -11.773   6.523  69.928  1.00  0.00    -0.406 OA 
BRANCH  14  16
HETATM   16  O   UNL     1     -11.582   5.754  72.081  1.00  0.00    -0.276 OA 
BRANCH  16  17
HETATM   17  C   UNL     1     -10.355   5.728  72.837  1.00  0.00    -0.199 C  
HETATM   18  C   UNL     1     -10.546   4.891  74.098  1.00  0.00    -0.345 C  
HETATM   19  C   UNL     1      -9.280   5.124  71.944  1.00  0.00    -0.160 C  
ENDBRANCH  16  17
ENDBRANCH  14  16
ENDBRANCH  13  14
ENDBRANCH  12  13
ENDBRANCH  11  12
ENDBRANCH  10  11
ENDBRANCH   9  10
ENDBRANCH   8   9
ENDBRANCH   7   8
ENDBRANCH   6   7
ENDBRANCH   5   6
ENDBRANCH   4   5
ENDBRANCH   3   4
ENDBRANCH   2   3
TORSDOF 14
ENDMDL
MODEL      214
REMARK 921   NORMALIZED FREE ENERGY PREDICTED BY IDOCK:   -3.36 KCAL/MOL
REMARK 922        TOTAL FREE ENERGY PREDICTED BY IDOCK:   -7.67 KCAL/MOL
REMARK 923 INTER-LIGAND FREE ENERGY PREDICTED BY IDOCK:   -6.27 KCAL/MOL
REMARK 924 INTRA-LIGAND FREE ENERGY PREDICTED BY IDOCK:   -1.40 KCAL/MOL
REMARK 927      BINDING AFFINITY PREDICTED BY RF-SCORE:    0.00 PKD
ROOT
HETATM    1  C   UNL     1     -11.295  15.508  68.191  1.00  0.00    -0.348 C  
HETATM    2  C   UNL     1     -10.523  16.288  67.140  1.00  0.00    -0.297 C  
ENDROOT
BRANCH   2   3
HETATM    3  C   UNL     1     -10.370  15.479  65.853  1.00  0.00    -0.365 C  
BRANCH   3   4
HETATM    4  C   UNL     1      -9.996  14.028  66.152  1.00  0.00    -0.325 C  
BRANCH   4   5
HETATM    5  C   UNL     1     -10.512  13.096  65.058  1.00  0.00    -0.358 C  
BRANCH   5   6
HETATM    6  C   UNL     1     -11.388  11.989  65.641  1.00  0.00    -0.381 C  
BRANCH   6   7
HETATM    7  C   UNL     1     -11.485  12.117  67.160  1.00  0.00    -0.413 C  
BRANCH   7   8
HETATM    8  C   UNL     1     -11.225  10.777  67.842  1.00  0.00    -0.386 C  
BRANCH   8   9
HETATM    9  C   UNL     1     -10.269   9.918  67.015  1.00  0.00    -0.294 C  
BRANCH   9  10
HETATM   10  C   UNL     1      -9.973   8.602  67.727  1.00  0.00    -0.240 C  
BRANCH  10  11
HETATM   11  C   UNL     1     -10.537   7.404  66.964  1.00  0.00    -0.414 C  
BRANCH  11  12
HETATM   12  C   UNL     1     -10.463   6.151  67.831  1.00  0.00    -0.286 C  
BRANCH  12  13
HETATM   13  C   UNL     1     -11.268   6.284  69.121  1.00  0.00    -0.439 C  
BRANCH  13  14
HETATM   14  C   UNL     1     -10.442   5.836  70.303  1.00  0.00    -0.280 C  
HETATM   15  O   UNL     1     -10.259   4.672  70.633  1.00  0.00    -0.217 OA 
BRANCH  14  16
HETATM   16  O   UNL     1      -9.931   6.921  70.951  1.00  0.00    -0.189 OA 
BRANCH  16  17
HETATM   17  C   UNL     1     -10.911   7.832  71.486  1.00  0.00    -0.227 C  
HETATM   18  C   UNL     1     -11.110   7.559  72.973  1.00  0.00    -0.413 C  
HETATM   19  C   UNL     1     -10.392   9.246  71.259  1.00  0.00    -0.397 C  
ENDBRANCH  16  17
ENDBRANCH  14  16
ENDBRANCH  13  14
ENDBRANCH  12  13
ENDBRANCH  11  12
ENDBRANCH  10  11
ENDBRANCH   9  10
ENDBRANCH   8   9
ENDBRANCH   7   8
ENDBRANCH   6   7
ENDBRANCH   5   6
ENDBRANCH   4   5
ENDBRANCH   3   4
ENDBRANCH   2   3
TORSDOF 14
ENDMDL
MODEL      215
REMARK 921   NORMALIZED FREE ENERGY PREDICTED BY IDOCK:   -3.35 KCAL/MOL
REMARK 922        TOTAL FREE ENERGY PREDICTED BY IDOCK:   -7.65 KCAL/MOL
REMARK 923 INTER-LIGAND FREE ENERGY PREDICTED BY IDOCK:   -6.31 KCAL/MOL
REMARK 924 INTRA-LIGAND FREE ENERGY PREDICTED BY IDOCK:   -1.34 KCAL/MOL
REMARK 927      BINDING AFFINITY PREDICTED BY RF-SCORE:    0.00 PKD
ROOT
HETATM    1  C   UNL     1      -8.906   4.424  68.765  1.00  0.00    -0.133 C  
HETATM    2  C   UNL     1      -9.174   5.451  67.676  1.00  0.00    -0.116 C  
ENDROOT
BRANCH   2   3
HETATM    3  C   UNL     1     -10.608   5.971  67.748  1.00  0.00    -0.337 C  
BRANCH   3   4
HETATM    4  C   UNL     1     -10.763   7.277  66.970  1.00  0.00    -0.406 C  
BRANCH   4   5
HETATM    5  C   UNL     1     -10.081   8.432  67.703  1.00  0.00    -0.268 C  
BRANCH   5   6
HETATM    6  C   UNL     1     -10.205   9.736  66.919  1.00  0.00    -0.310 C  
BRANCH   6   7
HETATM    7  C   UNL     1      -8.826  10.292  66.569  1.00  0.00    -0.150 C  
BRANCH   7   8
HETATM    8  C   UNL     1      -8.744  10.666  65.091  1.00  0.00    -0.196 C  
BRANCH   8   9
HETATM    9  C   UNL     1     -10.133  10.692  64.455  1.00  0.00    -0.421 C  
BRANCH   9  10
HETATM   10  C   UNL     1     -10.207  11.756  63.365  1.00  0.00    -0.482 C  
BRANCH  10  11
HETATM   11  C   UNL     1     -11.426  12.662  63.538  1.00  0.00    -0.557 C  
BRANCH  11  12
HETATM   12  C   UNL     1     -12.116  12.359  64.864  1.00  0.00    -0.470 C  
BRANCH  12  13
HETATM   13  C   UNL     1     -12.674  13.613  65.534  1.00  0.00    -0.514 C  
BRANCH  13  14
HETATM   14  C   UNL     1     -12.073  13.785  66.908  1.00  0.00    -0.413 C  
HETATM   15  O   UNL     1     -11.938  12.891  67.733  1.00  0.00    -0.347 OA 
BRANCH  14  16
HETATM   16  O   UNL     1     -11.705  15.083  67.097  1.00  0.00    -0.327 OA 
BRANCH  16  17
HETATM   17  C   UNL     1     -10.367  15.273  67.598  1.00  0.00    -0.250 C  
HETATM   18  C   UNL     1      -9.364  15.112  66.460  1.00  0.00    -0.308 C  
HETATM   19  C   UNL     1     -10.294  16.674  68.190  1.00  0.00    -0.303 C  
ENDBRANCH  16  17
ENDBRANCH  14  16
ENDBRANCH  13  14
ENDBRANCH  12  13
ENDBRANCH  11  12
ENDBRANCH  10  11
ENDBRANCH   9  10
ENDBRANCH   8   9
ENDBRANCH   7   8
ENDBRANCH   6   7
ENDBRANCH   5   6
ENDBRANCH   4   5
ENDBRANCH   3   4
ENDBRANCH   2   3
TORSDOF 14
ENDMDL
MODEL      216
REMARK 921   NORMALIZED FREE ENERGY PREDICTED BY IDOCK:   -3.34 KCAL/MOL
REMARK 922        TOTAL FREE ENERGY PREDICTED BY IDOCK:   -7.64 KCAL/MOL
REMARK 923 INTER-LIGAND FREE ENERGY PREDICTED BY IDOCK:   -6.10 KCAL/MOL
REMARK 924 INTRA-LIGAND FREE ENERGY PREDICTED BY IDOCK:   -1.53 KCAL/MOL
REMARK 927      BINDING AFFINITY PREDICTED BY RF-SCORE:    0.00 PKD
ROOT
HETATM    1  C   UNL     1      -7.636  12.990  67.676  1.00  0.00    -0.160 C  
HETATM    2  C   UNL     1      -8.783  12.078  67.272  1.00  0.00    -0.175 C  
ENDROOT
BRANCH   2   3
HETATM    3  C   UNL     1      -8.576  10.661  67.802  1.00  0.00    -0.123 C  
BRANCH   3   4
HETATM    4  C   UNL     1      -9.853  10.115  68.439  1.00  0.00    -0.164 C  
BRANCH   4   5
HETATM    5  C   UNL     1     -11.087  10.814  67.870  1.00  0.00    -0.369 C  
BRANCH   5   6
HETATM    6  C   UNL     1     -11.929  11.442  68.979  1.00  0.00    -0.387 C  
BRANCH   6   7
HETATM    7  C   UNL     1     -11.837  10.617  70.262  1.00  0.00    -0.430 C  
BRANCH   7   8
HETATM    8  C   UNL     1     -12.591  11.292  71.404  1.00  0.00    -0.456 C  
BRANCH   8   9
HETATM    9  C   UNL     1     -12.910  12.747  71.065  1.00  0.00    -0.262 C  
BRANCH   9  10
HETATM   10  C   UNL     1     -13.553  13.451  72.256  1.00  0.00    -0.703 C  
BRANCH  10  11
HETATM   11  C   UNL     1     -13.514  14.971  72.106  1.00  0.00    -0.508 C  
BRANCH  11  12
HETATM   12  C   UNL     1     -12.815  15.349  70.804  1.00  0.00    -0.524 C  
BRANCH  12  13
HETATM   13  C   UNL     1     -11.566  16.196  71.035  1.00  0.00    -0.434 C  
BRANCH  13  14
HETATM   14  C   UNL     1     -10.491  15.827  70.040  1.00  0.00    -0.306 C  
HETATM   15  O   UNL     1      -9.671  14.932  70.191  1.00  0.00     0.127 OA 
BRANCH  14  16
HETATM   16  O   UNL     1     -10.567  16.640  68.949  1.00  0.00    -0.293 OA 
BRANCH  16  17
HETATM   17  C   UNL     1     -10.307  15.995  67.687  1.00  0.00    -0.284 C  
HETATM   18  C   UNL     1     -11.345  14.904  67.443  1.00  0.00    -0.354 C  
HETATM   19  C   UNL     1     -10.379  17.062  66.604  1.00  0.00    -0.299 C  
ENDBRANCH  16  17
ENDBRANCH  14  16
ENDBRANCH  13  14
ENDBRANCH  12  13
ENDBRANCH  11  12
ENDBRANCH  10  11
ENDBRANCH   9  10
ENDBRANCH   8   9
ENDBRANCH   7   8
ENDBRANCH   6   7
ENDBRANCH   5   6
ENDBRANCH   4   5
ENDBRANCH   3   4
ENDBRANCH   2   3
TORSDOF 14
ENDMDL
MODEL      217
REMARK 921   NORMALIZED FREE ENERGY PREDICTED BY IDOCK:   -3.32 KCAL/MOL
REMARK 922        TOTAL FREE ENERGY PREDICTED BY IDOCK:   -7.61 KCAL/MOL
REMARK 923 INTER-LIGAND FREE ENERGY PREDICTED BY IDOCK:   -6.55 KCAL/MOL
REMARK 924 INTRA-LIGAND FREE ENERGY PREDICTED BY IDOCK:   -1.06 KCAL/MOL
REMARK 927      BINDING AFFINITY PREDICTED BY RF-SCORE:    0.00 PKD
ROOT
HETATM    1  C   UNL     1     -11.965  14.816  64.421  1.00  0.00    -0.433 C  
HETATM    2  C   UNL     1     -10.665  14.161  64.859  1.00  0.00    -0.444 C  
ENDROOT
BRANCH   2   3
HETATM    3  C   UNL     1     -10.922  13.035  65.858  1.00  0.00    -0.292 C  
BRANCH   3   4
HETATM    4  C   UNL     1     -12.029  13.410  66.842  1.00  0.00    -0.437 C  
BRANCH   4   5
HETATM    5  C   UNL     1     -11.649  13.011  68.267  1.00  0.00    -0.375 C  
BRANCH   5   6
HETATM    6  C   UNL     1     -11.913  14.149  69.250  1.00  0.00    -0.382 C  
BRANCH   6   7
HETATM    7  C   UNL     1     -12.391  13.605  70.595  1.00  0.00    -0.440 C  
BRANCH   7   8
HETATM    8  C   UNL     1     -12.337  12.079  70.621  1.00  0.00    -0.394 C  
BRANCH   8   9
HETATM    9  C   UNL     1     -13.116  11.524  71.813  1.00  0.00    -0.503 C  
BRANCH   9  10
HETATM   10  C   UNL     1     -13.100   9.999  71.805  1.00  0.00    -0.562 C  
BRANCH  10  11
HETATM   11  C   UNL     1     -11.699   9.448  71.544  1.00  0.00    -0.465 C  
BRANCH  11  12
HETATM   12  C   UNL     1     -11.753   8.378  70.459  1.00  0.00    -0.076 C  
BRANCH  12  13
HETATM   13  C   UNL     1     -11.675   6.963  71.028  1.00  0.00    -0.392 C  
BRANCH  13  14
HETATM   14  C   UNL     1     -10.255   6.452  70.967  1.00  0.00    -0.192 C  
HETATM   15  O   UNL     1      -9.497   6.594  70.017  1.00  0.00    -0.157 OA 
BRANCH  14  16
HETATM   16  O   UNL     1      -9.942   5.806  72.125  1.00  0.00    -0.172 OA 
BRANCH  16  17
HETATM   17  C   UNL     1     -10.354   6.479  73.331  1.00  0.00    -0.260 C  
HETATM   18  C   UNL     1     -10.529   5.461  74.453  1.00  0.00    -0.255 C  
HETATM   19  C   UNL     1      -9.274   7.492  73.683  1.00  0.00    -0.320 C  
ENDBRANCH  16  17
ENDBRANCH  14  16
ENDBRANCH  13  14
ENDBRANCH  12  13
ENDBRANCH  11  12
ENDBRANCH  10  11
ENDBRANCH   9  10
ENDBRANCH   8   9
ENDBRANCH   7   8
ENDBRANCH   6   7
ENDBRANCH   5   6
ENDBRANCH   4   5
ENDBRANCH   3   4
ENDBRANCH   2   3
TORSDOF 14
ENDMDL
MODEL      218
REMARK 921   NORMALIZED FREE ENERGY PREDICTED BY IDOCK:   -3.32 KCAL/MOL
REMARK 922        TOTAL FREE ENERGY PREDICTED BY IDOCK:   -7.60 KCAL/MOL
REMARK 923 INTER-LIGAND FREE ENERGY PREDICTED BY IDOCK:   -6.17 KCAL/MOL
REMARK 924 INTRA-LIGAND FREE ENERGY PREDICTED BY IDOCK:   -1.43 KCAL/MOL
REMARK 927      BINDING AFFINITY PREDICTED BY RF-SCORE:    0.00 PKD
ROOT
HETATM    1  C   UNL     1     -11.711  10.447  70.460  1.00  0.00    -0.434 C  
HETATM    2  C   UNL     1     -12.844  10.814  71.405  1.00  0.00    -0.557 C  
ENDROOT
BRANCH   2   3
HETATM    3  C   UNL     1     -13.417   9.575  72.088  1.00  0.00    -0.535 C  
BRANCH   3   4
HETATM    4  C   UNL     1     -12.375   8.461  72.181  1.00  0.00    -0.426 C  
BRANCH   4   5
HETATM    5  C   UNL     1     -12.964   7.125  71.733  1.00  0.00    -0.367 C  
BRANCH   5   6
HETATM    6  C   UNL     1     -12.006   5.971  72.026  1.00  0.00    -0.237 C  
BRANCH   6   7
HETATM    7  C   UNL     1     -10.716   6.121  71.222  1.00  0.00    -0.310 C  
BRANCH   7   8
HETATM    8  C   UNL     1     -10.995   6.080  69.722  1.00  0.00    -0.471 C  
BRANCH   8   9
HETATM    9  C   UNL     1     -10.264   7.211  68.998  1.00  0.00    -0.191 C  
BRANCH   9  10
HETATM   10  C   UNL     1     -10.260   6.974  67.492  1.00  0.00    -0.257 C  
BRANCH  10  11
HETATM   11  C   UNL     1      -9.653   8.153  66.733  1.00  0.00    -0.281 C  
BRANCH  11  12
HETATM   12  C   UNL     1     -10.305   9.455  67.185  1.00  0.00    -0.326 C  
BRANCH  12  13
HETATM   13  C   UNL     1      -9.743  10.675  66.458  1.00  0.00    -0.236 C  
BRANCH  13  14
HETATM   14  C   UNL     1     -10.732  11.815  66.505  1.00  0.00    -0.265 C  
HETATM   15  O   UNL     1     -11.309  12.287  65.535  1.00  0.00    -0.324 OA 
BRANCH  14  16
HETATM   16  O   UNL     1     -10.887  12.244  67.789  1.00  0.00    -0.208 OA 
BRANCH  16  17
HETATM   17  C   UNL     1     -11.068  13.666  67.941  1.00  0.00    -0.261 C  
HETATM   18  C   UNL     1     -12.248  13.937  68.869  1.00  0.00    -0.257 C  
HETATM   19  C   UNL     1      -9.781  14.232  68.524  1.00  0.00    -0.225 C  
ENDBRANCH  16  17
ENDBRANCH  14  16
ENDBRANCH  13  14
ENDBRANCH  12  13
ENDBRANCH  11  12
ENDBRANCH  10  11
ENDBRANCH   9  10
ENDBRANCH   8   9
ENDBRANCH   7   8
ENDBRANCH   6   7
ENDBRANCH   5   6
ENDBRANCH   4   5
ENDBRANCH   3   4
ENDBRANCH   2   3
TORSDOF 14
ENDMDL
MODEL      219
REMARK 921   NORMALIZED FREE ENERGY PREDICTED BY IDOCK:   -3.31 KCAL/MOL
REMARK 922        TOTAL FREE ENERGY PREDICTED BY IDOCK:   -7.59 KCAL/MOL
REMARK 923 INTER-LIGAND FREE ENERGY PREDICTED BY IDOCK:   -6.42 KCAL/MOL
REMARK 924 INTRA-LIGAND FREE ENERGY PREDICTED BY IDOCK:   -1.17 KCAL/MOL
REMARK 927      BINDING AFFINITY PREDICTED BY RF-SCORE:    0.00 PKD
ROOT
HETATM    1  C   UNL     1     -12.417  16.050  73.108  1.00  0.00    -0.633 C  
HETATM    2  C   UNL     1     -13.795  15.564  72.690  1.00  0.00    -0.654 C  
ENDROOT
BRANCH   2   3
HETATM    3  C   UNL     1     -13.711  14.641  71.476  1.00  0.00    -0.495 C  
BRANCH   3   4
HETATM    4  C   UNL     1     -12.979  13.343  71.817  1.00  0.00    -0.435 C  
BRANCH   4   5
HETATM    5  C   UNL     1     -12.429  12.681  70.555  1.00  0.00    -0.273 C  
BRANCH   5   6
HETATM    6  C   UNL     1     -12.493  11.158  70.657  1.00  0.00    -0.448 C  
BRANCH   6   7
HETATM    7  C   UNL     1     -13.316  10.729  71.870  1.00  0.00    -0.445 C  
BRANCH   7   8
HETATM    8  C   UNL     1     -13.601   9.230  71.839  1.00  0.00    -0.494 C  
BRANCH   8   9
HETATM    9  C   UNL     1     -12.331   8.438  71.532  1.00  0.00    -0.343 C  
BRANCH   9  10
HETATM   10  C   UNL     1     -12.468   6.994  72.005  1.00  0.00    -0.279 C  
BRANCH  10  11
HETATM   11  C   UNL     1     -11.397   6.092  71.393  1.00  0.00    -0.336 C  
BRANCH  11  12
HETATM   12  C   UNL     1     -11.293   6.350  69.893  1.00  0.00    -0.500 C  
BRANCH  12  13
HETATM   13  C   UNL     1     -10.264   5.450  69.214  1.00  0.00    -0.315 C  
BRANCH  13  14
HETATM   14  C   UNL     1      -9.532   6.213  68.135  1.00  0.00    -0.113 C  
HETATM   15  O   UNL     1      -9.428   5.855  66.970  1.00  0.00    -0.119 OA 
BRANCH  14  16
HETATM   16  O   UNL     1      -9.003   7.357  68.651  1.00  0.00    -0.133 OA 
BRANCH  16  17
HETATM   17  C   UNL     1      -9.095   8.513  67.795  1.00  0.00    -0.135 C  
HETATM   18  C   UNL     1      -9.864   9.620  68.508  1.00  0.00    -0.170 C  
HETATM   19  C   UNL     1      -7.675   8.960  67.475  1.00  0.00    -0.100 C  
ENDBRANCH  16  17
ENDBRANCH  14  16
ENDBRANCH  13  14
ENDBRANCH  12  13
ENDBRANCH  11  12
ENDBRANCH  10  11
ENDBRANCH   9  10
ENDBRANCH   8   9
ENDBRANCH   7   8
ENDBRANCH   6   7
ENDBRANCH   5   6
ENDBRANCH   4   5
ENDBRANCH   3   4
ENDBRANCH   2   3
TORSDOF 14
ENDMDL
MODEL      220
REMARK 921   NORMALIZED FREE ENERGY PREDICTED BY IDOCK:   -3.31 KCAL/MOL
REMARK 922        TOTAL FREE ENERGY PREDICTED BY IDOCK:   -7.59 KCAL/MOL
REMARK 923 INTER-LIGAND FREE ENERGY PREDICTED BY IDOCK:   -6.55 KCAL/MOL
REMARK 924 INTRA-LIGAND FREE ENERGY PREDICTED BY IDOCK:   -1.04 KCAL/MOL
REMARK 927      BINDING AFFINITY PREDICTED BY RF-SCORE:    0.00 PKD
ROOT
HETATM    1  C   UNL     1      -9.578   3.821  66.430  1.00  0.00    -0.179 C  
HETATM    2  C   UNL     1     -10.661   4.852  66.154  1.00  0.00    -0.322 C  
ENDROOT
BRANCH   2   3
HETATM    3  C   UNL     1     -10.683   5.933  67.232  1.00  0.00    -0.380 C  
BRANCH   3   4
HETATM    4  C   UNL     1      -9.798   7.117  66.847  1.00  0.00    -0.271 C  
BRANCH   4   5
HETATM    5  C   UNL     1      -8.694   7.332  67.881  1.00  0.00    -0.123 C  
BRANCH   5   6
HETATM    6  C   UNL     1      -9.069   6.717  69.228  1.00  0.00    -0.138 C  
BRANCH   6   7
HETATM    7  C   UNL     1      -8.354   7.436  70.370  1.00  0.00    -0.129 C  
BRANCH   7   8
HETATM    8  C   UNL     1      -8.728   8.915  70.408  1.00  0.00    -0.200 C  
BRANCH   8   9
HETATM    9  C   UNL     1      -9.913   9.156  71.342  1.00  0.00    -0.373 C  
BRANCH   9  10
HETATM   10  C   UNL     1     -11.023   9.914  70.621  1.00  0.00    -0.405 C  
BRANCH  10  11
HETATM   11  C   UNL     1     -12.404   9.548  71.163  1.00  0.00    -0.410 C  
BRANCH  11  12
HETATM   12  C   UNL     1     -13.151  10.810  71.581  1.00  0.00    -0.551 C  
BRANCH  12  13
HETATM   13  C   UNL     1     -12.483  12.083  71.068  1.00  0.00    -0.376 C  
BRANCH  13  14
HETATM   14  C   UNL     1     -13.136  13.300  71.679  1.00  0.00    -0.363 C  
HETATM   15  O   UNL     1     -13.880  13.286  72.650  1.00  0.00    -0.712 OA 
BRANCH  14  16
HETATM   16  O   UNL     1     -12.777  14.418  70.988  1.00  0.00    -0.309 OA 
BRANCH  16  17
HETATM   17  C   UNL     1     -11.531  15.016  71.397  1.00  0.00    -0.318 C  
HETATM   18  C   UNL     1     -10.904  15.755  70.219  1.00  0.00    -0.363 C  
HETATM   19  C   UNL     1     -11.836  15.976  72.538  1.00  0.00    -0.630 C  
ENDBRANCH  16  17
ENDBRANCH  14  16
ENDBRANCH  13  14
ENDBRANCH  12  13
ENDBRANCH  11  12
ENDBRANCH  10  11
ENDBRANCH   9  10
ENDBRANCH   8   9
ENDBRANCH   7   8
ENDBRANCH   6   7
ENDBRANCH   5   6
ENDBRANCH   4   5
ENDBRANCH   3   4
ENDBRANCH   2   3
TORSDOF 14
ENDMDL
MODEL      221
REMARK 921   NORMALIZED FREE ENERGY PREDICTED BY IDOCK:   -3.31 KCAL/MOL
REMARK 922        TOTAL FREE ENERGY PREDICTED BY IDOCK:   -7.59 KCAL/MOL
REMARK 923 INTER-LIGAND FREE ENERGY PREDICTED BY IDOCK:   -6.74 KCAL/MOL
REMARK 924 INTRA-LIGAND FREE ENERGY PREDICTED BY IDOCK:   -0.85 KCAL/MOL
REMARK 927      BINDING AFFINITY PREDICTED BY RF-SCORE:    0.00 PKD
ROOT
HETATM    1  C   UNL     1      -9.606  20.442  67.220  1.00  0.00    -0.592 C  
HETATM    2  C   UNL     1     -10.418  19.157  67.248  1.00  0.00    -0.549 C  
ENDROOT
BRANCH   2   3
HETATM    3  C   UNL     1     -10.209  18.401  68.558  1.00  0.00    -0.394 C  
BRANCH   3   4
HETATM    4  C   UNL     1      -9.446  17.097  68.329  1.00  0.00    -0.276 C  
BRANCH   4   5
HETATM    5  C   UNL     1      -9.547  16.185  69.551  1.00  0.00    -0.150 C  
BRANCH   5   6
HETATM    6  C   UNL     1     -11.002  15.857  69.880  1.00  0.00    -0.343 C  
BRANCH   6   7
HETATM    7  C   UNL     1     -11.557  14.821  68.904  1.00  0.00    -0.340 C  
BRANCH   7   8
HETATM    8  C   UNL     1     -11.357  13.404  69.434  1.00  0.00    -0.286 C  
BRANCH   8   9
HETATM    9  C   UNL     1     -11.536  12.373  68.321  1.00  0.00    -0.384 C  
BRANCH   9  10
HETATM   10  C   UNL     1     -11.495  10.956  68.886  1.00  0.00    -0.369 C  
BRANCH  10  11
HETATM   11  C   UNL     1     -11.607  10.950  70.410  1.00  0.00    -0.418 C  
BRANCH  11  12
HETATM   12  C   UNL     1     -11.158   9.600  70.960  1.00  0.00    -0.438 C  
BRANCH  12  13
HETATM   13  C   UNL     1     -12.194   8.972  71.889  1.00  0.00    -0.451 C  
BRANCH  13  14
HETATM   14  C   UNL     1     -12.450   7.537  71.494  1.00  0.00    -0.346 C  
HETATM   15  O   UNL     1     -13.554   7.049  71.296  1.00  0.00    -0.319 OA 
BRANCH  14  16
HETATM   16  O   UNL     1     -11.270   6.863  71.393  1.00  0.00    -0.244 OA 
BRANCH  16  17
HETATM   17  C   UNL     1     -11.176   5.958  70.275  1.00  0.00    -0.247 C  
HETATM   18  C   UNL     1     -10.838   6.738  69.009  1.00  0.00    -0.290 C  
HETATM   19  C   UNL     1     -10.084   4.947  70.596  1.00  0.00    -0.306 C  
ENDBRANCH  16  17
ENDBRANCH  14  16
ENDBRANCH  13  14
ENDBRANCH  12  13
ENDBRANCH  11  12
ENDBRANCH  10  11
ENDBRANCH   9  10
ENDBRANCH   8   9
ENDBRANCH   7   8
ENDBRANCH   6   7
ENDBRANCH   5   6
ENDBRANCH   4   5
ENDBRANCH   3   4
ENDBRANCH   2   3
TORSDOF 14
ENDMDL
MODEL      222
REMARK 921   NORMALIZED FREE ENERGY PREDICTED BY IDOCK:   -3.31 KCAL/MOL
REMARK 922        TOTAL FREE ENERGY PREDICTED BY IDOCK:   -7.59 KCAL/MOL
REMARK 923 INTER-LIGAND FREE ENERGY PREDICTED BY IDOCK:   -5.88 KCAL/MOL
REMARK 924 INTRA-LIGAND FREE ENERGY PREDICTED BY IDOCK:   -1.70 KCAL/MOL
REMARK 927      BINDING AFFINITY PREDICTED BY RF-SCORE:    0.00 PKD
ROOT
HETATM    1  C   UNL     1      -8.331   8.173  68.017  1.00  0.00    -0.129 C  
HETATM    2  C   UNL     1      -7.914   8.892  66.745  1.00  0.00    -0.107 C  
ENDROOT
BRANCH   2   3
HETATM    3  C   UNL     1      -9.093   9.049  65.787  1.00  0.00    -0.272 C  
BRANCH   3   4
HETATM    4  C   UNL     1      -9.149  10.460  65.204  1.00  0.00    -0.232 C  
BRANCH   4   5
HETATM    5  C   UNL     1      -9.552  10.425  63.731  1.00  0.00    -0.366 C  
BRANCH   5   6
HETATM    6  C   UNL     1     -10.206  11.738  63.305  1.00  0.00    -0.452 C  
BRANCH   6   7
HETATM    7  C   UNL     1     -11.694  11.740  63.649  1.00  0.00    -0.517 C  
BRANCH   7   8
HETATM    8  C   UNL     1     -12.275  13.149  63.572  1.00  0.00    -0.552 C  
BRANCH   8   9
HETATM    9  C   UNL     1     -12.341  13.790  64.958  1.00  0.00    -0.456 C  
BRANCH   9  10
HETATM   10  C   UNL     1     -11.435  15.014  65.031  1.00  0.00    -0.364 C  
BRANCH  10  11
HETATM   11  C   UNL     1     -10.071  14.676  65.631  1.00  0.00    -0.389 C  
BRANCH  11  12
HETATM   12  C   UNL     1     -10.241  13.710  66.799  1.00  0.00    -0.268 C  
BRANCH  12  13
HETATM   13  C   UNL     1      -8.966  13.562  67.627  1.00  0.00    -0.200 C  
BRANCH  13  14
HETATM   14  C   UNL     1      -8.983  14.525  68.791  1.00  0.00    -0.157 C  
HETATM   15  O   UNL     1      -7.996  15.069  69.267  1.00  0.00    -0.185 OA 
BRANCH  14  16
HETATM   16  O   UNL     1     -10.259  14.696  69.236  1.00  0.00    -0.217 OA 
BRANCH  16  17
HETATM   17  C   UNL     1     -10.574  16.026  69.694  1.00  0.00    -0.311 C  
HETATM   18  C   UNL     1     -10.814  16.939  68.497  1.00  0.00    -0.335 C  
HETATM   19  C   UNL     1     -11.823  15.928  70.559  1.00  0.00    -0.374 C  
ENDBRANCH  16  17
ENDBRANCH  14  16
ENDBRANCH  13  14
ENDBRANCH  12  13
ENDBRANCH  11  12
ENDBRANCH  10  11
ENDBRANCH   9  10
ENDBRANCH   8   9
ENDBRANCH   7   8
ENDBRANCH   6   7
ENDBRANCH   5   6
ENDBRANCH   4   5
ENDBRANCH   3   4
ENDBRANCH   2   3
TORSDOF 14
ENDMDL
MODEL      223
REMARK 921   NORMALIZED FREE ENERGY PREDICTED BY IDOCK:   -3.31 KCAL/MOL
REMARK 922        TOTAL FREE ENERGY PREDICTED BY IDOCK:   -7.58 KCAL/MOL
REMARK 923 INTER-LIGAND FREE ENERGY PREDICTED BY IDOCK:   -5.86 KCAL/MOL
REMARK 924 INTRA-LIGAND FREE ENERGY PREDICTED BY IDOCK:   -1.73 KCAL/MOL
REMARK 927      BINDING AFFINITY PREDICTED BY RF-SCORE:    0.00 PKD
ROOT
HETATM    1  C   UNL     1      -7.035  14.470  68.464  1.00  0.00    -0.105 C  
HETATM    2  C   UNL     1      -7.656  15.687  69.130  1.00  0.00    -0.206 C  
ENDROOT
BRANCH   2   3
HETATM    3  C   UNL     1      -8.100  16.717  68.095  1.00  0.00    -0.197 C  
BRANCH   3   4
HETATM    4  C   UNL     1      -9.087  17.717  68.695  1.00  0.00    -0.261 C  
BRANCH   4   5
HETATM    5  C   UNL     1     -10.495  17.488  68.148  1.00  0.00    -0.386 C  
BRANCH   5   6
HETATM    6  C   UNL     1     -10.539  16.274  67.222  1.00  0.00    -0.298 C  
BRANCH   6   7
HETATM    7  C   UNL     1     -11.401  15.165  67.822  1.00  0.00    -0.335 C  
BRANCH   7   8
HETATM    8  C   UNL     1     -11.984  15.589  69.167  1.00  0.00    -0.331 C  
BRANCH   8   9
HETATM    9  C   UNL     1     -12.279  14.373  70.044  1.00  0.00    -0.408 C  
BRANCH   9  10
HETATM   10  C   UNL     1     -11.340  13.220  69.700  1.00  0.00    -0.191 C  
BRANCH  10  11
HETATM   11  C   UNL     1     -12.033  11.865  69.837  1.00  0.00    -0.398 C  
BRANCH  11  12
HETATM   12  C   UNL     1     -11.500  10.898  68.784  1.00  0.00    -0.376 C  
BRANCH  12  13
HETATM   13  C   UNL     1     -11.655  11.436  67.364  1.00  0.00    -0.266 C  
BRANCH  13  14
HETATM   14  C   UNL     1     -10.423  11.124  66.548  1.00  0.00    -0.255 C  
HETATM   15  O   UNL     1      -9.340  10.790  67.010  1.00  0.00    -0.155 OA 
BRANCH  14  16
HETATM   16  O   UNL     1     -10.694  11.270  65.221  1.00  0.00    -0.281 OA 
BRANCH  16  17
HETATM   17  C   UNL     1     -11.496  12.418  64.883  1.00  0.00    -0.332 C  
HETATM   18  C   UNL     1     -10.590  13.593  64.528  1.00  0.00    -0.428 C  
HETATM   19  C   UNL     1     -12.371  12.033  63.699  1.00  0.00    -0.648 C  
ENDBRANCH  16  17
ENDBRANCH  14  16
ENDBRANCH  13  14
ENDBRANCH  12  13
ENDBRANCH  11  12
ENDBRANCH  10  11
ENDBRANCH   9  10
ENDBRANCH   8   9
ENDBRANCH   7   8
ENDBRANCH   6   7
ENDBRANCH   5   6
ENDBRANCH   4   5
ENDBRANCH   3   4
ENDBRANCH   2   3
TORSDOF 14
ENDMDL
MODEL      224
REMARK 921   NORMALIZED FREE ENERGY PREDICTED BY IDOCK:   -3.31 KCAL/MOL
REMARK 922        TOTAL FREE ENERGY PREDICTED BY IDOCK:   -7.58 KCAL/MOL
REMARK 923 INTER-LIGAND FREE ENERGY PREDICTED BY IDOCK:   -5.94 KCAL/MOL
REMARK 924 INTRA-LIGAND FREE ENERGY PREDICTED BY IDOCK:   -1.63 KCAL/MOL
REMARK 927      BINDING AFFINITY PREDICTED BY RF-SCORE:    0.00 PKD
ROOT
HETATM    1  C   UNL     1     -13.091   8.717  71.732  1.00  0.00    -0.406 C  
HETATM    2  C   UNL     1     -11.620   8.724  72.112  1.00  0.00    -0.434 C  
ENDROOT
BRANCH   2   3
HETATM    3  C   UNL     1     -11.108   7.308  72.367  1.00  0.00    -0.315 C  
BRANCH   3   4
HETATM    4  C   UNL     1     -10.241   6.815  71.209  1.00  0.00    -0.221 C  
BRANCH   4   5
HETATM    5  C   UNL     1     -11.056   5.952  70.247  1.00  0.00    -0.368 C  
BRANCH   5   6
HETATM    6  C   UNL     1     -11.104   6.572  68.852  1.00  0.00    -0.371 C  
BRANCH   6   7
HETATM    7  C   UNL     1     -10.068   7.687  68.718  1.00  0.00    -0.202 C  
BRANCH   7   8
HETATM    8  C   UNL     1     -10.716   8.986  68.247  1.00  0.00    -0.155 C  
BRANCH   8   9
HETATM    9  C   UNL     1     -10.310  10.156  69.142  1.00  0.00    -0.237 C  
BRANCH   9  10
HETATM   10  C   UNL     1      -9.813  11.329  68.304  1.00  0.00    -0.201 C  
BRANCH  10  11
HETATM   11  C   UNL     1     -10.529  11.408  66.957  1.00  0.00    -0.271 C  
BRANCH  11  12
HETATM   12  C   UNL     1     -11.730  12.343  67.058  1.00  0.00    -0.423 C  
BRANCH  12  13
HETATM   13  C   UNL     1     -12.044  13.038  65.735  1.00  0.00    -0.510 C  
BRANCH  13  14
HETATM   14  C   UNL     1     -11.173  14.260  65.566  1.00  0.00    -0.320 C  
HETATM   15  O   UNL     1     -10.370  14.430  64.658  1.00  0.00    -0.397 OA 
BRANCH  14  16
HETATM   16  O   UNL     1     -11.412  15.146  66.573  1.00  0.00    -0.291 OA 
BRANCH  16  17
HETATM   17  C   UNL     1     -10.235  15.725  67.170  1.00  0.00    -0.279 C  
HETATM   18  C   UNL     1     -10.311  17.246  67.084  1.00  0.00    -0.321 C  
HETATM   19  C   UNL     1     -10.184  15.266  68.620  1.00  0.00    -0.223 C  
ENDBRANCH  16  17
ENDBRANCH  14  16
ENDBRANCH  13  14
ENDBRANCH  12  13
ENDBRANCH  11  12
ENDBRANCH  10  11
ENDBRANCH   9  10
ENDBRANCH   8   9
ENDBRANCH   7   8
ENDBRANCH   6   7
ENDBRANCH   5   6
ENDBRANCH   4   5
ENDBRANCH   3   4
ENDBRANCH   2   3
TORSDOF 14
ENDMDL
MODEL      225
REMARK 921   NORMALIZED FREE ENERGY PREDICTED BY IDOCK:   -3.31 KCAL/MOL
REMARK 922        TOTAL FREE ENERGY PREDICTED BY IDOCK:   -7.58 KCAL/MOL
REMARK 923 INTER-LIGAND FREE ENERGY PREDICTED BY IDOCK:   -5.99 KCAL/MOL
REMARK 924 INTRA-LIGAND FREE ENERGY PREDICTED BY IDOCK:   -1.59 KCAL/MOL
REMARK 927      BINDING AFFINITY PREDICTED BY RF-SCORE:    0.00 PKD
ROOT
HETATM    1  C   UNL     1     -12.346  12.171  63.383  1.00  0.00    -0.648 C  
HETATM    2  C   UNL     1     -11.343  12.891  64.270  1.00  0.00    -0.417 C  
ENDROOT
BRANCH   2   3
HETATM    3  C   UNL     1     -11.904  13.112  65.672  1.00  0.00    -0.430 C  
BRANCH   3   4
HETATM    4  C   UNL     1     -10.784  13.235  66.704  1.00  0.00    -0.284 C  
BRANCH   4   5
HETATM    5  C   UNL     1      -9.482  12.640  66.169  1.00  0.00    -0.177 C  
BRANCH   5   6
HETATM    6  C   UNL     1      -8.868  11.662  67.168  1.00  0.00    -0.172 C  
BRANCH   6   7
HETATM    7  C   UNL     1      -8.597  10.311  66.508  1.00  0.00    -0.136 C  
BRANCH   7   8
HETATM    8  C   UNL     1      -9.891   9.674  66.007  1.00  0.00    -0.345 C  
BRANCH   8   9
HETATM    9  C   UNL     1     -10.114   8.308  66.653  1.00  0.00    -0.351 C  
BRANCH   9  10
HETATM   10  C   UNL     1     -10.505   8.461  68.119  1.00  0.00    -0.228 C  
BRANCH  10  11
HETATM   11  C   UNL     1      -9.646   7.586  69.030  1.00  0.00    -0.153 C  
BRANCH  11  12
HETATM   12  C   UNL     1     -10.519   6.918  70.088  1.00  0.00    -0.233 C  
BRANCH  12  13
HETATM   13  C   UNL     1     -11.517   7.886  70.719  1.00  0.00    -0.273 C  
BRANCH  13  14
HETATM   14  C   UNL     1     -10.823   8.768  71.731  1.00  0.00    -0.345 C  
HETATM   15  O   UNL     1     -10.293   8.374  72.760  1.00  0.00    -0.297 OA 
BRANCH  14  16
HETATM   16  O   UNL     1     -10.877  10.069  71.329  1.00  0.00    -0.205 OA 
BRANCH  16  17
HETATM   17  C   UNL     1     -12.102  10.458  70.679  1.00  0.00    -0.348 C  
HETATM   18  C   UNL     1     -12.939  11.311  71.627  1.00  0.00    -0.537 C  
HETATM   19  C   UNL     1     -11.728  11.245  69.430  1.00  0.00    -0.409 C  
ENDBRANCH  16  17
ENDBRANCH  14  16
ENDBRANCH  13  14
ENDBRANCH  12  13
ENDBRANCH  11  12
ENDBRANCH  10  11
ENDBRANCH   9  10
ENDBRANCH   8   9
ENDBRANCH   7   8
ENDBRANCH   6   7
ENDBRANCH   5   6
ENDBRANCH   4   5
ENDBRANCH   3   4
ENDBRANCH   2   3
TORSDOF 14
ENDMDL
MODEL      226
REMARK 921   NORMALIZED FREE ENERGY PREDICTED BY IDOCK:   -3.30 KCAL/MOL
REMARK 922        TOTAL FREE ENERGY PREDICTED BY IDOCK:   -7.56 KCAL/MOL
REMARK 923 INTER-LIGAND FREE ENERGY PREDICTED BY IDOCK:   -6.31 KCAL/MOL
REMARK 924 INTRA-LIGAND FREE ENERGY PREDICTED BY IDOCK:   -1.25 KCAL/MOL
REMARK 927      BINDING AFFINITY PREDICTED BY RF-SCORE:    0.00 PKD
ROOT
HETATM    1  C   UNL     1     -12.958  15.913  73.639  1.00  0.00    -0.685 C  
HETATM    2  C   UNL     1     -11.845  15.280  72.818  1.00  0.00    -0.521 C  
ENDROOT
BRANCH   2   3
HETATM    3  C   UNL     1     -11.666  15.999  71.483  1.00  0.00    -0.554 C  
BRANCH   3   4
HETATM    4  C   UNL     1     -12.716  15.551  70.467  1.00  0.00    -0.436 C  
BRANCH   4   5
HETATM    5  C   UNL     1     -12.068  14.783  69.317  1.00  0.00    -0.296 C  
BRANCH   5   6
HETATM    6  C   UNL     1     -11.940  13.297  69.646  1.00  0.00    -0.376 C  
BRANCH   6   7
HETATM    7  C   UNL     1     -11.772  12.471  68.372  1.00  0.00    -0.375 C  
BRANCH   7   8
HETATM    8  C   UNL     1     -11.610  13.373  67.151  1.00  0.00    -0.399 C  
BRANCH   8   9
HETATM    9  C   UNL     1     -11.927  12.613  65.864  1.00  0.00    -0.497 C  
BRANCH   9  10
HETATM   10  C   UNL     1     -10.718  12.597  64.934  1.00  0.00    -0.327 C  
BRANCH  10  11
HETATM   11  C   UNL     1     -10.127  11.195  64.795  1.00  0.00    -0.351 C  
BRANCH  11  12
HETATM   12  C   UNL     1      -9.093  10.955  65.891  1.00  0.00    -0.212 C  
BRANCH  12  13
HETATM   13  C   UNL     1      -9.578   9.963  66.946  1.00  0.00    -0.225 C  
BRANCH  13  14
HETATM   14  C   UNL     1      -8.408   9.417  67.728  1.00  0.00    -0.115 C  
HETATM   15  O   UNL     1      -7.235   9.706  67.533  1.00  0.00    -0.088 OA 
BRANCH  14  16
HETATM   16  O   UNL     1      -8.849   8.551  68.684  1.00  0.00    -0.135 OA 
BRANCH  16  17
HETATM   17  C   UNL     1     -10.189   8.793  69.156  1.00  0.00    -0.207 C  
HETATM   18  C   UNL     1     -10.899   7.464  69.391  1.00  0.00    -0.184 C  
HETATM   19  C   UNL     1     -10.082   9.586  70.451  1.00  0.00    -0.329 C  
ENDBRANCH  16  17
ENDBRANCH  14  16
ENDBRANCH  13  14
ENDBRANCH  12  13
ENDBRANCH  11  12
ENDBRANCH  10  11
ENDBRANCH   9  10
ENDBRANCH   8   9
ENDBRANCH   7   8
ENDBRANCH   6   7
ENDBRANCH   5   6
ENDBRANCH   4   5
ENDBRANCH   3   4
ENDBRANCH   2   3
TORSDOF 14
ENDMDL
MODEL      227
REMARK 921   NORMALIZED FREE ENERGY PREDICTED BY IDOCK:   -3.30 KCAL/MOL
REMARK 922        TOTAL FREE ENERGY PREDICTED BY IDOCK:   -7.56 KCAL/MOL
REMARK 923 INTER-LIGAND FREE ENERGY PREDICTED BY IDOCK:   -6.29 KCAL/MOL
REMARK 924 INTRA-LIGAND FREE ENERGY PREDICTED BY IDOCK:   -1.27 KCAL/MOL
REMARK 927      BINDING AFFINITY PREDICTED BY RF-SCORE:    0.00 PKD
ROOT
HETATM    1  C   UNL     1     -12.402   6.853  71.553  1.00  0.00    -0.420 C  
HETATM    2  C   UNL     1     -11.788   7.944  72.414  1.00  0.00    -0.402 C  
ENDROOT
BRANCH   2   3
HETATM    3  C   UNL     1     -10.645   7.397  73.267  1.00  0.00    -0.442 C  
BRANCH   3   4
HETATM    4  C   UNL     1      -9.288   7.850  72.731  1.00  0.00    -0.297 C  
BRANCH   4   5
HETATM    5  C   UNL     1      -8.918   7.078  71.465  1.00  0.00    -0.139 C  
BRANCH   5   6
HETATM    6  C   UNL     1      -8.194   7.974  70.462  1.00  0.00    -0.118 C  
BRANCH   6   7
HETATM    7  C   UNL     1      -8.714   9.408  70.542  1.00  0.00    -0.276 C  
BRANCH   7   8
HETATM    8  C   UNL     1      -9.405   9.816  69.244  1.00  0.00    -0.198 C  
BRANCH   8   9
HETATM    9  C   UNL     1     -10.902  10.026  69.463  1.00  0.00    -0.283 C  
BRANCH   9  10
HETATM   10  C   UNL     1     -11.298  11.465  69.149  1.00  0.00    -0.353 C  
BRANCH  10  11
HETATM   11  C   UNL     1     -11.785  11.617  67.708  1.00  0.00    -0.315 C  
BRANCH  11  12
HETATM   12  C   UNL     1     -11.748  13.086  67.298  1.00  0.00    -0.429 C  
BRANCH  12  13
HETATM   13  C   UNL     1     -11.304  13.279  65.851  1.00  0.00    -0.333 C  
BRANCH  13  14
HETATM   14  C   UNL     1     -12.101  12.383  64.933  1.00  0.00    -0.407 C  
HETATM   15  O   UNL     1     -13.254  12.588  64.579  1.00  0.00    -0.832 OA 
BRANCH  14  16
HETATM   16  O   UNL     1     -11.349  11.310  64.560  1.00  0.00    -0.193 OA 
BRANCH  16  17
HETATM   17  C   UNL     1      -9.939  11.572  64.417  1.00  0.00    -0.269 C  
HETATM   18  C   UNL     1      -9.146  10.607  65.291  1.00  0.00    -0.221 C  
HETATM   19  C   UNL     1      -9.586  11.386  62.947  1.00  0.00    -0.366 C  
ENDBRANCH  16  17
ENDBRANCH  14  16
ENDBRANCH  13  14
ENDBRANCH  12  13
ENDBRANCH  11  12
ENDBRANCH  10  11
ENDBRANCH   9  10
ENDBRANCH   8   9
ENDBRANCH   7   8
ENDBRANCH   6   7
ENDBRANCH   5   6
ENDBRANCH   4   5
ENDBRANCH   3   4
ENDBRANCH   2   3
TORSDOF 14
ENDMDL
MODEL      228
REMARK 921   NORMALIZED FREE ENERGY PREDICTED BY IDOCK:   -3.30 KCAL/MOL
REMARK 922        TOTAL FREE ENERGY PREDICTED BY IDOCK:   -7.56 KCAL/MOL
REMARK 923 INTER-LIGAND FREE ENERGY PREDICTED BY IDOCK:   -6.64 KCAL/MOL
REMARK 924 INTRA-LIGAND FREE ENERGY PREDICTED BY IDOCK:   -0.92 KCAL/MOL
REMARK 927      BINDING AFFINITY PREDICTED BY RF-SCORE:    0.00 PKD
ROOT
HETATM    1  C   UNL     1     -11.974  14.398  64.495  1.00  0.00    -0.487 C  
HETATM    2  C   UNL     1     -10.846  14.071  65.460  1.00  0.00    -0.311 C  
ENDROOT
BRANCH   2   3
HETATM    3  C   UNL     1     -10.879  12.600  65.870  1.00  0.00    -0.300 C  
BRANCH   3   4
HETATM    4  C   UNL     1     -11.660  12.404  67.168  1.00  0.00    -0.435 C  
BRANCH   4   5
HETATM    5  C   UNL     1     -11.013  13.177  68.316  1.00  0.00    -0.278 C  
BRANCH   5   6
HETATM    6  C   UNL     1     -12.029  14.068  69.027  1.00  0.00    -0.392 C  
BRANCH   6   7
HETATM    7  C   UNL     1     -12.135  13.698  70.505  1.00  0.00    -0.411 C  
BRANCH   7   8
HETATM    8  C   UNL     1     -12.262  12.188  70.686  1.00  0.00    -0.392 C  
BRANCH   8   9
HETATM    9  C   UNL     1     -13.105  11.854  71.916  1.00  0.00    -0.474 C  
BRANCH   9  10
HETATM   10  C   UNL     1     -13.210  10.344  72.104  1.00  0.00    -0.418 C  
BRANCH  10  11
HETATM   11  C   UNL     1     -12.040   9.608  71.451  1.00  0.00    -0.472 C  
BRANCH  11  12
HETATM   12  C   UNL     1     -12.185   8.105  71.666  1.00  0.00    -0.343 C  
BRANCH  12  13
HETATM   13  C   UNL     1     -11.096   7.535  72.572  1.00  0.00    -0.371 C  
BRANCH  13  14
HETATM   14  C   UNL     1     -10.980   6.042  72.377  1.00  0.00    -0.260 C  
HETATM   15  O   UNL     1     -11.642   5.203  72.973  1.00  0.00    -0.320 OA 
BRANCH  14  16
HETATM   16  O   UNL     1     -10.028   5.766  71.442  1.00  0.00    -0.176 OA 
BRANCH  16  17
HETATM   17  C   UNL     1     -10.501   5.059  70.279  1.00  0.00    -0.173 C  
HETATM   18  C   UNL     1     -10.629   6.026  69.107  1.00  0.00    -0.362 C  
HETATM   19  C   UNL     1      -9.490   3.963  69.968  1.00  0.00    -0.263 C  
ENDBRANCH  16  17
ENDBRANCH  14  16
ENDBRANCH  13  14
ENDBRANCH  12  13
ENDBRANCH  11  12
ENDBRANCH  10  11
ENDBRANCH   9  10
ENDBRANCH   8   9
ENDBRANCH   7   8
ENDBRANCH   6   7
ENDBRANCH   5   6
ENDBRANCH   4   5
ENDBRANCH   3   4
ENDBRANCH   2   3
TORSDOF 14
ENDMDL
MODEL      229
REMARK 921   NORMALIZED FREE ENERGY PREDICTED BY IDOCK:   -3.30 KCAL/MOL
REMARK 922        TOTAL FREE ENERGY PREDICTED BY IDOCK:   -7.56 KCAL/MOL
REMARK 923 INTER-LIGAND FREE ENERGY PREDICTED BY IDOCK:   -6.01 KCAL/MOL
REMARK 924 INTRA-LIGAND FREE ENERGY PREDICTED BY IDOCK:   -1.55 KCAL/MOL
REMARK 927      BINDING AFFINITY PREDICTED BY RF-SCORE:    0.00 PKD
ROOT
HETATM    1  C   UNL     1     -10.221  15.553  69.497  1.00  0.00    -0.279 C  
HETATM    2  C   UNL     1     -11.663  15.925  69.798  1.00  0.00    -0.323 C  
ENDROOT
BRANCH   2   3
HETATM    3  C   UNL     1     -12.452  14.718  70.300  1.00  0.00    -0.393 C  
BRANCH   3   4
HETATM    4  C   UNL     1     -12.867  14.895  71.760  1.00  0.00    -0.404 C  
BRANCH   4   5
HETATM    5  C   UNL     1     -13.359  13.574  72.351  1.00  0.00    -0.641 C  
BRANCH   5   6
HETATM    6  C   UNL     1     -13.094  12.409  71.400  1.00  0.00    -0.299 C  
BRANCH   6   7
HETATM    7  C   UNL     1     -13.295  11.072  72.111  1.00  0.00    -0.285 C  
BRANCH   7   8
HETATM    8  C   UNL     1     -12.874   9.907  71.220  1.00  0.00    -0.486 C  
BRANCH   8   9
HETATM    9  C   UNL     1     -11.438   9.479  71.521  1.00  0.00    -0.466 C  
BRANCH   9  10
HETATM   10  C   UNL     1     -10.492   9.955  70.423  1.00  0.00    -0.347 C  
BRANCH  10  11
HETATM   11  C   UNL     1     -11.247  10.350  69.155  1.00  0.00    -0.301 C  
BRANCH  11  12
HETATM   12  C   UNL     1     -10.863  11.766  68.738  1.00  0.00    -0.268 C  
BRANCH  12  13
HETATM   13  C   UNL     1     -10.490  11.862  67.261  1.00  0.00    -0.248 C  
BRANCH  13  14
HETATM   14  C   UNL     1      -9.017  11.587  67.073  1.00  0.00    -0.174 C  
HETATM   15  O   UNL     1      -8.143  12.443  67.023  1.00  0.00    -0.174 OA 
BRANCH  14  16
HETATM   16  O   UNL     1      -8.803  10.246  66.966  1.00  0.00    -0.135 OA 
BRANCH  16  17
HETATM   17  C   UNL     1      -9.575   9.582  65.946  1.00  0.00    -0.261 C  
HETATM   18  C   UNL     1      -8.828   9.638  64.618  1.00  0.00    -0.253 C  
HETATM   19  C   UNL     1      -9.780   8.141  66.393  1.00  0.00    -0.275 C  
ENDBRANCH  16  17
ENDBRANCH  14  16
ENDBRANCH  13  14
ENDBRANCH  12  13
ENDBRANCH  11  12
ENDBRANCH  10  11
ENDBRANCH   9  10
ENDBRANCH   8   9
ENDBRANCH   7   8
ENDBRANCH   6   7
ENDBRANCH   5   6
ENDBRANCH   4   5
ENDBRANCH   3   4
ENDBRANCH   2   3
TORSDOF 14
ENDMDL
MODEL      230
REMARK 921   NORMALIZED FREE ENERGY PREDICTED BY IDOCK:   -3.28 KCAL/MOL
REMARK 922        TOTAL FREE ENERGY PREDICTED BY IDOCK:   -7.54 KCAL/MOL
REMARK 923 INTER-LIGAND FREE ENERGY PREDICTED BY IDOCK:   -5.81 KCAL/MOL
REMARK 924 INTRA-LIGAND FREE ENERGY PREDICTED BY IDOCK:   -1.73 KCAL/MOL
REMARK 927      BINDING AFFINITY PREDICTED BY RF-SCORE:    0.00 PKD
ROOT
HETATM    1  C   UNL     1      -9.437   3.854  65.052  1.00  0.00    -0.170 C  
HETATM    2  C   UNL     1      -9.157   5.265  65.543  1.00  0.00    -0.145 C  
ENDROOT
BRANCH   2   3
HETATM    3  C   UNL     1      -9.427   5.393  67.040  1.00  0.00    -0.133 C  
BRANCH   3   4
HETATM    4  C   UNL     1     -10.753   6.106  67.305  1.00  0.00    -0.414 C  
BRANCH   4   5
HETATM    5  C   UNL     1     -10.646   7.594  66.978  1.00  0.00    -0.406 C  
BRANCH   5   6
HETATM    6  C   UNL     1      -9.495   8.248  67.739  1.00  0.00    -0.171 C  
BRANCH   6   7
HETATM    7  C   UNL     1      -9.061   9.544  67.057  1.00  0.00    -0.154 C  
BRANCH   7   8
HETATM    8  C   UNL     1     -10.075   9.976  66.001  1.00  0.00    -0.318 C  
BRANCH   8   9
HETATM    9  C   UNL     1     -10.632  11.364  66.313  1.00  0.00    -0.312 C  
BRANCH   9  10
HETATM   10  C   UNL     1     -11.579  11.310  67.507  1.00  0.00    -0.257 C  
BRANCH  10  11
HETATM   11  C   UNL     1     -11.358  12.484  68.460  1.00  0.00    -0.337 C  
BRANCH  11  12
HETATM   12  C   UNL     1     -11.847  12.120  69.858  1.00  0.00    -0.392 C  
BRANCH  12  13
HETATM   13  C   UNL     1     -11.856  10.613  70.102  1.00  0.00    -0.421 C  
BRANCH  13  14
HETATM   14  C   UNL     1     -12.449  10.304  71.456  1.00  0.00    -0.422 C  
HETATM   15  O   UNL     1     -13.283  10.991  72.032  1.00  0.00    -0.499 OA 
BRANCH  14  16
HETATM   16  O   UNL     1     -11.917   9.149  71.946  1.00  0.00    -0.352 OA 
BRANCH  16  17
HETATM   17  C   UNL     1     -11.195   8.353  70.986  1.00  0.00    -0.266 C  
HETATM   18  C   UNL     1      -9.772   8.116  71.481  1.00  0.00    -0.230 C  
HETATM   19  C   UNL     1     -11.941   7.035  70.831  1.00  0.00    -0.409 C  
ENDBRANCH  16  17
ENDBRANCH  14  16
ENDBRANCH  13  14
ENDBRANCH  12  13
ENDBRANCH  11  12
ENDBRANCH  10  11
ENDBRANCH   9  10
ENDBRANCH   8   9
ENDBRANCH   7   8
ENDBRANCH   6   7
ENDBRANCH   5   6
ENDBRANCH   4   5
ENDBRANCH   3   4
ENDBRANCH   2   3
TORSDOF 14
ENDMDL
MODEL      231
REMARK 921   NORMALIZED FREE ENERGY PREDICTED BY IDOCK:   -3.27 KCAL/MOL
REMARK 922        TOTAL FREE ENERGY PREDICTED BY IDOCK:   -7.52 KCAL/MOL
REMARK 923 INTER-LIGAND FREE ENERGY PREDICTED BY IDOCK:   -6.49 KCAL/MOL
REMARK 924 INTRA-LIGAND FREE ENERGY PREDICTED BY IDOCK:   -1.03 KCAL/MOL
REMARK 927      BINDING AFFINITY PREDICTED BY RF-SCORE:    0.00 PKD
ROOT
HETATM    1  C   UNL     1     -10.261   4.209  65.044  1.00  0.00    -0.218 C  
HETATM    2  C   UNL     1      -9.454   4.870  66.149  1.00  0.00    -0.165 C  
ENDROOT
BRANCH   2   3
HETATM    3  C   UNL     1     -10.293   5.058  67.411  1.00  0.00    -0.174 C  
BRANCH   3   4
HETATM    4  C   UNL     1     -10.966   6.430  67.430  1.00  0.00    -0.463 C  
BRANCH   4   5
HETATM    5  C   UNL     1     -10.614   7.192  68.706  1.00  0.00    -0.219 C  
BRANCH   5   6
HETATM    6  C   UNL     1     -10.812   6.320  69.944  1.00  0.00    -0.399 C  
BRANCH   6   7
HETATM    7  C   UNL     1     -12.079   6.724  70.696  1.00  0.00    -0.371 C  
BRANCH   7   8
HETATM    8  C   UNL     1     -11.759   7.685  71.837  1.00  0.00    -0.328 C  
BRANCH   8   9
HETATM    9  C   UNL     1     -12.501   9.009  71.661  1.00  0.00    -0.418 C  
BRANCH   9  10
HETATM   10  C   UNL     1     -11.570  10.080  71.101  1.00  0.00    -0.460 C  
BRANCH  10  11
HETATM   11  C   UNL     1     -12.266  10.944  70.050  1.00  0.00    -0.422 C  
BRANCH  11  12
HETATM   12  C   UNL     1     -11.607  10.743  68.690  1.00  0.00    -0.342 C  
BRANCH  12  13
HETATM   13  C   UNL     1     -11.395  12.057  67.942  1.00  0.00    -0.369 C  
BRANCH  13  14
HETATM   14  C   UNL     1     -10.944  11.787  66.526  1.00  0.00    -0.295 C  
HETATM   15  O   UNL     1     -10.643  10.687  66.082  1.00  0.00    -0.219 OA 
BRANCH  14  16
HETATM   16  O   UNL     1     -10.920  12.949  65.815  1.00  0.00    -0.274 OA 
BRANCH  16  17
HETATM   17  C   UNL     1     -11.986  13.103  64.857  1.00  0.00    -0.388 C  
HETATM   18  C   UNL     1     -12.359  14.577  64.735  1.00  0.00    -0.403 C  
HETATM   19  C   UNL     1     -11.488  12.558  63.526  1.00  0.00    -0.570 C  
ENDBRANCH  16  17
ENDBRANCH  14  16
ENDBRANCH  13  14
ENDBRANCH  12  13
ENDBRANCH  11  12
ENDBRANCH  10  11
ENDBRANCH   9  10
ENDBRANCH   8   9
ENDBRANCH   7   8
ENDBRANCH   6   7
ENDBRANCH   5   6
ENDBRANCH   4   5
ENDBRANCH   3   4
ENDBRANCH   2   3
TORSDOF 14
ENDMDL
MODEL      232
REMARK 921   NORMALIZED FREE ENERGY PREDICTED BY IDOCK:   -3.27 KCAL/MOL
REMARK 922        TOTAL FREE ENERGY PREDICTED BY IDOCK:   -7.52 KCAL/MOL
REMARK 923 INTER-LIGAND FREE ENERGY PREDICTED BY IDOCK:   -6.64 KCAL/MOL
REMARK 924 INTRA-LIGAND FREE ENERGY PREDICTED BY IDOCK:   -0.89 KCAL/MOL
REMARK 927      BINDING AFFINITY PREDICTED BY RF-SCORE:    0.00 PKD
ROOT
HETATM    1  C   UNL     1     -10.452   5.814  71.788  1.00  0.00    -0.281 C  
HETATM    2  C   UNL     1     -11.859   6.290  72.113  1.00  0.00    -0.365 C  
ENDROOT
BRANCH   2   3
HETATM    3  C   UNL     1     -11.864   7.763  72.517  1.00  0.00    -0.354 C  
BRANCH   3   4
HETATM    4  C   UNL     1     -10.499   8.407  72.280  1.00  0.00    -0.407 C  
BRANCH   4   5
HETATM    5  C   UNL     1     -10.580   9.467  71.183  1.00  0.00    -0.388 C  
BRANCH   5   6
HETATM    6  C   UNL     1     -11.963  10.112  71.137  1.00  0.00    -0.480 C  
BRANCH   6   7
HETATM    7  C   UNL     1     -12.087  11.043  69.932  1.00  0.00    -0.435 C  
BRANCH   7   8
HETATM    8  C   UNL     1     -12.363  12.479  70.372  1.00  0.00    -0.311 C  
BRANCH   8   9
HETATM    9  C   UNL     1     -12.065  13.464  69.244  1.00  0.00    -0.312 C  
BRANCH   9  10
HETATM   10  C   UNL     1     -11.572  12.729  68.001  1.00  0.00    -0.388 C  
BRANCH  10  11
HETATM   11  C   UNL     1     -10.201  13.231  67.551  1.00  0.00    -0.222 C  
BRANCH  11  12
HETATM   12  C   UNL     1     -10.319  14.648  67.001  1.00  0.00    -0.263 C  
BRANCH  12  13
HETATM   13  C   UNL     1      -9.532  15.665  67.825  1.00  0.00    -0.208 C  
BRANCH  13  14
HETATM   14  C   UNL     1      -9.074  16.807  66.949  1.00  0.00    -0.229 C  
HETATM   15  O   UNL     1      -8.977  16.763  65.730  1.00  0.00    -0.508 OA 
BRANCH  14  16
HETATM   16  O   UNL     1      -8.781  17.894  67.717  1.00  0.00    -0.243 OA 
BRANCH  16  17
HETATM   17  C   UNL     1      -9.177  19.162  67.158  1.00  0.00    -0.297 C  
HETATM   18  C   UNL     1     -10.473  19.629  67.813  1.00  0.00    -0.573 C  
HETATM   19  C   UNL     1      -8.050  20.150  67.422  1.00  0.00    -0.372 C  
ENDBRANCH  16  17
ENDBRANCH  14  16
ENDBRANCH  13  14
ENDBRANCH  12  13
ENDBRANCH  11  12
ENDBRANCH  10  11
ENDBRANCH   9  10
ENDBRANCH   8   9
ENDBRANCH   7   8
ENDBRANCH   6   7
ENDBRANCH   5   6
ENDBRANCH   4   5
ENDBRANCH   3   4
ENDBRANCH   2   3
TORSDOF 14
ENDMDL
MODEL      233
REMARK 921   NORMALIZED FREE ENERGY PREDICTED BY IDOCK:   -3.27 KCAL/MOL
REMARK 922        TOTAL FREE ENERGY PREDICTED BY IDOCK:   -7.51 KCAL/MOL
REMARK 923 INTER-LIGAND FREE ENERGY PREDICTED BY IDOCK:   -6.02 KCAL/MOL
REMARK 924 INTRA-LIGAND FREE ENERGY PREDICTED BY IDOCK:   -1.49 KCAL/MOL
REMARK 927      BINDING AFFINITY PREDICTED BY RF-SCORE:    0.00 PKD
ROOT
HETATM    1  C   UNL     1      -6.649  14.244  67.876  1.00  0.00    -0.175 C  
HETATM    2  C   UNL     1      -7.065  13.226  68.926  1.00  0.00    -0.079 C  
ENDROOT
BRANCH   2   3
HETATM    3  C   UNL     1      -7.602  11.952  68.278  1.00  0.00    -0.116 C  
BRANCH   3   4
HETATM    4  C   UNL     1      -7.310  10.726  69.141  1.00  0.00    -0.115 C  
BRANCH   4   5
HETATM    5  C   UNL     1      -8.267   9.583  68.806  1.00  0.00    -0.112 C  
BRANCH   5   6
HETATM    6  C   UNL     1      -9.550  10.106  68.164  1.00  0.00    -0.151 C  
BRANCH   6   7
HETATM    7  C   UNL     1     -10.746   9.241  68.560  1.00  0.00    -0.185 C  
BRANCH   7   8
HETATM    8  C   UNL     1     -10.378   8.275  69.683  1.00  0.00    -0.218 C  
BRANCH   8   9
HETATM    9  C   UNL     1     -11.435   8.290  70.786  1.00  0.00    -0.268 C  
BRANCH   9  10
HETATM   10  C   UNL     1     -11.480   9.652  71.472  1.00  0.00    -0.439 C  
BRANCH  10  11
HETATM   11  C   UNL     1     -12.909  10.176  71.601  1.00  0.00    -0.559 C  
BRANCH  11  12
HETATM   12  C   UNL     1     -12.921  11.695  71.475  1.00  0.00    -0.463 C  
BRANCH  12  13
HETATM   13  C   UNL     1     -12.118  12.190  70.275  1.00  0.00    -0.385 C  
BRANCH  13  14
HETATM   14  C   UNL     1     -12.159  13.698  70.202  1.00  0.00    -0.361 C  
HETATM   15  O   UNL     1     -12.237  14.350  69.169  1.00  0.00    -0.300 OA 
BRANCH  14  16
HETATM   16  O   UNL     1     -12.093  14.227  71.455  1.00  0.00    -0.336 OA 
BRANCH  16  17
HETATM   17  C   UNL     1     -12.798  15.472  71.632  1.00  0.00    -0.446 C  
HETATM   18  C   UNL     1     -14.279  15.195  71.864  1.00  0.00    -0.676 C  
HETATM   19  C   UNL     1     -12.184  16.179  72.832  1.00  0.00    -0.640 C  
ENDBRANCH  16  17
ENDBRANCH  14  16
ENDBRANCH  13  14
ENDBRANCH  12  13
ENDBRANCH  11  12
ENDBRANCH  10  11
ENDBRANCH   9  10
ENDBRANCH   8   9
ENDBRANCH   7   8
ENDBRANCH   6   7
ENDBRANCH   5   6
ENDBRANCH   4   5
ENDBRANCH   3   4
ENDBRANCH   2   3
TORSDOF 14
ENDMDL
MODEL      234
REMARK 921   NORMALIZED FREE ENERGY PREDICTED BY IDOCK:   -3.26 KCAL/MOL
REMARK 922        TOTAL FREE ENERGY PREDICTED BY IDOCK:   -7.50 KCAL/MOL
REMARK 923 INTER-LIGAND FREE ENERGY PREDICTED BY IDOCK:   -5.98 KCAL/MOL
REMARK 924 INTRA-LIGAND FREE ENERGY PREDICTED BY IDOCK:   -1.52 KCAL/MOL
REMARK 927      BINDING AFFINITY PREDICTED BY RF-SCORE:    0.00 PKD
ROOT
HETATM    1  C   UNL     1     -10.330  15.226  69.364  1.00  0.00    -0.255 C  
HETATM    2  C   UNL     1     -11.841  15.290  69.514  1.00  0.00    -0.368 C  
ENDROOT
BRANCH   2   3
HETATM    3  C   UNL     1     -12.397  13.983  70.076  1.00  0.00    -0.397 C  
BRANCH   3   4
HETATM    4  C   UNL     1     -13.096  14.209  71.416  1.00  0.00    -0.428 C  
BRANCH   4   5
HETATM    5  C   UNL     1     -13.425  12.878  72.089  1.00  0.00    -0.619 C  
BRANCH   5   6
HETATM    6  C   UNL     1     -13.009  11.697  71.215  1.00  0.00    -0.368 C  
BRANCH   6   7
HETATM    7  C   UNL     1     -12.981  10.404  72.028  1.00  0.00    -0.499 C  
BRANCH   7   8
HETATM    8  C   UNL     1     -12.449   9.241  71.195  1.00  0.00    -0.341 C  
BRANCH   8   9
HETATM    9  C   UNL     1     -10.936   9.101  71.354  1.00  0.00    -0.414 C  
BRANCH   9  10
HETATM   10  C   UNL     1     -10.205   9.837  70.235  1.00  0.00    -0.346 C  
BRANCH  10  11
HETATM   11  C   UNL     1     -10.821   9.546  68.867  1.00  0.00    -0.177 C  
BRANCH  11  12
HETATM   12  C   UNL     1     -11.346  10.836  68.247  1.00  0.00    -0.376 C  
BRANCH  12  13
HETATM   13  C   UNL     1     -10.801  11.074  66.840  1.00  0.00    -0.324 C  
BRANCH  13  14
HETATM   14  C   UNL     1      -9.975  12.337  66.805  1.00  0.00    -0.205 C  
HETATM   15  O   UNL     1     -10.088  13.228  65.973  1.00  0.00    -0.288 OA 
BRANCH  14  16
HETATM   16  O   UNL     1      -9.081  12.339  67.833  1.00  0.00    -0.175 OA 
BRANCH  16  17
HETATM   17  C   UNL     1      -7.717  12.614  67.459  1.00  0.00    -0.161 C  
HETATM   18  C   UNL     1      -6.910  12.990  68.697  1.00  0.00    -0.099 C  
HETATM   19  C   UNL     1      -7.158  11.356  66.809  1.00  0.00    -0.132 C  
ENDBRANCH  16  17
ENDBRANCH  14  16
ENDBRANCH  13  14
ENDBRANCH  12  13
ENDBRANCH  11  12
ENDBRANCH  10  11
ENDBRANCH   9  10
ENDBRANCH   8   9
ENDBRANCH   7   8
ENDBRANCH   6   7
ENDBRANCH   5   6
ENDBRANCH   4   5
ENDBRANCH   3   4
ENDBRANCH   2   3
TORSDOF 14
ENDMDL
MODEL      235
REMARK 921   NORMALIZED FREE ENERGY PREDICTED BY IDOCK:   -3.24 KCAL/MOL
REMARK 922        TOTAL FREE ENERGY PREDICTED BY IDOCK:   -7.46 KCAL/MOL
REMARK 923 INTER-LIGAND FREE ENERGY PREDICTED BY IDOCK:   -7.02 KCAL/MOL
REMARK 924 INTRA-LIGAND FREE ENERGY PREDICTED BY IDOCK:   -0.44 KCAL/MOL
REMARK 927      BINDING AFFINITY PREDICTED BY RF-SCORE:    0.00 PKD
ROOT
HETATM    1  C   UNL     1      -9.763   2.778  71.507  1.00  0.00    -0.225 C  
HETATM    2  C   UNL     1      -9.707   3.753  70.342  1.00  0.00    -0.225 C  
ENDROOT
BRANCH   2   3
HETATM    3  C   UNL     1      -9.492   5.184  70.828  1.00  0.00    -0.224 C  
BRANCH   3   4
HETATM    4  C   UNL     1     -10.823   5.910  71.019  1.00  0.00    -0.339 C  
BRANCH   4   5
HETATM    5  C   UNL     1     -11.153   6.062  72.503  1.00  0.00    -0.321 C  
BRANCH   5   6
HETATM    6  C   UNL     1     -11.263   7.533  72.898  1.00  0.00    -0.396 C  
BRANCH   6   7
HETATM    7  C   UNL     1     -10.094   8.336  72.330  1.00  0.00    -0.370 C  
BRANCH   7   8
HETATM    8  C   UNL     1     -10.587   9.437  71.394  1.00  0.00    -0.381 C  
BRANCH   8   9
HETATM    9  C   UNL     1     -12.112   9.532  71.416  1.00  0.00    -0.459 C  
BRANCH   9  10
HETATM   10  C   UNL     1     -12.585  10.799  70.710  1.00  0.00    -0.476 C  
BRANCH  10  11
HETATM   11  C   UNL     1     -12.021  10.903  69.294  1.00  0.00    -0.382 C  
BRANCH  11  12
HETATM   12  C   UNL     1     -11.697  12.357  68.967  1.00  0.00    -0.372 C  
BRANCH  12  13
HETATM   13  C   UNL     1     -10.636  12.489  67.877  1.00  0.00    -0.233 C  
BRANCH  13  14
HETATM   14  C   UNL     1     -11.115  11.846  66.598  1.00  0.00    -0.310 C  
HETATM   15  O   UNL     1     -10.547  10.932  66.015  1.00  0.00    -0.246 OA 
BRANCH  14  16
HETATM   16  O   UNL     1     -12.273  12.434  66.185  1.00  0.00    -0.635 OA 
BRANCH  16  17
HETATM   17  C   UNL     1     -12.151  13.274  65.020  1.00  0.00    -0.408 C  
HETATM   18  C   UNL     1     -10.745  13.859  64.953  1.00  0.00    -0.422 C  
HETATM   19  C   UNL     1     -12.436  12.409  63.801  1.00  0.00    -0.593 C  
ENDBRANCH  16  17
ENDBRANCH  14  16
ENDBRANCH  13  14
ENDBRANCH  12  13
ENDBRANCH  11  12
ENDBRANCH  10  11
ENDBRANCH   9  10
ENDBRANCH   8   9
ENDBRANCH   7   8
ENDBRANCH   6   7
ENDBRANCH   5   6
ENDBRANCH   4   5
ENDBRANCH   3   4
ENDBRANCH   2   3
TORSDOF 14
ENDMDL
MODEL      236
REMARK 921   NORMALIZED FREE ENERGY PREDICTED BY IDOCK:   -3.24 KCAL/MOL
REMARK 922        TOTAL FREE ENERGY PREDICTED BY IDOCK:   -7.46 KCAL/MOL
REMARK 923 INTER-LIGAND FREE ENERGY PREDICTED BY IDOCK:   -5.99 KCAL/MOL
REMARK 924 INTRA-LIGAND FREE ENERGY PREDICTED BY IDOCK:   -1.47 KCAL/MOL
REMARK 927      BINDING AFFINITY PREDICTED BY RF-SCORE:    0.00 PKD
ROOT
HETATM    1  C   UNL     1     -11.472   4.645  73.301  1.00  0.00    -0.346 C  
HETATM    2  C   UNL     1     -10.061   5.209  73.356  1.00  0.00    -0.203 C  
ENDROOT
BRANCH   2   3
HETATM    3  C   UNL     1     -10.049   6.611  73.961  1.00  0.00    -0.373 C  
BRANCH   3   4
HETATM    4  C   UNL     1     -11.025   7.536  73.235  1.00  0.00    -0.362 C  
BRANCH   4   5
HETATM    5  C   UNL     1     -10.315   8.319  72.132  1.00  0.00    -0.370 C  
BRANCH   5   6
HETATM    6  C   UNL     1     -11.219   8.502  70.914  1.00  0.00    -0.304 C  
BRANCH   6   7
HETATM    7  C   UNL     1     -11.908   7.189  70.547  1.00  0.00    -0.286 C  
BRANCH   7   8
HETATM    8  C   UNL     1     -10.925   6.214  69.905  1.00  0.00    -0.458 C  
BRANCH   8   9
HETATM    9  C   UNL     1     -10.968   6.318  68.381  1.00  0.00    -0.409 C  
BRANCH   9  10
HETATM   10  C   UNL     1      -9.587   6.068  67.784  1.00  0.00    -0.113 C  
BRANCH  10  11
HETATM   11  C   UNL     1      -9.308   6.984  66.593  1.00  0.00    -0.203 C  
BRANCH  11  12
HETATM   12  C   UNL     1     -10.050   8.305  66.767  1.00  0.00    -0.373 C  
BRANCH  12  13
HETATM   13  C   UNL     1      -9.639   9.349  65.731  1.00  0.00    -0.340 C  
BRANCH  13  14
HETATM   14  C   UNL     1      -9.384  10.678  66.400  1.00  0.00    -0.169 C  
HETATM   15  O   UNL     1      -9.006  10.823  67.555  1.00  0.00    -0.132 OA 
BRANCH  14  16
HETATM   16  O   UNL     1      -9.640  11.695  65.529  1.00  0.00    -0.226 OA 
BRANCH  16  17
HETATM   17  C   UNL     1     -11.005  11.782  65.075  1.00  0.00    -0.300 C  
HETATM   18  C   UNL     1     -11.792  12.714  65.991  1.00  0.00    -0.492 C  
HETATM   19  C   UNL     1     -10.980  12.317  63.650  1.00  0.00    -0.532 C  
ENDBRANCH  16  17
ENDBRANCH  14  16
ENDBRANCH  13  14
ENDBRANCH  12  13
ENDBRANCH  11  12
ENDBRANCH  10  11
ENDBRANCH   9  10
ENDBRANCH   8   9
ENDBRANCH   7   8
ENDBRANCH   6   7
ENDBRANCH   5   6
ENDBRANCH   4   5
ENDBRANCH   3   4
ENDBRANCH   2   3
TORSDOF 14
ENDMDL
MODEL      237
REMARK 921   NORMALIZED FREE ENERGY PREDICTED BY IDOCK:   -3.24 KCAL/MOL
REMARK 922        TOTAL FREE ENERGY PREDICTED BY IDOCK:   -7.45 KCAL/MOL
REMARK 923 INTER-LIGAND FREE ENERGY PREDICTED BY IDOCK:   -6.52 KCAL/MOL
REMARK 924 INTRA-LIGAND FREE ENERGY PREDICTED BY IDOCK:   -0.93 KCAL/MOL
REMARK 927      BINDING AFFINITY PREDICTED BY RF-SCORE:    0.00 PKD
ROOT
HETATM    1  C   UNL     1      -9.700   4.447  65.287  1.00  0.00    -0.199 C  
HETATM    2  C   UNL     1      -9.526   5.422  66.440  1.00  0.00    -0.164 C  
ENDROOT
BRANCH   2   3
HETATM    3  C   UNL     1     -10.863   6.037  66.851  1.00  0.00    -0.396 C  
BRANCH   3   4
HETATM    4  C   UNL     1     -10.684   7.470  67.350  1.00  0.00    -0.331 C  
BRANCH   4   5
HETATM    5  C   UNL     1      -9.749   8.254  66.430  1.00  0.00    -0.300 C  
BRANCH   5   6
HETATM    6  C   UNL     1      -9.830   9.754  66.706  1.00  0.00    -0.265 C  
BRANCH   6   7
HETATM    7  C   UNL     1     -10.868  10.051  67.787  1.00  0.00    -0.337 C  
BRANCH   7   8
HETATM    8  C   UNL     1     -10.928  11.545  68.096  1.00  0.00    -0.279 C  
BRANCH   8   9
HETATM    9  C   UNL     1     -11.042  12.365  66.811  1.00  0.00    -0.333 C  
BRANCH   9  10
HETATM   10  C   UNL     1     -12.085  13.466  66.965  1.00  0.00    -0.390 C  
BRANCH  10  11
HETATM   11  C   UNL     1     -12.494  14.052  65.614  1.00  0.00    -0.531 C  
BRANCH  11  12
HETATM   12  C   UNL     1     -11.253  14.403  64.800  1.00  0.00    -0.391 C  
BRANCH  12  13
HETATM   13  C   UNL     1     -11.048  15.909  64.663  1.00  0.00    -0.368 C  
BRANCH  13  14
HETATM   14  C   UNL     1     -10.089  16.405  65.720  1.00  0.00    -0.327 C  
HETATM   15  O   UNL     1      -8.898  16.132  65.771  1.00  0.00    -0.362 OA 
BRANCH  14  16
HETATM   16  O   UNL     1     -10.747  17.201  66.610  1.00  0.00    -0.221 OA 
BRANCH  16  17
HETATM   17  C   UNL     1      -9.996  18.333  67.089  1.00  0.00    -0.337 C  
HETATM   18  C   UNL     1     -10.481  19.602  66.397  1.00  0.00    -0.618 C  
HETATM   19  C   UNL     1     -10.211  18.420  68.594  1.00  0.00    -0.370 C  
ENDBRANCH  16  17
ENDBRANCH  14  16
ENDBRANCH  13  14
ENDBRANCH  12  13
ENDBRANCH  11  12
ENDBRANCH  10  11
ENDBRANCH   9  10
ENDBRANCH   8   9
ENDBRANCH   7   8
ENDBRANCH   6   7
ENDBRANCH   5   6
ENDBRANCH   4   5
ENDBRANCH   3   4
ENDBRANCH   2   3
TORSDOF 14
ENDMDL
MODEL      238
REMARK 921   NORMALIZED FREE ENERGY PREDICTED BY IDOCK:   -3.22 KCAL/MOL
REMARK 922        TOTAL FREE ENERGY PREDICTED BY IDOCK:   -7.43 KCAL/MOL
REMARK 923 INTER-LIGAND FREE ENERGY PREDICTED BY IDOCK:   -5.25 KCAL/MOL
REMARK 924 INTRA-LIGAND FREE ENERGY PREDICTED BY IDOCK:   -2.18 KCAL/MOL
REMARK 927      BINDING AFFINITY PREDICTED BY RF-SCORE:    0.00 PKD
ROOT
HETATM    1  C   UNL     1     -10.362  10.883  67.369  1.00  0.00    -0.248 C  
HETATM    2  C   UNL     1     -11.403  10.255  68.282  1.00  0.00    -0.245 C  
ENDROOT
BRANCH   2   3
HETATM    3  C   UNL     1     -11.973  11.283  69.257  1.00  0.00    -0.411 C  
BRANCH   3   4
HETATM    4  C   UNL     1     -11.784  10.837  70.707  1.00  0.00    -0.400 C  
BRANCH   4   5
HETATM    5  C   UNL     1     -13.131  10.672  71.407  1.00  0.00    -0.499 C  
BRANCH   5   6
HETATM    6  C   UNL     1     -13.170   9.393  72.240  1.00  0.00    -0.528 C  
BRANCH   6   7
HETATM    7  C   UNL     1     -12.761   8.185  71.399  1.00  0.00    -0.283 C  
BRANCH   7   8
HETATM    8  C   UNL     1     -11.764   7.305  72.149  1.00  0.00    -0.323 C  
BRANCH   8   9
HETATM    9  C   UNL     1     -10.671   8.150  72.801  1.00  0.00    -0.391 C  
BRANCH   9  10
HETATM   10  C   UNL     1      -9.314   7.856  72.170  1.00  0.00    -0.225 C  
BRANCH  10  11
HETATM   11  C   UNL     1      -8.975   8.852  71.062  1.00  0.00    -0.298 C  
BRANCH  11  12
HETATM   12  C   UNL     1      -7.814   8.325  70.225  1.00  0.00    -0.092 C  
BRANCH  12  13
HETATM   13  C   UNL     1      -8.037   8.518  68.727  1.00  0.00    -0.120 C  
BRANCH  13  14
HETATM   14  C   UNL     1      -8.322   7.191  68.065  1.00  0.00    -0.119 C  
HETATM   15  O   UNL     1      -8.312   6.990  66.858  1.00  0.00    -0.115 OA 
BRANCH  14  16
HETATM   16  O   UNL     1      -8.595   6.247  69.010  1.00  0.00    -0.121 OA 
BRANCH  16  17
HETATM   17  C   UNL     1      -9.794   5.482  68.781  1.00  0.00    -0.153 C  
HETATM   18  C   UNL     1     -10.014   4.513  69.938  1.00  0.00    -0.273 C  
HETATM   19  C   UNL     1     -10.951   6.465  68.672  1.00  0.00    -0.404 C  
ENDBRANCH  16  17
ENDBRANCH  14  16
ENDBRANCH  13  14
ENDBRANCH  12  13
ENDBRANCH  11  12
ENDBRANCH  10  11
ENDBRANCH   9  10
ENDBRANCH   8   9
ENDBRANCH   7   8
ENDBRANCH   6   7
ENDBRANCH   5   6
ENDBRANCH   4   5
ENDBRANCH   3   4
ENDBRANCH   2   3
TORSDOF 14
ENDMDL
MODEL      239
REMARK 921   NORMALIZED FREE ENERGY PREDICTED BY IDOCK:   -3.21 KCAL/MOL
REMARK 922        TOTAL FREE ENERGY PREDICTED BY IDOCK:   -7.41 KCAL/MOL
REMARK 923 INTER-LIGAND FREE ENERGY PREDICTED BY IDOCK:   -4.99 KCAL/MOL
REMARK 924 INTRA-LIGAND FREE ENERGY PREDICTED BY IDOCK:   -2.42 KCAL/MOL
REMARK 927      BINDING AFFINITY PREDICTED BY RF-SCORE:    0.00 PKD
ROOT
HETATM    1  C   UNL     1     -11.032   6.414  67.513  1.00  0.00    -0.454 C  
HETATM    2  C   UNL     1     -11.279   6.464  69.012  1.00  0.00    -0.402 C  
ENDROOT
BRANCH   2   3
HETATM    3  C   UNL     1     -10.349   5.511  69.758  1.00  0.00    -0.366 C  
BRANCH   3   4
HETATM    4  C   UNL     1     -10.564   5.595  71.268  1.00  0.00    -0.321 C  
BRANCH   4   5
HETATM    5  C   UNL     1      -9.499   6.474  71.922  1.00  0.00    -0.153 C  
BRANCH   5   6
HETATM    6  C   UNL     1     -10.046   7.865  72.236  1.00  0.00    -0.297 C  
BRANCH   6   7
HETATM    7  C   UNL     1     -11.502   7.785  72.691  1.00  0.00    -0.430 C  
BRANCH   7   8
HETATM    8  C   UNL     1     -12.366   8.805  71.953  1.00  0.00    -0.429 C  
BRANCH   8   9
HETATM    9  C   UNL     1     -11.502   9.763  71.134  1.00  0.00    -0.472 C  
BRANCH   9  10
HETATM   10  C   UNL     1     -12.363  10.585  70.180  1.00  0.00    -0.339 C  
BRANCH  10  11
HETATM   11  C   UNL     1     -11.638  10.871  68.865  1.00  0.00    -0.378 C  
BRANCH  11  12
HETATM   12  C   UNL     1     -10.172  10.466  68.979  1.00  0.00    -0.233 C  
BRANCH  12  13
HETATM   13  C   UNL     1      -9.627   9.871  67.683  1.00  0.00    -0.172 C  
BRANCH  13  14
HETATM   14  C   UNL     1      -8.135  10.087  67.595  1.00  0.00    -0.110 C  
HETATM   15  O   UNL     1      -7.568  11.158  67.767  1.00  0.00    -0.095 OA 
BRANCH  14  16
HETATM   16  O   UNL     1      -7.511   8.914  67.293  1.00  0.00    -0.084 OA 
BRANCH  16  17
HETATM   17  C   UNL     1      -7.720   7.848  68.240  1.00  0.00    -0.121 C  
HETATM   18  C   UNL     1      -7.279   6.523  67.629  1.00  0.00    -0.090 C  
HETATM   19  C   UNL     1      -6.901   8.172  69.481  1.00  0.00    -0.042 C  
ENDBRANCH  16  17
ENDBRANCH  14  16
ENDBRANCH  13  14
ENDBRANCH  12  13
ENDBRANCH  11  12
ENDBRANCH  10  11
ENDBRANCH   9  10
ENDBRANCH   8   9
ENDBRANCH   7   8
ENDBRANCH   6   7
ENDBRANCH   5   6
ENDBRANCH   4   5
ENDBRANCH   3   4
ENDBRANCH   2   3
TORSDOF 14
ENDMDL
MODEL      240
REMARK 921   NORMALIZED FREE ENERGY PREDICTED BY IDOCK:   -3.21 KCAL/MOL
REMARK 922        TOTAL FREE ENERGY PREDICTED BY IDOCK:   -7.40 KCAL/MOL
REMARK 923 INTER-LIGAND FREE ENERGY PREDICTED BY IDOCK:   -5.07 KCAL/MOL
REMARK 924 INTRA-LIGAND FREE ENERGY PREDICTED BY IDOCK:   -2.33 KCAL/MOL
REMARK 927      BINDING AFFINITY PREDICTED BY RF-SCORE:    0.00 PKD
ROOT
HETATM    1  C   UNL     1     -11.567  15.332  67.952  1.00  0.00    -0.301 C  
HETATM    2  C   UNL     1     -10.887  15.833  66.689  1.00  0.00    -0.241 C  
ENDROOT
BRANCH   2   3
HETATM    3  C   UNL     1     -11.219  14.944  65.493  1.00  0.00    -0.348 C  
BRANCH   3   4
HETATM    4  C   UNL     1     -12.445  14.075  65.771  1.00  0.00    -0.523 C  
BRANCH   4   5
HETATM    5  C   UNL     1     -12.193  12.627  65.354  1.00  0.00    -0.517 C  
BRANCH   5   6
HETATM    6  C   UNL     1     -11.218  12.550  64.181  1.00  0.00    -0.437 C  
BRANCH   6   7
HETATM    7  C   UNL     1     -10.227  11.404  64.373  1.00  0.00    -0.361 C  
BRANCH   7   8
HETATM    8  C   UNL     1     -10.359  10.791  65.765  1.00  0.00    -0.295 C  
BRANCH   8   9
HETATM    9  C   UNL     1      -8.988  10.613  66.416  1.00  0.00    -0.176 C  
BRANCH   9  10
HETATM   10  C   UNL     1      -9.002  11.125  67.853  1.00  0.00    -0.143 C  
BRANCH  10  11
HETATM   11  C   UNL     1      -9.338  12.614  67.921  1.00  0.00    -0.204 C  
BRANCH  11  12
HETATM   12  C   UNL     1      -8.135  13.440  67.478  1.00  0.00    -0.183 C  
BRANCH  12  13
HETATM   13  C   UNL     1      -7.096  13.603  68.584  1.00  0.00    -0.105 C  
BRANCH  13  14
HETATM   14  C   UNL     1      -7.001  15.050  69.006  1.00  0.00    -0.127 C  
HETATM   15  O   UNL     1      -6.285  15.475  69.902  1.00  0.00    -0.150 OA 
BRANCH  14  16
HETATM   16  O   UNL     1      -7.832  15.813  68.242  1.00  0.00    -0.126 OA 
BRANCH  16  17
HETATM   17  C   UNL     1      -7.312  17.106  67.877  1.00  0.00    -0.178 C  
HETATM   18  C   UNL     1      -7.315  17.251  66.359  1.00  0.00    -0.336 C  
HETATM   19  C   UNL     1      -8.203  18.158  68.523  1.00  0.00    -0.320 C  
ENDBRANCH  16  17
ENDBRANCH  14  16
ENDBRANCH  13  14
ENDBRANCH  12  13
ENDBRANCH  11  12
ENDBRANCH  10  11
ENDBRANCH   9  10
ENDBRANCH   8   9
ENDBRANCH   7   8
ENDBRANCH   6   7
ENDBRANCH   5   6
ENDBRANCH   4   5
ENDBRANCH   3   4
ENDBRANCH   2   3
TORSDOF 14
ENDMDL
MODEL      241
REMARK 921   NORMALIZED FREE ENERGY PREDICTED BY IDOCK:   -3.20 KCAL/MOL
REMARK 922        TOTAL FREE ENERGY PREDICTED BY IDOCK:   -7.39 KCAL/MOL
REMARK 923 INTER-LIGAND FREE ENERGY PREDICTED BY IDOCK:   -5.29 KCAL/MOL
REMARK 924 INTRA-LIGAND FREE ENERGY PREDICTED BY IDOCK:   -2.10 KCAL/MOL
REMARK 927      BINDING AFFINITY PREDICTED BY RF-SCORE:    0.00 PKD
ROOT
HETATM    1  C   UNL     1     -10.073   8.460  71.865  1.00  0.00    -0.337 C  
HETATM    2  C   UNL     1     -11.188   9.188  71.132  1.00  0.00    -0.395 C  
ENDROOT
BRANCH   2   3
HETATM    3  C   UNL     1     -10.629  10.093  70.036  1.00  0.00    -0.338 C  
BRANCH   3   4
HETATM    4  C   UNL     1     -11.588  11.241  69.722  1.00  0.00    -0.408 C  
BRANCH   4   5
HETATM    5  C   UNL     1     -11.651  11.503  68.219  1.00  0.00    -0.378 C  
BRANCH   5   6
HETATM    6  C   UNL     1     -10.976  10.380  67.432  1.00  0.00    -0.335 C  
BRANCH   6   7
HETATM    7  C   UNL     1     -10.694  10.818  65.996  1.00  0.00    -0.168 C  
BRANCH   7   8
HETATM    8  C   UNL     1      -9.193  10.910  65.735  1.00  0.00    -0.224 C  
BRANCH   8   9
HETATM    9  C   UNL     1      -8.407  10.101  66.766  1.00  0.00    -0.122 C  
BRANCH   9  10
HETATM   10  C   UNL     1      -7.616  11.023  67.687  1.00  0.00    -0.104 C  
BRANCH  10  11
HETATM   11  C   UNL     1      -7.679  12.478  67.224  1.00  0.00    -0.146 C  
BRANCH  11  12
HETATM   12  C   UNL     1      -8.437  13.318  68.247  1.00  0.00    -0.160 C  
BRANCH  12  13
HETATM   13  C   UNL     1      -8.861  14.676  67.691  1.00  0.00    -0.184 C  
BRANCH  13  14
HETATM   14  C   UNL     1     -10.297  14.966  68.056  1.00  0.00    -0.244 C  
HETATM   15  O   UNL     1     -10.799  14.758  69.153  1.00  0.00    -0.244 OA 
BRANCH  14  16
HETATM   16  O   UNL     1     -10.954  15.491  66.984  1.00  0.00    -0.321 OA 
BRANCH  16  17
HETATM   17  C   UNL     1     -11.123  14.592  65.870  1.00  0.00    -0.338 C  
HETATM   18  C   UNL     1     -12.516  13.973  65.916  1.00  0.00    -0.513 C  
HETATM   19  C   UNL     1     -10.934  15.403  64.596  1.00  0.00    -0.333 C  
ENDBRANCH  16  17
ENDBRANCH  14  16
ENDBRANCH  13  14
ENDBRANCH  12  13
ENDBRANCH  11  12
ENDBRANCH  10  11
ENDBRANCH   9  10
ENDBRANCH   8   9
ENDBRANCH   7   8
ENDBRANCH   6   7
ENDBRANCH   5   6
ENDBRANCH   4   5
ENDBRANCH   3   4
ENDBRANCH   2   3
TORSDOF 14
ENDMDL
MODEL      242
REMARK 921   NORMALIZED FREE ENERGY PREDICTED BY IDOCK:   -3.19 KCAL/MOL
REMARK 922        TOTAL FREE ENERGY PREDICTED BY IDOCK:   -7.38 KCAL/MOL
REMARK 923 INTER-LIGAND FREE ENERGY PREDICTED BY IDOCK:   -6.16 KCAL/MOL
REMARK 924 INTRA-LIGAND FREE ENERGY PREDICTED BY IDOCK:   -1.22 KCAL/MOL
REMARK 927      BINDING AFFINITY PREDICTED BY RF-SCORE:    0.00 PKD
ROOT
HETATM    1  C   UNL     1      -6.653  19.310  69.054  1.00  0.00    -0.340 C  
HETATM    2  C   UNL     1      -7.300  18.009  68.607  1.00  0.00    -0.286 C  
ENDROOT
BRANCH   2   3
HETATM    3  C   UNL     1      -8.804  18.181  68.404  1.00  0.00    -0.305 C  
BRANCH   3   4
HETATM    4  C   UNL     1      -9.536  16.845  68.527  1.00  0.00    -0.266 C  
BRANCH   4   5
HETATM    5  C   UNL     1     -10.739  16.795  67.587  1.00  0.00    -0.305 C  
BRANCH   5   6
HETATM    6  C   UNL     1     -10.300  16.632  66.133  1.00  0.00    -0.340 C  
BRANCH   6   7
HETATM    7  C   UNL     1     -10.407  15.173  65.694  1.00  0.00    -0.379 C  
BRANCH   7   8
HETATM    8  C   UNL     1     -11.550  14.981  64.700  1.00  0.00    -0.386 C  
BRANCH   8   9
HETATM    9  C   UNL     1     -12.651  14.105  65.295  1.00  0.00    -0.460 C  
BRANCH   9  10
HETATM   10  C   UNL     1     -12.385  12.631  65.003  1.00  0.00    -0.561 C  
BRANCH  10  11
HETATM   11  C   UNL     1     -11.925  12.412  63.563  1.00  0.00    -0.627 C  
BRANCH  11  12
HETATM   12  C   UNL     1     -10.724  11.473  63.536  1.00  0.00    -0.483 C  
BRANCH  12  13
HETATM   13  C   UNL     1      -9.959  11.462  64.857  1.00  0.00    -0.311 C  
BRANCH  13  14
HETATM   14  C   UNL     1      -9.704  10.042  65.305  1.00  0.00    -0.306 C  
HETATM   15  O   UNL     1     -10.222   9.508  66.276  1.00  0.00    -0.271 OA 
BRANCH  14  16
HETATM   16  O   UNL     1      -8.811   9.443  64.468  1.00  0.00    -0.201 OA 
BRANCH  16  17
HETATM   17  C   UNL     1      -7.466   9.956  64.540  1.00  0.00    -0.140 C  
HETATM   18  C   UNL     1      -6.650   9.122  65.521  1.00  0.00    -0.068 C  
HETATM   19  C   UNL     1      -6.872   9.882  63.140  1.00  0.00    -0.125 C  
ENDBRANCH  16  17
ENDBRANCH  14  16
ENDBRANCH  13  14
ENDBRANCH  12  13
ENDBRANCH  11  12
ENDBRANCH  10  11
ENDBRANCH   9  10
ENDBRANCH   8   9
ENDBRANCH   7   8
ENDBRANCH   6   7
ENDBRANCH   5   6
ENDBRANCH   4   5
ENDBRANCH   3   4
ENDBRANCH   2   3
TORSDOF 14
ENDMDL
MODEL      243
REMARK 921   NORMALIZED FREE ENERGY PREDICTED BY IDOCK:   -3.19 KCAL/MOL
REMARK 922        TOTAL FREE ENERGY PREDICTED BY IDOCK:   -7.37 KCAL/MOL
REMARK 923 INTER-LIGAND FREE ENERGY PREDICTED BY IDOCK:   -5.71 KCAL/MOL
REMARK 924 INTRA-LIGAND FREE ENERGY PREDICTED BY IDOCK:   -1.66 KCAL/MOL
REMARK 927      BINDING AFFINITY PREDICTED BY RF-SCORE:    0.00 PKD
ROOT
HETATM    1  C   UNL     1     -11.029   6.110  68.501  1.00  0.00    -0.404 C  
HETATM    2  C   UNL     1     -11.558   6.455  69.884  1.00  0.00    -0.422 C  
ENDROOT
BRANCH   2   3
HETATM    3  C   UNL     1     -10.906   5.586  70.958  1.00  0.00    -0.243 C  
BRANCH   3   4
HETATM    4  C   UNL     1      -9.900   4.612  70.346  1.00  0.00    -0.306 C  
BRANCH   4   5
HETATM    5  C   UNL     1      -8.551   4.704  71.057  1.00  0.00    -0.128 C  
BRANCH   5   6
HETATM    6  C   UNL     1      -8.500   5.908  71.995  1.00  0.00    -0.125 C  
BRANCH   6   7
HETATM    7  C   UNL     1      -7.542   6.971  71.461  1.00  0.00    -0.089 C  
BRANCH   7   8
HETATM    8  C   UNL     1      -7.927   8.360  71.964  1.00  0.00    -0.184 C  
BRANCH   8   9
HETATM    9  C   UNL     1      -9.173   8.876  71.245  1.00  0.00    -0.328 C  
BRANCH   9  10
HETATM   10  C   UNL     1      -8.786   9.756  70.060  1.00  0.00    -0.245 C  
BRANCH  10  11
HETATM   11  C   UNL     1      -9.248   9.155  68.733  1.00  0.00    -0.136 C  
BRANCH  11  12
HETATM   12  C   UNL     1     -10.537   9.831  68.276  1.00  0.00    -0.271 C  
BRANCH  12  13
HETATM   13  C   UNL     1     -10.428  10.405  66.865  1.00  0.00    -0.300 C  
BRANCH  13  14
HETATM   14  C   UNL     1     -10.829  11.861  66.860  1.00  0.00    -0.263 C  
HETATM   15  O   UNL     1     -10.222  12.759  67.428  1.00  0.00    -0.219 OA 
BRANCH  14  16
HETATM   16  O   UNL     1     -11.967  12.029  66.131  1.00  0.00    -0.581 OA 
BRANCH  16  17
HETATM   17  C   UNL     1     -11.827  12.855  64.958  1.00  0.00    -0.372 C  
HETATM   18  C   UNL     1     -12.399  12.128  63.746  1.00  0.00    -0.635 C  
HETATM   19  C   UNL     1     -12.582  14.151  65.218  1.00  0.00    -0.460 C  
ENDBRANCH  16  17
ENDBRANCH  14  16
ENDBRANCH  13  14
ENDBRANCH  12  13
ENDBRANCH  11  12
ENDBRANCH  10  11
ENDBRANCH   9  10
ENDBRANCH   8   9
ENDBRANCH   7   8
ENDBRANCH   6   7
ENDBRANCH   5   6
ENDBRANCH   4   5
ENDBRANCH   3   4
ENDBRANCH   2   3
TORSDOF 14
ENDMDL
MODEL      244
REMARK 921   NORMALIZED FREE ENERGY PREDICTED BY IDOCK:   -3.19 KCAL/MOL
REMARK 922        TOTAL FREE ENERGY PREDICTED BY IDOCK:   -7.37 KCAL/MOL
REMARK 923 INTER-LIGAND FREE ENERGY PREDICTED BY IDOCK:   -6.18 KCAL/MOL
REMARK 924 INTRA-LIGAND FREE ENERGY PREDICTED BY IDOCK:   -1.19 KCAL/MOL
REMARK 927      BINDING AFFINITY PREDICTED BY RF-SCORE:    0.00 PKD
ROOT
HETATM    1  C   UNL     1     -13.011  10.328  71.093  1.00  0.00    -0.503 C  
HETATM    2  C   UNL     1     -12.353  11.656  70.755  1.00  0.00    -0.454 C  
ENDROOT
BRANCH   2   3
HETATM    3  C   UNL     1     -12.152  11.804  69.249  1.00  0.00    -0.292 C  
BRANCH   3   4
HETATM    4  C   UNL     1     -12.063  13.275  68.844  1.00  0.00    -0.260 C  
BRANCH   4   5
HETATM    5  C   UNL     1     -11.251  13.439  67.560  1.00  0.00    -0.309 C  
BRANCH   5   6
HETATM    6  C   UNL     1     -12.035  14.213  66.503  1.00  0.00    -0.466 C  
BRANCH   6   7
HETATM    7  C   UNL     1     -12.542  13.274  65.409  1.00  0.00    -0.526 C  
BRANCH   7   8
HETATM    8  C   UNL     1     -11.940  13.634  64.053  1.00  0.00    -0.478 C  
BRANCH   8   9
HETATM    9  C   UNL     1     -11.000  12.534  63.562  1.00  0.00    -0.472 C  
BRANCH   9  10
HETATM   10  C   UNL     1     -11.274  11.224  64.293  1.00  0.00    -0.214 C  
BRANCH  10  11
HETATM   11  C   UNL     1     -10.008  10.381  64.441  1.00  0.00    -0.388 C  
BRANCH  11  12
HETATM   12  C   UNL     1      -9.684  10.184  65.918  1.00  0.00    -0.292 C  
BRANCH  12  13
HETATM   13  C   UNL     1      -9.204   8.768  66.228  1.00  0.00    -0.261 C  
BRANCH  13  14
HETATM   14  C   UNL     1     -10.249   8.022  67.022  1.00  0.00    -0.303 C  
HETATM   15  O   UNL     1     -10.881   7.054  66.619  1.00  0.00    -0.244 OA 
BRANCH  14  16
HETATM   16  O   UNL     1     -10.389   8.587  68.254  1.00  0.00    -0.204 OA 
BRANCH  16  17
HETATM   17  C   UNL     1      -9.325   8.298  69.183  1.00  0.00    -0.151 C  
HETATM   18  C   UNL     1      -9.745   8.710  70.590  1.00  0.00    -0.221 C  
HETATM   19  C   UNL     1      -9.052   6.802  69.116  1.00  0.00    -0.138 C  
ENDBRANCH  16  17
ENDBRANCH  14  16
ENDBRANCH  13  14
ENDBRANCH  12  13
ENDBRANCH  11  12
ENDBRANCH  10  11
ENDBRANCH   9  10
ENDBRANCH   8   9
ENDBRANCH   7   8
ENDBRANCH   6   7
ENDBRANCH   5   6
ENDBRANCH   4   5
ENDBRANCH   3   4
ENDBRANCH   2   3
TORSDOF 14
ENDMDL
MODEL      245
REMARK 921   NORMALIZED FREE ENERGY PREDICTED BY IDOCK:   -3.19 KCAL/MOL
REMARK 922        TOTAL FREE ENERGY PREDICTED BY IDOCK:   -7.37 KCAL/MOL
REMARK 923 INTER-LIGAND FREE ENERGY PREDICTED BY IDOCK:   -5.64 KCAL/MOL
REMARK 924 INTRA-LIGAND FREE ENERGY PREDICTED BY IDOCK:   -1.73 KCAL/MOL
REMARK 927      BINDING AFFINITY PREDICTED BY RF-SCORE:    0.00 PKD
ROOT
HETATM    1  C   UNL     1     -11.237   5.347  72.576  1.00  0.00    -0.305 C  
HETATM    2  C   UNL     1     -11.065   6.851  72.710  1.00  0.00    -0.304 C  
ENDROOT
BRANCH   2   3
HETATM    3  C   UNL     1     -10.021   7.196  73.768  1.00  0.00    -0.373 C  
BRANCH   3   4
HETATM    4  C   UNL     1      -8.945   8.124  73.204  1.00  0.00    -0.330 C  
BRANCH   4   5
HETATM    5  C   UNL     1      -7.961   7.348  72.329  1.00  0.00    -0.110 C  
BRANCH   5   6
HETATM    6  C   UNL     1      -7.686   8.083  71.019  1.00  0.00    -0.085 C  
BRANCH   6   7
HETATM    7  C   UNL     1      -8.666   9.240  70.830  1.00  0.00    -0.234 C  
BRANCH   7   8
HETATM    8  C   UNL     1      -9.396   9.130  69.495  1.00  0.00    -0.165 C  
BRANCH   8   9
HETATM    9  C   UNL     1     -10.910   9.106  69.699  1.00  0.00    -0.210 C  
BRANCH   9  10
HETATM   10  C   UNL     1     -11.314  10.021  70.851  1.00  0.00    -0.439 C  
BRANCH  10  11
HETATM   11  C   UNL     1     -12.173  11.190  70.372  1.00  0.00    -0.457 C  
BRANCH  11  12
HETATM   12  C   UNL     1     -11.302  12.220  69.660  1.00  0.00    -0.207 C  
BRANCH  12  13
HETATM   13  C   UNL     1     -11.935  12.729  68.367  1.00  0.00    -0.275 C  
BRANCH  13  14
HETATM   14  C   UNL     1     -11.300  12.057  67.173  1.00  0.00    -0.333 C  
HETATM   15  O   UNL     1     -11.267  10.849  66.982  1.00  0.00    -0.303 OA 
BRANCH  14  16
HETATM   16  O   UNL     1     -10.766  12.994  66.341  1.00  0.00    -0.278 OA 
BRANCH  16  17
HETATM   17  C   UNL     1     -11.717  13.901  65.750  1.00  0.00    -0.359 C  
HETATM   18  C   UNL     1     -11.000  15.161  65.275  1.00  0.00    -0.405 C  
HETATM   19  C   UNL     1     -12.374  13.179  64.582  1.00  0.00    -0.463 C  
ENDBRANCH  16  17
ENDBRANCH  14  16
ENDBRANCH  13  14
ENDBRANCH  12  13
ENDBRANCH  11  12
ENDBRANCH  10  11
ENDBRANCH   9  10
ENDBRANCH   8   9
ENDBRANCH   7   8
ENDBRANCH   6   7
ENDBRANCH   5   6
ENDBRANCH   4   5
ENDBRANCH   3   4
ENDBRANCH   2   3
TORSDOF 14
ENDMDL
MODEL      246
REMARK 921   NORMALIZED FREE ENERGY PREDICTED BY IDOCK:   -3.19 KCAL/MOL
REMARK 922        TOTAL FREE ENERGY PREDICTED BY IDOCK:   -7.36 KCAL/MOL
REMARK 923 INTER-LIGAND FREE ENERGY PREDICTED BY IDOCK:   -5.91 KCAL/MOL
REMARK 924 INTRA-LIGAND FREE ENERGY PREDICTED BY IDOCK:   -1.45 KCAL/MOL
REMARK 927      BINDING AFFINITY PREDICTED BY RF-SCORE:    0.00 PKD
ROOT
HETATM    1  C   UNL     1      -6.946  19.596  69.147  1.00  0.00    -0.386 C  
HETATM    2  C   UNL     1      -6.274  18.274  69.481  1.00  0.00    -0.252 C  
ENDROOT
BRANCH   2   3
HETATM    3  C   UNL     1      -6.751  17.161  68.550  1.00  0.00    -0.178 C  
BRANCH   3   4
HETATM    4  C   UNL     1      -7.298  15.973  69.340  1.00  0.00    -0.212 C  
BRANCH   4   5
HETATM    5  C   UNL     1      -8.530  15.384  68.655  1.00  0.00    -0.170 C  
BRANCH   5   6
HETATM    6  C   UNL     1      -8.778  16.042  67.300  1.00  0.00    -0.204 C  
BRANCH   6   7
HETATM    7  C   UNL     1      -9.411  15.051  66.324  1.00  0.00    -0.341 C  
BRANCH   7   8
HETATM    8  C   UNL     1     -10.909  15.302  66.180  1.00  0.00    -0.320 C  
BRANCH   8   9
HETATM    9  C   UNL     1     -11.714  14.307  67.015  1.00  0.00    -0.427 C  
BRANCH   9  10
HETATM   10  C   UNL     1     -11.818  12.964  66.300  1.00  0.00    -0.477 C  
BRANCH  10  11
HETATM   11  C   UNL     1     -12.771  13.028  65.107  1.00  0.00    -0.461 C  
BRANCH  11  12
HETATM   12  C   UNL     1     -12.198  12.234  63.938  1.00  0.00    -0.608 C  
BRANCH  12  13
HETATM   13  C   UNL     1     -10.680  12.361  63.832  1.00  0.00    -0.465 C  
BRANCH  13  14
HETATM   14  C   UNL     1     -10.043  10.994  63.760  1.00  0.00    -0.363 C  
HETATM   15  O   UNL     1      -9.692  10.435  62.730  1.00  0.00    -0.312 OA 
BRANCH  14  16
HETATM   16  O   UNL     1      -9.919  10.471  65.012  1.00  0.00    -0.278 OA 
BRANCH  16  17
HETATM   17  C   UNL     1      -8.621  10.633  65.617  1.00  0.00    -0.182 C  
HETATM   18  C   UNL     1      -8.756  11.405  66.925  1.00  0.00    -0.165 C  
HETATM   19  C   UNL     1      -8.056   9.241  65.865  1.00  0.00    -0.111 C  
ENDBRANCH  16  17
ENDBRANCH  14  16
ENDBRANCH  13  14
ENDBRANCH  12  13
ENDBRANCH  11  12
ENDBRANCH  10  11
ENDBRANCH   9  10
ENDBRANCH   8   9
ENDBRANCH   7   8
ENDBRANCH   6   7
ENDBRANCH   5   6
ENDBRANCH   4   5
ENDBRANCH   3   4
ENDBRANCH   2   3
TORSDOF 14
ENDMDL
MODEL      247
REMARK 921   NORMALIZED FREE ENERGY PREDICTED BY IDOCK:   -3.18 KCAL/MOL
REMARK 922        TOTAL FREE ENERGY PREDICTED BY IDOCK:   -7.36 KCAL/MOL
REMARK 923 INTER-LIGAND FREE ENERGY PREDICTED BY IDOCK:   -5.99 KCAL/MOL
REMARK 924 INTRA-LIGAND FREE ENERGY PREDICTED BY IDOCK:   -1.37 KCAL/MOL
REMARK 927      BINDING AFFINITY PREDICTED BY RF-SCORE:    0.00 PKD
ROOT
HETATM    1  C   UNL     1      -7.386  18.642  68.849  1.00  0.00    -0.301 C  
HETATM    2  C   UNL     1      -7.256  17.128  68.887  1.00  0.00    -0.242 C  
ENDROOT
BRANCH   2   3
HETATM    3  C   UNL     1      -8.159  16.470  67.846  1.00  0.00    -0.168 C  
BRANCH   3   4
HETATM    4  C   UNL     1      -8.957  15.318  68.455  1.00  0.00    -0.184 C  
BRANCH   4   5
HETATM    5  C   UNL     1     -10.241  15.068  67.665  1.00  0.00    -0.236 C  
BRANCH   5   6
HETATM    6  C   UNL     1     -10.289  15.921  66.400  1.00  0.00    -0.313 C  
BRANCH   6   7
HETATM    7  C   UNL     1     -10.455  15.045  65.160  1.00  0.00    -0.438 C  
BRANCH   7   8
HETATM    8  C   UNL     1     -11.881  15.118  64.622  1.00  0.00    -0.333 C  
BRANCH   8   9
HETATM    9  C   UNL     1     -12.776  14.081  65.301  1.00  0.00    -0.468 C  
BRANCH   9  10
HETATM   10  C   UNL     1     -12.202  12.678  65.130  1.00  0.00    -0.539 C  
BRANCH  10  11
HETATM   11  C   UNL     1     -11.809  12.399  63.680  1.00  0.00    -0.610 C  
BRANCH  11  12
HETATM   12  C   UNL     1     -10.659  11.398  63.635  1.00  0.00    -0.476 C  
BRANCH  12  13
HETATM   13  C   UNL     1      -9.820  11.412  64.910  1.00  0.00    -0.301 C  
BRANCH  13  14
HETATM   14  C   UNL     1      -9.735  10.024  65.497  1.00  0.00    -0.289 C  
HETATM   15  O   UNL     1      -8.933   9.164  65.156  1.00  0.00    -0.198 OA 
BRANCH  14  16
HETATM   16  O   UNL     1     -10.684   9.866  66.462  1.00  0.00    -0.130 OA 
BRANCH  16  17
HETATM   17  C   UNL     1     -10.310  10.339  67.771  1.00  0.00    -0.204 C  
HETATM   18  C   UNL     1     -11.453  11.153  68.369  1.00  0.00    -0.377 C  
HETATM   19  C   UNL     1     -10.008   9.118  68.629  1.00  0.00    -0.185 C  
ENDBRANCH  16  17
ENDBRANCH  14  16
ENDBRANCH  13  14
ENDBRANCH  12  13
ENDBRANCH  11  12
ENDBRANCH  10  11
ENDBRANCH   9  10
ENDBRANCH   8   9
ENDBRANCH   7   8
ENDBRANCH   6   7
ENDBRANCH   5   6
ENDBRANCH   4   5
ENDBRANCH   3   4
ENDBRANCH   2   3
TORSDOF 14
ENDMDL
MODEL      248
REMARK 921   NORMALIZED FREE ENERGY PREDICTED BY IDOCK:   -3.17 KCAL/MOL
REMARK 922        TOTAL FREE ENERGY PREDICTED BY IDOCK:   -7.34 KCAL/MOL
REMARK 923 INTER-LIGAND FREE ENERGY PREDICTED BY IDOCK:   -5.01 KCAL/MOL
REMARK 924 INTRA-LIGAND FREE ENERGY PREDICTED BY IDOCK:   -2.33 KCAL/MOL
REMARK 927      BINDING AFFINITY PREDICTED BY RF-SCORE:    0.00 PKD
ROOT
HETATM    1  C   UNL     1      -7.934  13.664  67.521  1.00  0.00    -0.189 C  
HETATM    2  C   UNL     1      -8.163  12.161  67.485  1.00  0.00    -0.167 C  
ENDROOT
BRANCH   2   3
HETATM    3  C   UNL     1      -7.666  11.496  68.767  1.00  0.00    -0.124 C  
BRANCH   3   4
HETATM    4  C   UNL     1      -7.363  10.015  68.541  1.00  0.00    -0.077 C  
BRANCH   4   5
HETATM    5  C   UNL     1      -8.187   9.462  67.379  1.00  0.00    -0.121 C  
BRANCH   5   6
HETATM    6  C   UNL     1      -8.781   8.098  67.721  1.00  0.00    -0.130 C  
BRANCH   6   7
HETATM    7  C   UNL     1      -8.200   7.566  69.030  1.00  0.00    -0.128 C  
BRANCH   7   8
HETATM    8  C   UNL     1      -9.271   6.867  69.863  1.00  0.00    -0.147 C  
BRANCH   8   9
HETATM    9  C   UNL     1     -10.652   7.462  69.590  1.00  0.00    -0.243 C  
BRANCH   9  10
HETATM   10  C   UNL     1     -11.187   8.173  70.829  1.00  0.00    -0.275 C  
BRANCH  10  11
HETATM   11  C   UNL     1     -10.709   9.623  70.902  1.00  0.00    -0.402 C  
BRANCH  11  12
HETATM   12  C   UNL     1     -11.042  10.348  69.602  1.00  0.00    -0.328 C  
BRANCH  12  13
HETATM   13  C   UNL     1     -11.992  11.524  69.814  1.00  0.00    -0.415 C  
BRANCH  13  14
HETATM   14  C   UNL     1     -11.727  12.603  68.791  1.00  0.00    -0.323 C  
HETATM   15  O   UNL     1     -11.115  13.640  69.006  1.00  0.00    -0.251 OA 
BRANCH  14  16
HETATM   16  O   UNL     1     -12.271  12.253  67.592  1.00  0.00    -0.442 OA 
BRANCH  16  17
HETATM   17  C   UNL     1     -11.691  12.901  66.443  1.00  0.00    -0.395 C  
HETATM   18  C   UNL     1     -11.193  11.851  65.456  1.00  0.00    -0.353 C  
HETATM   19  C   UNL     1     -12.772  13.768  65.813  1.00  0.00    -0.494 C  
ENDBRANCH  16  17
ENDBRANCH  14  16
ENDBRANCH  13  14
ENDBRANCH  12  13
ENDBRANCH  11  12
ENDBRANCH  10  11
ENDBRANCH   9  10
ENDBRANCH   8   9
ENDBRANCH   7   8
ENDBRANCH   6   7
ENDBRANCH   5   6
ENDBRANCH   4   5
ENDBRANCH   3   4
ENDBRANCH   2   3
TORSDOF 14
ENDMDL
MODEL      249
REMARK 921   NORMALIZED FREE ENERGY PREDICTED BY IDOCK:   -3.17 KCAL/MOL
REMARK 922        TOTAL FREE ENERGY PREDICTED BY IDOCK:   -7.33 KCAL/MOL
REMARK 923 INTER-LIGAND FREE ENERGY PREDICTED BY IDOCK:   -6.26 KCAL/MOL
REMARK 924 INTRA-LIGAND FREE ENERGY PREDICTED BY IDOCK:   -1.06 KCAL/MOL
REMARK 927      BINDING AFFINITY PREDICTED BY RF-SCORE:    0.00 PKD
ROOT
HETATM    1  C   UNL     1     -10.354  16.808  69.135  1.00  0.00    -0.326 C  
HETATM    2  C   UNL     1     -10.545  15.464  68.452  1.00  0.00    -0.247 C  
ENDROOT
BRANCH   2   3
HETATM    3  C   UNL     1     -11.701  14.686  69.076  1.00  0.00    -0.339 C  
BRANCH   3   4
HETATM    4  C   UNL     1     -12.402  15.508  70.157  1.00  0.00    -0.384 C  
BRANCH   4   5
HETATM    5  C   UNL     1     -12.408  14.762  71.491  1.00  0.00    -0.404 C  
BRANCH   5   6
HETATM    6  C   UNL     1     -13.821  14.327  71.875  1.00  0.00    -0.545 C  
BRANCH   6   7
HETATM    7  C   UNL     1     -13.849  12.845  72.245  1.00  0.00    -0.464 C  
BRANCH   7   8
HETATM    8  C   UNL     1     -12.836  12.053  71.421  1.00  0.00    -0.391 C  
BRANCH   8   9
HETATM    9  C   UNL     1     -13.285  10.603  71.249  1.00  0.00    -0.357 C  
BRANCH   9  10
HETATM   10  C   UNL     1     -12.148   9.643  71.586  1.00  0.00    -0.481 C  
BRANCH  10  11
HETATM   11  C   UNL     1     -12.652   8.405  72.327  1.00  0.00    -0.401 C  
BRANCH  11  12
HETATM   12  C   UNL     1     -12.690   7.210  71.380  1.00  0.00    -0.433 C  
BRANCH  12  13
HETATM   13  C   UNL     1     -11.524   7.206  70.394  1.00  0.00    -0.317 C  
BRANCH  13  14
HETATM   14  C   UNL     1     -10.374   6.398  70.946  1.00  0.00    -0.204 C  
HETATM   15  O   UNL     1      -9.236   6.816  71.111  1.00  0.00    -0.158 OA 
BRANCH  14  16
HETATM   16  O   UNL     1     -10.789   5.132  71.231  1.00  0.00    -0.134 OA 
BRANCH  16  17
HETATM   17  C   UNL     1     -10.110   4.499  72.333  1.00  0.00    -0.183 C  
HETATM   18  C   UNL     1     -10.716   4.970  73.651  1.00  0.00    -0.350 C  
HETATM   19  C   UNL     1     -10.275   2.994  72.169  1.00  0.00    -0.146 C  
ENDBRANCH  16  17
ENDBRANCH  14  16
ENDBRANCH  13  14
ENDBRANCH  12  13
ENDBRANCH  11  12
ENDBRANCH  10  11
ENDBRANCH   9  10
ENDBRANCH   8   9
ENDBRANCH   7   8
ENDBRANCH   6   7
ENDBRANCH   5   6
ENDBRANCH   4   5
ENDBRANCH   3   4
ENDBRANCH   2   3
TORSDOF 14
ENDMDL
MODEL      250
REMARK 921   NORMALIZED FREE ENERGY PREDICTED BY IDOCK:   -3.16 KCAL/MOL
REMARK 922        TOTAL FREE ENERGY PREDICTED BY IDOCK:   -7.32 KCAL/MOL
REMARK 923 INTER-LIGAND FREE ENERGY PREDICTED BY IDOCK:   -5.94 KCAL/MOL
REMARK 924 INTRA-LIGAND FREE ENERGY PREDICTED BY IDOCK:   -1.38 KCAL/MOL
REMARK 927      BINDING AFFINITY PREDICTED BY RF-SCORE:    0.00 PKD
ROOT
HETATM    1  C   UNL     1     -10.471   8.903  71.742  1.00  0.00    -0.431 C  
HETATM    2  C   UNL     1     -11.361   9.880  70.990  1.00  0.00    -0.460 C  
ENDROOT
BRANCH   2   3
HETATM    3  C   UNL     1     -12.808   9.792  71.470  1.00  0.00    -0.502 C  
BRANCH   3   4
HETATM    4  C   UNL     1     -13.274  11.117  72.071  1.00  0.00    -0.428 C  
BRANCH   4   5
HETATM    5  C   UNL     1     -12.683  12.300  71.306  1.00  0.00    -0.351 C  
BRANCH   5   6
HETATM    6  C   UNL     1     -13.118  13.629  71.919  1.00  0.00    -0.476 C  
BRANCH   6   7
HETATM    7  C   UNL     1     -13.011  14.759  70.897  1.00  0.00    -0.422 C  
BRANCH   7   8
HETATM    8  C   UNL     1     -11.600  15.342  70.867  1.00  0.00    -0.382 C  
BRANCH   8   9
HETATM    9  C   UNL     1     -10.879  14.962  69.575  1.00  0.00    -0.272 C  
BRANCH   9  10
HETATM   10  C   UNL     1      -9.387  15.259  69.683  1.00  0.00    -0.161 C  
BRANCH  10  11
HETATM   11  C   UNL     1      -8.578  14.490  68.638  1.00  0.00    -0.168 C  
BRANCH  11  12
HETATM   12  C   UNL     1      -8.773  12.990  68.829  1.00  0.00     0.167 C  
BRANCH  12  13
HETATM   13  C   UNL     1      -9.058  12.264  67.516  1.00  0.00    -0.182 C  
BRANCH  13  14
HETATM   14  C   UNL     1     -10.547  12.186  67.274  1.00  0.00    -0.227 C  
HETATM   15  O   UNL     1     -11.371  11.785  68.084  1.00  0.00    -0.239 OA 
BRANCH  14  16
HETATM   16  O   UNL     1     -10.838  12.626  66.017  1.00  0.00    -0.269 OA 
BRANCH  16  17
HETATM   17  C   UNL     1     -11.319  13.982  65.940  1.00  0.00    -0.317 C  
HETATM   18  C   UNL     1     -10.599  14.720  64.816  1.00  0.00    -0.355 C  
HETATM   19  C   UNL     1     -12.817  13.922  65.675  1.00  0.00    -0.467 C  
ENDBRANCH  16  17
ENDBRANCH  14  16
ENDBRANCH  13  14
ENDBRANCH  12  13
ENDBRANCH  11  12
ENDBRANCH  10  11
ENDBRANCH   9  10
ENDBRANCH   8   9
ENDBRANCH   7   8
ENDBRANCH   6   7
ENDBRANCH   5   6
ENDBRANCH   4   5
ENDBRANCH   3   4
ENDBRANCH   2   3
TORSDOF 14
ENDMDL
MODEL      251
REMARK 921   NORMALIZED FREE ENERGY PREDICTED BY IDOCK:   -3.16 KCAL/MOL
REMARK 922        TOTAL FREE ENERGY PREDICTED BY IDOCK:   -7.32 KCAL/MOL
REMARK 923 INTER-LIGAND FREE ENERGY PREDICTED BY IDOCK:   -5.13 KCAL/MOL
REMARK 924 INTRA-LIGAND FREE ENERGY PREDICTED BY IDOCK:   -2.18 KCAL/MOL
REMARK 927      BINDING AFFINITY PREDICTED BY RF-SCORE:    0.00 PKD
ROOT
HETATM    1  C   UNL     1      -6.764   7.042  68.589  1.00  0.00    -0.063 C  
HETATM    2  C   UNL     1      -7.326   7.101  70.000  1.00  0.00    -0.080 C  
ENDROOT
BRANCH   2   3
HETATM    3  C   UNL     1      -8.243   8.309  70.180  1.00  0.00    -0.118 C  
BRANCH   3   4
HETATM    4  C   UNL     1      -8.669   8.470  71.639  1.00  0.00    -0.262 C  
BRANCH   4   5
HETATM    5  C   UNL     1     -10.024   9.169  71.737  1.00  0.00    -0.257 C  
BRANCH   5   6
HETATM    6  C   UNL     1     -11.060   8.275  72.415  1.00  0.00    -0.447 C  
BRANCH   6   7
HETATM    7  C   UNL     1     -11.849   7.477  71.379  1.00  0.00    -0.321 C  
BRANCH   7   8
HETATM    8  C   UNL     1     -11.405   6.017  71.354  1.00  0.00    -0.301 C  
BRANCH   8   9
HETATM    9  C   UNL     1     -10.928   5.613  69.960  1.00  0.00    -0.311 C  
BRANCH   9  10
HETATM   10  C   UNL     1     -11.248   6.704  68.943  1.00  0.00    -0.273 C  
BRANCH  10  11
HETATM   11  C   UNL     1     -10.794   6.319  67.536  1.00  0.00    -0.436 C  
BRANCH  11  12
HETATM   12  C   UNL     1     -10.040   7.480  66.895  1.00  0.00    -0.336 C  
BRANCH  12  13
HETATM   13  C   UNL     1     -10.447   8.833  67.473  1.00  0.00    -0.340 C  
BRANCH  13  14
HETATM   14  C   UNL     1     -10.107   9.940  66.504  1.00  0.00    -0.232 C  
HETATM   15  O   UNL     1     -10.154   9.847  65.285  1.00  0.00    -0.313 OA 
BRANCH  14  16
HETATM   16  O   UNL     1      -9.737  11.060  67.187  1.00  0.00    -0.171 OA 
BRANCH  16  17
HETATM   17  C   UNL     1     -10.449  12.259  66.828  1.00  0.00    -0.218 C  
HETATM   18  C   UNL     1     -11.596  12.489  67.807  1.00  0.00    -0.401 C  
HETATM   19  C   UNL     1      -9.457  13.413  66.876  1.00  0.00    -0.253 C  
ENDBRANCH  16  17
ENDBRANCH  14  16
ENDBRANCH  13  14
ENDBRANCH  12  13
ENDBRANCH  11  12
ENDBRANCH  10  11
ENDBRANCH   9  10
ENDBRANCH   8   9
ENDBRANCH   7   8
ENDBRANCH   6   7
ENDBRANCH   5   6
ENDBRANCH   4   5
ENDBRANCH   3   4
ENDBRANCH   2   3
TORSDOF 14
ENDMDL
MODEL      252
REMARK 921   NORMALIZED FREE ENERGY PREDICTED BY IDOCK:   -3.16 KCAL/MOL
REMARK 922        TOTAL FREE ENERGY PREDICTED BY IDOCK:   -7.31 KCAL/MOL
REMARK 923 INTER-LIGAND FREE ENERGY PREDICTED BY IDOCK:   -5.59 KCAL/MOL
REMARK 924 INTRA-LIGAND FREE ENERGY PREDICTED BY IDOCK:   -1.72 KCAL/MOL
REMARK 927      BINDING AFFINITY PREDICTED BY RF-SCORE:    0.00 PKD
ROOT
HETATM    1  C   UNL     1     -12.204  13.346  63.581  1.00  0.00    -0.480 C  
HETATM    2  C   UNL     1     -11.989  11.862  63.332  1.00  0.00    -0.528 C  
ENDROOT
BRANCH   2   3
HETATM    3  C   UNL     1     -10.517  11.485  63.480  1.00  0.00    -0.486 C  
BRANCH   3   4
HETATM    4  C   UNL     1     -10.288  10.620  64.719  1.00  0.00    -0.353 C  
BRANCH   4   5
HETATM    5  C   UNL     1      -9.802  11.468  65.893  1.00  0.00    -0.262 C  
BRANCH   5   6
HETATM    6  C   UNL     1     -10.973  11.979  66.730  1.00  0.00    -0.329 C  
BRANCH   6   7
HETATM    7  C   UNL     1     -11.154  11.128  67.985  1.00  0.00    -0.334 C  
BRANCH   7   8
HETATM    8  C   UNL     1     -11.729  11.955  69.132  1.00  0.00    -0.380 C  
BRANCH   8   9
HETATM    9  C   UNL     1     -12.044  13.379  68.675  1.00  0.00    -0.281 C  
BRANCH   9  10
HETATM   10  C   UNL     1     -12.051  14.337  69.862  1.00  0.00    -0.404 C  
BRANCH  10  11
HETATM   11  C   UNL     1     -11.881  15.790  69.420  1.00  0.00    -0.361 C  
BRANCH  11  12
HETATM   12  C   UNL     1     -11.130  15.847  68.094  1.00  0.00    -0.338 C  
BRANCH  12  13
HETATM   13  C   UNL     1      -9.628  16.051  68.280  1.00  0.00    -0.210 C  
BRANCH  13  14
HETATM   14  C   UNL     1      -8.863  15.338  67.190  1.00  0.00    -0.212 C  
HETATM   15  O   UNL     1      -9.299  15.088  66.075  1.00  0.00    -0.304 OA 
BRANCH  14  16
HETATM   16  O   UNL     1      -7.616  15.013  67.633  1.00  0.00    -0.144 OA 
BRANCH  16  17
HETATM   17  C   UNL     1      -7.270  13.619  67.515  1.00  0.00    -0.156 C  
HETATM   18  C   UNL     1      -5.753  13.462  67.544  1.00  0.00     0.000 C  
HETATM   19  C   UNL     1      -7.912  12.887  68.685  1.00  0.00    -0.024 C  
ENDBRANCH  16  17
ENDBRANCH  14  16
ENDBRANCH  13  14
ENDBRANCH  12  13
ENDBRANCH  11  12
ENDBRANCH  10  11
ENDBRANCH   9  10
ENDBRANCH   8   9
ENDBRANCH   7   8
ENDBRANCH   6   7
ENDBRANCH   5   6
ENDBRANCH   4   5
ENDBRANCH   3   4
ENDBRANCH   2   3
TORSDOF 14
ENDMDL
MODEL      253
REMARK 921   NORMALIZED FREE ENERGY PREDICTED BY IDOCK:   -3.16 KCAL/MOL
REMARK 922        TOTAL FREE ENERGY PREDICTED BY IDOCK:   -7.31 KCAL/MOL
REMARK 923 INTER-LIGAND FREE ENERGY PREDICTED BY IDOCK:   -5.27 KCAL/MOL
REMARK 924 INTRA-LIGAND FREE ENERGY PREDICTED BY IDOCK:   -2.03 KCAL/MOL
REMARK 927      BINDING AFFINITY PREDICTED BY RF-SCORE:    0.00 PKD
ROOT
HETATM    1  C   UNL     1      -7.440  14.496  67.603  1.00  0.00    -0.195 C  
HETATM    2  C   UNL     1      -7.286  13.008  67.333  1.00  0.00    -0.122 C  
ENDROOT
BRANCH   2   3
HETATM    3  C   UNL     1      -7.953  12.176  68.426  1.00  0.00    -0.152 C  
BRANCH   3   4
HETATM    4  C   UNL     1      -7.312  10.793  68.538  1.00  0.00    -0.096 C  
BRANCH   4   5
HETATM    5  C   UNL     1      -6.655  10.388  67.220  1.00  0.00    -0.068 C  
BRANCH   5   6
HETATM    6  C   UNL     1      -7.194   9.050  66.719  1.00  0.00    -0.086 C  
BRANCH   6   7
HETATM    7  C   UNL     1      -8.564   8.756  67.328  1.00  0.00    -0.122 C  
BRANCH   7   8
HETATM    8  C   UNL     1      -9.660   8.808  66.268  1.00  0.00    -0.328 C  
BRANCH   8   9
HETATM    9  C   UNL     1      -9.076   9.131  64.893  1.00  0.00    -0.190 C  
BRANCH   9  10
HETATM   10  C   UNL     1      -9.819  10.299  64.251  1.00  0.00    -0.357 C  
BRANCH  10  11
HETATM   11  C   UNL     1      -9.794  11.543  65.138  1.00  0.00    -0.294 C  
BRANCH  11  12
HETATM   12  C   UNL     1     -10.468  12.708  64.420  1.00  0.00    -0.398 C  
BRANCH  12  13
HETATM   13  C   UNL     1     -11.991  12.628  64.476  1.00  0.00    -0.464 C  
BRANCH  13  14
HETATM   14  C   UNL     1     -12.534  13.652  65.445  1.00  0.00    -0.499 C  
HETATM   15  O   UNL     1     -13.621  14.206  65.346  1.00  0.00    -0.568 OA 
BRANCH  14  16
HETATM   16  O   UNL     1     -11.636  13.869  66.446  1.00  0.00    -0.337 OA 
BRANCH  16  17
HETATM   17  C   UNL     1     -12.078  13.478  67.761  1.00  0.00    -0.280 C  
HETATM   18  C   UNL     1     -11.526  12.098  68.100  1.00  0.00    -0.375 C  
HETATM   19  C   UNL     1     -11.568  14.522  68.744  1.00  0.00    -0.343 C  
ENDBRANCH  16  17
ENDBRANCH  14  16
ENDBRANCH  13  14
ENDBRANCH  12  13
ENDBRANCH  11  12
ENDBRANCH  10  11
ENDBRANCH   9  10
ENDBRANCH   8   9
ENDBRANCH   7   8
ENDBRANCH   6   7
ENDBRANCH   5   6
ENDBRANCH   4   5
ENDBRANCH   3   4
ENDBRANCH   2   3
TORSDOF 14
ENDMDL
MODEL      254
REMARK 921   NORMALIZED FREE ENERGY PREDICTED BY IDOCK:   -3.15 KCAL/MOL
REMARK 922        TOTAL FREE ENERGY PREDICTED BY IDOCK:   -7.29 KCAL/MOL
REMARK 923 INTER-LIGAND FREE ENERGY PREDICTED BY IDOCK:   -6.74 KCAL/MOL
REMARK 924 INTRA-LIGAND FREE ENERGY PREDICTED BY IDOCK:   -0.56 KCAL/MOL
REMARK 927      BINDING AFFINITY PREDICTED BY RF-SCORE:    0.00 PKD
ROOT
HETATM    1  C   UNL     1     -12.368  16.306  74.561  1.00  0.00    -0.584 C  
HETATM    2  C   UNL     1     -11.803  15.313  73.557  1.00  0.00    -0.415 C  
ENDROOT
BRANCH   2   3
HETATM    3  C   UNL     1     -11.911  15.848  72.131  1.00  0.00    -0.615 C  
BRANCH   3   4
HETATM    4  C   UNL     1     -13.307  15.616  71.555  1.00  0.00    -0.535 C  
BRANCH   4   5
HETATM    5  C   UNL     1     -13.426  14.212  70.964  1.00  0.00    -0.232 C  
BRANCH   5   6
HETATM    6  C   UNL     1     -13.767  13.184  72.041  1.00  0.00    -0.486 C  
BRANCH   6   7
HETATM    7  C   UNL     1     -12.782  12.017  72.007  1.00  0.00    -0.095 C  
BRANCH   7   8
HETATM    8  C   UNL     1     -12.230  11.803  70.600  1.00  0.00    -0.443 C  
BRANCH   8   9
HETATM    9  C   UNL     1     -11.884  10.334  70.365  1.00  0.00    -0.396 C  
BRANCH   9  10
HETATM   10  C   UNL     1     -10.615  10.205  69.529  1.00  0.00    -0.269 C  
BRANCH  10  11
HETATM   11  C   UNL     1     -10.126  11.563  69.027  1.00  0.00    -0.075 C  
BRANCH  11  12
HETATM   12  C   UNL     1     -10.806  11.906  67.706  1.00  0.00    -0.254 C  
BRANCH  12  13
HETATM   13  C   UNL     1      -9.807  12.287  66.615  1.00  0.00    -0.230 C  
BRANCH  13  14
HETATM   14  C   UNL     1     -10.022  11.434  65.387  1.00  0.00    -0.245 C  
HETATM   15  O   UNL     1      -9.807  10.232  65.320  1.00  0.00    -0.264 OA 
BRANCH  14  16
HETATM   16  O   UNL     1     -10.488  12.202  64.363  1.00  0.00    -0.281 OA 
BRANCH  16  17
HETATM   17  C   UNL     1     -11.849  12.653  64.507  1.00  0.00    -0.379 C  
HETATM   18  C   UNL     1     -11.877  14.173  64.625  1.00  0.00    -0.443 C  
HETATM   19  C   UNL     1     -12.617  12.192  63.275  1.00  0.00    -0.492 C  
ENDBRANCH  16  17
ENDBRANCH  14  16
ENDBRANCH  13  14
ENDBRANCH  12  13
ENDBRANCH  11  12
ENDBRANCH  10  11
ENDBRANCH   9  10
ENDBRANCH   8   9
ENDBRANCH   7   8
ENDBRANCH   6   7
ENDBRANCH   5   6
ENDBRANCH   4   5
ENDBRANCH   3   4
ENDBRANCH   2   3
TORSDOF 14
ENDMDL
MODEL      255
REMARK 921   NORMALIZED FREE ENERGY PREDICTED BY IDOCK:   -3.13 KCAL/MOL
REMARK 922        TOTAL FREE ENERGY PREDICTED BY IDOCK:   -7.27 KCAL/MOL
REMARK 923 INTER-LIGAND FREE ENERGY PREDICTED BY IDOCK:   -5.56 KCAL/MOL
REMARK 924 INTRA-LIGAND FREE ENERGY PREDICTED BY IDOCK:   -1.71 KCAL/MOL
REMARK 927      BINDING AFFINITY PREDICTED BY RF-SCORE:    0.00 PKD
ROOT
HETATM    1  C   UNL     1      -9.007   8.622  67.668  1.00  0.00    -0.141 C  
HETATM    2  C   UNL     1      -8.692   9.565  66.518  1.00  0.00    -0.147 C  
ENDROOT
BRANCH   2   3
HETATM    3  C   UNL     1      -9.936   9.848  65.678  1.00  0.00    -0.353 C  
BRANCH   3   4
HETATM    4  C   UNL     1     -10.011  11.320  65.277  1.00  0.00    -0.301 C  
BRANCH   4   5
HETATM    5  C   UNL     1     -10.469  11.467  63.827  1.00  0.00    -0.459 C  
BRANCH   5   6
HETATM    6  C   UNL     1     -11.503  12.582  63.683  1.00  0.00    -0.568 C  
BRANCH   6   7
HETATM    7  C   UNL     1     -12.531  12.518  64.811  1.00  0.00    -0.532 C  
BRANCH   7   8
HETATM    8  C   UNL     1     -12.749  13.894  65.435  1.00  0.00    -0.525 C  
BRANCH   8   9
HETATM    9  C   UNL     1     -11.944  14.043  66.726  1.00  0.00    -0.473 C  
BRANCH   9  10
HETATM   10  C   UNL     1     -11.043  15.273  66.660  1.00  0.00    -0.276 C  
BRANCH  10  11
HETATM   11  C   UNL     1      -9.735  14.979  65.928  1.00  0.00    -0.376 C  
BRANCH  11  12
HETATM   12  C   UNL     1      -8.567  15.624  66.668  1.00  0.00    -0.330 C  
BRANCH  12  13
HETATM   13  C   UNL     1      -8.070  14.772  67.833  1.00  0.00    -0.146 C  
BRANCH  13  14
HETATM   14  C   UNL     1      -6.566  14.644  67.784  1.00  0.00    -0.171 C  
HETATM   15  O   UNL     1      -5.811  15.427  67.222  1.00  0.00    -0.334 OA 
BRANCH  14  16
HETATM   16  O   UNL     1      -6.171  13.525  68.455  1.00  0.00    -0.078 OA 
BRANCH  16  17
HETATM   17  C   UNL     1      -6.813  12.304  68.039  1.00  0.00    -0.082 C  
HETATM   18  C   UNL     1      -6.011  11.660  66.912  1.00  0.00    -0.145 C  
HETATM   19  C   UNL     1      -6.878  11.385  69.251  1.00  0.00    -0.119 C  
ENDBRANCH  16  17
ENDBRANCH  14  16
ENDBRANCH  13  14
ENDBRANCH  12  13
ENDBRANCH  11  12
ENDBRANCH  10  11
ENDBRANCH   9  10
ENDBRANCH   8   9
ENDBRANCH   7   8
ENDBRANCH   6   7
ENDBRANCH   5   6
ENDBRANCH   4   5
ENDBRANCH   3   4
ENDBRANCH   2   3
TORSDOF 14
ENDMDL
MODEL      256
REMARK 921   NORMALIZED FREE ENERGY PREDICTED BY IDOCK:   -3.13 KCAL/MOL
REMARK 922        TOTAL FREE ENERGY PREDICTED BY IDOCK:   -7.27 KCAL/MOL
REMARK 923 INTER-LIGAND FREE ENERGY PREDICTED BY IDOCK:   -5.81 KCAL/MOL
REMARK 924 INTRA-LIGAND FREE ENERGY PREDICTED BY IDOCK:   -1.46 KCAL/MOL
REMARK 927      BINDING AFFINITY PREDICTED BY RF-SCORE:    0.00 PKD
ROOT
HETATM    1  C   UNL     1     -11.421   5.403  72.769  1.00  0.00    -0.333 C  
HETATM    2  C   UNL     1      -9.932   5.361  72.466  1.00  0.00    -0.201 C  
ENDROOT
BRANCH   2   3
HETATM    3  C   UNL     1      -9.217   6.582  73.040  1.00  0.00    -0.141 C  
BRANCH   3   4
HETATM    4  C   UNL     1     -10.141   7.799  73.076  1.00  0.00    -0.382 C  
BRANCH   4   5
HETATM    5  C   UNL     1      -9.855   8.735  71.903  1.00  0.00    -0.395 C  
BRANCH   5   6
HETATM    6  C   UNL     1     -10.995   8.713  70.887  1.00  0.00    -0.301 C  
BRANCH   6   7
HETATM    7  C   UNL     1     -10.720   7.690  69.786  1.00  0.00    -0.243 C  
BRANCH   7   8
HETATM    8  C   UNL     1      -9.565   8.139  68.894  1.00  0.00    -0.153 C  
BRANCH   8   9
HETATM    9  C   UNL     1     -10.075   8.966  67.715  1.00  0.00    -0.263 C  
BRANCH   9  10
HETATM   10  C   UNL     1      -9.048  10.020  67.311  1.00  0.00    -0.152 C  
BRANCH  10  11
HETATM   11  C   UNL     1      -9.715  11.312  66.844  1.00  0.00    -0.215 C  
BRANCH  11  12
HETATM   12  C   UNL     1     -11.188  11.312  67.241  1.00  0.00    -0.364 C  
BRANCH  12  13
HETATM   13  C   UNL     1     -11.674  12.688  67.689  1.00  0.00    -0.420 C  
BRANCH  13  14
HETATM   14  C   UNL     1     -12.223  13.459  66.512  1.00  0.00    -0.356 C  
HETATM   15  O   UNL     1     -12.712  12.958  65.509  1.00  0.00    -0.568 OA 
BRANCH  14  16
HETATM   16  O   UNL     1     -12.090  14.798  66.730  1.00  0.00    -0.291 OA 
BRANCH  16  17
HETATM   17  C   UNL     1     -10.758  15.235  67.064  1.00  0.00    -0.313 C  
HETATM   18  C   UNL     1      -9.964  15.486  65.787  1.00  0.00    -0.391 C  
HETATM   19  C   UNL     1     -10.887  16.512  67.883  1.00  0.00    -0.326 C  
ENDBRANCH  16  17
ENDBRANCH  14  16
ENDBRANCH  13  14
ENDBRANCH  12  13
ENDBRANCH  11  12
ENDBRANCH  10  11
ENDBRANCH   9  10
ENDBRANCH   8   9
ENDBRANCH   7   8
ENDBRANCH   6   7
ENDBRANCH   5   6
ENDBRANCH   4   5
ENDBRANCH   3   4
ENDBRANCH   2   3
TORSDOF 14
ENDMDL
MODEL      257
REMARK 921   NORMALIZED FREE ENERGY PREDICTED BY IDOCK:   -3.13 KCAL/MOL
REMARK 922        TOTAL FREE ENERGY PREDICTED BY IDOCK:   -7.25 KCAL/MOL
REMARK 923 INTER-LIGAND FREE ENERGY PREDICTED BY IDOCK:   -5.58 KCAL/MOL
REMARK 924 INTRA-LIGAND FREE ENERGY PREDICTED BY IDOCK:   -1.67 KCAL/MOL
REMARK 927      BINDING AFFINITY PREDICTED BY RF-SCORE:    0.00 PKD
ROOT
HETATM    1  C   UNL     1     -10.411  20.063  67.057  1.00  0.00    -0.555 C  
HETATM    2  C   UNL     1      -9.588  18.785  67.031  1.00  0.00    -0.329 C  
ENDROOT
BRANCH   2   3
HETATM    3  C   UNL     1      -8.939  18.518  68.388  1.00  0.00    -0.346 C  
BRANCH   3   4
HETATM    4  C   UNL     1      -7.532  17.945  68.227  1.00  0.00    -0.260 C  
BRANCH   4   5
HETATM    5  C   UNL     1      -7.451  16.531  68.800  1.00  0.00    -0.216 C  
BRANCH   5   6
HETATM    6  C   UNL     1      -7.339  15.488  67.689  1.00  0.00    -0.197 C  
BRANCH   6   7
HETATM    7  C   UNL     1      -6.625  14.235  68.192  1.00  0.00    -0.132 C  
BRANCH   7   8
HETATM    8  C   UNL     1      -7.195  12.978  67.540  1.00  0.00    -0.154 C  
BRANCH   8   9
HETATM    9  C   UNL     1      -7.400  11.870  68.572  1.00  0.00    -0.111 C  
BRANCH   9  10
HETATM   10  C   UNL     1      -8.539  10.946  68.153  1.00  0.00    -0.133 C  
BRANCH  10  11
HETATM   11  C   UNL     1      -9.253  11.457  66.902  1.00  0.00    -0.183 C  
BRANCH  11  12
HETATM   12  C   UNL     1     -10.672  10.900  66.848  1.00  0.00    -0.318 C  
BRANCH  12  13
HETATM   13  C   UNL     1     -11.724  11.941  67.225  1.00  0.00    -0.319 C  
BRANCH  13  14
HETATM   14  C   UNL     1     -12.127  12.742  66.010  1.00  0.00    -0.395 C  
HETATM   15  O   UNL     1     -12.318  12.279  64.894  1.00  0.00    -0.433 OA 
BRANCH  14  16
HETATM   16  O   UNL     1     -12.244  14.060  66.338  1.00  0.00    -0.442 OA 
BRANCH  16  17
HETATM   17  C   UNL     1     -10.997  14.767  66.485  1.00  0.00    -0.325 C  
HETATM   18  C   UNL     1     -10.802  15.716  65.307  1.00  0.00    -0.420 C  
HETATM   19  C   UNL     1     -11.059  15.537  67.796  1.00  0.00    -0.315 C  
ENDBRANCH  16  17
ENDBRANCH  14  16
ENDBRANCH  13  14
ENDBRANCH  12  13
ENDBRANCH  11  12
ENDBRANCH  10  11
ENDBRANCH   9  10
ENDBRANCH   8   9
ENDBRANCH   7   8
ENDBRANCH   6   7
ENDBRANCH   5   6
ENDBRANCH   4   5
ENDBRANCH   3   4
ENDBRANCH   2   3
TORSDOF 14
ENDMDL
MODEL      258
REMARK 921   NORMALIZED FREE ENERGY PREDICTED BY IDOCK:   -3.12 KCAL/MOL
REMARK 922        TOTAL FREE ENERGY PREDICTED BY IDOCK:   -7.25 KCAL/MOL
REMARK 923 INTER-LIGAND FREE ENERGY PREDICTED BY IDOCK:   -5.74 KCAL/MOL
REMARK 924 INTRA-LIGAND FREE ENERGY PREDICTED BY IDOCK:   -1.51 KCAL/MOL
REMARK 927      BINDING AFFINITY PREDICTED BY RF-SCORE:    0.00 PKD
ROOT
HETATM    1  C   UNL     1     -14.227  14.143  72.088  1.00  0.00    -0.638 C  
HETATM    2  C   UNL     1     -13.036  13.249  71.782  1.00  0.00    -0.472 C  
ENDROOT
BRANCH   2   3
HETATM    3  C   UNL     1     -12.470  13.539  70.393  1.00  0.00    -0.345 C  
BRANCH   3   4
HETATM    4  C   UNL     1     -11.903  12.274  69.751  1.00  0.00    -0.388 C  
BRANCH   4   5
HETATM    5  C   UNL     1     -11.604  12.502  68.270  1.00  0.00    -0.376 C  
BRANCH   5   6
HETATM    6  C   UNL     1     -10.940  13.858  68.042  1.00  0.00    -0.267 C  
BRANCH   6   7
HETATM    7  C   UNL     1     -11.601  14.597  66.879  1.00  0.00    -0.374 C  
BRANCH   7   8
HETATM    8  C   UNL     1     -10.848  14.354  65.574  1.00  0.00    -0.335 C  
BRANCH   8   9
HETATM    9  C   UNL     1     -11.709  13.572  64.583  1.00  0.00    -0.412 C  
BRANCH   9  10
HETATM   10  C   UNL     1     -10.859  12.576  63.799  1.00  0.00    -0.489 C  
BRANCH  10  11
HETATM   11  C   UNL     1     -10.981  11.160  64.362  1.00  0.00    -0.270 C  
BRANCH  11  12
HETATM   12  C   UNL     1      -9.715  10.794  65.130  1.00  0.00    -0.319 C  
BRANCH  12  13
HETATM   13  C   UNL     1      -9.953   9.692  66.160  1.00  0.00    -0.346 C  
BRANCH  13  14
HETATM   14  C   UNL     1      -8.639   9.224  66.739  1.00  0.00    -0.127 C  
HETATM   15  O   UNL     1      -7.814   8.541  66.148  1.00  0.00    -0.094 OA 
BRANCH  14  16
HETATM   16  O   UNL     1      -8.509   9.672  68.019  1.00  0.00    -0.117 OA 
BRANCH  16  17
HETATM   17  C   UNL     1      -7.386  10.546  68.250  1.00  0.00    -0.088 C  
HETATM   18  C   UNL     1      -7.752  11.970  67.846  1.00  0.00    -0.134 C  
HETATM   19  C   UNL     1      -7.047  10.474  69.732  1.00  0.00    -0.150 C  
ENDBRANCH  16  17
ENDBRANCH  14  16
ENDBRANCH  13  14
ENDBRANCH  12  13
ENDBRANCH  11  12
ENDBRANCH  10  11
ENDBRANCH   9  10
ENDBRANCH   8   9
ENDBRANCH   7   8
ENDBRANCH   6   7
ENDBRANCH   5   6
ENDBRANCH   4   5
ENDBRANCH   3   4
ENDBRANCH   2   3
TORSDOF 14
ENDMDL
MODEL      259
REMARK 921   NORMALIZED FREE ENERGY PREDICTED BY IDOCK:   -3.12 KCAL/MOL
REMARK 922        TOTAL FREE ENERGY PREDICTED BY IDOCK:   -7.24 KCAL/MOL
REMARK 923 INTER-LIGAND FREE ENERGY PREDICTED BY IDOCK:   -4.66 KCAL/MOL
REMARK 924 INTRA-LIGAND FREE ENERGY PREDICTED BY IDOCK:   -2.59 KCAL/MOL
REMARK 927      BINDING AFFINITY PREDICTED BY RF-SCORE:    0.00 PKD
ROOT
HETATM    1  C   UNL     1     -11.312  10.656  70.003  1.00  0.00    -0.400 C  
HETATM    2  C   UNL     1     -10.207  10.359  69.003  1.00  0.00    -0.233 C  
ENDROOT
BRANCH   2   3
HETATM    3  C   UNL     1      -8.964   9.809  69.700  1.00  0.00    -0.229 C  
BRANCH   3   4
HETATM    4  C   UNL     1      -8.340   8.666  68.901  1.00  0.00    -0.124 C  
BRANCH   4   5
HETATM    5  C   UNL     1      -7.744   7.612  69.832  1.00  0.00    -0.097 C  
BRANCH   5   6
HETATM    6  C   UNL     1      -7.632   8.136  71.262  1.00  0.00    -0.084 C  
BRANCH   6   7
HETATM    7  C   UNL     1      -8.341   7.200  72.240  1.00  0.00    -0.117 C  
BRANCH   7   8
HETATM    8  C   UNL     1      -9.242   7.980  73.193  1.00  0.00    -0.347 C  
BRANCH   8   9
HETATM    9  C   UNL     1     -10.663   8.082  72.641  1.00  0.00    -0.426 C  
BRANCH   9  10
HETATM   10  C   UNL     1     -11.293   6.699  72.515  1.00  0.00    -0.290 C  
BRANCH  10  11
HETATM   11  C   UNL     1     -12.214   6.603  71.299  1.00  0.00    -0.369 C  
BRANCH  11  12
HETATM   12  C   UNL     1     -11.443   6.957  70.032  1.00  0.00    -0.328 C  
BRANCH  12  13
HETATM   13  C   UNL     1     -10.828   5.732  69.359  1.00  0.00    -0.393 C  
BRANCH  13  14
HETATM   14  C   UNL     1     -10.751   5.939  67.865  1.00  0.00    -0.255 C  
HETATM   15  O   UNL     1     -11.060   6.968  67.281  1.00  0.00    -0.318 OA 
BRANCH  14  16
HETATM   16  O   UNL     1     -10.289   4.808  67.261  1.00  0.00    -0.151 OA 
BRANCH  16  17
HETATM   17  C   UNL     1      -9.192   4.159  67.935  1.00  0.00    -0.151 C  
HETATM   18  C   UNL     1      -9.391   2.648  67.905  1.00  0.00    -0.244 C  
HETATM   19  C   UNL     1      -7.913   4.552  67.208  1.00  0.00    -0.101 C  
ENDBRANCH  16  17
ENDBRANCH  14  16
ENDBRANCH  13  14
ENDBRANCH  12  13
ENDBRANCH  11  12
ENDBRANCH  10  11
ENDBRANCH   9  10
ENDBRANCH   8   9
ENDBRANCH   7   8
ENDBRANCH   6   7
ENDBRANCH   5   6
ENDBRANCH   4   5
ENDBRANCH   3   4
ENDBRANCH   2   3
TORSDOF 14
ENDMDL
MODEL      260
REMARK 921   NORMALIZED FREE ENERGY PREDICTED BY IDOCK:   -3.11 KCAL/MOL
REMARK 922        TOTAL FREE ENERGY PREDICTED BY IDOCK:   -7.22 KCAL/MOL
REMARK 923 INTER-LIGAND FREE ENERGY PREDICTED BY IDOCK:   -4.94 KCAL/MOL
REMARK 924 INTRA-LIGAND FREE ENERGY PREDICTED BY IDOCK:   -2.28 KCAL/MOL
REMARK 927      BINDING AFFINITY PREDICTED BY RF-SCORE:    0.00 PKD
ROOT
HETATM    1  C   UNL     1      -9.532   8.198  72.487  1.00  0.00    -0.339 C  
HETATM    2  C   UNL     1     -10.931   8.676  72.134  1.00  0.00    -0.434 C  
ENDROOT
BRANCH   2   3
HETATM    3  C   UNL     1     -10.902   9.652  70.961  1.00  0.00    -0.412 C  
BRANCH   3   4
HETATM    4  C   UNL     1     -12.121  10.574  70.977  1.00  0.00    -0.492 C  
BRANCH   4   5
HETATM    5  C   UNL     1     -12.053  11.587  69.835  1.00  0.00    -0.389 C  
BRANCH   5   6
HETATM    6  C   UNL     1     -11.696  10.909  68.513  1.00  0.00    -0.307 C  
BRANCH   6   7
HETATM    7  C   UNL     1     -11.501  11.945  67.408  1.00  0.00    -0.393 C  
BRANCH   7   8
HETATM    8  C   UNL     1     -10.022  12.270  67.214  1.00  0.00    -0.210 C  
BRANCH   8   9
HETATM    9  C   UNL     1      -9.144  11.088  67.620  1.00  0.00    -0.145 C  
BRANCH   9  10
HETATM   10  C   UNL     1      -8.075  11.526  68.615  1.00  0.00    -0.132 C  
BRANCH  10  11
HETATM   11  C   UNL     1      -7.630  10.374  69.514  1.00  0.00    -0.158 C  
BRANCH  11  12
HETATM   12  C   UNL     1      -7.230   9.173  68.663  1.00  0.00    -0.075 C  
BRANCH  12  13
HETATM   13  C   UNL     1      -7.575   7.843  69.328  1.00  0.00    -0.097 C  
BRANCH  13  14
HETATM   14  C   UNL     1      -7.837   6.786  68.281  1.00  0.00    -0.110 C  
HETATM   15  O   UNL     1      -7.101   6.534  67.337  1.00  0.00    -0.075 OA 
BRANCH  14  16
HETATM   16  O   UNL     1      -9.016   6.154  68.542  1.00  0.00    -0.117 OA 
BRANCH  16  17
HETATM   17  C   UNL     1     -10.168   7.016  68.620  1.00  0.00    -0.176 C  
HETATM   18  C   UNL     1     -10.621   7.397  67.214  1.00  0.00    -0.393 C  
HETATM   19  C   UNL     1     -11.262   6.252  69.352  1.00  0.00    -0.489 C  
ENDBRANCH  16  17
ENDBRANCH  14  16
ENDBRANCH  13  14
ENDBRANCH  12  13
ENDBRANCH  11  12
ENDBRANCH  10  11
ENDBRANCH   9  10
ENDBRANCH   8   9
ENDBRANCH   7   8
ENDBRANCH   6   7
ENDBRANCH   5   6
ENDBRANCH   4   5
ENDBRANCH   3   4
ENDBRANCH   2   3
TORSDOF 14
ENDMDL
MODEL      261
REMARK 921   NORMALIZED FREE ENERGY PREDICTED BY IDOCK:   -3.09 KCAL/MOL
REMARK 922        TOTAL FREE ENERGY PREDICTED BY IDOCK:   -7.18 KCAL/MOL
REMARK 923 INTER-LIGAND FREE ENERGY PREDICTED BY IDOCK:   -5.89 KCAL/MOL
REMARK 924 INTRA-LIGAND FREE ENERGY PREDICTED BY IDOCK:   -1.29 KCAL/MOL
REMARK 927      BINDING AFFINITY PREDICTED BY RF-SCORE:    0.00 PKD
ROOT
HETATM    1  C   UNL     1     -10.648   8.539  71.959  1.00  0.00    -0.408 C  
HETATM    2  C   UNL     1     -11.603   9.581  71.398  1.00  0.00    -0.466 C  
ENDROOT
BRANCH   2   3
HETATM    3  C   UNL     1     -11.066  10.181  70.101  1.00  0.00    -0.378 C  
BRANCH   3   4
HETATM    4  C   UNL     1     -11.865  11.417  69.689  1.00  0.00    -0.431 C  
BRANCH   4   5
HETATM    5  C   UNL     1     -11.880  11.574  68.170  1.00  0.00    -0.306 C  
BRANCH   5   6
HETATM    6  C   UNL     1     -11.076  10.468  67.490  1.00  0.00    -0.358 C  
BRANCH   6   7
HETATM    7  C   UNL     1     -10.563  10.930  66.127  1.00  0.00    -0.270 C  
BRANCH   7   8
HETATM    8  C   UNL     1      -9.069  11.240  66.179  1.00  0.00    -0.216 C  
BRANCH   8   9
HETATM    9  C   UNL     1      -8.510  11.009  67.582  1.00  0.00    -0.121 C  
BRANCH   9  10
HETATM   10  C   UNL     1      -8.032  12.321  68.195  1.00  0.00    -0.155 C  
BRANCH  10  11
HETATM   11  C   UNL     1      -8.357  13.517  67.301  1.00  0.00    -0.188 C  
BRANCH  11  12
HETATM   12  C   UNL     1      -8.394  14.795  68.133  1.00  0.00    -0.144 C  
BRANCH  12  13
HETATM   13  C   UNL     1      -9.124  15.933  67.424  1.00  0.00    -0.205 C  
BRANCH  13  14
HETATM   14  C   UNL     1      -8.156  16.738  66.590  1.00  0.00    -0.265 C  
HETATM   15  O   UNL     1      -6.941  16.588  66.583  1.00  0.00    -0.216 OA 
BRANCH  14  16
HETATM   16  O   UNL     1      -8.833  17.657  65.847  1.00  0.00    -0.521 OA 
BRANCH  16  17
HETATM   17  C   UNL     1      -9.272  18.824  66.569  1.00  0.00    -0.331 C  
HETATM   18  C   UNL     1      -8.228  19.929  66.446  1.00  0.00    -0.365 C  
HETATM   19  C   UNL     1     -10.599  19.263  65.966  1.00  0.00    -0.550 C  
ENDBRANCH  16  17
ENDBRANCH  14  16
ENDBRANCH  13  14
ENDBRANCH  12  13
ENDBRANCH  11  12
ENDBRANCH  10  11
ENDBRANCH   9  10
ENDBRANCH   8   9
ENDBRANCH   7   8
ENDBRANCH   6   7
ENDBRANCH   5   6
ENDBRANCH   4   5
ENDBRANCH   3   4
ENDBRANCH   2   3
TORSDOF 14
ENDMDL
MODEL      262
REMARK 921   NORMALIZED FREE ENERGY PREDICTED BY IDOCK:   -3.09 KCAL/MOL
REMARK 922        TOTAL FREE ENERGY PREDICTED BY IDOCK:   -7.18 KCAL/MOL
REMARK 923 INTER-LIGAND FREE ENERGY PREDICTED BY IDOCK:   -5.36 KCAL/MOL
REMARK 924 INTRA-LIGAND FREE ENERGY PREDICTED BY IDOCK:   -1.82 KCAL/MOL
REMARK 927      BINDING AFFINITY PREDICTED BY RF-SCORE:    0.00 PKD
ROOT
HETATM    1  C   UNL     1     -12.016  14.819  64.620  1.00  0.00    -0.448 C  
HETATM    2  C   UNL     1     -12.776  13.673  65.268  1.00  0.00    -0.478 C  
ENDROOT
BRANCH   2   3
HETATM    3  C   UNL     1     -12.474  12.347  64.573  1.00  0.00    -0.519 C  
BRANCH   3   4
HETATM    4  C   UNL     1     -11.611  12.557  63.330  1.00  0.00    -0.547 C  
BRANCH   4   5
HETATM    5  C   UNL     1     -10.264  11.850  63.477  1.00  0.00    -0.485 C  
BRANCH   5   6
HETATM    6  C   UNL     1     -10.365  10.657  64.426  1.00  0.00    -0.347 C  
BRANCH   6   7
HETATM    7  C   UNL     1      -9.220  10.671  65.438  1.00  0.00    -0.226 C  
BRANCH   7   8
HETATM    8  C   UNL     1      -8.993  12.075  65.991  1.00  0.00    -0.021 C  
BRANCH   8   9
HETATM    9  C   UNL     1      -9.833  12.311  67.246  1.00  0.00    -0.208 C  
BRANCH   9  10
HETATM   10  C   UNL     1      -9.683  11.149  68.222  1.00  0.00    -0.190 C  
BRANCH  10  11
HETATM   11  C   UNL     1     -11.038  10.570  68.626  1.00  0.00    -0.319 C  
BRANCH  11  12
HETATM   12  C   UNL     1     -10.843   9.435  69.627  1.00  0.00    -0.245 C  
BRANCH  12  13
HETATM   13  C   UNL     1      -9.412   9.361  70.155  1.00  0.00    -0.276 C  
BRANCH  13  14
HETATM   14  C   UNL     1      -8.750   8.083  69.696  1.00  0.00    -0.133 C  
HETATM   15  O   UNL     1      -7.542   7.892  69.659  1.00  0.00    -0.093 OA 
BRANCH  14  16
HETATM   16  O   UNL     1      -9.696   7.174  69.327  1.00  0.00    -0.158 OA 
BRANCH  16  17
HETATM   17  C   UNL     1      -9.405   6.445  68.119  1.00  0.00    -0.108 C  
HETATM   18  C   UNL     1      -9.237   4.964  68.441  1.00  0.00    -0.157 C  
HETATM   19  C   UNL     1     -10.569   6.662  67.162  1.00  0.00    -0.401 C  
ENDBRANCH  16  17
ENDBRANCH  14  16
ENDBRANCH  13  14
ENDBRANCH  12  13
ENDBRANCH  11  12
ENDBRANCH  10  11
ENDBRANCH   9  10
ENDBRANCH   8   9
ENDBRANCH   7   8
ENDBRANCH   6   7
ENDBRANCH   5   6
ENDBRANCH   4   5
ENDBRANCH   3   4
ENDBRANCH   2   3
TORSDOF 14
ENDMDL
MODEL      263
REMARK 921   NORMALIZED FREE ENERGY PREDICTED BY IDOCK:   -3.08 KCAL/MOL
REMARK 922        TOTAL FREE ENERGY PREDICTED BY IDOCK:   -7.17 KCAL/MOL
REMARK 923 INTER-LIGAND FREE ENERGY PREDICTED BY IDOCK:   -5.66 KCAL/MOL
REMARK 924 INTRA-LIGAND FREE ENERGY PREDICTED BY IDOCK:   -1.51 KCAL/MOL
REMARK 927      BINDING AFFINITY PREDICTED BY RF-SCORE:    0.00 PKD
ROOT
HETATM    1  C   UNL     1      -8.609   7.862  69.596  1.00  0.00    -0.133 C  
HETATM    2  C   UNL     1      -7.578   8.632  70.404  1.00  0.00    -0.075 C  
ENDROOT
BRANCH   2   3
HETATM    3  C   UNL     1      -7.810   8.459  71.904  1.00  0.00    -0.165 C  
BRANCH   3   4
HETATM    4  C   UNL     1      -8.659   7.223  72.194  1.00  0.00    -0.126 C  
BRANCH   4   5
HETATM    5  C   UNL     1      -9.364   7.350  73.544  1.00  0.00    -0.287 C  
BRANCH   5   6
HETATM    6  C   UNL     1     -10.874   7.176  73.399  1.00  0.00    -0.360 C  
BRANCH   6   7
HETATM    7  C   UNL     1     -11.233   6.708  71.990  1.00  0.00    -0.301 C  
BRANCH   7   8
HETATM    8  C   UNL     1     -12.002   7.786  71.231  1.00  0.00    -0.324 C  
BRANCH   8   9
HETATM    9  C   UNL     1     -12.507   8.870  72.182  1.00  0.00    -0.459 C  
BRANCH   9  10
HETATM   10  C   UNL     1     -12.568  10.221  71.476  1.00  0.00    -0.544 C  
BRANCH  10  11
HETATM   11  C   UNL     1     -11.519  10.332  70.371  1.00  0.00    -0.415 C  
BRANCH  11  12
HETATM   12  C   UNL     1     -11.993  11.305  69.297  1.00  0.00    -0.411 C  
BRANCH  12  13
HETATM   13  C   UNL     1     -10.875  12.217  68.797  1.00  0.00    -0.265 C  
BRANCH  13  14
HETATM   14  C   UNL     1     -11.321  13.659  68.828  1.00  0.00    -0.289 C  
HETATM   15  O   UNL     1     -11.438  14.337  69.840  1.00  0.00    -0.261 OA 
BRANCH  14  16
HETATM   16  O   UNL     1     -11.577  14.095  67.562  1.00  0.00    -0.326 OA 
BRANCH  16  17
HETATM   17  C   UNL     1     -10.495  14.806  66.930  1.00  0.00    -0.277 C  
HETATM   18  C   UNL     1     -10.455  14.467  65.444  1.00  0.00    -0.391 C  
HETATM   19  C   UNL     1     -10.742  16.294  67.139  1.00  0.00    -0.247 C  
ENDBRANCH  16  17
ENDBRANCH  14  16
ENDBRANCH  13  14
ENDBRANCH  12  13
ENDBRANCH  11  12
ENDBRANCH  10  11
ENDBRANCH   9  10
ENDBRANCH   8   9
ENDBRANCH   7   8
ENDBRANCH   6   7
ENDBRANCH   5   6
ENDBRANCH   4   5
ENDBRANCH   3   4
ENDBRANCH   2   3
TORSDOF 14
ENDMDL
MODEL      264
REMARK 921   NORMALIZED FREE ENERGY PREDICTED BY IDOCK:   -3.06 KCAL/MOL
REMARK 922        TOTAL FREE ENERGY PREDICTED BY IDOCK:   -7.13 KCAL/MOL
REMARK 923 INTER-LIGAND FREE ENERGY PREDICTED BY IDOCK:   -5.97 KCAL/MOL
REMARK 924 INTRA-LIGAND FREE ENERGY PREDICTED BY IDOCK:   -1.16 KCAL/MOL
REMARK 927      BINDING AFFINITY PREDICTED BY RF-SCORE:    0.00 PKD
ROOT
HETATM    1  C   UNL     1     -10.121  10.913  64.224  1.00  0.00    -0.413 C  
HETATM    2  C   UNL     1     -10.306  12.128  65.120  1.00  0.00    -0.311 C  
ENDROOT
BRANCH   2   3
HETATM    3  C   UNL     1     -11.712  12.168  65.712  1.00  0.00    -0.391 C  
BRANCH   3   4
HETATM    4  C   UNL     1     -11.684  12.592  67.180  1.00  0.00    -0.438 C  
BRANCH   4   5
HETATM    5  C   UNL     1     -11.453  11.388  68.091  1.00  0.00    -0.375 C  
BRANCH   5   6
HETATM    6  C   UNL     1     -11.416  11.803  69.560  1.00  0.00    -0.363 C  
BRANCH   6   7
HETATM    7  C   UNL     1     -11.495  10.580  70.472  1.00  0.00    -0.433 C  
BRANCH   7   8
HETATM    8  C   UNL     1     -12.887  10.438  71.082  1.00  0.00    -0.511 C  
BRANCH   8   9
HETATM    9  C   UNL     1     -12.895   9.379  72.184  1.00  0.00    -0.480 C  
BRANCH   9  10
HETATM   10  C   UNL     1     -13.438   8.055  71.656  1.00  0.00    -0.375 C  
BRANCH  10  11
HETATM   11  C   UNL     1     -12.352   6.983  71.587  1.00  0.00    -0.407 C  
BRANCH  11  12
HETATM   12  C   UNL     1     -11.972   6.718  70.134  1.00  0.00    -0.244 C  
BRANCH  12  13
HETATM   13  C   UNL     1     -10.474   6.871  69.882  1.00  0.00    -0.239 C  
BRANCH  13  14
HETATM   14  C   UNL     1      -9.953   5.693  69.093  1.00  0.00    -0.183 C  
HETATM   15  O   UNL     1     -10.272   5.421  67.944  1.00  0.00    -0.170 OA 
BRANCH  14  16
HETATM   16  O   UNL     1      -9.077   4.976  69.851  1.00  0.00    -0.112 OA 
BRANCH  16  17
HETATM   17  C   UNL     1      -9.532   3.664  70.236  1.00  0.00    -0.187 C  
HETATM   18  C   UNL     1      -8.432   2.640  69.975  1.00  0.00    -0.091 C  
HETATM   19  C   UNL     1      -9.882   3.717  71.717  1.00  0.00    -0.244 C  
ENDBRANCH  16  17
ENDBRANCH  14  16
ENDBRANCH  13  14
ENDBRANCH  12  13
ENDBRANCH  11  12
ENDBRANCH  10  11
ENDBRANCH   9  10
ENDBRANCH   8   9
ENDBRANCH   7   8
ENDBRANCH   6   7
ENDBRANCH   5   6
ENDBRANCH   4   5
ENDBRANCH   3   4
ENDBRANCH   2   3
TORSDOF 14
ENDMDL
MODEL      265
REMARK 921   NORMALIZED FREE ENERGY PREDICTED BY IDOCK:   -3.05 KCAL/MOL
REMARK 922        TOTAL FREE ENERGY PREDICTED BY IDOCK:   -7.11 KCAL/MOL
REMARK 923 INTER-LIGAND FREE ENERGY PREDICTED BY IDOCK:   -5.20 KCAL/MOL
REMARK 924 INTRA-LIGAND FREE ENERGY PREDICTED BY IDOCK:   -1.91 KCAL/MOL
REMARK 927      BINDING AFFINITY PREDICTED BY RF-SCORE:    0.00 PKD
ROOT
HETATM    1  C   UNL     1     -10.017   5.075  67.546  1.00  0.00    -0.209 C  
HETATM    2  C   UNL     1     -10.930   6.265  67.300  1.00  0.00    -0.455 C  
ENDROOT
BRANCH   2   3
HETATM    3  C   UNL     1     -10.229   7.579  67.638  1.00  0.00    -0.275 C  
BRANCH   3   4
HETATM    4  C   UNL     1      -8.940   7.334  68.421  1.00  0.00    -0.126 C  
BRANCH   4   5
HETATM    5  C   UNL     1      -8.249   8.654  68.761  1.00  0.00    -0.121 C  
BRANCH   5   6
HETATM    6  C   UNL     1      -8.433   9.678  67.643  1.00  0.00    -0.125 C  
BRANCH   6   7
HETATM    7  C   UNL     1      -9.071  10.958  68.181  1.00  0.00    -0.155 C  
BRANCH   7   8
HETATM    8  C   UNL     1     -10.227  11.411  67.294  1.00  0.00    -0.229 C  
BRANCH   8   9
HETATM    9  C   UNL     1     -11.541  11.426  68.073  1.00  0.00    -0.357 C  
BRANCH   9  10
HETATM   10  C   UNL     1     -11.283  11.282  69.569  1.00  0.00    -0.337 C  
BRANCH  10  11
HETATM   11  C   UNL     1     -12.523  10.790  70.314  1.00  0.00    -0.395 C  
BRANCH  11  12
HETATM   12  C   UNL     1     -12.119   9.812  71.413  1.00  0.00    -0.486 C  
BRANCH  12  13
HETATM   13  C   UNL     1     -11.508   8.528  70.857  1.00  0.00    -0.302 C  
BRANCH  13  14
HETATM   14  C   UNL     1     -12.260   7.324  71.373  1.00  0.00    -0.349 C  
HETATM   15  O   UNL     1     -13.401   7.344  71.814  1.00  0.00    -0.349 OA 
BRANCH  14  16
HETATM   16  O   UNL     1     -11.479   6.211  71.278  1.00  0.00    -0.294 OA 
BRANCH  16  17
HETATM   17  C   UNL     1     -10.785   5.846  72.488  1.00  0.00    -0.234 C  
HETATM   18  C   UNL     1     -11.331   4.523  73.013  1.00  0.00    -0.246 C  
HETATM   19  C   UNL     1      -9.306   5.726  72.148  1.00  0.00    -0.157 C  
ENDBRANCH  16  17
ENDBRANCH  14  16
ENDBRANCH  13  14
ENDBRANCH  12  13
ENDBRANCH  11  12
ENDBRANCH  10  11
ENDBRANCH   9  10
ENDBRANCH   8   9
ENDBRANCH   7   8
ENDBRANCH   6   7
ENDBRANCH   5   6
ENDBRANCH   4   5
ENDBRANCH   3   4
ENDBRANCH   2   3
TORSDOF 14
ENDMDL
MODEL      266
REMARK 921   NORMALIZED FREE ENERGY PREDICTED BY IDOCK:   -3.05 KCAL/MOL
REMARK 922        TOTAL FREE ENERGY PREDICTED BY IDOCK:   -7.11 KCAL/MOL
REMARK 923 INTER-LIGAND FREE ENERGY PREDICTED BY IDOCK:   -6.29 KCAL/MOL
REMARK 924 INTRA-LIGAND FREE ENERGY PREDICTED BY IDOCK:   -0.81 KCAL/MOL
REMARK 927      BINDING AFFINITY PREDICTED BY RF-SCORE:    0.00 PKD
ROOT
HETATM    1  C   UNL     1     -10.164  20.215  66.686  1.00  0.00    -0.556 C  
HETATM    2  C   UNL     1     -10.488  18.866  66.067  1.00  0.00    -0.507 C  
ENDROOT
BRANCH   2   3
HETATM    3  C   UNL     1      -9.616  17.762  66.661  1.00  0.00    -0.311 C  
BRANCH   3   4
HETATM    4  C   UNL     1      -9.714  16.476  65.840  1.00  0.00    -0.303 C  
BRANCH   4   5
HETATM    5  C   UNL     1      -9.776  15.251  66.751  1.00  0.00    -0.249 C  
BRANCH   5   6
HETATM    6  C   UNL     1     -11.108  15.181  67.494  1.00  0.00    -0.319 C  
BRANCH   6   7
HETATM    7  C   UNL     1     -11.958  14.022  66.976  1.00  0.00    -0.472 C  
BRANCH   7   8
HETATM    8  C   UNL     1     -11.815  12.793  67.869  1.00  0.00    -0.392 C  
BRANCH   8   9
HETATM    9  C   UNL     1     -11.264  11.605  67.082  1.00  0.00    -0.371 C  
BRANCH   9  10
HETATM   10  C   UNL     1     -10.852  10.478  68.024  1.00  0.00    -0.312 C  
BRANCH  10  11
HETATM   11  C   UNL     1     -11.644  10.512  69.330  1.00  0.00    -0.318 C  
BRANCH  11  12
HETATM   12  C   UNL     1     -10.805   9.932  70.464  1.00  0.00    -0.391 C  
BRANCH  12  13
HETATM   13  C   UNL     1     -11.360   8.608  70.984  1.00  0.00    -0.322 C  
BRANCH  13  14
HETATM   14  C   UNL     1     -10.539   7.454  70.459  1.00  0.00    -0.224 C  
HETATM   15  O   UNL     1      -9.552   7.561  69.745  1.00  0.00    -0.163 OA 
BRANCH  14  16
HETATM   16  O   UNL     1     -11.062   6.273  70.895  1.00  0.00    -0.274 OA 
BRANCH  16  17
HETATM   17  C   UNL     1     -10.211   5.515  71.776  1.00  0.00    -0.202 C  
HETATM   18  C   UNL     1     -10.937   5.249  73.090  1.00  0.00    -0.362 C  
HETATM   19  C   UNL     1      -9.870   4.209  71.071  1.00  0.00    -0.247 C  
ENDBRANCH  16  17
ENDBRANCH  14  16
ENDBRANCH  13  14
ENDBRANCH  12  13
ENDBRANCH  11  12
ENDBRANCH  10  11
ENDBRANCH   9  10
ENDBRANCH   8   9
ENDBRANCH   7   8
ENDBRANCH   6   7
ENDBRANCH   5   6
ENDBRANCH   4   5
ENDBRANCH   3   4
ENDBRANCH   2   3
TORSDOF 14
ENDMDL
MODEL      267
REMARK 921   NORMALIZED FREE ENERGY PREDICTED BY IDOCK:   -3.04 KCAL/MOL
REMARK 922        TOTAL FREE ENERGY PREDICTED BY IDOCK:   -7.10 KCAL/MOL
REMARK 923 INTER-LIGAND FREE ENERGY PREDICTED BY IDOCK:   -5.60 KCAL/MOL
REMARK 924 INTRA-LIGAND FREE ENERGY PREDICTED BY IDOCK:   -1.50 KCAL/MOL
REMARK 927      BINDING AFFINITY PREDICTED BY RF-SCORE:    0.00 PKD
ROOT
HETATM    1  C   UNL     1     -10.630  13.946  68.286  1.00  0.00    -0.263 C  
HETATM    2  C   UNL     1     -11.882  13.116  68.518  1.00  0.00    -0.377 C  
ENDROOT
BRANCH   2   3
HETATM    3  C   UNL     1     -11.737  12.230  69.753  1.00  0.00    -0.368 C  
BRANCH   3   4
HETATM    4  C   UNL     1     -12.412  12.860  70.970  1.00  0.00    -0.374 C  
BRANCH   4   5
HETATM    5  C   UNL     1     -12.985  11.785  71.893  1.00  0.00    -0.435 C  
BRANCH   5   6
HETATM    6  C   UNL     1     -13.127  10.450  71.166  1.00  0.00    -0.474 C  
BRANCH   6   7
HETATM    7  C   UNL     1     -13.287   9.304  72.164  1.00  0.00    -0.537 C  
BRANCH   7   8
HETATM    8  C   UNL     1     -12.486   8.080  71.728  1.00  0.00    -0.355 C  
BRANCH   8   9
HETATM    9  C   UNL     1     -11.289   7.853  72.650  1.00  0.00    -0.468 C  
BRANCH   9  10
HETATM   10  C   UNL     1     -10.110   7.276  71.873  1.00  0.00    -0.196 C  
BRANCH  10  11
HETATM   11  C   UNL     1     -10.227   5.762  71.705  1.00  0.00    -0.245 C  
BRANCH  11  12
HETATM   12  C   UNL     1     -10.493   5.418  70.244  1.00  0.00    -0.355 C  
BRANCH  12  13
HETATM   13  C   UNL     1      -9.224   5.014  69.497  1.00  0.00    -0.167 C  
BRANCH  13  14
HETATM   14  C   UNL     1      -8.698   6.177  68.690  1.00  0.00    -0.112 C  
HETATM   15  O   UNL     1      -7.521   6.500  68.608  1.00  0.00    -0.085 OA 
BRANCH  14  16
HETATM   16  O   UNL     1      -9.728   6.816  68.067  1.00  0.00    -0.125 OA 
BRANCH  16  17
HETATM   17  C   UNL     1      -9.501   8.210  67.784  1.00  0.00    -0.142 C  
HETATM   18  C   UNL     1      -9.649   8.461  66.287  1.00  0.00    -0.286 C  
HETATM   19  C   UNL     1     -10.529   9.011  68.571  1.00  0.00    -0.232 C  
ENDBRANCH  16  17
ENDBRANCH  14  16
ENDBRANCH  13  14
ENDBRANCH  12  13
ENDBRANCH  11  12
ENDBRANCH  10  11
ENDBRANCH   9  10
ENDBRANCH   8   9
ENDBRANCH   7   8
ENDBRANCH   6   7
ENDBRANCH   5   6
ENDBRANCH   4   5
ENDBRANCH   3   4
ENDBRANCH   2   3
TORSDOF 14
ENDMDL
MODEL      268
REMARK 921   NORMALIZED FREE ENERGY PREDICTED BY IDOCK:   -3.04 KCAL/MOL
REMARK 922        TOTAL FREE ENERGY PREDICTED BY IDOCK:   -7.09 KCAL/MOL
REMARK 923 INTER-LIGAND FREE ENERGY PREDICTED BY IDOCK:   -5.52 KCAL/MOL
REMARK 924 INTRA-LIGAND FREE ENERGY PREDICTED BY IDOCK:   -1.57 KCAL/MOL
REMARK 927      BINDING AFFINITY PREDICTED BY RF-SCORE:    0.00 PKD
ROOT
HETATM    1  C   UNL     1     -13.517  15.094  71.585  1.00  0.00    -0.535 C  
HETATM    2  C   UNL     1     -12.391  14.634  70.674  1.00  0.00    -0.398 C  
ENDROOT
BRANCH   2   3
HETATM    3  C   UNL     1     -12.093  15.672  69.595  1.00  0.00    -0.329 C  
BRANCH   3   4
HETATM    4  C   UNL     1     -11.704  15.005  68.276  1.00  0.00    -0.338 C  
BRANCH   4   5
HETATM    5  C   UNL     1     -10.771  15.903  67.466  1.00  0.00    -0.318 C  
BRANCH   5   6
HETATM    6  C   UNL     1     -10.154  16.993  68.339  1.00  0.00    -0.302 C  
BRANCH   6   7
HETATM    7  C   UNL     1      -8.642  17.061  68.135  1.00  0.00    -0.228 C  
BRANCH   7   8
HETATM    8  C   UNL     1      -7.939  15.906  68.844  1.00  0.00    -0.204 C  
BRANCH   8   9
HETATM    9  C   UNL     1      -7.326  14.936  67.834  1.00  0.00    -0.159 C  
BRANCH   9  10
HETATM   10  C   UNL     1      -7.106  13.566  68.467  1.00  0.00    -0.108 C  
BRANCH  10  11
HETATM   11  C   UNL     1      -7.736  12.449  67.636  1.00  0.00    -0.151 C  
BRANCH  11  12
HETATM   12  C   UNL     1      -9.257  12.539  67.708  1.00  0.00    -0.198 C  
BRANCH  12  13
HETATM   13  C   UNL     1      -9.947  11.471  66.863  1.00  0.00    -0.231 C  
BRANCH  13  14
HETATM   14  C   UNL     1      -9.958  11.880  65.409  1.00  0.00    -0.252 C  
HETATM   15  O   UNL     1      -9.535  11.199  64.484  1.00  0.00    -0.232 OA 
BRANCH  14  16
HETATM   16  O   UNL     1     -10.506  13.121  65.278  1.00  0.00    -0.291 OA 
BRANCH  16  17
HETATM   17  C   UNL     1     -11.447  13.262  64.196  1.00  0.00    -0.396 C  
HETATM   18  C   UNL     1     -12.580  12.255  64.365  1.00  0.00    -0.447 C  
HETATM   19  C   UNL     1     -11.980  14.688  64.237  1.00  0.00    -0.406 C  
ENDBRANCH  16  17
ENDBRANCH  14  16
ENDBRANCH  13  14
ENDBRANCH  12  13
ENDBRANCH  11  12
ENDBRANCH  10  11
ENDBRANCH   9  10
ENDBRANCH   8   9
ENDBRANCH   7   8
ENDBRANCH   6   7
ENDBRANCH   5   6
ENDBRANCH   4   5
ENDBRANCH   3   4
ENDBRANCH   2   3
TORSDOF 14
ENDMDL
MODEL      269
REMARK 921   NORMALIZED FREE ENERGY PREDICTED BY IDOCK:   -3.03 KCAL/MOL
REMARK 922        TOTAL FREE ENERGY PREDICTED BY IDOCK:   -7.08 KCAL/MOL
REMARK 923 INTER-LIGAND FREE ENERGY PREDICTED BY IDOCK:   -5.66 KCAL/MOL
REMARK 924 INTRA-LIGAND FREE ENERGY PREDICTED BY IDOCK:   -1.42 KCAL/MOL
REMARK 927      BINDING AFFINITY PREDICTED BY RF-SCORE:    0.00 PKD
ROOT
HETATM    1  C   UNL     1      -7.858   9.450  65.377  1.00  0.00    -0.104 C  
HETATM    2  C   UNL     1      -8.570  10.793  65.369  1.00  0.00    -0.162 C  
ENDROOT
BRANCH   2   3
HETATM    3  C   UNL     1      -9.070  11.162  66.764  1.00  0.00    -0.174 C  
BRANCH   3   4
HETATM    4  C   UNL     1     -10.597  11.225  66.807  1.00  0.00    -0.305 C  
BRANCH   4   5
HETATM    5  C   UNL     1     -11.160  11.691  65.465  1.00  0.00    -0.297 C  
BRANCH   5   6
HETATM    6  C   UNL     1     -12.209  12.785  65.655  1.00  0.00    -0.503 C  
BRANCH   6   7
HETATM    7  C   UNL     1     -12.146  13.357  67.070  1.00  0.00    -0.390 C  
BRANCH   7   8
HETATM    8  C   UNL     1     -11.376  14.675  67.096  1.00  0.00    -0.365 C  
BRANCH   8   9
HETATM    9  C   UNL     1     -11.081  15.165  65.679  1.00  0.00    -0.334 C  
BRANCH   9  10
HETATM   10  C   UNL     1      -9.583  15.370  65.481  1.00  0.00    -0.253 C  
BRANCH  10  11
HETATM   11  C   UNL     1      -8.799  15.113  66.767  1.00  0.00    -0.302 C  
BRANCH  11  12
HETATM   12  C   UNL     1      -7.729  16.184  66.949  1.00  0.00    -0.284 C  
BRANCH  12  13
HETATM   13  C   UNL     1      -8.060  17.475  66.204  1.00  0.00    -0.244 C  
BRANCH  13  14
HETATM   14  C   UNL     1      -7.988  18.655  67.144  1.00  0.00    -0.242 C  
HETATM   15  O   UNL     1      -7.568  19.765  66.848  1.00  0.00    -0.243 OA 
BRANCH  14  16
HETATM   16  O   UNL     1      -8.459  18.301  68.373  1.00  0.00    -0.291 OA 
BRANCH  16  17
HETATM   17  C   UNL     1      -9.831  18.659  68.630  1.00  0.00    -0.385 C  
HETATM   18  C   UNL     1     -10.485  19.144  67.340  1.00  0.00    -0.552 C  
HETATM   19  C   UNL     1     -10.536  17.420  69.162  1.00  0.00    -0.231 C  
ENDBRANCH  16  17
ENDBRANCH  14  16
ENDBRANCH  13  14
ENDBRANCH  12  13
ENDBRANCH  11  12
ENDBRANCH  10  11
ENDBRANCH   9  10
ENDBRANCH   8   9
ENDBRANCH   7   8
ENDBRANCH   6   7
ENDBRANCH   5   6
ENDBRANCH   4   5
ENDBRANCH   3   4
ENDBRANCH   2   3
TORSDOF 14
ENDMDL
MODEL      270
REMARK 921   NORMALIZED FREE ENERGY PREDICTED BY IDOCK:   -3.02 KCAL/MOL
REMARK 922        TOTAL FREE ENERGY PREDICTED BY IDOCK:   -7.07 KCAL/MOL
REMARK 923 INTER-LIGAND FREE ENERGY PREDICTED BY IDOCK:   -5.95 KCAL/MOL
REMARK 924 INTRA-LIGAND FREE ENERGY PREDICTED BY IDOCK:   -1.12 KCAL/MOL
REMARK 927      BINDING AFFINITY PREDICTED BY RF-SCORE:    0.00 PKD
ROOT
HETATM    1  C   UNL     1      -7.530  19.388  68.196  1.00  0.00    -0.328 C  
HETATM    2  C   UNL     1      -7.613  17.947  67.722  1.00  0.00    -0.214 C  
ENDROOT
BRANCH   2   3
HETATM    3  C   UNL     1      -8.924  17.680  66.987  1.00  0.00    -0.258 C  
BRANCH   3   4
HETATM    4  C   UNL     1      -9.493  16.309  67.348  1.00  0.00    -0.227 C  
BRANCH   4   5
HETATM    5  C   UNL     1     -10.878  16.114  66.732  1.00  0.00    -0.162 C  
BRANCH   5   6
HETATM    6  C   UNL     1     -10.782  15.789  65.243  1.00  0.00    -0.446 C  
BRANCH   6   7
HETATM    7  C   UNL     1     -10.145  14.417  65.028  1.00  0.00    -0.322 C  
BRANCH   7   8
HETATM    8  C   UNL     1     -11.127  13.452  64.368  1.00  0.00    -0.408 C  
BRANCH   8   9
HETATM    9  C   UNL     1     -12.197  12.998  65.359  1.00  0.00    -0.520 C  
BRANCH   9  10
HETATM   10  C   UNL     1     -11.570  12.225  66.515  1.00  0.00    -0.440 C  
BRANCH  10  11
HETATM   11  C   UNL     1     -11.980  12.799  67.870  1.00  0.00    -0.320 C  
BRANCH  11  12
HETATM   12  C   UNL     1     -11.409  11.941  68.994  1.00  0.00    -0.337 C  
BRANCH  12  13
HETATM   13  C   UNL     1     -11.284  10.471  68.602  1.00  0.00    -0.328 C  
BRANCH  13  14
HETATM   14  C   UNL     1     -10.816   9.652  69.782  1.00  0.00    -0.250 C  
HETATM   15  O   UNL     1     -10.896   9.997  70.953  1.00  0.00    -0.319 OA 
BRANCH  14  16
HETATM   16  O   UNL     1     -10.290   8.471  69.351  1.00  0.00    -0.208 OA 
BRANCH  16  17
HETATM   17  C   UNL     1     -10.338   7.394  70.307  1.00  0.00    -0.212 C  
HETATM   18  C   UNL     1     -11.352   6.350  69.854  1.00  0.00    -0.500 C  
HETATM   19  C   UNL     1      -8.941   6.793  70.390  1.00  0.00    -0.152 C  
ENDBRANCH  16  17
ENDBRANCH  14  16
ENDBRANCH  13  14
ENDBRANCH  12  13
ENDBRANCH  11  12
ENDBRANCH  10  11
ENDBRANCH   9  10
ENDBRANCH   8   9
ENDBRANCH   7   8
ENDBRANCH   6   7
ENDBRANCH   5   6
ENDBRANCH   4   5
ENDBRANCH   3   4
ENDBRANCH   2   3
TORSDOF 14
ENDMDL
MODEL      271
REMARK 921   NORMALIZED FREE ENERGY PREDICTED BY IDOCK:   -3.02 KCAL/MOL
REMARK 922        TOTAL FREE ENERGY PREDICTED BY IDOCK:   -7.05 KCAL/MOL
REMARK 923 INTER-LIGAND FREE ENERGY PREDICTED BY IDOCK:   -5.82 KCAL/MOL
REMARK 924 INTRA-LIGAND FREE ENERGY PREDICTED BY IDOCK:   -1.23 KCAL/MOL
REMARK 927      BINDING AFFINITY PREDICTED BY RF-SCORE:    0.00 PKD
ROOT
HETATM    1  C   UNL     1      -9.336   9.792  65.194  1.00  0.00    -0.322 C  
HETATM    2  C   UNL     1     -10.390   9.718  66.286  1.00  0.00    -0.235 C  
ENDROOT
BRANCH   2   3
HETATM    3  C   UNL     1     -10.234  10.863  67.284  1.00  0.00    -0.242 C  
BRANCH   3   4
HETATM    4  C   UNL     1     -11.576  11.535  67.571  1.00  0.00    -0.322 C  
BRANCH   4   5
HETATM    5  C   UNL     1     -11.832  12.680  66.593  1.00  0.00    -0.449 C  
BRANCH   5   6
HETATM    6  C   UNL     1     -10.545  13.442  66.282  1.00  0.00    -0.292 C  
BRANCH   6   7
HETATM    7  C   UNL     1     -10.312  14.553  67.303  1.00  0.00    -0.260 C  
BRANCH   7   8
HETATM    8  C   UNL     1     -10.318  15.925  66.634  1.00  0.00    -0.302 C  
BRANCH   8   9
HETATM    9  C   UNL     1      -8.914  16.314  66.173  1.00  0.00    -0.374 C  
BRANCH   9  10
HETATM   10  C   UNL     1      -7.855  15.588  66.996  1.00  0.00    -0.260 C  
BRANCH  10  11
HETATM   11  C   UNL     1      -6.631  16.468  67.249  1.00  0.00    -0.215 C  
BRANCH  11  12
HETATM   12  C   UNL     1      -6.817  17.260  68.539  1.00  0.00    -0.197 C  
BRANCH  12  13
HETATM   13  C   UNL     1      -6.105  18.610  68.506  1.00  0.00    -0.214 C  
BRANCH  13  14
HETATM   14  C   UNL     1      -7.067  19.700  68.097  1.00  0.00    -0.292 C  
HETATM   15  O   UNL     1      -6.772  20.878  67.947  1.00  0.00    -0.322 OA 
BRANCH  14  16
HETATM   16  O   UNL     1      -8.314  19.180  67.922  1.00  0.00    -0.283 OA 
BRANCH  16  17
HETATM   17  C   UNL     1      -9.324  20.130  67.529  1.00  0.00    -0.382 C  
HETATM   18  C   UNL     1      -9.703  19.903  66.069  1.00  0.00    -0.469 C  
HETATM   19  C   UNL     1     -10.526  19.922  68.439  1.00  0.00    -0.395 C  
ENDBRANCH  16  17
ENDBRANCH  14  16
ENDBRANCH  13  14
ENDBRANCH  12  13
ENDBRANCH  11  12
ENDBRANCH  10  11
ENDBRANCH   9  10
ENDBRANCH   8   9
ENDBRANCH   7   8
ENDBRANCH   6   7
ENDBRANCH   5   6
ENDBRANCH   4   5
ENDBRANCH   3   4
ENDBRANCH   2   3
TORSDOF 14
ENDMDL
MODEL      272
REMARK 921   NORMALIZED FREE ENERGY PREDICTED BY IDOCK:   -3.01 KCAL/MOL
REMARK 922        TOTAL FREE ENERGY PREDICTED BY IDOCK:   -7.05 KCAL/MOL
REMARK 923 INTER-LIGAND FREE ENERGY PREDICTED BY IDOCK:   -5.12 KCAL/MOL
REMARK 924 INTRA-LIGAND FREE ENERGY PREDICTED BY IDOCK:   -1.93 KCAL/MOL
REMARK 927      BINDING AFFINITY PREDICTED BY RF-SCORE:    0.00 PKD
ROOT
HETATM    1  C   UNL     1      -8.665   9.297  64.905  1.00  0.00    -0.224 C  
HETATM    2  C   UNL     1      -9.927   9.847  65.551  1.00  0.00    -0.363 C  
ENDROOT
BRANCH   2   3
HETATM    3  C   UNL     1     -10.140   9.252  66.941  1.00  0.00    -0.324 C  
BRANCH   3   4
HETATM    4  C   UNL     1      -8.815   9.094  67.686  1.00  0.00    -0.123 C  
BRANCH   4   5
HETATM    5  C   UNL     1      -8.650  10.184  68.743  1.00  0.00    -0.133 C  
BRANCH   5   6
HETATM    6  C   UNL     1      -7.398  11.020  68.488  1.00  0.00    -0.101 C  
BRANCH   6   7
HETATM    7  C   UNL     1      -7.699  12.169  67.527  1.00  0.00    -0.159 C  
BRANCH   7   8
HETATM    8  C   UNL     1      -8.885  12.997  68.016  1.00  0.00    -0.191 C  
BRANCH   8   9
HETATM    9  C   UNL     1      -9.215  14.116  67.029  1.00  0.00    -0.249 C  
BRANCH   9  10
HETATM   10  C   UNL     1      -9.844  15.304  67.750  1.00  0.00    -0.220 C  
BRANCH  10  11
HETATM   11  C   UNL     1      -9.767  15.151  69.268  1.00  0.00    -0.225 C  
BRANCH  11  12
HETATM   12  C   UNL     1     -10.903  15.925  69.928  1.00  0.00    -0.333 C  
BRANCH  12  13
HETATM   13  C   UNL     1     -11.418  15.244  71.194  1.00  0.00    -0.414 C  
BRANCH  13  14
HETATM   14  C   UNL     1     -12.897  14.962  71.073  1.00  0.00    -0.362 C  
HETATM   15  O   UNL     1     -13.787  15.682  71.505  1.00  0.00    -0.491 OA 
BRANCH  14  16
HETATM   16  O   UNL     1     -13.095  13.787  70.413  1.00  0.00    -0.096 OA 
BRANCH  16  17
HETATM   17  C   UNL     1     -12.296  12.682  70.879  1.00  0.00    -0.260 C  
HETATM   18  C   UNL     1     -13.086  11.869  71.899  1.00  0.00    -0.474 C  
HETATM   19  C   UNL     1     -11.940  11.831  69.667  1.00  0.00    -0.378 C  
ENDBRANCH  16  17
ENDBRANCH  14  16
ENDBRANCH  13  14
ENDBRANCH  12  13
ENDBRANCH  11  12
ENDBRANCH  10  11
ENDBRANCH   9  10
ENDBRANCH   8   9
ENDBRANCH   7   8
ENDBRANCH   6   7
ENDBRANCH   5   6
ENDBRANCH   4   5
ENDBRANCH   3   4
ENDBRANCH   2   3
TORSDOF 14
ENDMDL
MODEL      273
REMARK 921   NORMALIZED FREE ENERGY PREDICTED BY IDOCK:   -3.01 KCAL/MOL
REMARK 922        TOTAL FREE ENERGY PREDICTED BY IDOCK:   -7.04 KCAL/MOL
REMARK 923 INTER-LIGAND FREE ENERGY PREDICTED BY IDOCK:   -5.65 KCAL/MOL
REMARK 924 INTRA-LIGAND FREE ENERGY PREDICTED BY IDOCK:   -1.39 KCAL/MOL
REMARK 927      BINDING AFFINITY PREDICTED BY RF-SCORE:    0.00 PKD
ROOT
HETATM    1  C   UNL     1     -13.703  13.947  72.393  1.00  0.00    -0.678 C  
HETATM    2  C   UNL     1     -12.867  14.952  73.169  1.00  0.00    -0.619 C  
ENDROOT
BRANCH   2   3
HETATM    3  C   UNL     1     -12.174  15.936  72.229  1.00  0.00    -0.585 C  
BRANCH   3   4
HETATM    4  C   UNL     1     -12.435  15.583  70.766  1.00  0.00    -0.491 C  
BRANCH   4   5
HETATM    5  C   UNL     1     -11.175  15.022  70.108  1.00  0.00    -0.291 C  
BRANCH   5   6
HETATM    6  C   UNL     1     -11.127  15.367  68.621  1.00  0.00    -0.290 C  
BRANCH   6   7
HETATM    7  C   UNL     1     -10.854  14.119  67.784  1.00  0.00    -0.260 C  
BRANCH   7   8
HETATM    8  C   UNL     1     -11.997  13.114  67.905  1.00  0.00    -0.347 C  
BRANCH   8   9
HETATM    9  C   UNL     1     -11.525  11.827  68.579  1.00  0.00    -0.353 C  
BRANCH   9  10
HETATM   10  C   UNL     1     -12.406  11.491  69.778  1.00  0.00    -0.220 C  
BRANCH  10  11
HETATM   11  C   UNL     1     -11.650  10.681  70.829  1.00  0.00    -0.388 C  
BRANCH  11  12
HETATM   12  C   UNL     1     -10.311  10.215  70.266  1.00  0.00    -0.234 C  
BRANCH  12  13
HETATM   13  C   UNL     1      -9.724   9.040  71.044  1.00  0.00    -0.348 C  
BRANCH  13  14
HETATM   14  C   UNL     1      -8.317   8.754  70.579  1.00  0.00    -0.148 C  
HETATM   15  O   UNL     1      -7.667   7.761  70.875  1.00  0.00    -0.084 OA 
BRANCH  14  16
HETATM   16  O   UNL     1      -7.875   9.767  69.781  1.00  0.00    -0.119 OA 
BRANCH  16  17
HETATM   17  C   UNL     1      -7.138   9.349  68.615  1.00  0.00    -0.070 C  
HETATM   18  C   UNL     1      -7.770   9.952  67.365  1.00  0.00    -0.091 C  
HETATM   19  C   UNL     1      -5.704   9.833  68.783  1.00  0.00    -0.035 C  
ENDBRANCH  16  17
ENDBRANCH  14  16
ENDBRANCH  13  14
ENDBRANCH  12  13
ENDBRANCH  11  12
ENDBRANCH  10  11
ENDBRANCH   9  10
ENDBRANCH   8   9
ENDBRANCH   7   8
ENDBRANCH   6   7
ENDBRANCH   5   6
ENDBRANCH   4   5
ENDBRANCH   3   4
ENDBRANCH   2   3
TORSDOF 14
ENDMDL
MODEL      274
REMARK 921   NORMALIZED FREE ENERGY PREDICTED BY IDOCK:   -3.00 KCAL/MOL
REMARK 922        TOTAL FREE ENERGY PREDICTED BY IDOCK:   -7.03 KCAL/MOL
REMARK 923 INTER-LIGAND FREE ENERGY PREDICTED BY IDOCK:   -4.88 KCAL/MOL
REMARK 924 INTRA-LIGAND FREE ENERGY PREDICTED BY IDOCK:   -2.15 KCAL/MOL
REMARK 927      BINDING AFFINITY PREDICTED BY RF-SCORE:    0.00 PKD
ROOT
HETATM    1  C   UNL     1     -10.748  19.314  67.160  1.00  0.00    -0.584 C  
HETATM    2  C   UNL     1     -10.179  18.521  68.325  1.00  0.00    -0.412 C  
ENDROOT
BRANCH   2   3
HETATM    3  C   UNL     1     -10.882  17.174  68.473  1.00  0.00    -0.281 C  
BRANCH   3   4
HETATM    4  C   UNL     1      -9.875  16.026  68.528  1.00  0.00    -0.216 C  
BRANCH   4   5
HETATM    5  C   UNL     1      -9.004  16.005  67.273  1.00  0.00    -0.211 C  
BRANCH   5   6
HETATM    6  C   UNL     1      -8.028  14.830  67.296  1.00  0.00    -0.232 C  
BRANCH   6   7
HETATM    7  C   UNL     1      -7.982  14.190  68.682  1.00  0.00    -0.132 C  
BRANCH   7   8
HETATM    8  C   UNL     1      -7.067  12.969  68.694  1.00  0.00    -0.103 C  
BRANCH   8   9
HETATM    9  C   UNL     1      -6.603  12.619  67.281  1.00  0.00    -0.109 C  
BRANCH   9  10
HETATM   10  C   UNL     1      -7.185  11.282  66.837  1.00  0.00    -0.142 C  
BRANCH  10  11
HETATM   11  C   UNL     1      -7.543  10.395  68.029  1.00  0.00    -0.091 C  
BRANCH  11  12
HETATM   12  C   UNL     1      -9.018  10.013  67.970  1.00  0.00    -0.128 C  
BRANCH  12  13
HETATM   13  C   UNL     1      -9.838  10.670  69.078  1.00  0.00    -0.218 C  
BRANCH  13  14
HETATM   14  C   UNL     1     -11.092  11.287  68.506  1.00  0.00    -0.235 C  
HETATM   15  O   UNL     1     -12.208  10.788  68.560  1.00  0.00    -0.470 OA 
BRANCH  14  16
HETATM   16  O   UNL     1     -10.798  12.480  67.917  1.00  0.00    -0.210 OA 
BRANCH  16  17
HETATM   17  C   UNL     1     -11.411  12.694  66.630  1.00  0.00    -0.351 C  
HETATM   18  C   UNL     1     -12.191  14.005  66.644  1.00  0.00    -0.463 C  
HETATM   19  C   UNL     1     -10.297  12.738  65.594  1.00  0.00    -0.296 C  
ENDBRANCH  16  17
ENDBRANCH  14  16
ENDBRANCH  13  14
ENDBRANCH  12  13
ENDBRANCH  11  12
ENDBRANCH  10  11
ENDBRANCH   9  10
ENDBRANCH   8   9
ENDBRANCH   7   8
ENDBRANCH   6   7
ENDBRANCH   5   6
ENDBRANCH   4   5
ENDBRANCH   3   4
ENDBRANCH   2   3
TORSDOF 14
ENDMDL
MODEL      275
REMARK 921   NORMALIZED FREE ENERGY PREDICTED BY IDOCK:   -3.00 KCAL/MOL
REMARK 922        TOTAL FREE ENERGY PREDICTED BY IDOCK:   -7.03 KCAL/MOL
REMARK 923 INTER-LIGAND FREE ENERGY PREDICTED BY IDOCK:   -6.08 KCAL/MOL
REMARK 924 INTRA-LIGAND FREE ENERGY PREDICTED BY IDOCK:   -0.95 KCAL/MOL
REMARK 927      BINDING AFFINITY PREDICTED BY RF-SCORE:    0.00 PKD
ROOT
HETATM    1  C   UNL     1      -7.192  19.641  68.665  1.00  0.00    -0.371 C  
HETATM    2  C   UNL     1      -7.599  18.231  68.268  1.00  0.00    -0.289 C  
ENDROOT
BRANCH   2   3
HETATM    3  C   UNL     1      -8.836  18.245  67.372  1.00  0.00    -0.254 C  
BRANCH   3   4
HETATM    4  C   UNL     1      -9.802  17.121  67.744  1.00  0.00    -0.274 C  
BRANCH   4   5
HETATM    5  C   UNL     1     -10.624  16.686  66.532  1.00  0.00    -0.203 C  
BRANCH   5   6
HETATM    6  C   UNL     1      -9.903  15.604  65.732  1.00  0.00    -0.386 C  
BRANCH   6   7
HETATM    7  C   UNL     1      -9.719  14.341  66.571  1.00  0.00    -0.304 C  
BRANCH   7   8
HETATM    8  C   UNL     1     -10.638  13.222  66.090  1.00  0.00    -0.293 C  
BRANCH   8   9
HETATM    9  C   UNL     1     -11.895  13.136  66.955  1.00  0.00    -0.444 C  
BRANCH   9  10
HETATM   10  C   UNL     1     -11.748  12.048  68.014  1.00  0.00    -0.398 C  
BRANCH  10  11
HETATM   11  C   UNL     1     -10.979  10.840  67.482  1.00  0.00    -0.372 C  
BRANCH  11  12
HETATM   12  C   UNL     1     -10.790   9.812  68.593  1.00  0.00    -0.223 C  
BRANCH  12  13
HETATM   13  C   UNL     1     -11.191  10.352  69.964  1.00  0.00    -0.385 C  
BRANCH  13  14
HETATM   14  C   UNL     1     -10.613   9.485  71.058  1.00  0.00    -0.322 C  
HETATM   15  O   UNL     1      -9.419   9.324  71.270  1.00  0.00    -0.262 OA 
BRANCH  14  16
HETATM   16  O   UNL     1     -11.617   8.906  71.774  1.00  0.00    -0.306 OA 
BRANCH  16  17
HETATM   17  C   UNL     1     -12.360   7.888  71.073  1.00  0.00    -0.162 C  
HETATM   18  C   UNL     1     -11.730   6.524  71.331  1.00  0.00    -0.378 C  
HETATM   19  C   UNL     1     -13.792   7.930  71.589  1.00  0.00    -0.453 C  
ENDBRANCH  16  17
ENDBRANCH  14  16
ENDBRANCH  13  14
ENDBRANCH  12  13
ENDBRANCH  11  12
ENDBRANCH  10  11
ENDBRANCH   9  10
ENDBRANCH   8   9
ENDBRANCH   7   8
ENDBRANCH   6   7
ENDBRANCH   5   6
ENDBRANCH   4   5
ENDBRANCH   3   4
ENDBRANCH   2   3
TORSDOF 14
ENDMDL
MODEL      276
REMARK 921   NORMALIZED FREE ENERGY PREDICTED BY IDOCK:   -3.00 KCAL/MOL
REMARK 922        TOTAL FREE ENERGY PREDICTED BY IDOCK:   -7.03 KCAL/MOL
REMARK 923 INTER-LIGAND FREE ENERGY PREDICTED BY IDOCK:   -5.04 KCAL/MOL
REMARK 924 INTRA-LIGAND FREE ENERGY PREDICTED BY IDOCK:   -1.99 KCAL/MOL
REMARK 927      BINDING AFFINITY PREDICTED BY RF-SCORE:    0.00 PKD
ROOT
HETATM    1  C   UNL     1      -9.342   7.777  66.416  1.00  0.00    -0.237 C  
HETATM    2  C   UNL     1     -10.458   8.334  67.285  1.00  0.00    -0.373 C  
ENDROOT
BRANCH   2   3
HETATM    3  C   UNL     1     -10.535   7.602  68.622  1.00  0.00    -0.203 C  
BRANCH   3   4
HETATM    4  C   UNL     1      -9.767   8.352  69.710  1.00  0.00    -0.180 C  
BRANCH   4   5
HETATM    5  C   UNL     1      -9.663   9.839  69.376  1.00  0.00    -0.214 C  
BRANCH   5   6
HETATM    6  C   UNL     1      -8.220  10.330  69.482  1.00  0.00    -0.165 C  
BRANCH   6   7
HETATM    7  C   UNL     1      -7.942  11.422  68.450  1.00  0.00    -0.142 C  
BRANCH   7   8
HETATM    8  C   UNL     1      -9.207  11.779  67.673  1.00  0.00    -0.180 C  
BRANCH   8   9
HETATM    9  C   UNL     1      -9.000  11.583  66.172  1.00  0.00    -0.201 C  
BRANCH   9  10
HETATM   10  C   UNL     1     -10.337  11.589  65.438  1.00  0.00    -0.322 C  
BRANCH  10  11
HETATM   11  C   UNL     1     -11.491  11.973  66.364  1.00  0.00    -0.417 C  
BRANCH  11  12
HETATM   12  C   UNL     1     -11.898  13.422  66.117  1.00  0.00    -0.427 C  
BRANCH  12  13
HETATM   13  C   UNL     1     -12.244  14.161  67.408  1.00  0.00    -0.278 C  
BRANCH  13  14
HETATM   14  C   UNL     1     -11.046  14.933  67.907  1.00  0.00    -0.298 C  
HETATM   15  O   UNL     1     -10.845  15.244  69.073  1.00  0.00    -0.225 OA 
BRANCH  14  16
HETATM   16  O   UNL     1     -10.220  15.236  66.866  1.00  0.00    -0.259 OA 
BRANCH  16  17
HETATM   17  C   UNL     1      -9.474  16.460  67.014  1.00  0.00    -0.230 C  
HETATM   18  C   UNL     1      -8.112  16.316  66.343  1.00  0.00    -0.334 C  
HETATM   19  C   UNL     1     -10.284  17.572  66.361  1.00  0.00    -0.354 C  
ENDBRANCH  16  17
ENDBRANCH  14  16
ENDBRANCH  13  14
ENDBRANCH  12  13
ENDBRANCH  11  12
ENDBRANCH  10  11
ENDBRANCH   9  10
ENDBRANCH   8   9
ENDBRANCH   7   8
ENDBRANCH   6   7
ENDBRANCH   5   6
ENDBRANCH   4   5
ENDBRANCH   3   4
ENDBRANCH   2   3
TORSDOF 14
ENDMDL
MODEL      277
REMARK 921   NORMALIZED FREE ENERGY PREDICTED BY IDOCK:   -3.00 KCAL/MOL
REMARK 922        TOTAL FREE ENERGY PREDICTED BY IDOCK:   -7.02 KCAL/MOL
REMARK 923 INTER-LIGAND FREE ENERGY PREDICTED BY IDOCK:   -5.66 KCAL/MOL
REMARK 924 INTRA-LIGAND FREE ENERGY PREDICTED BY IDOCK:   -1.37 KCAL/MOL
REMARK 927      BINDING AFFINITY PREDICTED BY RF-SCORE:    0.00 PKD
ROOT
HETATM    1  C   UNL     1     -12.649  15.183  71.654  1.00  0.00    -0.422 C  
HETATM    2  C   UNL     1     -11.725  15.944  70.717  1.00  0.00    -0.433 C  
ENDROOT
BRANCH   2   3
HETATM    3  C   UNL     1     -11.869  15.453  69.279  1.00  0.00    -0.365 C  
BRANCH   3   4
HETATM    4  C   UNL     1     -11.838  13.927  69.208  1.00  0.00    -0.394 C  
BRANCH   4   5
HETATM    5  C   UNL     1     -11.432  13.454  67.813  1.00  0.00    -0.351 C  
BRANCH   5   6
HETATM    6  C   UNL     1     -12.206  14.201  66.729  1.00  0.00    -0.429 C  
BRANCH   6   7
HETATM    7  C   UNL     1     -11.406  14.249  65.428  1.00  0.00    -0.329 C  
BRANCH   7   8
HETATM    8  C   UNL     1     -12.307  14.010  64.219  1.00  0.00    -0.393 C  
BRANCH   8   9
HETATM    9  C   UNL     1     -11.951  12.698  63.522  1.00  0.00    -0.630 C  
BRANCH   9  10
HETATM   10  C   UNL     1     -10.460  12.403  63.657  1.00  0.00    -0.460 C  
BRANCH  10  11
HETATM   11  C   UNL     1     -10.170  10.904  63.593  1.00  0.00    -0.395 C  
BRANCH  11  12
HETATM   12  C   UNL     1      -9.142  10.526  64.654  1.00  0.00    -0.248 C  
BRANCH  12  13
HETATM   13  C   UNL     1      -9.176  11.460  65.861  1.00  0.00    -0.231 C  
BRANCH  13  14
HETATM   14  C   UNL     1      -8.375  10.874  67.000  1.00  0.00    -0.132 C  
HETATM   15  O   UNL     1      -8.477  11.204  68.174  1.00  0.00    -0.126 OA 
BRANCH  14  16
HETATM   16  O   UNL     1      -7.521   9.923  66.528  1.00  0.00    -0.097 OA 
BRANCH  16  17
HETATM   17  C   UNL     1      -6.173  10.009  67.030  1.00  0.00    -0.063 C  
HETATM   18  C   UNL     1      -5.611   8.606  67.236  1.00  0.00    -0.039 C  
HETATM   19  C   UNL     1      -5.350  10.776  66.004  1.00  0.00    -0.119 C  
ENDBRANCH  16  17
ENDBRANCH  14  16
ENDBRANCH  13  14
ENDBRANCH  12  13
ENDBRANCH  11  12
ENDBRANCH  10  11
ENDBRANCH   9  10
ENDBRANCH   8   9
ENDBRANCH   7   8
ENDBRANCH   6   7
ENDBRANCH   5   6
ENDBRANCH   4   5
ENDBRANCH   3   4
ENDBRANCH   2   3
TORSDOF 14
ENDMDL
MODEL      278
REMARK 921   NORMALIZED FREE ENERGY PREDICTED BY IDOCK:   -3.00 KCAL/MOL
REMARK 922        TOTAL FREE ENERGY PREDICTED BY IDOCK:   -7.02 KCAL/MOL
REMARK 923 INTER-LIGAND FREE ENERGY PREDICTED BY IDOCK:   -5.76 KCAL/MOL
REMARK 924 INTRA-LIGAND FREE ENERGY PREDICTED BY IDOCK:   -1.26 KCAL/MOL
REMARK 927      BINDING AFFINITY PREDICTED BY RF-SCORE:    0.00 PKD
ROOT
HETATM    1  C   UNL     1      -9.720   8.306  72.261  1.00  0.00    -0.362 C  
HETATM    2  C   UNL     1     -11.218   8.200  72.497  1.00  0.00    -0.459 C  
ENDROOT
BRANCH   2   3
HETATM    3  C   UNL     1     -12.005   8.751  71.310  1.00  0.00    -0.353 C  
BRANCH   3   4
HETATM    4  C   UNL     1     -11.365  10.027  70.765  1.00  0.00    -0.439 C  
BRANCH   4   5
HETATM    5  C   UNL     1     -12.416  11.113  70.545  1.00  0.00    -0.414 C  
BRANCH   5   6
HETATM    6  C   UNL     1     -11.860  12.260  69.703  1.00  0.00    -0.393 C  
BRANCH   6   7
HETATM    7  C   UNL     1     -12.044  13.597  70.420  1.00  0.00    -0.421 C  
BRANCH   7   8
HETATM    8  C   UNL     1     -11.268  14.708  69.718  1.00  0.00    -0.296 C  
BRANCH   8   9
HETATM    9  C   UNL     1     -11.997  15.173  68.459  1.00  0.00    -0.243 C  
BRANCH   9  10
HETATM   10  C   UNL     1     -11.061  15.153  67.254  1.00  0.00    -0.332 C  
BRANCH  10  11
HETATM   11  C   UNL     1     -11.665  14.386  66.079  1.00  0.00    -0.378 C  
BRANCH  11  12
HETATM   12  C   UNL     1     -10.659  13.373  65.544  1.00  0.00    -0.294 C  
BRANCH  12  13
HETATM   13  C   UNL     1     -11.107  11.930  65.763  1.00  0.00    -0.367 C  
BRANCH  13  14
HETATM   14  C   UNL     1     -10.069  11.174  66.558  1.00  0.00    -0.223 C  
HETATM   15  O   UNL     1     -10.310  10.412  67.484  1.00  0.00    -0.197 OA 
BRANCH  14  16
HETATM   16  O   UNL     1      -8.822  11.468  66.093  1.00  0.00    -0.198 OA 
BRANCH  16  17
HETATM   17  C   UNL     1      -7.780  11.459  67.089  1.00  0.00    -0.152 C  
HETATM   18  C   UNL     1      -6.596  10.639  66.588  1.00  0.00    -0.101 C  
HETATM   19  C   UNL     1      -7.371  12.905  67.336  1.00  0.00    -0.132 C  
ENDBRANCH  16  17
ENDBRANCH  14  16
ENDBRANCH  13  14
ENDBRANCH  12  13
ENDBRANCH  11  12
ENDBRANCH  10  11
ENDBRANCH   9  10
ENDBRANCH   8   9
ENDBRANCH   7   8
ENDBRANCH   6   7
ENDBRANCH   5   6
ENDBRANCH   4   5
ENDBRANCH   3   4
ENDBRANCH   2   3
TORSDOF 14
ENDMDL
MODEL      279
REMARK 921   NORMALIZED FREE ENERGY PREDICTED BY IDOCK:   -3.00 KCAL/MOL
REMARK 922        TOTAL FREE ENERGY PREDICTED BY IDOCK:   -7.02 KCAL/MOL
REMARK 923 INTER-LIGAND FREE ENERGY PREDICTED BY IDOCK:   -5.38 KCAL/MOL
REMARK 924 INTRA-LIGAND FREE ENERGY PREDICTED BY IDOCK:   -1.63 KCAL/MOL
REMARK 927      BINDING AFFINITY PREDICTED BY RF-SCORE:    0.00 PKD
ROOT
HETATM    1  C   UNL     1     -11.994  15.964  71.522  1.00  0.00    -0.537 C  
HETATM    2  C   UNL     1     -13.128  15.219  70.835  1.00  0.00    -0.523 C  
ENDROOT
BRANCH   2   3
HETATM    3  C   UNL     1     -12.595  14.079  69.970  1.00  0.00    -0.250 C  
BRANCH   3   4
HETATM    4  C   UNL     1     -11.072  14.135  69.855  1.00  0.00    -0.083 C  
BRANCH   4   5
HETATM    5  C   UNL     1     -10.613  13.677  68.472  1.00  0.00    -0.259 C  
BRANCH   5   6
HETATM    6  C   UNL     1     -11.319  12.390  68.052  1.00  0.00    -0.340 C  
BRANCH   6   7
HETATM    7  C   UNL     1     -11.144  12.139  66.556  1.00  0.00    -0.352 C  
BRANCH   7   8
HETATM    8  C   UNL     1     -12.409  12.505  65.785  1.00  0.00    -0.227 C  
BRANCH   8   9
HETATM    9  C   UNL     1     -12.653  14.013  65.818  1.00  0.00    -0.512 C  
BRANCH   9  10
HETATM   10  C   UNL     1     -11.835  14.716  64.741  1.00  0.00    -0.444 C  
BRANCH  10  11
HETATM   11  C   UNL     1     -10.620  15.433  65.329  1.00  0.00    -0.450 C  
BRANCH  11  12
HETATM   12  C   UNL     1     -11.069  16.652  66.128  1.00  0.00     0.271 C  
BRANCH  12  13
HETATM   13  C   UNL     1      -9.903  17.550  66.532  1.00  0.00    -0.315 C  
BRANCH  13  14
HETATM   14  C   UNL     1      -9.427  17.199  67.921  1.00  0.00    -0.257 C  
HETATM   15  O   UNL     1     -10.069  17.373  68.949  1.00  0.00    -0.316 OA 
BRANCH  14  16
HETATM   16  O   UNL     1      -8.177  16.660  67.864  1.00  0.00    -0.175 OA 
BRANCH  16  17
HETATM   17  C   UNL     1      -7.483  16.588  69.125  1.00  0.00    -0.218 C  
HETATM   18  C   UNL     1      -7.161  15.134  69.452  1.00  0.00    -0.189 C  
HETATM   19  C   UNL     1      -6.208  17.409  68.994  1.00  0.00    -0.209 C  
ENDBRANCH  16  17
ENDBRANCH  14  16
ENDBRANCH  13  14
ENDBRANCH  12  13
ENDBRANCH  11  12
ENDBRANCH  10  11
ENDBRANCH   9  10
ENDBRANCH   8   9
ENDBRANCH   7   8
ENDBRANCH   6   7
ENDBRANCH   5   6
ENDBRANCH   4   5
ENDBRANCH   3   4
ENDBRANCH   2   3
TORSDOF 14
ENDMDL
MODEL      280
REMARK 921   NORMALIZED FREE ENERGY PREDICTED BY IDOCK:   -2.99 KCAL/MOL
REMARK 922        TOTAL FREE ENERGY PREDICTED BY IDOCK:   -7.01 KCAL/MOL
REMARK 923 INTER-LIGAND FREE ENERGY PREDICTED BY IDOCK:   -5.53 KCAL/MOL
REMARK 924 INTRA-LIGAND FREE ENERGY PREDICTED BY IDOCK:   -1.48 KCAL/MOL
REMARK 927      BINDING AFFINITY PREDICTED BY RF-SCORE:    0.00 PKD
ROOT
HETATM    1  C   UNL     1     -12.558  12.160  63.382  1.00  0.00    -0.584 C  
HETATM    2  C   UNL     1     -11.946  13.468  63.855  1.00  0.00    -0.491 C  
ENDROOT
BRANCH   2   3
HETATM    3  C   UNL     1     -12.661  13.995  65.097  1.00  0.00    -0.453 C  
BRANCH   3   4
HETATM    4  C   UNL     1     -11.663  14.490  66.143  1.00  0.00    -0.355 C  
BRANCH   4   5
HETATM    5  C   UNL     1     -10.251  14.002  65.823  1.00  0.00    -0.343 C  
BRANCH   5   6
HETATM    6  C   UNL     1      -9.690  13.144  66.955  1.00  0.00    -0.243 C  
BRANCH   6   7
HETATM    7  C   UNL     1      -9.210  11.794  66.426  1.00  0.00    -0.223 C  
BRANCH   7   8
HETATM    8  C   UNL     1     -10.384  10.849  66.186  1.00  0.00    -0.305 C  
BRANCH   8   9
HETATM    9  C   UNL     1      -9.956   9.391  66.352  1.00  0.00    -0.346 C  
BRANCH   9  10
HETATM   10  C   UNL     1      -9.713   9.065  67.822  1.00  0.00    -0.190 C  
BRANCH  10  11
HETATM   11  C   UNL     1     -10.885   9.500  68.701  1.00  0.00    -0.177 C  
BRANCH  11  12
HETATM   12  C   UNL     1     -10.628   9.098  70.149  1.00  0.00    -0.258 C  
BRANCH  12  13
HETATM   13  C   UNL     1      -9.798   7.821  70.264  1.00  0.00    -0.184 C  
BRANCH  13  14
HETATM   14  C   UNL     1     -10.691   6.642  70.570  1.00  0.00    -0.247 C  
HETATM   15  O   UNL     1     -10.924   6.209  71.691  1.00  0.00    -0.248 OA 
BRANCH  14  16
HETATM   16  O   UNL     1     -11.196   6.128  69.414  1.00  0.00    -0.391 OA 
BRANCH  16  17
HETATM   17  C   UNL     1     -10.220   5.844  68.393  1.00  0.00    -0.191 C  
HETATM   18  C   UNL     1      -9.410   4.613  68.784  1.00  0.00    -0.197 C  
HETATM   19  C   UNL     1     -10.975   5.604  67.093  1.00  0.00    -0.101 C  
ENDBRANCH  16  17
ENDBRANCH  14  16
ENDBRANCH  13  14
ENDBRANCH  12  13
ENDBRANCH  11  12
ENDBRANCH  10  11
ENDBRANCH   9  10
ENDBRANCH   8   9
ENDBRANCH   7   8
ENDBRANCH   6   7
ENDBRANCH   5   6
ENDBRANCH   4   5
ENDBRANCH   3   4
ENDBRANCH   2   3
TORSDOF 14
ENDMDL
MODEL      281
REMARK 921   NORMALIZED FREE ENERGY PREDICTED BY IDOCK:   -2.99 KCAL/MOL
REMARK 922        TOTAL FREE ENERGY PREDICTED BY IDOCK:   -7.01 KCAL/MOL
REMARK 923 INTER-LIGAND FREE ENERGY PREDICTED BY IDOCK:   -6.21 KCAL/MOL
REMARK 924 INTRA-LIGAND FREE ENERGY PREDICTED BY IDOCK:   -0.79 KCAL/MOL
REMARK 927      BINDING AFFINITY PREDICTED BY RF-SCORE:    0.00 PKD
ROOT
HETATM    1  C   UNL     1      -9.083   4.169  68.239  1.00  0.00    -0.176 C  
HETATM    2  C   UNL     1      -9.812   5.198  69.087  1.00  0.00    -0.257 C  
ENDROOT
BRANCH   2   3
HETATM    3  C   UNL     1      -9.567   4.960  70.576  1.00  0.00    -0.253 C  
BRANCH   3   4
HETATM    4  C   UNL     1     -10.648   5.624  71.428  1.00  0.00    -0.317 C  
BRANCH   4   5
HETATM    5  C   UNL     1     -10.165   6.969  71.969  1.00  0.00    -0.209 C  
BRANCH   5   6
HETATM    6  C   UNL     1     -10.734   8.129  71.156  1.00  0.00    -0.258 C  
BRANCH   6   7
HETATM    7  C   UNL     1      -9.619   9.069  70.698  1.00  0.00    -0.289 C  
BRANCH   7   8
HETATM    8  C   UNL     1     -10.157  10.141  69.754  1.00  0.00    -0.269 C  
BRANCH   8   9
HETATM    9  C   UNL     1     -11.595  10.513  70.111  1.00  0.00    -0.408 C  
BRANCH   9  10
HETATM   10  C   UNL     1     -12.155  11.522  69.113  1.00  0.00    -0.329 C  
BRANCH  10  11
HETATM   11  C   UNL     1     -11.045  12.323  68.433  1.00  0.00    -0.283 C  
BRANCH  11  12
HETATM   12  C   UNL     1     -11.653  13.393  67.531  1.00  0.00    -0.382 C  
BRANCH  12  13
HETATM   13  C   UNL     1     -10.907  13.535  66.207  1.00  0.00    -0.291 C  
BRANCH  13  14
HETATM   14  C   UNL     1     -11.715  12.933  65.083  1.00  0.00    -0.349 C  
HETATM   15  O   UNL     1     -12.933  12.813  65.079  1.00  0.00    -0.811 OA 
BRANCH  14  16
HETATM   16  O   UNL     1     -10.889  12.539  64.073  1.00  0.00    -0.344 OA 
BRANCH  16  17
HETATM   17  C   UNL     1     -10.736  11.114  63.929  1.00  0.00    -0.337 C  
HETATM   18  C   UNL     1      -9.753  10.814  62.802  1.00  0.00    -0.297 C  
HETATM   19  C   UNL     1     -10.220  10.573  65.256  1.00  0.00    -0.352 C  
ENDBRANCH  16  17
ENDBRANCH  14  16
ENDBRANCH  13  14
ENDBRANCH  12  13
ENDBRANCH  11  12
ENDBRANCH  10  11
ENDBRANCH   9  10
ENDBRANCH   8   9
ENDBRANCH   7   8
ENDBRANCH   6   7
ENDBRANCH   5   6
ENDBRANCH   4   5
ENDBRANCH   3   4
ENDBRANCH   2   3
TORSDOF 14
ENDMDL
MODEL      282
REMARK 921   NORMALIZED FREE ENERGY PREDICTED BY IDOCK:   -2.99 KCAL/MOL
REMARK 922        TOTAL FREE ENERGY PREDICTED BY IDOCK:   -7.01 KCAL/MOL
REMARK 923 INTER-LIGAND FREE ENERGY PREDICTED BY IDOCK:   -4.97 KCAL/MOL
REMARK 924 INTRA-LIGAND FREE ENERGY PREDICTED BY IDOCK:   -2.03 KCAL/MOL
REMARK 927      BINDING AFFINITY PREDICTED BY RF-SCORE:    0.00 PKD
ROOT
HETATM    1  C   UNL     1      -6.563   8.280  68.913  1.00  0.00    -0.053 C  
HETATM    2  C   UNL     1      -7.839   8.858  68.323  1.00  0.00    -0.101 C  
ENDROOT
BRANCH   2   3
HETATM    3  C   UNL     1      -7.684   9.128  66.828  1.00  0.00    -0.097 C  
BRANCH   3   4
HETATM    4  C   UNL     1      -7.945  10.597  66.501  1.00  0.00    -0.138 C  
BRANCH   4   5
HETATM    5  C   UNL     1      -6.657  11.298  66.073  1.00  0.00     0.115 C  
BRANCH   5   6
HETATM    6  C   UNL     1      -6.064  12.115  67.219  1.00  0.00    -0.153 C  
BRANCH   6   7
HETATM    7  C   UNL     1      -7.161  12.855  67.981  1.00  0.00    -0.115 C  
BRANCH   7   8
HETATM    8  C   UNL     1      -7.281  14.301  67.507  1.00  0.00    -0.197 C  
BRANCH   8   9
HETATM    9  C   UNL     1      -8.713  14.812  67.662  1.00  0.00    -0.183 C  
BRANCH   9  10
HETATM   10  C   UNL     1      -9.083  15.740  66.510  1.00  0.00    -0.327 C  
BRANCH  10  11
HETATM   11  C   UNL     1     -10.470  15.427  65.952  1.00  0.00    -0.354 C  
BRANCH  11  12
HETATM   12  C   UNL     1     -10.354  14.456  64.782  1.00  0.00    -0.352 C  
BRANCH  12  13
HETATM   13  C   UNL     1     -10.687  13.019  65.177  1.00  0.00    -0.324 C  
BRANCH  13  14
HETATM   14  C   UNL     1     -12.140  12.909  65.573  1.00  0.00    -0.458 C  
HETATM   15  O   UNL     1     -13.061  13.517  65.044  1.00  0.00    -0.736 OA 
BRANCH  14  16
HETATM   16  O   UNL     1     -12.277  12.032  66.607  1.00  0.00    -0.550 OA 
BRANCH  16  17
HETATM   17  C   UNL     1     -11.346  12.218  67.692  1.00  0.00    -0.311 C  
HETATM   18  C   UNL     1     -11.951  13.153  68.734  1.00  0.00    -0.316 C  
HETATM   19  C   UNL     1     -11.066  10.847  68.293  1.00  0.00    -0.324 C  
ENDBRANCH  16  17
ENDBRANCH  14  16
ENDBRANCH  13  14
ENDBRANCH  12  13
ENDBRANCH  11  12
ENDBRANCH  10  11
ENDBRANCH   9  10
ENDBRANCH   8   9
ENDBRANCH   7   8
ENDBRANCH   6   7
ENDBRANCH   5   6
ENDBRANCH   4   5
ENDBRANCH   3   4
ENDBRANCH   2   3
TORSDOF 14
ENDMDL
MODEL      283
REMARK 921   NORMALIZED FREE ENERGY PREDICTED BY IDOCK:   -2.98 KCAL/MOL
REMARK 922        TOTAL FREE ENERGY PREDICTED BY IDOCK:   -7.00 KCAL/MOL
REMARK 923 INTER-LIGAND FREE ENERGY PREDICTED BY IDOCK:   -5.41 KCAL/MOL
REMARK 924 INTRA-LIGAND FREE ENERGY PREDICTED BY IDOCK:   -1.59 KCAL/MOL
REMARK 927      BINDING AFFINITY PREDICTED BY RF-SCORE:    0.00 PKD
ROOT
HETATM    1  C   UNL     1     -11.463   6.463  69.272  1.00  0.00    -0.318 C  
HETATM    2  C   UNL     1     -11.147   5.821  70.613  1.00  0.00    -0.272 C  
ENDROOT
BRANCH   2   3
HETATM    3  C   UNL     1      -9.919   4.918  70.517  1.00  0.00    -0.311 C  
BRANCH   3   4
HETATM    4  C   UNL     1      -9.583   4.294  71.871  1.00  0.00    -0.212 C  
BRANCH   4   5
HETATM    5  C   UNL     1      -8.151   4.627  72.285  1.00  0.00    -0.102 C  
BRANCH   5   6
HETATM    6  C   UNL     1      -8.050   6.049  72.833  1.00  0.00    -0.113 C  
BRANCH   6   7
HETATM    7  C   UNL     1      -9.140   6.310  73.870  1.00  0.00    -0.140 C  
BRANCH   7   8
HETATM    8  C   UNL     1      -9.880   7.612  73.576  1.00  0.00    -0.357 C  
BRANCH   8   9
HETATM    9  C   UNL     1      -9.192   8.390  72.455  1.00  0.00    -0.338 C  
BRANCH   9  10
HETATM   10  C   UNL     1     -10.223   9.045  71.541  1.00  0.00    -0.414 C  
BRANCH  10  11
HETATM   11  C   UNL     1      -9.612   9.462  70.204  1.00  0.00    -0.275 C  
BRANCH  11  12
HETATM   12  C   UNL     1     -10.702   9.983  69.273  1.00  0.00    -0.249 C  
BRANCH  12  13
HETATM   13  C   UNL     1     -10.442  11.415  68.811  1.00  0.00    -0.228 C  
BRANCH  13  14
HETATM   14  C   UNL     1     -11.592  11.910  67.966  1.00  0.00    -0.332 C  
HETATM   15  O   UNL     1     -12.028  11.344  66.972  1.00  0.00    -0.492 OA 
BRANCH  14  16
HETATM   16  O   UNL     1     -12.071  13.081  68.470  1.00  0.00    -0.297 OA 
BRANCH  16  17
HETATM   17  C   UNL     1     -11.255  14.240  68.208  1.00  0.00    -0.276 C  
HETATM   18  C   UNL     1     -11.559  14.778  66.814  1.00  0.00    -0.333 C  
HETATM   19  C   UNL     1     -11.581  15.278  69.273  1.00  0.00    -0.350 C  
ENDBRANCH  16  17
ENDBRANCH  14  16
ENDBRANCH  13  14
ENDBRANCH  12  13
ENDBRANCH  11  12
ENDBRANCH  10  11
ENDBRANCH   9  10
ENDBRANCH   8   9
ENDBRANCH   7   8
ENDBRANCH   6   7
ENDBRANCH   5   6
ENDBRANCH   4   5
ENDBRANCH   3   4
ENDBRANCH   2   3
TORSDOF 14
ENDMDL
MODEL      284
REMARK 921   NORMALIZED FREE ENERGY PREDICTED BY IDOCK:   -2.98 KCAL/MOL
REMARK 922        TOTAL FREE ENERGY PREDICTED BY IDOCK:   -6.99 KCAL/MOL
REMARK 923 INTER-LIGAND FREE ENERGY PREDICTED BY IDOCK:   -5.85 KCAL/MOL
REMARK 924 INTRA-LIGAND FREE ENERGY PREDICTED BY IDOCK:   -1.14 KCAL/MOL
REMARK 927      BINDING AFFINITY PREDICTED BY RF-SCORE:    0.00 PKD
ROOT
HETATM    1  C   UNL     1      -8.192  10.141  64.567  1.00  0.00    -0.162 C  
HETATM    2  C   UNL     1      -9.016   9.219  65.453  1.00  0.00    -0.253 C  
ENDROOT
BRANCH   2   3
HETATM    3  C   UNL     1      -9.653   9.988  66.609  1.00  0.00    -0.234 C  
BRANCH   3   4
HETATM    4  C   UNL     1     -10.345   9.042  67.589  1.00  0.00    -0.317 C  
BRANCH   4   5
HETATM    5  C   UNL     1     -10.764   9.783  68.857  1.00  0.00    -0.241 C  
BRANCH   5   6
HETATM    6  C   UNL     1     -10.481  11.279  68.744  1.00  0.00    -0.232 C  
BRANCH   6   7
HETATM    7  C   UNL     1     -11.775  12.061  68.527  1.00  0.00    -0.387 C  
BRANCH   7   8
HETATM    8  C   UNL     1     -11.967  13.117  69.612  1.00  0.00    -0.370 C  
BRANCH   8   9
HETATM    9  C   UNL     1     -10.938  14.238  69.473  1.00  0.00    -0.206 C  
BRANCH   9  10
HETATM   10  C   UNL     1     -11.625  15.600  69.435  1.00  0.00    -0.378 C  
BRANCH  10  11
HETATM   11  C   UNL     1     -11.331  16.347  68.135  1.00  0.00    -0.205 C  
BRANCH  11  12
HETATM   12  C   UNL     1     -10.015  15.860  67.539  1.00  0.00    -0.238 C  
BRANCH  12  13
HETATM   13  C   UNL     1     -10.015  15.893  66.013  1.00  0.00    -0.360 C  
BRANCH  13  14
HETATM   14  C   UNL     1     -10.134  14.493  65.459  1.00  0.00    -0.366 C  
HETATM   15  O   UNL     1      -9.663  13.489  65.976  1.00  0.00    -0.275 OA 
BRANCH  14  16
HETATM   16  O   UNL     1     -10.843  14.511  64.295  1.00  0.00    -0.169 OA 
BRANCH  16  17
HETATM   17  C   UNL     1     -12.036  13.703  64.292  1.00  0.00    -0.445 C  
HETATM   18  C   UNL     1     -11.663  12.236  64.115  1.00  0.00    -0.481 C  
HETATM   19  C   UNL     1     -12.742  13.926  65.623  1.00  0.00    -0.534 C  
ENDBRANCH  16  17
ENDBRANCH  14  16
ENDBRANCH  13  14
ENDBRANCH  12  13
ENDBRANCH  11  12
ENDBRANCH  10  11
ENDBRANCH   9  10
ENDBRANCH   8   9
ENDBRANCH   7   8
ENDBRANCH   6   7
ENDBRANCH   5   6
ENDBRANCH   4   5
ENDBRANCH   3   4
ENDBRANCH   2   3
TORSDOF 14
ENDMDL
MODEL      285
REMARK 921   NORMALIZED FREE ENERGY PREDICTED BY IDOCK:   -2.98 KCAL/MOL
REMARK 922        TOTAL FREE ENERGY PREDICTED BY IDOCK:   -6.99 KCAL/MOL
REMARK 923 INTER-LIGAND FREE ENERGY PREDICTED BY IDOCK:   -6.31 KCAL/MOL
REMARK 924 INTRA-LIGAND FREE ENERGY PREDICTED BY IDOCK:   -0.68 KCAL/MOL
REMARK 927      BINDING AFFINITY PREDICTED BY RF-SCORE:    0.00 PKD
ROOT
HETATM    1  C   UNL     1      -9.566   7.370  68.877  1.00  0.00    -0.148 C  
HETATM    2  C   UNL     1      -8.735   7.590  70.130  1.00  0.00    -0.142 C  
ENDROOT
BRANCH   2   3
HETATM    3  C   UNL     1      -9.538   8.319  71.205  1.00  0.00    -0.206 C  
BRANCH   3   4
HETATM    4  C   UNL     1     -10.230   9.557  70.635  1.00  0.00    -0.364 C  
BRANCH   4   5
HETATM    5  C   UNL     1     -11.614   9.740  71.254  1.00  0.00    -0.465 C  
BRANCH   5   6
HETATM    6  C   UNL     1     -12.354  10.916  70.619  1.00  0.00    -0.470 C  
BRANCH   6   7
HETATM    7  C   UNL     1     -13.148  11.689  71.670  1.00  0.00    -0.456 C  
BRANCH   7   8
HETATM    8  C   UNL     1     -12.706  13.149  71.730  1.00  0.00    -0.270 C  
BRANCH   8   9
HETATM    9  C   UNL     1     -12.521  13.722  70.326  1.00  0.00    -0.357 C  
BRANCH   9  10
HETATM   10  C   UNL     1     -11.800  15.065  70.383  1.00  0.00    -0.345 C  
BRANCH  10  11
HETATM   11  C   UNL     1     -11.605  15.664  68.990  1.00  0.00    -0.396 C  
BRANCH  11  12
HETATM   12  C   UNL     1     -10.429  16.635  69.000  1.00  0.00    -0.328 C  
BRANCH  12  13
HETATM   13  C   UNL     1     -10.548  17.710  67.922  1.00  0.00    -0.390 C  
BRANCH  13  14
HETATM   14  C   UNL     1      -9.813  18.959  68.345  1.00  0.00    -0.381 C  
HETATM   15  O   UNL     1     -10.323  19.918  68.910  1.00  0.00    -0.414 OA 
BRANCH  14  16
HETATM   16  O   UNL     1      -8.497  18.865  68.003  1.00  0.00    -0.279 OA 
BRANCH  16  17
HETATM   17  C   UNL     1      -8.155  19.435  66.725  1.00  0.00    -0.284 C  
HETATM   18  C   UNL     1      -7.333  20.703  66.930  1.00  0.00    -0.339 C  
HETATM   19  C   UNL     1      -7.357  18.390  65.957  1.00  0.00    -0.273 C  
ENDBRANCH  16  17
ENDBRANCH  14  16
ENDBRANCH  13  14
ENDBRANCH  12  13
ENDBRANCH  11  12
ENDBRANCH  10  11
ENDBRANCH   9  10
ENDBRANCH   8   9
ENDBRANCH   7   8
ENDBRANCH   6   7
ENDBRANCH   5   6
ENDBRANCH   4   5
ENDBRANCH   3   4
ENDBRANCH   2   3
TORSDOF 14
ENDMDL
MODEL      286
REMARK 921   NORMALIZED FREE ENERGY PREDICTED BY IDOCK:   -2.98 KCAL/MOL
REMARK 922        TOTAL FREE ENERGY PREDICTED BY IDOCK:   -6.98 KCAL/MOL
REMARK 923 INTER-LIGAND FREE ENERGY PREDICTED BY IDOCK:   -5.95 KCAL/MOL
REMARK 924 INTRA-LIGAND FREE ENERGY PREDICTED BY IDOCK:   -1.03 KCAL/MOL
REMARK 927      BINDING AFFINITY PREDICTED BY RF-SCORE:    0.00 PKD
ROOT
HETATM    1  C   UNL     1     -10.398  10.907  64.384  1.00  0.00    -0.430 C  
HETATM    2  C   UNL     1     -10.426  12.289  65.015  1.00  0.00    -0.322 C  
ENDROOT
BRANCH   2   3
HETATM    3  C   UNL     1     -11.818  12.627  65.544  1.00  0.00    -0.479 C  
BRANCH   3   4
HETATM    4  C   UNL     1     -11.786  12.912  67.045  1.00  0.00    -0.447 C  
BRANCH   4   5
HETATM    5  C   UNL     1     -11.803  11.612  67.847  1.00  0.00    -0.273 C  
BRANCH   5   6
HETATM    6  C   UNL     1     -11.189  11.807  69.232  1.00  0.00    -0.318 C  
BRANCH   6   7
HETATM    7  C   UNL     1     -11.383  10.559  70.092  1.00  0.00    -0.400 C  
BRANCH   7   8
HETATM    8  C   UNL     1     -12.672  10.647  70.905  1.00  0.00    -0.498 C  
BRANCH   8   9
HETATM    9  C   UNL     1     -12.645   9.670  72.079  1.00  0.00    -0.443 C  
BRANCH   9  10
HETATM   10  C   UNL     1     -13.279   8.339  71.689  1.00  0.00    -0.349 C  
BRANCH  10  11
HETATM   11  C   UNL     1     -12.250   7.211  71.645  1.00  0.00    -0.385 C  
BRANCH  11  12
HETATM   12  C   UNL     1     -12.019   6.771  70.203  1.00  0.00    -0.244 C  
BRANCH  12  13
HETATM   13  C   UNL     1     -10.537   6.647  69.857  1.00  0.00    -0.268 C  
BRANCH  13  14
HETATM   14  C   UNL     1     -10.262   5.317  69.198  1.00  0.00    -0.210 C  
HETATM   15  O   UNL     1      -9.682   4.377  69.725  1.00  0.00    -0.193 OA 
BRANCH  14  16
HETATM   16  O   UNL     1     -10.753   5.316  67.926  1.00  0.00    -0.096 OA 
BRANCH  16  17
HETATM   17  C   UNL     1      -9.762   5.197  66.888  1.00  0.00    -0.161 C  
HETATM   18  C   UNL     1     -10.406   4.636  65.624  1.00  0.00    -0.266 C  
HETATM   19  C   UNL     1      -9.195   6.587  66.635  1.00  0.00    -0.172 C  
ENDBRANCH  16  17
ENDBRANCH  14  16
ENDBRANCH  13  14
ENDBRANCH  12  13
ENDBRANCH  11  12
ENDBRANCH  10  11
ENDBRANCH   9  10
ENDBRANCH   8   9
ENDBRANCH   7   8
ENDBRANCH   6   7
ENDBRANCH   5   6
ENDBRANCH   4   5
ENDBRANCH   3   4
ENDBRANCH   2   3
TORSDOF 14
ENDMDL
MODEL      287
REMARK 921   NORMALIZED FREE ENERGY PREDICTED BY IDOCK:   -2.98 KCAL/MOL
REMARK 922        TOTAL FREE ENERGY PREDICTED BY IDOCK:   -6.98 KCAL/MOL
REMARK 923 INTER-LIGAND FREE ENERGY PREDICTED BY IDOCK:   -5.75 KCAL/MOL
REMARK 924 INTRA-LIGAND FREE ENERGY PREDICTED BY IDOCK:   -1.23 KCAL/MOL
REMARK 927      BINDING AFFINITY PREDICTED BY RF-SCORE:    0.00 PKD
ROOT
HETATM    1  C   UNL     1     -10.893   4.713  73.739  1.00  0.00    -0.378 C  
HETATM    2  C   UNL     1     -11.023   3.222  73.469  1.00  0.00    -0.324 C  
ENDROOT
BRANCH   2   3
HETATM    3  C   UNL     1      -9.663   2.530  73.531  1.00  0.00    -0.138 C  
BRANCH   3   4
HETATM    4  C   UNL     1      -8.788   2.917  72.340  1.00  0.00    -0.101 C  
BRANCH   4   5
HETATM    5  C   UNL     1      -9.313   2.287  71.051  1.00  0.00    -0.209 C  
BRANCH   5   6
HETATM    6  C   UNL     1      -9.218   3.261  69.879  1.00  0.00    -0.222 C  
BRANCH   6   7
HETATM    7  C   UNL     1      -9.447   4.697  70.348  1.00  0.00    -0.241 C  
BRANCH   7   8
HETATM    8  C   UNL     1     -10.603   5.345  69.589  1.00  0.00    -0.328 C  
BRANCH   8   9
HETATM    9  C   UNL     1     -11.319   6.376  70.460  1.00  0.00    -0.438 C  
BRANCH   9  10
HETATM   10  C   UNL     1     -10.446   7.610  70.663  1.00  0.00    -0.217 C  
BRANCH  10  11
HETATM   11  C   UNL     1     -11.284   8.867  70.894  1.00  0.00    -0.334 C  
BRANCH  11  12
HETATM   12  C   UNL     1     -10.669  10.047  70.149  1.00  0.00    -0.361 C  
BRANCH  12  13
HETATM   13  C   UNL     1     -11.722  10.946  69.505  1.00  0.00    -0.400 C  
BRANCH  13  14
HETATM   14  C   UNL     1     -11.487  11.045  68.017  1.00  0.00    -0.290 C  
HETATM   15  O   UNL     1     -10.766  10.300  67.368  1.00  0.00    -0.255 OA 
BRANCH  14  16
HETATM   16  O   UNL     1     -12.194  12.090  67.502  1.00  0.00    -0.490 OA 
BRANCH  16  17
HETATM   17  C   UNL     1     -11.398  13.184  67.008  1.00  0.00    -0.312 C  
HETATM   18  C   UNL     1     -11.512  13.260  65.490  1.00  0.00    -0.335 C  
HETATM   19  C   UNL     1     -11.921  14.459  67.655  1.00  0.00    -0.378 C  
ENDBRANCH  16  17
ENDBRANCH  14  16
ENDBRANCH  13  14
ENDBRANCH  12  13
ENDBRANCH  11  12
ENDBRANCH  10  11
ENDBRANCH   9  10
ENDBRANCH   8   9
ENDBRANCH   7   8
ENDBRANCH   6   7
ENDBRANCH   5   6
ENDBRANCH   4   5
ENDBRANCH   3   4
ENDBRANCH   2   3
TORSDOF 14
ENDMDL
MODEL      288
REMARK 921   NORMALIZED FREE ENERGY PREDICTED BY IDOCK:   -2.98 KCAL/MOL
REMARK 922        TOTAL FREE ENERGY PREDICTED BY IDOCK:   -6.98 KCAL/MOL
REMARK 923 INTER-LIGAND FREE ENERGY PREDICTED BY IDOCK:   -5.45 KCAL/MOL
REMARK 924 INTRA-LIGAND FREE ENERGY PREDICTED BY IDOCK:   -1.53 KCAL/MOL
REMARK 927      BINDING AFFINITY PREDICTED BY RF-SCORE:    0.00 PKD
ROOT
HETATM    1  C   UNL     1      -6.685   9.155  64.409  1.00  0.00    -0.083 C  
HETATM    2  C   UNL     1      -7.616   9.035  65.604  1.00  0.00    -0.086 C  
ENDROOT
BRANCH   2   3
HETATM    3  C   UNL     1      -9.071   9.252  65.195  1.00  0.00    -0.263 C  
BRANCH   3   4
HETATM    4  C   UNL     1      -9.437  10.735  65.215  1.00  0.00    -0.263 C  
BRANCH   4   5
HETATM    5  C   UNL     1     -10.072  11.157  63.891  1.00  0.00    -0.404 C  
BRANCH   5   6
HETATM    6  C   UNL     1     -11.209  12.151  64.114  1.00  0.00    -0.433 C  
BRANCH   6   7
HETATM    7  C   UNL     1     -11.675  12.125  65.568  1.00  0.00    -0.384 C  
BRANCH   7   8
HETATM    8  C   UNL     1     -11.924  13.538  66.091  1.00  0.00    -0.454 C  
BRANCH   8   9
HETATM    9  C   UNL     1     -11.125  13.798  67.367  1.00  0.00    -0.312 C  
BRANCH   9  10
HETATM   10  C   UNL     1     -12.013  13.655  68.599  1.00  0.00    -0.395 C  
BRANCH  10  11
HETATM   11  C   UNL     1     -12.159  12.195  69.027  1.00  0.00    -0.208 C  
BRANCH  11  12
HETATM   12  C   UNL     1     -10.805  11.495  68.962  1.00  0.00    -0.258 C  
BRANCH  12  13
HETATM   13  C   UNL     1     -10.911  10.064  68.441  1.00  0.00    -0.277 C  
BRANCH  13  14
HETATM   14  C   UNL     1      -9.891   9.182  69.121  1.00  0.00    -0.171 C  
HETATM   15  O   UNL     1      -8.699   9.144  68.845  1.00  0.00    -0.129 OA 
BRANCH  14  16
HETATM   16  O   UNL     1     -10.493   8.433  70.087  1.00  0.00    -0.217 OA 
BRANCH  16  17
HETATM   17  C   UNL     1     -10.539   9.040  71.393  1.00  0.00    -0.323 C  
HETATM   18  C   UNL     1     -11.950   8.933  71.960  1.00  0.00    -0.439 C  
HETATM   19  C   UNL     1      -9.542   8.302  72.276  1.00  0.00    -0.355 C  
ENDBRANCH  16  17
ENDBRANCH  14  16
ENDBRANCH  13  14
ENDBRANCH  12  13
ENDBRANCH  11  12
ENDBRANCH  10  11
ENDBRANCH   9  10
ENDBRANCH   8   9
ENDBRANCH   7   8
ENDBRANCH   6   7
ENDBRANCH   5   6
ENDBRANCH   4   5
ENDBRANCH   3   4
ENDBRANCH   2   3
TORSDOF 14
ENDMDL
MODEL      289
REMARK 921   NORMALIZED FREE ENERGY PREDICTED BY IDOCK:   -2.98 KCAL/MOL
REMARK 922        TOTAL FREE ENERGY PREDICTED BY IDOCK:   -6.98 KCAL/MOL
REMARK 923 INTER-LIGAND FREE ENERGY PREDICTED BY IDOCK:   -5.26 KCAL/MOL
REMARK 924 INTRA-LIGAND FREE ENERGY PREDICTED BY IDOCK:   -1.72 KCAL/MOL
REMARK 927      BINDING AFFINITY PREDICTED BY RF-SCORE:    0.00 PKD
ROOT
HETATM    1  C   UNL     1     -12.001  14.312  69.356  1.00  0.00    -0.381 C  
HETATM    2  C   UNL     1     -11.726  15.524  68.481  1.00  0.00    -0.351 C  
ENDROOT
BRANCH   2   3
HETATM    3  C   UNL     1     -11.007  15.125  67.194  1.00  0.00    -0.326 C  
BRANCH   3   4
HETATM    4  C   UNL     1      -9.662  14.462  67.494  1.00  0.00    -0.215 C  
BRANCH   4   5
HETATM    5  C   UNL     1      -9.449  13.237  66.606  1.00  0.00    -0.262 C  
BRANCH   5   6
HETATM    6  C   UNL     1      -9.678  11.943  67.384  1.00  0.00    -0.189 C  
BRANCH   6   7
HETATM    7  C   UNL     1     -11.018  11.314  67.009  1.00  0.00    -0.352 C  
BRANCH   7   8
HETATM    8  C   UNL     1     -11.502  10.360  68.099  1.00  0.00    -0.194 C  
BRANCH   8   9
HETATM    9  C   UNL     1     -11.124  10.877  69.486  1.00  0.00    -0.326 C  
BRANCH   9  10
HETATM   10  C   UNL     1     -12.052  10.299  70.549  1.00  0.00    -0.401 C  
BRANCH  10  11
HETATM   11  C   UNL     1     -11.291   9.448  71.565  1.00  0.00    -0.464 C  
BRANCH  11  12
HETATM   12  C   UNL     1     -11.234   7.999  71.093  1.00  0.00    -0.287 C  
BRANCH  12  13
HETATM   13  C   UNL     1      -9.848   7.600  70.593  1.00  0.00    -0.182 C  
BRANCH  13  14
HETATM   14  C   UNL     1      -9.908   6.262  69.894  1.00  0.00    -0.167 C  
HETATM   15  O   UNL     1     -10.452   5.261  70.339  1.00  0.00    -0.271 OA 
BRANCH  14  16
HETATM   16  O   UNL     1      -9.265   6.333  68.695  1.00  0.00    -0.126 OA 
BRANCH  16  17
HETATM   17  C   UNL     1      -9.848   7.242  67.741  1.00  0.00    -0.149 C  
HETATM   18  C   UNL     1      -8.791   7.675  66.730  1.00  0.00    -0.150 C  
HETATM   19  C   UNL     1     -10.990   6.510  67.050  1.00  0.00    -0.466 C  
ENDBRANCH  16  17
ENDBRANCH  14  16
ENDBRANCH  13  14
ENDBRANCH  12  13
ENDBRANCH  11  12
ENDBRANCH  10  11
ENDBRANCH   9  10
ENDBRANCH   8   9
ENDBRANCH   7   8
ENDBRANCH   6   7
ENDBRANCH   5   6
ENDBRANCH   4   5
ENDBRANCH   3   4
ENDBRANCH   2   3
TORSDOF 14
ENDMDL
MODEL      290
REMARK 921   NORMALIZED FREE ENERGY PREDICTED BY IDOCK:   -2.97 KCAL/MOL
REMARK 922        TOTAL FREE ENERGY PREDICTED BY IDOCK:   -6.98 KCAL/MOL
REMARK 923 INTER-LIGAND FREE ENERGY PREDICTED BY IDOCK:   -5.71 KCAL/MOL
REMARK 924 INTRA-LIGAND FREE ENERGY PREDICTED BY IDOCK:   -1.26 KCAL/MOL
REMARK 927      BINDING AFFINITY PREDICTED BY RF-SCORE:    0.00 PKD
ROOT
HETATM    1  C   UNL     1      -9.375  16.920  67.482  1.00  0.00    -0.232 C  
HETATM    2  C   UNL     1     -10.686  16.285  67.048  1.00  0.00    -0.233 C  
ENDROOT
BRANCH   2   3
HETATM    3  C   UNL     1     -10.659  14.771  67.246  1.00  0.00    -0.273 C  
BRANCH   3   4
HETATM    4  C   UNL     1     -11.902  14.112  66.650  1.00  0.00    -0.447 C  
BRANCH   4   5
HETATM    5  C   UNL     1     -11.847  12.594  66.816  1.00  0.00    -0.440 C  
BRANCH   5   6
HETATM    6  C   UNL     1     -10.794  12.188  67.845  1.00  0.00    -0.254 C  
BRANCH   6   7
HETATM    7  C   UNL     1     -11.132  10.830  68.459  1.00  0.00    -0.317 C  
BRANCH   7   8
HETATM    8  C   UNL     1     -12.411  10.905  69.289  1.00  0.00    -0.107 C  
BRANCH   8   9
HETATM    9  C   UNL     1     -12.118  11.410  70.701  1.00  0.00    -0.469 C  
BRANCH   9  10
HETATM   10  C   UNL     1     -13.255  11.048  71.650  1.00  0.00    -0.461 C  
BRANCH  10  11
HETATM   11  C   UNL     1     -13.508   9.541  71.685  1.00  0.00    -0.463 C  
BRANCH  11  12
HETATM   12  C   UNL     1     -12.294   8.822  72.263  1.00  0.00    -0.448 C  
BRANCH  12  13
HETATM   13  C   UNL     1     -11.711   7.790  71.300  1.00  0.00    -0.311 C  
BRANCH  13  14
HETATM   14  C   UNL     1     -10.213   7.955  71.199  1.00  0.00    -0.195 C  
HETATM   15  O   UNL     1      -9.560   8.813  71.777  1.00  0.00    -0.261 OA 
BRANCH  14  16
HETATM   16  O   UNL     1      -9.696   7.008  70.367  1.00  0.00    -0.176 OA 
BRANCH  16  17
HETATM   17  C   UNL     1      -9.944   5.645  70.762  1.00  0.00    -0.195 C  
HETATM   18  C   UNL     1      -9.943   4.745  69.531  1.00  0.00    -0.287 C  
HETATM   19  C   UNL     1      -8.840   5.240  71.730  1.00  0.00    -0.143 C  
ENDBRANCH  16  17
ENDBRANCH  14  16
ENDBRANCH  13  14
ENDBRANCH  12  13
ENDBRANCH  11  12
ENDBRANCH  10  11
ENDBRANCH   9  10
ENDBRANCH   8   9
ENDBRANCH   7   8
ENDBRANCH   6   7
ENDBRANCH   5   6
ENDBRANCH   4   5
ENDBRANCH   3   4
ENDBRANCH   2   3
TORSDOF 14
ENDMDL
MODEL      291
REMARK 921   NORMALIZED FREE ENERGY PREDICTED BY IDOCK:   -2.97 KCAL/MOL
REMARK 922        TOTAL FREE ENERGY PREDICTED BY IDOCK:   -6.96 KCAL/MOL
REMARK 923 INTER-LIGAND FREE ENERGY PREDICTED BY IDOCK:   -5.21 KCAL/MOL
REMARK 924 INTRA-LIGAND FREE ENERGY PREDICTED BY IDOCK:   -1.75 KCAL/MOL
REMARK 927      BINDING AFFINITY PREDICTED BY RF-SCORE:    0.00 PKD
ROOT
HETATM    1  C   UNL     1     -11.766  15.450  68.607  1.00  0.00    -0.371 C  
HETATM    2  C   UNL     1     -12.149  14.057  68.134  1.00  0.00    -0.307 C  
ENDROOT
BRANCH   2   3
HETATM    3  C   UNL     1     -11.943  13.910  66.628  1.00  0.00    -0.474 C  
BRANCH   3   4
HETATM    4  C   UNL     1     -11.474  12.501  66.268  1.00  0.00    -0.421 C  
BRANCH   4   5
HETATM    5  C   UNL     1     -10.802  11.828  67.464  1.00  0.00    -0.286 C  
BRANCH   5   6
HETATM    6  C   UNL     1     -11.015  10.316  67.441  1.00  0.00    -0.317 C  
BRANCH   6   7
HETATM    7  C   UNL     1     -11.310   9.789  68.844  1.00  0.00     0.006 C  
BRANCH   7   8
HETATM    8  C   UNL     1     -11.541  10.935  69.825  1.00  0.00    -0.399 C  
BRANCH   8   9
HETATM    9  C   UNL     1     -11.841  10.404  71.226  1.00  0.00    -0.381 C  
BRANCH   9  10
HETATM   10  C   UNL     1     -12.357   8.970  71.161  1.00  0.00    -0.306 C  
BRANCH  10  11
HETATM   11  C   UNL     1     -11.707   8.085  72.223  1.00  0.00    -0.428 C  
BRANCH  11  12
HETATM   12  C   UNL     1     -11.709   6.631  71.762  1.00  0.00    -0.363 C  
BRANCH  12  13
HETATM   13  C   UNL     1     -10.851   6.409  70.519  1.00  0.00    -0.335 C  
BRANCH  13  14
HETATM   14  C   UNL     1      -9.567   5.703  70.887  1.00  0.00    -0.169 C  
HETATM   15  O   UNL     1      -9.477   4.521  71.187  1.00  0.00    -0.139 OA 
BRANCH  14  16
HETATM   16  O   UNL     1      -8.524   6.578  70.838  1.00  0.00    -0.131 OA 
BRANCH  16  17
HETATM   17  C   UNL     1      -8.611   7.577  69.803  1.00  0.00    -0.140 C  
HETATM   18  C   UNL     1      -8.274   8.947  70.381  1.00  0.00    -0.146 C  
HETATM   19  C   UNL     1      -7.622   7.192  68.711  1.00  0.00    -0.108 C  
ENDBRANCH  16  17
ENDBRANCH  14  16
ENDBRANCH  13  14
ENDBRANCH  12  13
ENDBRANCH  11  12
ENDBRANCH  10  11
ENDBRANCH   9  10
ENDBRANCH   8   9
ENDBRANCH   7   8
ENDBRANCH   6   7
ENDBRANCH   5   6
ENDBRANCH   4   5
ENDBRANCH   3   4
ENDBRANCH   2   3
TORSDOF 14
ENDMDL
MODEL      292
REMARK 921   NORMALIZED FREE ENERGY PREDICTED BY IDOCK:   -2.96 KCAL/MOL
REMARK 922        TOTAL FREE ENERGY PREDICTED BY IDOCK:   -6.95 KCAL/MOL
REMARK 923 INTER-LIGAND FREE ENERGY PREDICTED BY IDOCK:   -5.14 KCAL/MOL
REMARK 924 INTRA-LIGAND FREE ENERGY PREDICTED BY IDOCK:   -1.81 KCAL/MOL
REMARK 927      BINDING AFFINITY PREDICTED BY RF-SCORE:    0.00 PKD
ROOT
HETATM    1  C   UNL     1     -10.773  16.565  69.489  1.00  0.00    -0.321 C  
HETATM    2  C   UNL     1     -11.033  16.488  67.993  1.00  0.00    -0.320 C  
ENDROOT
BRANCH   2   3
HETATM    3  C   UNL     1     -10.375  17.653  67.257  1.00  0.00    -0.354 C  
BRANCH   3   4
HETATM    4  C   UNL     1     -10.509  18.954  68.047  1.00  0.00    -0.427 C  
BRANCH   4   5
HETATM    5  C   UNL     1      -9.855  20.115  67.299  1.00  0.00    -0.580 C  
BRANCH   5   6
HETATM    6  C   UNL     1      -8.486  19.719  66.750  1.00  0.00    -0.363 C  
BRANCH   6   7
HETATM    7  C   UNL     1      -7.369  20.226  67.659  1.00  0.00    -0.340 C  
BRANCH   7   8
HETATM    8  C   UNL     1      -6.625  19.066  68.316  1.00  0.00    -0.265 C  
BRANCH   8   9
HETATM    9  C   UNL     1      -6.709  17.806  67.457  1.00  0.00    -0.185 C  
BRANCH   9  10
HETATM   10  C   UNL     1      -6.803  16.561  68.333  1.00  0.00    -0.145 C  
BRANCH  10  11
HETATM   11  C   UNL     1      -7.275  15.343  67.540  1.00  0.00    -0.224 C  
BRANCH  11  12
HETATM   12  C   UNL     1      -8.112  14.432  68.432  1.00  0.00    -0.143 C  
BRANCH  12  13
HETATM   13  C   UNL     1      -9.003  13.486  67.631  1.00  0.00    -0.200 C  
BRANCH  13  14
HETATM   14  C   UNL     1      -8.478  12.073  67.718  1.00  0.00    -0.157 C  
HETATM   15  O   UNL     1      -7.808  11.627  68.639  1.00  0.00    -0.137 OA 
BRANCH  14  16
HETATM   16  O   UNL     1      -8.859  11.366  66.617  1.00  0.00    -0.171 OA 
BRANCH  16  17
HETATM   17  C   UNL     1      -9.321  10.027  66.879  1.00  0.00    -0.159 C  
HETATM   18  C   UNL     1     -10.670  10.079  67.589  1.00  0.00    -0.340 C  
HETATM   19  C   UNL     1      -9.441   9.313  65.540  1.00  0.00    -0.309 C  
ENDBRANCH  16  17
ENDBRANCH  14  16
ENDBRANCH  13  14
ENDBRANCH  12  13
ENDBRANCH  11  12
ENDBRANCH  10  11
ENDBRANCH   9  10
ENDBRANCH   8   9
ENDBRANCH   7   8
ENDBRANCH   6   7
ENDBRANCH   5   6
ENDBRANCH   4   5
ENDBRANCH   3   4
ENDBRANCH   2   3
TORSDOF 14
ENDMDL
MODEL      293
REMARK 921   NORMALIZED FREE ENERGY PREDICTED BY IDOCK:   -2.95 KCAL/MOL
REMARK 922        TOTAL FREE ENERGY PREDICTED BY IDOCK:   -6.94 KCAL/MOL
REMARK 923 INTER-LIGAND FREE ENERGY PREDICTED BY IDOCK:   -5.51 KCAL/MOL
REMARK 924 INTRA-LIGAND FREE ENERGY PREDICTED BY IDOCK:   -1.43 KCAL/MOL
REMARK 927      BINDING AFFINITY PREDICTED BY RF-SCORE:    0.00 PKD
ROOT
HETATM    1  C   UNL     1     -13.771  14.032  72.443  1.00  0.00    -0.669 C  
HETATM    2  C   UNL     1     -12.671  13.643  71.469  1.00  0.00    -0.420 C  
ENDROOT
BRANCH   2   3
HETATM    3  C   UNL     1     -12.399  14.762  70.467  1.00  0.00    -0.398 C  
BRANCH   3   4
HETATM    4  C   UNL     1     -12.180  14.206  69.060  1.00  0.00    -0.274 C  
BRANCH   4   5
HETATM    5  C   UNL     1     -11.613  15.279  68.132  1.00  0.00    -0.344 C  
BRANCH   5   6
HETATM    6  C   UNL     1     -10.896  16.373  68.922  1.00  0.00    -0.334 C  
BRANCH   6   7
HETATM    7  C   UNL     1      -9.685  16.894  68.151  1.00  0.00    -0.254 C  
BRANCH   7   8
HETATM    8  C   UNL     1      -8.437  16.075  68.469  1.00  0.00    -0.189 C  
BRANCH   8   9
HETATM    9  C   UNL     1      -8.044  15.193  67.284  1.00  0.00    -0.228 C  
BRANCH   9  10
HETATM   10  C   UNL     1      -7.158  14.039  67.741  1.00  0.00    -0.183 C  
BRANCH  10  11
HETATM   11  C   UNL     1      -7.758  12.683  67.374  1.00  0.00    -0.161 C  
BRANCH  11  12
HETATM   12  C   UNL     1      -9.137  12.534  68.008  1.00  0.00    -0.200 C  
BRANCH  12  13
HETATM   13  C   UNL     1     -10.038  11.575  67.233  1.00  0.00    -0.223 C  
BRANCH  13  14
HETATM   14  C   UNL     1     -10.829  10.713  68.188  1.00  0.00    -0.245 C  
HETATM   15  O   UNL     1     -11.995  10.905  68.507  1.00  0.00    -0.520 OA 
BRANCH  14  16
HETATM   16  O   UNL     1     -10.053   9.690  68.645  1.00  0.00    -0.167 OA 
BRANCH  16  17
HETATM   17  C   UNL     1     -10.657   8.384  68.570  1.00  0.00    -0.106 C  
HETATM   18  C   UNL     1     -10.499   7.825  67.160  1.00  0.00    -0.413 C  
HETATM   19  C   UNL     1      -9.953   7.496  69.587  1.00  0.00    -0.184 C  
ENDBRANCH  16  17
ENDBRANCH  14  16
ENDBRANCH  13  14
ENDBRANCH  12  13
ENDBRANCH  11  12
ENDBRANCH  10  11
ENDBRANCH   9  10
ENDBRANCH   8   9
ENDBRANCH   7   8
ENDBRANCH   6   7
ENDBRANCH   5   6
ENDBRANCH   4   5
ENDBRANCH   3   4
ENDBRANCH   2   3
TORSDOF 14
ENDMDL
MODEL      294
REMARK 921   NORMALIZED FREE ENERGY PREDICTED BY IDOCK:   -2.95 KCAL/MOL
REMARK 922        TOTAL FREE ENERGY PREDICTED BY IDOCK:   -6.94 KCAL/MOL
REMARK 923 INTER-LIGAND FREE ENERGY PREDICTED BY IDOCK:   -5.38 KCAL/MOL
REMARK 924 INTRA-LIGAND FREE ENERGY PREDICTED BY IDOCK:   -1.56 KCAL/MOL
REMARK 927      BINDING AFFINITY PREDICTED BY RF-SCORE:    0.00 PKD
ROOT
HETATM    1  C   UNL     1     -12.820  13.949  65.498  1.00  0.00    -0.471 C  
HETATM    2  C   UNL     1     -11.992  14.123  66.760  1.00  0.00    -0.475 C  
ENDROOT
BRANCH   2   3
HETATM    3  C   UNL     1     -11.875  12.809  67.529  1.00  0.00    -0.402 C  
BRANCH   3   4
HETATM    4  C   UNL     1     -11.223  11.723  66.675  1.00  0.00    -0.383 C  
BRANCH   4   5
HETATM    5  C   UNL     1      -9.700  11.834  66.720  1.00  0.00    -0.213 C  
BRANCH   5   6
HETATM    6  C   UNL     1      -9.152  11.388  68.074  1.00  0.00    -0.171 C  
BRANCH   6   7
HETATM    7  C   UNL     1      -9.229   9.869  68.217  1.00  0.00    -0.130 C  
BRANCH   7   8
HETATM    8  C   UNL     1      -8.402   9.173  67.140  1.00  0.00    -0.117 C  
BRANCH   8   9
HETATM    9  C   UNL     1      -9.216   8.085  66.442  1.00  0.00    -0.245 C  
BRANCH   9  10
HETATM   10  C   UNL     1     -10.606   7.972  67.059  1.00  0.00    -0.364 C  
BRANCH  10  11
HETATM   11  C   UNL     1     -11.058   6.517  67.178  1.00  0.00    -0.434 C  
BRANCH  11  12
HETATM   12  C   UNL     1     -11.102   6.103  68.646  1.00  0.00    -0.378 C  
BRANCH  12  13
HETATM   13  C   UNL     1     -11.195   7.300  69.589  1.00  0.00    -0.109 C  
BRANCH  13  14
HETATM   14  C   UNL     1     -11.538   6.840  70.986  1.00  0.00    -0.339 C  
HETATM   15  O   UNL     1     -12.667   6.800  71.456  1.00  0.00    -0.355 OA 
BRANCH  14  16
HETATM   16  O   UNL     1     -10.404   6.478  71.649  1.00  0.00    -0.204 OA 
BRANCH  16  17
HETATM   17  C   UNL     1      -9.292   7.383  71.499  1.00  0.00    -0.144 C  
HETATM   18  C   UNL     1      -9.085   8.163  72.793  1.00  0.00    -0.328 C  
HETATM   19  C   UNL     1      -8.064   6.548  71.168  1.00  0.00    -0.116 C  
ENDBRANCH  16  17
ENDBRANCH  14  16
ENDBRANCH  13  14
ENDBRANCH  12  13
ENDBRANCH  11  12
ENDBRANCH  10  11
ENDBRANCH   9  10
ENDBRANCH   8   9
ENDBRANCH   7   8
ENDBRANCH   6   7
ENDBRANCH   5   6
ENDBRANCH   4   5
ENDBRANCH   3   4
ENDBRANCH   2   3
TORSDOF 14
ENDMDL
MODEL      295
REMARK 921   NORMALIZED FREE ENERGY PREDICTED BY IDOCK:   -2.95 KCAL/MOL
REMARK 922        TOTAL FREE ENERGY PREDICTED BY IDOCK:   -6.93 KCAL/MOL
REMARK 923 INTER-LIGAND FREE ENERGY PREDICTED BY IDOCK:   -5.46 KCAL/MOL
REMARK 924 INTRA-LIGAND FREE ENERGY PREDICTED BY IDOCK:   -1.47 KCAL/MOL
REMARK 927      BINDING AFFINITY PREDICTED BY RF-SCORE:    0.00 PKD
ROOT
HETATM    1  C   UNL     1     -11.961  15.085  69.848  1.00  0.00    -0.374 C  
HETATM    2  C   UNL     1     -11.550  15.828  68.587  1.00  0.00    -0.392 C  
ENDROOT
BRANCH   2   3
HETATM    3  C   UNL     1     -10.640  14.970  67.711  1.00  0.00    -0.264 C  
BRANCH   3   4
HETATM    4  C   UNL     1      -9.733  14.080  68.560  1.00  0.00    -0.215 C  
BRANCH   4   5
HETATM    5  C   UNL     1      -8.739  13.322  67.682  1.00  0.00    -0.195 C  
BRANCH   5   6
HETATM    6  C   UNL     1      -8.685  11.842  68.058  1.00  0.00    -0.173 C  
BRANCH   6   7
HETATM    7  C   UNL     1     -10.088  11.298  68.321  1.00  0.00    -0.198 C  
BRANCH   7   8
HETATM    8  C   UNL     1     -10.722  10.770  67.037  1.00  0.00    -0.320 C  
BRANCH   8   9
HETATM    9  C   UNL     1     -10.093   9.440  66.623  1.00  0.00    -0.332 C  
BRANCH   9  10
HETATM   10  C   UNL     1     -10.535   8.320  67.559  1.00  0.00    -0.325 C  
BRANCH  10  11
HETATM   11  C   UNL     1      -9.672   7.069  67.394  1.00  0.00    -0.177 C  
BRANCH  11  12
HETATM   12  C   UNL     1     -10.168   5.967  68.325  1.00  0.00    -0.218 C  
BRANCH  12  13
HETATM   13  C   UNL     1     -11.407   6.381  69.114  1.00  0.00    -0.366 C  
BRANCH  13  14
HETATM   14  C   UNL     1     -11.147   6.264  70.597  1.00  0.00    -0.327 C  
HETATM   15  O   UNL     1     -10.476   5.389  71.126  1.00  0.00    -0.227 OA 
BRANCH  14  16
HETATM   16  O   UNL     1     -11.773   7.276  71.261  1.00  0.00    -0.272 OA 
BRANCH  16  17
HETATM   17  C   UNL     1     -11.417   8.604  70.828  1.00  0.00    -0.259 C  
HETATM   18  C   UNL     1     -12.510   9.587  71.232  1.00  0.00    -0.432 C  
HETATM   19  C   UNL     1     -10.094   8.962  71.492  1.00  0.00    -0.394 C  
ENDBRANCH  16  17
ENDBRANCH  14  16
ENDBRANCH  13  14
ENDBRANCH  12  13
ENDBRANCH  11  12
ENDBRANCH  10  11
ENDBRANCH   9  10
ENDBRANCH   8   9
ENDBRANCH   7   8
ENDBRANCH   6   7
ENDBRANCH   5   6
ENDBRANCH   4   5
ENDBRANCH   3   4
ENDBRANCH   2   3
TORSDOF 14
ENDMDL
MODEL      296
REMARK 921   NORMALIZED FREE ENERGY PREDICTED BY IDOCK:   -2.94 KCAL/MOL
REMARK 922        TOTAL FREE ENERGY PREDICTED BY IDOCK:   -6.92 KCAL/MOL
REMARK 923 INTER-LIGAND FREE ENERGY PREDICTED BY IDOCK:   -5.64 KCAL/MOL
REMARK 924 INTRA-LIGAND FREE ENERGY PREDICTED BY IDOCK:   -1.27 KCAL/MOL
REMARK 927      BINDING AFFINITY PREDICTED BY RF-SCORE:    0.00 PKD
ROOT
HETATM    1  C   UNL     1     -10.355   8.555  71.663  1.00  0.00    -0.333 C  
HETATM    2  C   UNL     1     -11.224   9.510  70.861  1.00  0.00    -0.411 C  
ENDROOT
BRANCH   2   3
HETATM    3  C   UNL     1     -12.693   9.390  71.262  1.00  0.00    -0.391 C  
BRANCH   3   4
HETATM    4  C   UNL     1     -13.204  10.687  71.887  1.00  0.00    -0.528 C  
BRANCH   4   5
HETATM    5  C   UNL     1     -12.583  11.904  71.203  1.00  0.00    -0.390 C  
BRANCH   5   6
HETATM    6  C   UNL     1     -13.193  13.204  71.723  1.00  0.00    -0.494 C  
BRANCH   6   7
HETATM    7  C   UNL     1     -13.221  14.267  70.626  1.00  0.00    -0.172 C  
BRANCH   7   8
HETATM    8  C   UNL     1     -11.953  15.117  70.653  1.00  0.00    -0.371 C  
BRANCH   8   9
HETATM    9  C   UNL     1     -11.378  15.286  69.248  1.00  0.00    -0.308 C  
BRANCH   9  10
HETATM   10  C   UNL     1     -11.430  13.968  68.481  1.00  0.00    -0.336 C  
BRANCH  10  11
HETATM   11  C   UNL     1     -11.122  14.163  66.997  1.00  0.00    -0.314 C  
BRANCH  11  12
HETATM   12  C   UNL     1     -10.054  15.237  66.823  1.00  0.00    -0.262 C  
BRANCH  12  13
HETATM   13  C   UNL     1      -8.661  14.650  66.609  1.00  0.00    -0.197 C  
BRANCH  13  14
HETATM   14  C   UNL     1      -7.746  15.045  67.744  1.00  0.00    -0.153 C  
HETATM   15  O   UNL     1      -7.482  14.343  68.711  1.00  0.00    -0.122 OA 
BRANCH  14  16
HETATM   16  O   UNL     1      -7.258  16.300  67.534  1.00  0.00    -0.128 OA 
BRANCH  16  17
HETATM   17  C   UNL     1      -7.246  17.153  68.695  1.00  0.00    -0.229 C  
HETATM   18  C   UNL     1      -5.934  17.928  68.750  1.00  0.00    -0.192 C  
HETATM   19  C   UNL     1      -8.431  18.102  68.578  1.00  0.00    -0.312 C  
ENDBRANCH  16  17
ENDBRANCH  14  16
ENDBRANCH  13  14
ENDBRANCH  12  13
ENDBRANCH  11  12
ENDBRANCH  10  11
ENDBRANCH   9  10
ENDBRANCH   8   9
ENDBRANCH   7   8
ENDBRANCH   6   7
ENDBRANCH   5   6
ENDBRANCH   4   5
ENDBRANCH   3   4
ENDBRANCH   2   3
TORSDOF 14
ENDMDL
MODEL      297
REMARK 921   NORMALIZED FREE ENERGY PREDICTED BY IDOCK:   -2.94 KCAL/MOL
REMARK 922        TOTAL FREE ENERGY PREDICTED BY IDOCK:   -6.91 KCAL/MOL
REMARK 923 INTER-LIGAND FREE ENERGY PREDICTED BY IDOCK:   -4.99 KCAL/MOL
REMARK 924 INTRA-LIGAND FREE ENERGY PREDICTED BY IDOCK:   -1.92 KCAL/MOL
REMARK 927      BINDING AFFINITY PREDICTED BY RF-SCORE:    0.00 PKD
ROOT
HETATM    1  C   UNL     1     -11.421  14.865  70.452  1.00  0.00    -0.312 C  
HETATM    2  C   UNL     1     -11.785  15.505  69.122  1.00  0.00    -0.380 C  
ENDROOT
BRANCH   2   3
HETATM    3  C   UNL     1     -10.797  15.106  68.028  1.00  0.00    -0.284 C  
BRANCH   3   4
HETATM    4  C   UNL     1      -9.354  15.225  68.515  1.00  0.00    -0.200 C  
BRANCH   4   5
HETATM    5  C   UNL     1      -8.392  14.546  67.541  1.00  0.00    -0.201 C  
BRANCH   5   6
HETATM    6  C   UNL     1      -7.447  13.593  68.269  1.00  0.00    -0.124 C  
BRANCH   6   7
HETATM    7  C   UNL     1      -6.883  12.549  67.308  1.00  0.00    -0.116 C  
BRANCH   7   8
HETATM    8  C   UNL     1      -6.747  11.190  67.990  1.00  0.00    -0.062 C  
BRANCH   8   9
HETATM    9  C   UNL     1      -7.792  11.024  69.093  1.00  0.00    -0.092 C  
BRANCH   9  10
HETATM   10  C   UNL     1      -9.036  10.323  68.557  1.00  0.00    -0.134 C  
BRANCH  10  11
HETATM   11  C   UNL     1     -10.231  11.271  68.477  1.00  0.00    -0.214 C  
BRANCH  11  12
HETATM   12  C   UNL     1     -11.157  10.849  67.341  1.00  0.00    -0.373 C  
BRANCH  12  13
HETATM   13  C   UNL     1     -10.396  10.271  66.150  1.00  0.00    -0.253 C  
BRANCH  13  14
HETATM   14  C   UNL     1     -10.216  11.323  65.082  1.00  0.00    -0.289 C  
HETATM   15  O   UNL     1      -9.367  11.293  64.201  1.00  0.00    -0.191 OA 
BRANCH  14  16
HETATM   16  O   UNL     1     -11.137  12.314  65.244  1.00  0.00    -0.298 OA 
BRANCH  16  17
HETATM   17  C   UNL     1     -11.653  12.875  64.021  1.00  0.00    -0.426 C  
HETATM   18  C   UNL     1     -12.764  11.985  63.475  1.00  0.00    -0.567 C  
HETATM   19  C   UNL     1     -12.183  14.266  64.344  1.00  0.00    -0.471 C  
ENDBRANCH  16  17
ENDBRANCH  14  16
ENDBRANCH  13  14
ENDBRANCH  12  13
ENDBRANCH  11  12
ENDBRANCH  10  11
ENDBRANCH   9  10
ENDBRANCH   8   9
ENDBRANCH   7   8
ENDBRANCH   6   7
ENDBRANCH   5   6
ENDBRANCH   4   5
ENDBRANCH   3   4
ENDBRANCH   2   3
TORSDOF 14
ENDMDL
MODEL      298
REMARK 921   NORMALIZED FREE ENERGY PREDICTED BY IDOCK:   -2.93 KCAL/MOL
REMARK 922        TOTAL FREE ENERGY PREDICTED BY IDOCK:   -6.90 KCAL/MOL
REMARK 923 INTER-LIGAND FREE ENERGY PREDICTED BY IDOCK:   -5.30 KCAL/MOL
REMARK 924 INTRA-LIGAND FREE ENERGY PREDICTED BY IDOCK:   -1.60 KCAL/MOL
REMARK 927      BINDING AFFINITY PREDICTED BY RF-SCORE:    0.00 PKD
ROOT
HETATM    1  C   UNL     1      -7.612   7.336  70.199  1.00  0.00    -0.090 C  
HETATM    2  C   UNL     1      -7.410   8.467  71.194  1.00  0.00    -0.074 C  
ENDROOT
BRANCH   2   3
HETATM    3  C   UNL     1      -8.368   8.341  72.377  1.00  0.00    -0.231 C  
BRANCH   3   4
HETATM    4  C   UNL     1      -8.788   6.888  72.597  1.00  0.00    -0.137 C  
BRANCH   4   5
HETATM    5  C   UNL     1      -9.939   6.800  73.598  1.00  0.00    -0.293 C  
BRANCH   5   6
HETATM    6  C   UNL     1     -11.192   6.216  72.951  1.00  0.00    -0.250 C  
BRANCH   6   7
HETATM    7  C   UNL     1     -11.189   6.462  71.443  1.00  0.00    -0.340 C  
BRANCH   7   8
HETATM    8  C   UNL     1     -12.242   7.497  71.053  1.00  0.00    -0.288 C  
BRANCH   8   9
HETATM    9  C   UNL     1     -12.596   8.391  72.240  1.00  0.00    -0.401 C  
BRANCH   9  10
HETATM   10  C   UNL     1     -12.676   9.853  71.811  1.00  0.00    -0.523 C  
BRANCH  10  11
HETATM   11  C   UNL     1     -11.570  10.213  70.819  1.00  0.00    -0.445 C  
BRANCH  11  12
HETATM   12  C   UNL     1     -12.146  11.045  69.677  1.00  0.00    -0.411 C  
BRANCH  12  13
HETATM   13  C   UNL     1     -11.467  10.753  68.341  1.00  0.00    -0.358 C  
BRANCH  13  14
HETATM   14  C   UNL     1     -10.132  10.084  68.566  1.00  0.00    -0.169 C  
HETATM   15  O   UNL     1      -9.094  10.665  68.853  1.00  0.00    -0.165 OA 
BRANCH  14  16
HETATM   16  O   UNL     1     -10.252   8.737  68.400  1.00  0.00    -0.186 OA 
BRANCH  16  17
HETATM   17  C   UNL     1     -10.533   8.309  67.053  1.00  0.00    -0.314 C  
HETATM   18  C   UNL     1      -9.256   8.357  66.221  1.00  0.00    -0.263 C  
HETATM   19  C   UNL     1     -11.077   6.889  67.128  1.00  0.00    -0.362 C  
ENDBRANCH  16  17
ENDBRANCH  14  16
ENDBRANCH  13  14
ENDBRANCH  12  13
ENDBRANCH  11  12
ENDBRANCH  10  11
ENDBRANCH   9  10
ENDBRANCH   8   9
ENDBRANCH   7   8
ENDBRANCH   6   7
ENDBRANCH   5   6
ENDBRANCH   4   5
ENDBRANCH   3   4
ENDBRANCH   2   3
TORSDOF 14
ENDMDL
MODEL      299
REMARK 921   NORMALIZED FREE ENERGY PREDICTED BY IDOCK:   -2.93 KCAL/MOL
REMARK 922        TOTAL FREE ENERGY PREDICTED BY IDOCK:   -6.90 KCAL/MOL
REMARK 923 INTER-LIGAND FREE ENERGY PREDICTED BY IDOCK:   -5.63 KCAL/MOL
REMARK 924 INTRA-LIGAND FREE ENERGY PREDICTED BY IDOCK:   -1.27 KCAL/MOL
REMARK 927      BINDING AFFINITY PREDICTED BY RF-SCORE:    0.00 PKD
ROOT
HETATM    1  C   UNL     1     -14.231  14.145  72.082  1.00  0.00    -0.638 C  
HETATM    2  C   UNL     1     -13.039  13.259  71.760  1.00  0.00    -0.472 C  
ENDROOT
BRANCH   2   3
HETATM    3  C   UNL     1     -12.483  13.564  70.371  1.00  0.00    -0.345 C  
BRANCH   3   4
HETATM    4  C   UNL     1     -11.913  12.307  69.714  1.00  0.00    -0.365 C  
BRANCH   4   5
HETATM    5  C   UNL     1     -11.628  12.548  68.233  1.00  0.00    -0.376 C  
BRANCH   5   6
HETATM    6  C   UNL     1     -10.986  13.916  68.008  1.00  0.00    -0.267 C  
BRANCH   6   7
HETATM    7  C   UNL     1     -11.660  14.647  66.848  1.00  0.00    -0.374 C  
BRANCH   7   8
HETATM    8  C   UNL     1     -10.899  14.427  65.543  1.00  0.00    -0.335 C  
BRANCH   8   9
HETATM    9  C   UNL     1     -11.736  13.623  64.549  1.00  0.00    -0.429 C  
BRANCH   9  10
HETATM   10  C   UNL     1     -10.935  12.451  63.992  1.00  0.00    -0.442 C  
BRANCH  10  11
HETATM   11  C   UNL     1     -11.279  11.141  64.699  1.00  0.00    -0.052 C  
BRANCH  11  12
HETATM   12  C   UNL     1     -10.157  10.754  65.656  1.00  0.00    -0.327 C  
BRANCH  12  13
HETATM   13  C   UNL     1     -10.285   9.318  66.160  1.00  0.00    -0.229 C  
BRANCH  13  14
HETATM   14  C   UNL     1      -9.049   8.921  66.931  1.00  0.00    -0.133 C  
HETATM   15  O   UNL     1      -7.913   9.304  66.685  1.00  0.00    -0.106 OA 
BRANCH  14  16
HETATM   16  O   UNL     1      -9.384   8.071  67.942  1.00  0.00    -0.137 OA 
BRANCH  16  17
HETATM   17  C   UNL     1      -9.882   6.786  67.520  1.00  0.00    -0.132 C  
HETATM   18  C   UNL     1      -8.713   5.860  67.203  1.00  0.00    -0.108 C  
HETATM   19  C   UNL     1     -10.723   6.226  68.659  1.00  0.00    -0.357 C  
ENDBRANCH  16  17
ENDBRANCH  14  16
ENDBRANCH  13  14
ENDBRANCH  12  13
ENDBRANCH  11  12
ENDBRANCH  10  11
ENDBRANCH   9  10
ENDBRANCH   8   9
ENDBRANCH   7   8
ENDBRANCH   6   7
ENDBRANCH   5   6
ENDBRANCH   4   5
ENDBRANCH   3   4
ENDBRANCH   2   3
TORSDOF 14
ENDMDL
MODEL      300
REMARK 921   NORMALIZED FREE ENERGY PREDICTED BY IDOCK:   -2.93 KCAL/MOL
REMARK 922        TOTAL FREE ENERGY PREDICTED BY IDOCK:   -6.89 KCAL/MOL
REMARK 923 INTER-LIGAND FREE ENERGY PREDICTED BY IDOCK:   -5.70 KCAL/MOL
REMARK 924 INTRA-LIGAND FREE ENERGY PREDICTED BY IDOCK:   -1.19 KCAL/MOL
REMARK 927      BINDING AFFINITY PREDICTED BY RF-SCORE:    0.00 PKD
ROOT
HETATM    1  C   UNL     1     -10.034  19.649  68.946  1.00  0.00    -0.524 C  
HETATM    2  C   UNL     1      -9.808  19.852  67.456  1.00  0.00    -0.538 C  
ENDROOT
BRANCH   2   3
HETATM    3  C   UNL     1      -8.491  19.222  67.007  1.00  0.00    -0.305 C  
BRANCH   3   4
HETATM    4  C   UNL     1      -8.734  18.023  66.092  1.00  0.00    -0.117 C  
BRANCH   4   5
HETATM    5  C   UNL     1      -7.887  16.827  66.525  1.00  0.00    -0.338 C  
BRANCH   5   6
HETATM    6  C   UNL     1      -8.739  15.567  66.667  1.00  0.00    -0.326 C  
BRANCH   6   7
HETATM    7  C   UNL     1     -10.213  15.878  66.412  1.00  0.00    -0.311 C  
BRANCH   7   8
HETATM    8  C   UNL     1     -11.112  14.792  66.997  1.00  0.00    -0.333 C  
BRANCH   8   9
HETATM    9  C   UNL     1     -11.142  13.561  66.094  1.00  0.00    -0.299 C  
BRANCH   9  10
HETATM   10  C   UNL     1     -11.461  13.955  64.655  1.00  0.00    -0.386 C  
BRANCH  10  11
HETATM   11  C   UNL     1     -11.513  12.738  63.732  1.00  0.00    -0.533 C  
BRANCH  11  12
HETATM   12  C   UNL     1     -10.128  12.109  63.621  1.00  0.00    -0.410 C  
BRANCH  12  13
HETATM   13  C   UNL     1     -10.144  10.606  63.894  1.00  0.00    -0.356 C  
BRANCH  13  14
HETATM   14  C   UNL     1      -9.299  10.284  65.104  1.00  0.00    -0.226 C  
HETATM   15  O   UNL     1      -9.683  10.343  66.264  1.00  0.00    -0.187 OA 
BRANCH  14  16
HETATM   16  O   UNL     1      -8.046   9.921  64.713  1.00  0.00    -0.136 OA 
BRANCH  16  17
HETATM   17  C   UNL     1      -7.974   9.233  63.449  1.00  0.00    -0.143 C  
HETATM   18  C   UNL     1      -6.897   9.870  62.577  1.00  0.00    -0.116 C  
HETATM   19  C   UNL     1      -7.643   7.775  63.740  1.00  0.00    -0.118 C  
ENDBRANCH  16  17
ENDBRANCH  14  16
ENDBRANCH  13  14
ENDBRANCH  12  13
ENDBRANCH  11  12
ENDBRANCH  10  11
ENDBRANCH   9  10
ENDBRANCH   8   9
ENDBRANCH   7   8
ENDBRANCH   6   7
ENDBRANCH   5   6
ENDBRANCH   4   5
ENDBRANCH   3   4
ENDBRANCH   2   3
TORSDOF 14
ENDMDL
MODEL      301
REMARK 921   NORMALIZED FREE ENERGY PREDICTED BY IDOCK:   -2.92 KCAL/MOL
REMARK 922        TOTAL FREE ENERGY PREDICTED BY IDOCK:   -6.88 KCAL/MOL
REMARK 923 INTER-LIGAND FREE ENERGY PREDICTED BY IDOCK:   -5.63 KCAL/MOL
REMARK 924 INTRA-LIGAND FREE ENERGY PREDICTED BY IDOCK:   -1.25 KCAL/MOL
REMARK 927      BINDING AFFINITY PREDICTED BY RF-SCORE:    0.00 PKD
ROOT
HETATM    1  C   UNL     1     -12.920  16.083  73.563  1.00  0.00    -0.694 C  
HETATM    2  C   UNL     1     -11.895  15.253  72.807  1.00  0.00    -0.521 C  
ENDROOT
BRANCH   2   3
HETATM    3  C   UNL     1     -11.778  15.709  71.354  1.00  0.00    -0.491 C  
BRANCH   3   4
HETATM    4  C   UNL     1     -12.781  14.978  70.462  1.00  0.00    -0.406 C  
BRANCH   4   5
HETATM    5  C   UNL     1     -12.073  13.969  69.560  1.00  0.00    -0.397 C  
BRANCH   5   6
HETATM    6  C   UNL     1     -12.050  12.580  70.194  1.00  0.00    -0.368 C  
BRANCH   6   7
HETATM    7  C   UNL     1     -12.159  11.494  69.125  1.00  0.00    -0.329 C  
BRANCH   7   8
HETATM    8  C   UNL     1     -11.778  12.036  67.749  1.00  0.00    -0.379 C  
BRANCH   8   9
HETATM    9  C   UNL     1     -10.886  11.048  67.000  1.00  0.00    -0.334 C  
BRANCH   9  10
HETATM   10  C   UNL     1      -9.757  11.779  66.280  1.00  0.00    -0.242 C  
BRANCH  10  11
HETATM   11  C   UNL     1      -8.632  12.169  67.237  1.00  0.00    -0.180 C  
BRANCH  11  12
HETATM   12  C   UNL     1      -8.399  13.676  67.181  1.00  0.00    -0.151 C  
BRANCH  12  13
HETATM   13  C   UNL     1      -7.689  14.205  68.425  1.00  0.00    -0.140 C  
BRANCH  13  14
HETATM   14  C   UNL     1      -6.421  14.928  68.036  1.00  0.00    -0.150 C  
HETATM   15  O   UNL     1      -6.304  15.671  67.071  1.00  0.00    -0.298 OA 
BRANCH  14  16
HETATM   16  O   UNL     1      -5.426  14.629  68.917  1.00  0.00    -0.085 OA 
BRANCH  16  17
HETATM   17  C   UNL     1      -5.780  14.759  70.308  1.00  0.00    -0.139 C  
HETATM   18  C   UNL     1      -5.168  13.611  71.104  1.00  0.00    -0.163 C  
HETATM   19  C   UNL     1      -5.245  16.100  70.793  1.00  0.00    -0.162 C  
ENDBRANCH  16  17
ENDBRANCH  14  16
ENDBRANCH  13  14
ENDBRANCH  12  13
ENDBRANCH  11  12
ENDBRANCH  10  11
ENDBRANCH   9  10
ENDBRANCH   8   9
ENDBRANCH   7   8
ENDBRANCH   6   7
ENDBRANCH   5   6
ENDBRANCH   4   5
ENDBRANCH   3   4
ENDBRANCH   2   3
TORSDOF 14
ENDMDL
MODEL      302
REMARK 921   NORMALIZED FREE ENERGY PREDICTED BY IDOCK:   -2.92 KCAL/MOL
REMARK 922        TOTAL FREE ENERGY PREDICTED BY IDOCK:   -6.88 KCAL/MOL
REMARK 923 INTER-LIGAND FREE ENERGY PREDICTED BY IDOCK:   -5.24 KCAL/MOL
REMARK 924 INTRA-LIGAND FREE ENERGY PREDICTED BY IDOCK:   -1.64 KCAL/MOL
REMARK 927      BINDING AFFINITY PREDICTED BY RF-SCORE:    0.00 PKD
ROOT
HETATM    1  C   UNL     1     -12.529  15.002  71.691  1.00  0.00    -0.405 C  
HETATM    2  C   UNL     1     -12.587  13.831  70.724  1.00  0.00    -0.410 C  
ENDROOT
BRANCH   2   3
HETATM    3  C   UNL     1     -11.474  13.920  69.682  1.00  0.00    -0.310 C  
BRANCH   3   4
HETATM    4  C   UNL     1     -11.822  14.923  68.583  1.00  0.00    -0.332 C  
BRANCH   4   5
HETATM    5  C   UNL     1     -12.023  14.217  67.243  1.00  0.00    -0.449 C  
BRANCH   5   6
HETATM    6  C   UNL     1     -11.712  12.725  67.351  1.00  0.00    -0.425 C  
BRANCH   6   7
HETATM    7  C   UNL     1     -11.016  12.224  66.087  1.00  0.00    -0.328 C  
BRANCH   7   8
HETATM    8  C   UNL     1      -9.545  12.631  66.072  1.00  0.00    -0.190 C  
BRANCH   8   9
HETATM    9  C   UNL     1      -8.941  12.554  67.473  1.00  0.00    -0.185 C  
BRANCH   9  10
HETATM   10  C   UNL     1      -8.002  11.358  67.592  1.00  0.00    -0.123 C  
BRANCH  10  11
HETATM   11  C   UNL     1      -8.078  10.712  68.974  1.00  0.00    -0.148 C  
BRANCH  11  12
HETATM   12  C   UNL     1      -9.498  10.225  69.245  1.00  0.00    -0.230 C  
BRANCH  12  13
HETATM   13  C   UNL     1      -9.982   9.221  68.202  1.00  0.00    -0.206 C  
BRANCH  13  14
HETATM   14  C   UNL     1      -9.417   7.850  68.492  1.00  0.00    -0.148 C  
HETATM   15  O   UNL     1      -8.623   7.252  67.780  1.00  0.00    -0.120 OA 
BRANCH  14  16
HETATM   16  O   UNL     1      -9.926   7.376  69.664  1.00  0.00    -0.177 OA 
BRANCH  16  17
HETATM   17  C   UNL     1     -10.962   6.385  69.525  1.00  0.00    -0.359 C  
HETATM   18  C   UNL     1     -10.370   4.992  69.715  1.00  0.00    -0.286 C  
HETATM   19  C   UNL     1     -12.017   6.673  70.584  1.00  0.00    -0.404 C  
ENDBRANCH  16  17
ENDBRANCH  14  16
ENDBRANCH  13  14
ENDBRANCH  12  13
ENDBRANCH  11  12
ENDBRANCH  10  11
ENDBRANCH   9  10
ENDBRANCH   8   9
ENDBRANCH   7   8
ENDBRANCH   6   7
ENDBRANCH   5   6
ENDBRANCH   4   5
ENDBRANCH   3   4
ENDBRANCH   2   3
TORSDOF 14
ENDMDL
MODEL      303
REMARK 921   NORMALIZED FREE ENERGY PREDICTED BY IDOCK:   -2.92 KCAL/MOL
REMARK 922        TOTAL FREE ENERGY PREDICTED BY IDOCK:   -6.88 KCAL/MOL
REMARK 923 INTER-LIGAND FREE ENERGY PREDICTED BY IDOCK:   -6.05 KCAL/MOL
REMARK 924 INTRA-LIGAND FREE ENERGY PREDICTED BY IDOCK:   -0.82 KCAL/MOL
REMARK 927      BINDING AFFINITY PREDICTED BY RF-SCORE:    0.00 PKD
ROOT
HETATM    1  C   UNL     1     -10.303   7.750  71.434  1.00  0.00    -0.226 C  
HETATM    2  C   UNL     1     -10.671   9.207  71.661  1.00  0.00    -0.441 C  
ENDROOT
BRANCH   2   3
HETATM    3  C   UNL     1     -11.705   9.681  70.641  1.00  0.00    -0.353 C  
BRANCH   3   4
HETATM    4  C   UNL     1     -11.174  10.853  69.817  1.00  0.00    -0.351 C  
BRANCH   4   5
HETATM    5  C   UNL     1     -10.898  10.426  68.377  1.00  0.00    -0.289 C  
BRANCH   5   6
HETATM    6  C   UNL     1      -9.483  10.807  67.947  1.00  0.00    -0.165 C  
BRANCH   6   7
HETATM    7  C   UNL     1      -9.231  10.403  66.495  1.00  0.00    -0.184 C  
BRANCH   7   8
HETATM    8  C   UNL     1     -10.529  10.395  65.693  1.00  0.00    -0.185 C  
BRANCH   8   9
HETATM    9  C   UNL     1     -10.343  11.086  64.343  1.00  0.00    -0.424 C  
BRANCH   9  10
HETATM   10  C   UNL     1     -11.400  12.166  64.139  1.00  0.00    -0.449 C  
BRANCH  10  11
HETATM   11  C   UNL     1     -12.074  12.556  65.454  1.00  0.00    -0.494 C  
BRANCH  11  12
HETATM   12  C   UNL     1     -11.903  14.051  65.704  1.00  0.00    -0.384 C  
BRANCH  12  13
HETATM   13  C   UNL     1     -10.605  14.377  66.439  1.00  0.00    -0.297 C  
BRANCH  13  14
HETATM   14  C   UNL     1     -10.514  15.860  66.709  1.00  0.00    -0.309 C  
HETATM   15  O   UNL     1     -10.977  16.426  67.690  1.00  0.00    -0.308 OA 
BRANCH  14  16
HETATM   16  O   UNL     1      -9.842  16.477  65.697  1.00  0.00    -0.511 OA 
BRANCH  16  17
HETATM   17  C   UNL     1      -8.635  17.159  66.090  1.00  0.00    -0.187 C  
HETATM   18  C   UNL     1      -8.971  18.570  66.560  1.00  0.00    -0.300 C  
HETATM   19  C   UNL     1      -7.999  16.351  67.213  1.00  0.00    -0.196 C  
ENDBRANCH  16  17
ENDBRANCH  14  16
ENDBRANCH  13  14
ENDBRANCH  12  13
ENDBRANCH  11  12
ENDBRANCH  10  11
ENDBRANCH   9  10
ENDBRANCH   8   9
ENDBRANCH   7   8
ENDBRANCH   6   7
ENDBRANCH   5   6
ENDBRANCH   4   5
ENDBRANCH   3   4
ENDBRANCH   2   3
TORSDOF 14
ENDMDL
MODEL      304
REMARK 921   NORMALIZED FREE ENERGY PREDICTED BY IDOCK:   -2.92 KCAL/MOL
REMARK 922        TOTAL FREE ENERGY PREDICTED BY IDOCK:   -6.88 KCAL/MOL
REMARK 923 INTER-LIGAND FREE ENERGY PREDICTED BY IDOCK:   -4.79 KCAL/MOL
REMARK 924 INTRA-LIGAND FREE ENERGY PREDICTED BY IDOCK:   -2.09 KCAL/MOL
REMARK 927      BINDING AFFINITY PREDICTED BY RF-SCORE:    0.00 PKD
ROOT
HETATM    1  C   UNL     1      -8.078   3.830  67.288  1.00  0.00    -0.091 C  
HETATM    2  C   UNL     1      -8.125   4.652  66.011  1.00  0.00    -0.103 C  
ENDROOT
BRANCH   2   3
HETATM    3  C   UNL     1      -7.352   5.960  66.166  1.00  0.00    -0.081 C  
BRANCH   3   4
HETATM    4  C   UNL     1      -6.798   6.112  67.582  1.00  0.00    -0.060 C  
BRANCH   4   5
HETATM    5  C   UNL     1      -7.123   7.493  68.149  1.00  0.00    -0.084 C  
BRANCH   5   6
HETATM    6  C   UNL     1      -7.599   8.444  67.052  1.00  0.00    -0.092 C  
BRANCH   6   7
HETATM    7  C   UNL     1      -8.811   9.247  67.521  1.00  0.00    -0.123 C  
BRANCH   7   8
HETATM    8  C   UNL     1     -10.042   8.927  66.677  1.00  0.00    -0.357 C  
BRANCH   8   9
HETATM    9  C   UNL     1     -10.511   7.492  66.916  1.00  0.00    -0.385 C  
BRANCH   9  10
HETATM   10  C   UNL     1     -10.885   7.283  68.379  1.00  0.00    -0.109 C  
BRANCH  10  11
HETATM   11  C   UNL     1     -10.391   5.935  68.904  1.00  0.00    -0.290 C  
BRANCH  11  12
HETATM   12  C   UNL     1      -9.982   6.064  70.368  1.00  0.00    -0.233 C  
BRANCH  12  13
HETATM   13  C   UNL     1     -11.175   5.985  71.318  1.00  0.00    -0.323 C  
BRANCH  13  14
HETATM   14  C   UNL     1     -11.291   7.260  72.120  1.00  0.00    -0.265 C  
HETATM   15  O   UNL     1     -10.813   7.436  73.233  1.00  0.00    -0.374 OA 
BRANCH  14  16
HETATM   16  O   UNL     1     -12.008   8.185  71.424  1.00  0.00    -0.287 OA 
BRANCH  16  17
HETATM   17  C   UNL     1     -13.160   8.710  72.112  1.00  0.00    -0.383 C  
HETATM   18  C   UNL     1     -13.282  10.207  71.843  1.00  0.00    -0.557 C  
HETATM   19  C   UNL     1     -14.382   7.966  71.592  1.00  0.00    -0.595 C  
ENDBRANCH  16  17
ENDBRANCH  14  16
ENDBRANCH  13  14
ENDBRANCH  12  13
ENDBRANCH  11  12
ENDBRANCH  10  11
ENDBRANCH   9  10
ENDBRANCH   8   9
ENDBRANCH   7   8
ENDBRANCH   6   7
ENDBRANCH   5   6
ENDBRANCH   4   5
ENDBRANCH   3   4
ENDBRANCH   2   3
TORSDOF 14
ENDMDL
MODEL      305
REMARK 921   NORMALIZED FREE ENERGY PREDICTED BY IDOCK:   -2.92 KCAL/MOL
REMARK 922        TOTAL FREE ENERGY PREDICTED BY IDOCK:   -6.87 KCAL/MOL
REMARK 923 INTER-LIGAND FREE ENERGY PREDICTED BY IDOCK:   -4.80 KCAL/MOL
REMARK 924 INTRA-LIGAND FREE ENERGY PREDICTED BY IDOCK:   -2.07 KCAL/MOL
REMARK 927      BINDING AFFINITY PREDICTED BY RF-SCORE:    0.00 PKD
ROOT
HETATM    1  C   UNL     1     -12.854  10.816  71.246  1.00  0.00    -0.540 C  
HETATM    2  C   UNL     1     -12.050  11.906  70.557  1.00  0.00    -0.422 C  
ENDROOT
BRANCH   2   3
HETATM    3  C   UNL     1     -12.028  11.704  69.044  1.00  0.00    -0.368 C  
BRANCH   3   4
HETATM    4  C   UNL     1     -10.792  12.348  68.416  1.00  0.00    -0.263 C  
BRANCH   4   5
HETATM    5  C   UNL     1     -10.143  11.408  67.401  1.00  0.00    -0.208 C  
BRANCH   5   6
HETATM    6  C   UNL     1     -10.162  12.011  65.998  1.00  0.00    -0.256 C  
BRANCH   6   7
HETATM    7  C   UNL     1     -10.804  11.047  65.002  1.00  0.00    -0.194 C  
BRANCH   7   8
HETATM    8  C   UNL     1     -10.230  11.240  63.601  1.00  0.00    -0.446 C  
BRANCH   8   9
HETATM    9  C   UNL     1      -8.841  10.613  63.488  1.00  0.00    -0.189 C  
BRANCH   9  10
HETATM   10  C   UNL     1      -8.818   9.233  64.137  1.00  0.00    -0.178 C  
BRANCH  10  11
HETATM   11  C   UNL     1      -7.536   9.004  64.936  1.00  0.00    -0.105 C  
BRANCH  11  12
HETATM   12  C   UNL     1      -7.852   8.957  66.427  1.00  0.00    -0.103 C  
BRANCH  12  13
HETATM   13  C   UNL     1      -8.330   7.580  66.882  1.00  0.00    -0.125 C  
BRANCH  13  14
HETATM   14  C   UNL     1      -9.696   7.683  67.518  1.00  0.00    -0.156 C  
HETATM   15  O   UNL     1     -10.730   7.950  66.921  1.00  0.00    -0.333 OA 
BRANCH  14  16
HETATM   16  O   UNL     1      -9.607   7.438  68.855  1.00  0.00    -0.148 OA 
BRANCH  16  17
HETATM   17  C   UNL     1     -10.301   8.379  69.697  1.00  0.00    -0.218 C  
HETATM   18  C   UNL     1     -11.082   7.629  70.771  1.00  0.00    -0.276 C  
HETATM   19  C   UNL     1      -9.255   9.290  70.324  1.00  0.00    -0.273 C  
ENDBRANCH  16  17
ENDBRANCH  14  16
ENDBRANCH  13  14
ENDBRANCH  12  13
ENDBRANCH  11  12
ENDBRANCH  10  11
ENDBRANCH   9  10
ENDBRANCH   8   9
ENDBRANCH   7   8
ENDBRANCH   6   7
ENDBRANCH   5   6
ENDBRANCH   4   5
ENDBRANCH   3   4
ENDBRANCH   2   3
TORSDOF 14
ENDMDL
MODEL      306
REMARK 921   NORMALIZED FREE ENERGY PREDICTED BY IDOCK:   -2.91 KCAL/MOL
REMARK 922        TOTAL FREE ENERGY PREDICTED BY IDOCK:   -6.87 KCAL/MOL
REMARK 923 INTER-LIGAND FREE ENERGY PREDICTED BY IDOCK:   -5.53 KCAL/MOL
REMARK 924 INTRA-LIGAND FREE ENERGY PREDICTED BY IDOCK:   -1.34 KCAL/MOL
REMARK 927      BINDING AFFINITY PREDICTED BY RF-SCORE:    0.00 PKD
ROOT
HETATM    1  C   UNL     1      -9.219   4.408  64.709  1.00  0.00    -0.157 C  
HETATM    2  C   UNL     1      -9.245   4.922  66.140  1.00  0.00    -0.146 C  
ENDROOT
BRANCH   2   3
HETATM    3  C   UNL     1     -10.550   5.656  66.439  1.00  0.00    -0.254 C  
BRANCH   3   4
HETATM    4  C   UNL     1     -10.286   7.021  67.075  1.00  0.00    -0.330 C  
BRANCH   4   5
HETATM    5  C   UNL     1      -9.062   7.686  66.447  1.00  0.00    -0.214 C  
BRANCH   5   6
HETATM    6  C   UNL     1      -9.193   9.207  66.456  1.00  0.00    -0.221 C  
BRANCH   6   7
HETATM    7  C   UNL     1     -10.519   9.634  67.084  1.00  0.00    -0.317 C  
BRANCH   7   8
HETATM    8  C   UNL     1     -10.596  11.152  67.227  1.00  0.00    -0.279 C  
BRANCH   8   9
HETATM    9  C   UNL     1     -11.272  11.782  66.010  1.00  0.00    -0.352 C  
BRANCH   9  10
HETATM   10  C   UNL     1     -12.159  12.950  66.431  1.00  0.00    -0.400 C  
BRANCH  10  11
HETATM   11  C   UNL     1     -12.431  13.904  65.268  1.00  0.00    -0.504 C  
BRANCH  11  12
HETATM   12  C   UNL     1     -11.120  14.497  64.763  1.00  0.00    -0.400 C  
BRANCH  12  13
HETATM   13  C   UNL     1     -10.784  15.828  65.430  1.00  0.00    -0.420 C  
BRANCH  13  14
HETATM   14  C   UNL     1      -9.328  15.860  65.832  1.00  0.00    -0.318 C  
HETATM   15  O   UNL     1      -8.606  16.847  65.781  1.00  0.00    -0.505 OA 
BRANCH  14  16
HETATM   16  O   UNL     1      -8.935  14.627  66.259  1.00  0.00    -0.215 OA 
BRANCH  16  17
HETATM   17  C   UNL     1      -8.055  14.626  67.399  1.00  0.00    -0.196 C  
HETATM   18  C   UNL     1      -8.873  14.748  68.681  1.00  0.00    -0.180 C  
HETATM   19  C   UNL     1      -7.277  13.317  67.376  1.00  0.00    -0.119 C  
ENDBRANCH  16  17
ENDBRANCH  14  16
ENDBRANCH  13  14
ENDBRANCH  12  13
ENDBRANCH  11  12
ENDBRANCH  10  11
ENDBRANCH   9  10
ENDBRANCH   8   9
ENDBRANCH   7   8
ENDBRANCH   6   7
ENDBRANCH   5   6
ENDBRANCH   4   5
ENDBRANCH   3   4
ENDBRANCH   2   3
TORSDOF 14
ENDMDL
MODEL      307
REMARK 921   NORMALIZED FREE ENERGY PREDICTED BY IDOCK:   -2.91 KCAL/MOL
REMARK 922        TOTAL FREE ENERGY PREDICTED BY IDOCK:   -6.86 KCAL/MOL
REMARK 923 INTER-LIGAND FREE ENERGY PREDICTED BY IDOCK:   -4.78 KCAL/MOL
REMARK 924 INTRA-LIGAND FREE ENERGY PREDICTED BY IDOCK:   -2.08 KCAL/MOL
REMARK 927      BINDING AFFINITY PREDICTED BY RF-SCORE:    0.00 PKD
ROOT
HETATM    1  C   UNL     1     -10.474  10.502  66.910  1.00  0.00    -0.303 C  
HETATM    2  C   UNL     1     -11.070   9.883  68.164  1.00  0.00    -0.215 C  
ENDROOT
BRANCH   2   3
HETATM    3  C   UNL     1     -11.772  10.936  69.019  1.00  0.00    -0.391 C  
BRANCH   3   4
HETATM    4  C   UNL     1     -11.570  10.664  70.509  1.00  0.00    -0.444 C  
BRANCH   4   5
HETATM    5  C   UNL     1     -12.842  10.975  71.297  1.00  0.00    -0.528 C  
BRANCH   5   6
HETATM    6  C   UNL     1     -13.410   9.718  71.951  1.00  0.00    -0.530 C  
BRANCH   6   7
HETATM    7  C   UNL     1     -13.875   8.719  70.892  1.00  0.00     0.164 C  
BRANCH   7   8
HETATM    8  C   UNL     1     -13.962   7.308  71.468  1.00  0.00    -0.486 C  
BRANCH   8   9
HETATM    9  C   UNL     1     -12.570   6.741  71.741  1.00  0.00    -0.370 C  
BRANCH   9  10
HETATM   10  C   UNL     1     -11.778   6.607  70.444  1.00  0.00    -0.446 C  
BRANCH  10  11
HETATM   11  C   UNL     1     -10.384   7.221  70.564  1.00  0.00    -0.215 C  
BRANCH  11  12
HETATM   12  C   UNL     1     -10.087   7.559  72.021  1.00  0.00    -0.225 C  
BRANCH  12  13
HETATM   13  C   UNL     1      -8.618   7.901  72.256  1.00  0.00    -0.193 C  
BRANCH  13  14
HETATM   14  C   UNL     1      -8.038   7.013  73.331  1.00  0.00    -0.100 C  
HETATM   15  O   UNL     1      -7.228   7.370  74.176  1.00  0.00    -0.096 OA 
BRANCH  14  16
HETATM   16  O   UNL     1      -8.549   5.755  73.222  1.00  0.00    -0.119 OA 
BRANCH  16  17
HETATM   17  C   UNL     1      -7.728   4.823  72.490  1.00  0.00    -0.092 C  
HETATM   18  C   UNL     1      -7.073   3.844  73.458  1.00  0.00    -0.063 C  
HETATM   19  C   UNL     1      -8.631   4.091  71.508  1.00  0.00    -0.127 C  
ENDBRANCH  16  17
ENDBRANCH  14  16
ENDBRANCH  13  14
ENDBRANCH  12  13
ENDBRANCH  11  12
ENDBRANCH  10  11
ENDBRANCH   9  10
ENDBRANCH   8   9
ENDBRANCH   7   8
ENDBRANCH   6   7
ENDBRANCH   5   6
ENDBRANCH   4   5
ENDBRANCH   3   4
ENDBRANCH   2   3
TORSDOF 14
ENDMDL
MODEL      308
REMARK 921   NORMALIZED FREE ENERGY PREDICTED BY IDOCK:   -2.89 KCAL/MOL
REMARK 922        TOTAL FREE ENERGY PREDICTED BY IDOCK:   -6.82 KCAL/MOL
REMARK 923 INTER-LIGAND FREE ENERGY PREDICTED BY IDOCK:   -4.56 KCAL/MOL
REMARK 924 INTRA-LIGAND FREE ENERGY PREDICTED BY IDOCK:   -2.26 KCAL/MOL
REMARK 927      BINDING AFFINITY PREDICTED BY RF-SCORE:    0.00 PKD
ROOT
HETATM    1  C   UNL     1     -12.109  10.795  69.897  1.00  0.00    -0.410 C  
HETATM    2  C   UNL     1     -10.612  10.582  69.741  1.00  0.00    -0.274 C  
ENDROOT
BRANCH   2   3
HETATM    3  C   UNL     1     -10.092   9.556  70.746  1.00  0.00    -0.352 C  
BRANCH   3   4
HETATM    4  C   UNL     1      -8.594   9.317  70.570  1.00  0.00    -0.271 C  
BRANCH   4   5
HETATM    5  C   UNL     1      -8.227   7.874  70.914  1.00  0.00    -0.103 C  
BRANCH   5   6
HETATM    6  C   UNL     1      -9.182   7.294  71.956  1.00  0.00    -0.149 C  
BRANCH   6   7
HETATM    7  C   UNL     1      -9.736   5.948  71.492  1.00  0.00    -0.189 C  
BRANCH   7   8
HETATM    8  C   UNL     1     -11.259   5.985  71.394  1.00  0.00    -0.325 C  
BRANCH   8   9
HETATM    9  C   UNL     1     -11.707   6.409  69.996  1.00  0.00    -0.345 C  
BRANCH   9  10
HETATM   10  C   UNL     1     -10.671   6.004  68.952  1.00  0.00    -0.384 C  
BRANCH  10  11
HETATM   11  C   UNL     1     -11.092   6.422  67.543  1.00  0.00    -0.401 C  
BRANCH  11  12
HETATM   12  C   UNL     1     -10.429   7.744  67.172  1.00  0.00    -0.413 C  
BRANCH  12  13
HETATM   13  C   UNL     1      -8.905   7.655  67.170  1.00  0.00    -0.129 C  
BRANCH  13  14
HETATM   14  C   UNL     1      -8.413   7.117  65.848  1.00  0.00    -0.147 C  
HETATM   15  O   UNL     1      -8.262   7.781  64.831  1.00  0.00    -0.141 OA 
BRANCH  14  16
HETATM   16  O   UNL     1      -8.164   5.781  65.951  1.00  0.00    -0.112 OA 
BRANCH  16  17
HETATM   17  C   UNL     1      -8.479   5.008  64.777  1.00  0.00    -0.148 C  
HETATM   18  C   UNL     1      -7.296   4.116  64.416  1.00  0.00    -0.070 C  
HETATM   19  C   UNL     1      -9.710   4.171  65.097  1.00  0.00    -0.198 C  
ENDBRANCH  16  17
ENDBRANCH  14  16
ENDBRANCH  13  14
ENDBRANCH  12  13
ENDBRANCH  11  12
ENDBRANCH  10  11
ENDBRANCH   9  10
ENDBRANCH   8   9
ENDBRANCH   7   8
ENDBRANCH   6   7
ENDBRANCH   5   6
ENDBRANCH   4   5
ENDBRANCH   3   4
ENDBRANCH   2   3
TORSDOF 14
ENDMDL
MODEL      309
REMARK 921   NORMALIZED FREE ENERGY PREDICTED BY IDOCK:   -2.89 KCAL/MOL
REMARK 922        TOTAL FREE ENERGY PREDICTED BY IDOCK:   -6.82 KCAL/MOL
REMARK 923 INTER-LIGAND FREE ENERGY PREDICTED BY IDOCK:   -5.50 KCAL/MOL
REMARK 924 INTRA-LIGAND FREE ENERGY PREDICTED BY IDOCK:   -1.31 KCAL/MOL
REMARK 927      BINDING AFFINITY PREDICTED BY RF-SCORE:    0.00 PKD
ROOT
HETATM    1  C   UNL     1     -10.343   7.174  69.717  1.00  0.00    -0.224 C  
HETATM    2  C   UNL     1      -9.215   7.633  70.626  1.00  0.00    -0.162 C  
ENDROOT
BRANCH   2   3
HETATM    3  C   UNL     1      -9.551   8.964  71.294  1.00  0.00    -0.348 C  
BRANCH   3   4
HETATM    4  C   UNL     1     -10.379   9.855  70.370  1.00  0.00    -0.322 C  
BRANCH   4   5
HETATM    5  C   UNL     1     -11.723  10.202  71.007  1.00  0.00    -0.470 C  
BRANCH   5   6
HETATM    6  C   UNL     1     -12.262  11.530  70.478  1.00  0.00    -0.469 C  
BRANCH   6   7
HETATM    7  C   UNL     1     -12.962  12.311  71.588  1.00  0.00    -0.416 C  
BRANCH   7   8
HETATM    8  C   UNL     1     -12.762  13.814  71.412  1.00  0.00    -0.450 C  
BRANCH   8   9
HETATM    9  C   UNL     1     -12.115  14.126  70.064  1.00  0.00    -0.409 C  
BRANCH   9  10
HETATM   10  C   UNL     1     -11.851  15.622  69.925  1.00  0.00    -0.374 C  
BRANCH  10  11
HETATM   11  C   UNL     1     -10.538  15.902  69.196  1.00  0.00    -0.246 C  
BRANCH  11  12
HETATM   12  C   UNL     1      -9.918  14.593  68.717  1.00  0.00    -0.235 C  
BRANCH  12  13
HETATM   13  C   UNL     1      -9.065  14.773  67.464  1.00  0.00    -0.191 C  
BRANCH  13  14
HETATM   14  C   UNL     1      -7.951  13.754  67.438  1.00  0.00    -0.162 C  
HETATM   15  O   UNL     1      -6.768  14.011  67.258  1.00  0.00    -0.244 OA 
BRANCH  14  16
HETATM   16  O   UNL     1      -8.456  12.505  67.641  1.00  0.00    -0.150 OA 
BRANCH  16  17
HETATM   17  C   UNL     1      -8.967  11.853  66.462  1.00  0.00    -0.199 C  
HETATM   18  C   UNL     1      -8.012  10.745  66.033  1.00  0.00    -0.154 C  
HETATM   19  C   UNL     1     -10.335  11.283  66.811  1.00  0.00    -0.278 C  
ENDBRANCH  16  17
ENDBRANCH  14  16
ENDBRANCH  13  14
ENDBRANCH  12  13
ENDBRANCH  11  12
ENDBRANCH  10  11
ENDBRANCH   9  10
ENDBRANCH   8   9
ENDBRANCH   7   8
ENDBRANCH   6   7
ENDBRANCH   5   6
ENDBRANCH   4   5
ENDBRANCH   3   4
ENDBRANCH   2   3
TORSDOF 14
ENDMDL
MODEL      310
REMARK 921   NORMALIZED FREE ENERGY PREDICTED BY IDOCK:   -2.89 KCAL/MOL
REMARK 922        TOTAL FREE ENERGY PREDICTED BY IDOCK:   -6.81 KCAL/MOL
REMARK 923 INTER-LIGAND FREE ENERGY PREDICTED BY IDOCK:   -5.03 KCAL/MOL
REMARK 924 INTRA-LIGAND FREE ENERGY PREDICTED BY IDOCK:   -1.78 KCAL/MOL
REMARK 927      BINDING AFFINITY PREDICTED BY RF-SCORE:    0.00 PKD
ROOT
HETATM    1  C   UNL     1      -9.980   4.811  65.833  1.00  0.00    -0.245 C  
HETATM    2  C   UNL     1      -9.980   4.824  67.353  1.00  0.00    -0.204 C  
ENDROOT
BRANCH   2   3
HETATM    3  C   UNL     1     -10.799   5.994  67.895  1.00  0.00    -0.378 C  
BRANCH   3   4
HETATM    4  C   UNL     1     -10.609   7.247  67.041  1.00  0.00    -0.415 C  
BRANCH   4   5
HETATM    5  C   UNL     1      -9.741   8.274  67.767  1.00  0.00    -0.194 C  
BRANCH   5   6
HETATM    6  C   UNL     1      -8.263   8.084  67.435  1.00  0.00    -0.123 C  
BRANCH   6   7
HETATM    7  C   UNL     1      -7.479   7.654  68.674  1.00  0.00    -0.103 C  
BRANCH   7   8
HETATM    8  C   UNL     1      -8.319   7.815  69.938  1.00  0.00    -0.130 C  
BRANCH   8   9
HETATM    9  C   UNL     1      -8.333   6.524  70.754  1.00  0.00    -0.130 C  
BRANCH   9  10
HETATM   10  C   UNL     1      -7.754   6.758  72.146  1.00  0.00    -0.095 C  
BRANCH  10  11
HETATM   11  C   UNL     1      -8.729   6.337  73.244  1.00  0.00    -0.125 C  
BRANCH  11  12
HETATM   12  C   UNL     1     -10.157   6.352  72.708  1.00  0.00    -0.195 C  
BRANCH  12  13
HETATM   13  C   UNL     1     -10.874   7.671  72.988  1.00  0.00    -0.457 C  
BRANCH  13  14
HETATM   14  C   UNL     1     -11.525   8.191  71.729  1.00  0.00    -0.284 C  
HETATM   15  O   UNL     1     -12.063   7.496  70.877  1.00  0.00    -0.293 OA 
BRANCH  14  16
HETATM   16  O   UNL     1     -11.424   9.549  71.678  1.00  0.00    -0.381 OA 
BRANCH  16  17
HETATM   17  C   UNL     1     -12.445  10.210  70.906  1.00  0.00    -0.360 C  
HETATM   18  C   UNL     1     -13.098  11.303  71.746  1.00  0.00    -0.527 C  
HETATM   19  C   UNL     1     -11.776  10.802  69.674  1.00  0.00    -0.395 C  
ENDBRANCH  16  17
ENDBRANCH  14  16
ENDBRANCH  13  14
ENDBRANCH  12  13
ENDBRANCH  11  12
ENDBRANCH  10  11
ENDBRANCH   9  10
ENDBRANCH   8   9
ENDBRANCH   7   8
ENDBRANCH   6   7
ENDBRANCH   5   6
ENDBRANCH   4   5
ENDBRANCH   3   4
ENDBRANCH   2   3
TORSDOF 14
ENDMDL
MODEL      311
REMARK 921   NORMALIZED FREE ENERGY PREDICTED BY IDOCK:   -2.88 KCAL/MOL
REMARK 922        TOTAL FREE ENERGY PREDICTED BY IDOCK:   -6.81 KCAL/MOL
REMARK 923 INTER-LIGAND FREE ENERGY PREDICTED BY IDOCK:   -4.71 KCAL/MOL
REMARK 924 INTRA-LIGAND FREE ENERGY PREDICTED BY IDOCK:   -2.10 KCAL/MOL
REMARK 927      BINDING AFFINITY PREDICTED BY RF-SCORE:    0.00 PKD
ROOT
HETATM    1  C   UNL     1     -12.318   7.042  70.897  1.00  0.00    -0.361 C  
HETATM    2  C   UNL     1     -11.759   7.433  72.256  1.00  0.00    -0.326 C  
ENDROOT
BRANCH   2   3
HETATM    3  C   UNL     1     -10.939   6.298  72.864  1.00  0.00    -0.283 C  
BRANCH   3   4
HETATM    4  C   UNL     1      -9.892   6.831  73.841  1.00  0.00    -0.318 C  
BRANCH   4   5
HETATM    5  C   UNL     1      -8.571   6.080  73.688  1.00  0.00    -0.125 C  
BRANCH   5   6
HETATM    6  C   UNL     1      -7.606   6.838  72.778  1.00  0.00    -0.091 C  
BRANCH   6   7
HETATM    7  C   UNL     1      -7.967   8.321  72.719  1.00  0.00    -0.194 C  
BRANCH   7   8
HETATM    8  C   UNL     1      -8.251   8.760  71.285  1.00  0.00    -0.212 C  
BRANCH   8   9
HETATM    9  C   UNL     1      -7.742   7.723  70.284  1.00  0.00    -0.089 C  
BRANCH   9  10
HETATM   10  C   UNL     1      -8.875   7.239  69.385  1.00  0.00    -0.137 C  
BRANCH  10  11
HETATM   11  C   UNL     1      -9.015   8.103  68.133  1.00  0.00    -0.135 C  
BRANCH  11  12
HETATM   12  C   UNL     1     -10.483   8.437  67.891  1.00  0.00    -0.255 C  
BRANCH  12  13
HETATM   13  C   UNL     1     -10.713   9.928  67.654  1.00  0.00    -0.339 C  
BRANCH  13  14
HETATM   14  C   UNL     1     -10.046  10.740  68.738  1.00  0.00    -0.191 C  
HETATM   15  O   UNL     1      -9.021  11.394  68.597  1.00  0.00    -0.172 OA 
BRANCH  14  16
HETATM   16  O   UNL     1     -10.751  10.636  69.899  1.00  0.00    -0.259 OA 
BRANCH  16  17
HETATM   17  C   UNL     1     -12.078  11.197  69.861  1.00  0.00    -0.344 C  
HETATM   18  C   UNL     1     -12.859  10.754  71.094  1.00  0.00    -0.513 C  
HETATM   19  C   UNL     1     -11.934  12.712  69.825  1.00  0.00    -0.365 C  
ENDBRANCH  16  17
ENDBRANCH  14  16
ENDBRANCH  13  14
ENDBRANCH  12  13
ENDBRANCH  11  12
ENDBRANCH  10  11
ENDBRANCH   9  10
ENDBRANCH   8   9
ENDBRANCH   7   8
ENDBRANCH   6   7
ENDBRANCH   5   6
ENDBRANCH   4   5
ENDBRANCH   3   4
ENDBRANCH   2   3
TORSDOF 14
ENDMDL
MODEL      312
REMARK 921   NORMALIZED FREE ENERGY PREDICTED BY IDOCK:   -2.88 KCAL/MOL
REMARK 922        TOTAL FREE ENERGY PREDICTED BY IDOCK:   -6.80 KCAL/MOL
REMARK 923 INTER-LIGAND FREE ENERGY PREDICTED BY IDOCK:   -5.04 KCAL/MOL
REMARK 924 INTRA-LIGAND FREE ENERGY PREDICTED BY IDOCK:   -1.76 KCAL/MOL
REMARK 927      BINDING AFFINITY PREDICTED BY RF-SCORE:    0.00 PKD
ROOT
HETATM    1  C   UNL     1     -11.100  16.210  70.528  1.00  0.00    -0.338 C  
HETATM    2  C   UNL     1     -11.764  16.003  69.176  1.00  0.00    -0.310 C  
ENDROOT
BRANCH   2   3
HETATM    3  C   UNL     1     -10.914  16.586  68.049  1.00  0.00    -0.320 C  
BRANCH   3   4
HETATM    4  C   UNL     1     -10.702  18.088  68.235  1.00  0.00    -0.208 C  
BRANCH   4   5
HETATM    5  C   UNL     1      -9.824  18.656  67.121  1.00  0.00    -0.340 C  
BRANCH   5   6
HETATM    6  C   UNL     1      -8.484  17.927  67.046  1.00  0.00    -0.248 C  
BRANCH   6   7
HETATM    7  C   UNL     1      -7.634  18.226  68.280  1.00  0.00    -0.289 C  
BRANCH   7   8
HETATM    8  C   UNL     1      -7.339  16.951  69.066  1.00  0.00    -0.231 C  
BRANCH   8   9
HETATM    9  C   UNL     1      -7.598  15.710  68.213  1.00  0.00    -0.119 C  
BRANCH   9  10
HETATM   10  C   UNL     1      -8.089  14.554  69.078  1.00  0.00    -0.085 C  
BRANCH  10  11
HETATM   11  C   UNL     1      -7.918  13.207  68.376  1.00  0.00    -0.130 C  
BRANCH  11  12
HETATM   12  C   UNL     1      -9.153  12.341  68.601  1.00  0.00     0.013 C  
BRANCH  12  13
HETATM   13  C   UNL     1      -9.698  11.749  67.304  1.00  0.00    -0.188 C  
BRANCH  13  14
HETATM   14  C   UNL     1     -11.044  11.108  67.545  1.00  0.00    -0.291 C  
HETATM   15  O   UNL     1     -11.304  10.346  68.467  1.00  0.00    -0.264 OA 
BRANCH  14  16
HETATM   16  O   UNL     1     -11.927  11.501  66.585  1.00  0.00    -0.428 OA 
BRANCH  16  17
HETATM   17  C   UNL     1     -11.518  12.646  65.810  1.00  0.00    -0.358 C  
HETATM   18  C   UNL     1     -11.628  12.327  64.323  1.00  0.00    -0.442 C  
HETATM   19  C   UNL     1     -12.435  13.802  66.185  1.00  0.00    -0.466 C  
ENDBRANCH  16  17
ENDBRANCH  14  16
ENDBRANCH  13  14
ENDBRANCH  12  13
ENDBRANCH  11  12
ENDBRANCH  10  11
ENDBRANCH   9  10
ENDBRANCH   8   9
ENDBRANCH   7   8
ENDBRANCH   6   7
ENDBRANCH   5   6
ENDBRANCH   4   5
ENDBRANCH   3   4
ENDBRANCH   2   3
TORSDOF 14
ENDMDL
MODEL      313
REMARK 921   NORMALIZED FREE ENERGY PREDICTED BY IDOCK:   -2.87 KCAL/MOL
REMARK 922        TOTAL FREE ENERGY PREDICTED BY IDOCK:   -6.79 KCAL/MOL
REMARK 923 INTER-LIGAND FREE ENERGY PREDICTED BY IDOCK:   -5.84 KCAL/MOL
REMARK 924 INTRA-LIGAND FREE ENERGY PREDICTED BY IDOCK:   -0.96 KCAL/MOL
REMARK 927      BINDING AFFINITY PREDICTED BY RF-SCORE:    0.00 PKD
ROOT
HETATM    1  C   UNL     1     -10.122  10.914  64.220  1.00  0.00    -0.413 C  
HETATM    2  C   UNL     1     -10.319  12.113  65.133  1.00  0.00    -0.311 C  
ENDROOT
BRANCH   2   3
HETATM    3  C   UNL     1     -11.732  12.141  65.712  1.00  0.00    -0.391 C  
BRANCH   3   4
HETATM    4  C   UNL     1     -11.716  12.516  67.194  1.00  0.00    -0.425 C  
BRANCH   4   5
HETATM    5  C   UNL     1     -11.498  11.281  68.066  1.00  0.00    -0.369 C  
BRANCH   5   6
HETATM    6  C   UNL     1     -11.480  11.647  69.549  1.00  0.00    -0.371 C  
BRANCH   6   7
HETATM    7  C   UNL     1     -11.566  10.393  70.417  1.00  0.00    -0.423 C  
BRANCH   7   8
HETATM    8  C   UNL     1     -12.964  10.226  71.006  1.00  0.00    -0.488 C  
BRANCH   8   9
HETATM    9  C   UNL     1     -12.985   9.121  72.061  1.00  0.00    -0.496 C  
BRANCH   9  10
HETATM   10  C   UNL     1     -13.527   7.823  71.472  1.00  0.00    -0.379 C  
BRANCH  10  11
HETATM   11  C   UNL     1     -12.439   6.756  71.354  1.00  0.00    -0.379 C  
BRANCH  11  12
HETATM   12  C   UNL     1     -11.387   6.962  72.438  1.00  0.00    -0.308 C  
BRANCH  12  13
HETATM   13  C   UNL     1     -11.158   5.708  73.278  1.00  0.00    -0.288 C  
BRANCH  13  14
HETATM   14  C   UNL     1      -9.679   5.435  73.420  1.00  0.00    -0.150 C  
HETATM   15  O   UNL     1      -8.884   6.157  74.007  1.00  0.00    -0.125 OA 
BRANCH  14  16
HETATM   16  O   UNL     1      -9.358   4.268  72.795  1.00  0.00    -0.118 OA 
BRANCH  16  17
HETATM   17  C   UNL     1      -8.541   4.409  71.616  1.00  0.00    -0.113 C  
HETATM   18  C   UNL     1      -7.388   3.413  71.667  1.00  0.00    -0.043 C  
HETATM   19  C   UNL     1      -9.431   4.147  70.408  1.00  0.00    -0.247 C  
ENDBRANCH  16  17
ENDBRANCH  14  16
ENDBRANCH  13  14
ENDBRANCH  12  13
ENDBRANCH  11  12
ENDBRANCH  10  11
ENDBRANCH   9  10
ENDBRANCH   8   9
ENDBRANCH   7   8
ENDBRANCH   6   7
ENDBRANCH   5   6
ENDBRANCH   4   5
ENDBRANCH   3   4
ENDBRANCH   2   3
TORSDOF 14
ENDMDL
MODEL      314
REMARK 921   NORMALIZED FREE ENERGY PREDICTED BY IDOCK:   -2.86 KCAL/MOL
REMARK 922        TOTAL FREE ENERGY PREDICTED BY IDOCK:   -6.76 KCAL/MOL
REMARK 923 INTER-LIGAND FREE ENERGY PREDICTED BY IDOCK:   -4.24 KCAL/MOL
REMARK 924 INTRA-LIGAND FREE ENERGY PREDICTED BY IDOCK:   -2.52 KCAL/MOL
REMARK 927      BINDING AFFINITY PREDICTED BY RF-SCORE:    0.00 PKD
ROOT
HETATM    1  C   UNL     1      -7.711   8.480  71.017  1.00  0.00    -0.104 C  
HETATM    2  C   UNL     1      -8.689   9.453  70.378  1.00  0.00    -0.278 C  
ENDROOT
BRANCH   2   3
HETATM    3  C   UNL     1      -7.970  10.426  69.447  1.00  0.00    -0.161 C  
BRANCH   3   4
HETATM    4  C   UNL     1      -6.829   9.738  68.699  1.00  0.00    -0.051 C  
BRANCH   4   5
HETATM    5  C   UNL     1      -6.857  10.095  67.214  1.00  0.00    -0.078 C  
BRANCH   5   6
HETATM    6  C   UNL     1      -7.926  11.144  66.916  1.00  0.00    -0.151 C  
BRANCH   6   7
HETATM    7  C   UNL     1      -8.968  10.595  65.943  1.00  0.00    -0.192 C  
BRANCH   7   8
HETATM    8  C   UNL     1     -10.361  10.604  66.568  1.00  0.00    -0.299 C  
BRANCH   8   9
HETATM    9  C   UNL     1     -10.656   9.277  67.267  1.00  0.00    -0.303 C  
BRANCH   9  10
HETATM   10  C   UNL     1      -9.932   8.128  66.571  1.00  0.00    -0.302 C  
BRANCH  10  11
HETATM   11  C   UNL     1      -9.333   7.145  67.575  1.00  0.00    -0.137 C  
BRANCH  11  12
HETATM   12  C   UNL     1     -10.392   6.723  68.588  1.00  0.00    -0.202 C  
BRANCH  12  13
HETATM   13  C   UNL     1     -10.177   5.302  69.103  1.00  0.00    -0.281 C  
BRANCH  13  14
HETATM   14  C   UNL     1     -10.290   5.268  70.609  1.00  0.00    -0.254 C  
HETATM   15  O   UNL     1     -10.234   4.256  71.296  1.00  0.00    -0.146 OA 
BRANCH  14  16
HETATM   16  O   UNL     1     -10.465   6.530  71.092  1.00  0.00    -0.213 OA 
BRANCH  16  17
HETATM   17  C   UNL     1     -11.429   6.649  72.156  1.00  0.00    -0.287 C  
HETATM   18  C   UNL     1     -11.057   7.821  73.058  1.00  0.00    -0.419 C  
HETATM   19  C   UNL     1     -12.793   6.870  71.516  1.00  0.00    -0.384 C  
ENDBRANCH  16  17
ENDBRANCH  14  16
ENDBRANCH  13  14
ENDBRANCH  12  13
ENDBRANCH  11  12
ENDBRANCH  10  11
ENDBRANCH   9  10
ENDBRANCH   8   9
ENDBRANCH   7   8
ENDBRANCH   6   7
ENDBRANCH   5   6
ENDBRANCH   4   5
ENDBRANCH   3   4
ENDBRANCH   2   3
TORSDOF 14
ENDMDL
MODEL      315
REMARK 921   NORMALIZED FREE ENERGY PREDICTED BY IDOCK:   -2.84 KCAL/MOL
REMARK 922        TOTAL FREE ENERGY PREDICTED BY IDOCK:   -6.74 KCAL/MOL
REMARK 923 INTER-LIGAND FREE ENERGY PREDICTED BY IDOCK:   -5.65 KCAL/MOL
REMARK 924 INTRA-LIGAND FREE ENERGY PREDICTED BY IDOCK:   -1.09 KCAL/MOL
REMARK 927      BINDING AFFINITY PREDICTED BY RF-SCORE:    0.00 PKD
ROOT
HETATM    1  C   UNL     1     -14.408  15.164  71.948  1.00  0.00    -0.693 C  
HETATM    2  C   UNL     1     -13.174  15.320  71.073  1.00  0.00    -0.546 C  
ENDROOT
BRANCH   2   3
HETATM    3  C   UNL     1     -12.108  14.289  71.432  1.00  0.00    -0.354 C  
BRANCH   3   4
HETATM    4  C   UNL     1     -12.402  12.937  70.782  1.00  0.00    -0.385 C  
BRANCH   4   5
HETATM    5  C   UNL     1     -11.620  12.777  69.480  1.00  0.00    -0.342 C  
BRANCH   5   6
HETATM    6  C   UNL     1     -11.935  11.444  68.805  1.00  0.00    -0.353 C  
BRANCH   6   7
HETATM    7  C   UNL     1     -10.673  10.831  68.200  1.00  0.00    -0.257 C  
BRANCH   7   8
HETATM    8  C   UNL     1     -10.893   9.364  67.840  1.00  0.00    -0.215 C  
BRANCH   8   9
HETATM    9  C   UNL     1     -10.343   8.445  68.930  1.00  0.00    -0.231 C  
BRANCH   9  10
HETATM   10  C   UNL     1      -9.636   9.254  70.012  1.00  0.00    -0.235 C  
BRANCH  10  11
HETATM   11  C   UNL     1     -10.432   9.276  71.316  1.00  0.00    -0.408 C  
BRANCH  11  12
HETATM   12  C   UNL     1      -9.932   8.179  72.251  1.00  0.00    -0.332 C  
BRANCH  12  13
HETATM   13  C   UNL     1     -11.037   7.207  72.657  1.00  0.00    -0.330 C  
BRANCH  13  14
HETATM   14  C   UNL     1     -10.554   5.782  72.530  1.00  0.00    -0.221 C  
HETATM   15  O   UNL     1     -10.436   4.994  73.458  1.00  0.00    -0.188 OA 
BRANCH  14  16
HETATM   16  O   UNL     1     -10.266   5.502  71.228  1.00  0.00    -0.204 OA 
BRANCH  16  17
HETATM   17  C   UNL     1      -9.226   4.525  71.027  1.00  0.00    -0.140 C  
HETATM   18  C   UNL     1      -9.703   3.461  70.045  1.00  0.00    -0.114 C  
HETATM   19  C   UNL     1      -8.008   5.258  70.483  1.00  0.00    -0.099 C  
ENDBRANCH  16  17
ENDBRANCH  14  16
ENDBRANCH  13  14
ENDBRANCH  12  13
ENDBRANCH  11  12
ENDBRANCH  10  11
ENDBRANCH   9  10
ENDBRANCH   8   9
ENDBRANCH   7   8
ENDBRANCH   6   7
ENDBRANCH   5   6
ENDBRANCH   4   5
ENDBRANCH   3   4
ENDBRANCH   2   3
TORSDOF 14
ENDMDL
MODEL      316
REMARK 921   NORMALIZED FREE ENERGY PREDICTED BY IDOCK:   -2.84 KCAL/MOL
REMARK 922        TOTAL FREE ENERGY PREDICTED BY IDOCK:   -6.74 KCAL/MOL
REMARK 923 INTER-LIGAND FREE ENERGY PREDICTED BY IDOCK:   -4.61 KCAL/MOL
REMARK 924 INTRA-LIGAND FREE ENERGY PREDICTED BY IDOCK:   -2.12 KCAL/MOL
REMARK 927      BINDING AFFINITY PREDICTED BY RF-SCORE:    0.00 PKD
ROOT
HETATM    1  C   UNL     1      -9.800   9.603  70.127  1.00  0.00    -0.310 C  
HETATM    2  C   UNL     1     -11.165  10.119  69.704  1.00  0.00    -0.310 C  
ENDROOT
BRANCH   2   3
HETATM    3  C   UNL     1     -11.050  11.461  68.986  1.00  0.00    -0.300 C  
BRANCH   3   4
HETATM    4  C   UNL     1      -9.600  11.770  68.616  1.00  0.00    -0.122 C  
BRANCH   4   5
HETATM    5  C   UNL     1      -9.509  12.349  67.205  1.00  0.00    -0.198 C  
BRANCH   5   6
HETATM    6  C   UNL     1     -10.629  11.815  66.314  1.00  0.00    -0.292 C  
BRANCH   6   7
HETATM    7  C   UNL     1     -10.091  10.776  65.332  1.00  0.00    -0.347 C  
BRANCH   7   8
HETATM    8  C   UNL     1     -10.142   9.374  65.933  1.00  0.00    -0.243 C  
BRANCH   8   9
HETATM    9  C   UNL     1      -8.738   8.788  66.076  1.00  0.00    -0.193 C  
BRANCH   9  10
HETATM   10  C   UNL     1      -8.710   7.709  67.153  1.00  0.00    -0.125 C  
BRANCH  10  11
HETATM   11  C   UNL     1      -9.052   6.332  66.586  1.00  0.00    -0.152 C  
BRANCH  11  12
HETATM   12  C   UNL     1      -9.823   5.519  67.620  1.00  0.00    -0.166 C  
BRANCH  12  13
HETATM   13  C   UNL     1     -10.985   6.298  68.230  1.00  0.00    -0.408 C  
BRANCH  13  14
HETATM   14  C   UNL     1     -11.009   6.116  69.729  1.00  0.00    -0.390 C  
HETATM   15  O   UNL     1     -11.931   6.446  70.463  1.00  0.00    -0.341 OA 
BRANCH  14  16
HETATM   16  O   UNL     1      -9.852   5.530  70.146  1.00  0.00    -0.172 OA 
BRANCH  16  17
HETATM   17  C   UNL     1     -10.003   4.557  71.198  1.00  0.00    -0.187 C  
HETATM   18  C   UNL     1      -9.613   3.176  70.681  1.00  0.00    -0.212 C  
HETATM   19  C   UNL     1      -9.098   4.981  72.346  1.00  0.00    -0.146 C  
ENDBRANCH  16  17
ENDBRANCH  14  16
ENDBRANCH  13  14
ENDBRANCH  12  13
ENDBRANCH  11  12
ENDBRANCH  10  11
ENDBRANCH   9  10
ENDBRANCH   8   9
ENDBRANCH   7   8
ENDBRANCH   6   7
ENDBRANCH   5   6
ENDBRANCH   4   5
ENDBRANCH   3   4
ENDBRANCH   2   3
TORSDOF 14
ENDMDL
MODEL      317
REMARK 921   NORMALIZED FREE ENERGY PREDICTED BY IDOCK:   -2.84 KCAL/MOL
REMARK 922        TOTAL FREE ENERGY PREDICTED BY IDOCK:   -6.74 KCAL/MOL
REMARK 923 INTER-LIGAND FREE ENERGY PREDICTED BY IDOCK:   -5.66 KCAL/MOL
REMARK 924 INTRA-LIGAND FREE ENERGY PREDICTED BY IDOCK:   -1.08 KCAL/MOL
REMARK 927      BINDING AFFINITY PREDICTED BY RF-SCORE:    0.00 PKD
ROOT
HETATM    1  C   UNL     1      -9.924   8.786  71.759  1.00  0.00    -0.396 C  
HETATM    2  C   UNL     1     -11.007   9.329  70.840  1.00  0.00    -0.368 C  
ENDROOT
BRANCH   2   3
HETATM    3  C   UNL     1     -12.390   8.848  71.272  1.00  0.00    -0.342 C  
BRANCH   3   4
HETATM    4  C   UNL     1     -13.339  10.024  71.501  1.00  0.00    -0.451 C  
BRANCH   4   5
HETATM    5  C   UNL     1     -12.650  11.350  71.182  1.00  0.00    -0.490 C  
BRANCH   5   6
HETATM    6  C   UNL     1     -13.106  12.454  72.134  1.00  0.00    -0.419 C  
BRANCH   6   7
HETATM    7  C   UNL     1     -13.135  13.806  71.423  1.00  0.00    -0.413 C  
BRANCH   7   8
HETATM    8  C   UNL     1     -12.553  14.905  72.308  1.00  0.00    -0.413 C  
BRANCH   8   9
HETATM    9  C   UNL     1     -11.766  15.917  71.477  1.00  0.00    -0.545 C  
BRANCH   9  10
HETATM   10  C   UNL     1     -11.774  15.527  70.002  1.00  0.00    -0.363 C  
BRANCH  10  11
HETATM   11  C   UNL     1     -11.062  16.567  69.137  1.00  0.00    -0.270 C  
BRANCH  11  12
HETATM   12  C   UNL     1      -9.556  16.326  69.166  1.00  0.00    -0.251 C  
BRANCH  12  13
HETATM   13  C   UNL     1      -8.959  16.181  67.768  1.00  0.00    -0.192 C  
BRANCH  13  14
HETATM   14  C   UNL     1      -8.877  14.723  67.383  1.00  0.00    -0.193 C  
HETATM   15  O   UNL     1      -9.579  14.177  66.542  1.00  0.00    -0.276 OA 
BRANCH  14  16
HETATM   16  O   UNL     1      -7.907  14.102  68.111  1.00  0.00    -0.120 OA 
BRANCH  16  17
HETATM   17  C   UNL     1      -6.556  14.393  67.704  1.00  0.00    -0.152 C  
HETATM   18  C   UNL     1      -5.773  14.959  68.884  1.00  0.00    -0.086 C  
HETATM   19  C   UNL     1      -5.935  13.091  67.217  1.00  0.00     0.083 C  
ENDBRANCH  16  17
ENDBRANCH  14  16
ENDBRANCH  13  14
ENDBRANCH  12  13
ENDBRANCH  11  12
ENDBRANCH  10  11
ENDBRANCH   9  10
ENDBRANCH   8   9
ENDBRANCH   7   8
ENDBRANCH   6   7
ENDBRANCH   5   6
ENDBRANCH   4   5
ENDBRANCH   3   4
ENDBRANCH   2   3
TORSDOF 14
ENDMDL
MODEL      318
REMARK 921   NORMALIZED FREE ENERGY PREDICTED BY IDOCK:   -2.83 KCAL/MOL
REMARK 922        TOTAL FREE ENERGY PREDICTED BY IDOCK:   -6.72 KCAL/MOL
REMARK 923 INTER-LIGAND FREE ENERGY PREDICTED BY IDOCK:   -5.39 KCAL/MOL
REMARK 924 INTRA-LIGAND FREE ENERGY PREDICTED BY IDOCK:   -1.32 KCAL/MOL
REMARK 927      BINDING AFFINITY PREDICTED BY RF-SCORE:    0.00 PKD
ROOT
HETATM    1  C   UNL     1     -10.378  12.643  68.298  1.00  0.00    -0.246 C  
HETATM    2  C   UNL     1     -11.861  12.311  68.332  1.00  0.00    -0.358 C  
ENDROOT
BRANCH   2   3
HETATM    3  C   UNL     1     -12.183  11.337  69.463  1.00  0.00    -0.325 C  
BRANCH   3   4
HETATM    4  C   UNL     1     -12.168  12.038  70.820  1.00  0.00    -0.382 C  
BRANCH   4   5
HETATM    5  C   UNL     1     -13.105  11.341  71.805  1.00  0.00    -0.527 C  
BRANCH   5   6
HETATM    6  C   UNL     1     -13.403   9.908  71.366  1.00  0.00    -0.447 C  
BRANCH   6   7
HETATM    7  C   UNL     1     -13.010   8.914  72.457  1.00  0.00    -0.415 C  
BRANCH   7   8
HETATM    8  C   UNL     1     -11.943   7.943  71.957  1.00  0.00    -0.364 C  
BRANCH   8   9
HETATM    9  C   UNL     1     -10.545   8.417  72.351  1.00  0.00    -0.405 C  
BRANCH   9  10
HETATM   10  C   UNL     1      -9.778   8.909  71.128  1.00  0.00    -0.344 C  
BRANCH  10  11
HETATM   11  C   UNL     1     -10.313   8.292  69.836  1.00  0.00    -0.218 C  
BRANCH  11  12
HETATM   12  C   UNL     1      -9.751   9.038  68.630  1.00  0.00    -0.168 C  
BRANCH  12  13
HETATM   13  C   UNL     1     -10.259   8.475  67.305  1.00  0.00    -0.346 C  
BRANCH  13  14
HETATM   14  C   UNL     1      -9.098   8.165  66.389  1.00  0.00    -0.183 C  
HETATM   15  O   UNL     1      -8.181   7.398  66.651  1.00  0.00    -0.118 OA 
BRANCH  14  16
HETATM   16  O   UNL     1      -9.221   8.866  65.227  1.00  0.00    -0.189 OA 
BRANCH  16  17
HETATM   17  C   UNL     1      -8.085   9.683  64.883  1.00  0.00    -0.133 C  
HETATM   18  C   UNL     1      -7.676  10.528  66.084  1.00  0.00    -0.142 C  
HETATM   19  C   UNL     1      -6.957   8.747  64.470  1.00  0.00    -0.084 C  
ENDBRANCH  16  17
ENDBRANCH  14  16
ENDBRANCH  13  14
ENDBRANCH  12  13
ENDBRANCH  11  12
ENDBRANCH  10  11
ENDBRANCH   9  10
ENDBRANCH   8   9
ENDBRANCH   7   8
ENDBRANCH   6   7
ENDBRANCH   5   6
ENDBRANCH   4   5
ENDBRANCH   3   4
ENDBRANCH   2   3
TORSDOF 14
ENDMDL
MODEL      319
REMARK 921   NORMALIZED FREE ENERGY PREDICTED BY IDOCK:   -2.83 KCAL/MOL
REMARK 922        TOTAL FREE ENERGY PREDICTED BY IDOCK:   -6.71 KCAL/MOL
REMARK 923 INTER-LIGAND FREE ENERGY PREDICTED BY IDOCK:   -5.08 KCAL/MOL
REMARK 924 INTRA-LIGAND FREE ENERGY PREDICTED BY IDOCK:   -1.63 KCAL/MOL
REMARK 927      BINDING AFFINITY PREDICTED BY RF-SCORE:    0.00 PKD
ROOT
HETATM    1  C   UNL     1     -12.660  14.032  65.341  1.00  0.00    -0.529 C  
HETATM    2  C   UNL     1     -11.821  13.251  66.339  1.00  0.00    -0.446 C  
ENDROOT
BRANCH   2   3
HETATM    3  C   UNL     1     -10.558  12.696  65.684  1.00  0.00    -0.299 C  
BRANCH   3   4
HETATM    4  C   UNL     1     -10.793  11.294  65.125  1.00  0.00    -0.268 C  
BRANCH   4   5
HETATM    5  C   UNL     1     -10.723  11.297  63.599  1.00  0.00    -0.438 C  
BRANCH   5   6
HETATM    6  C   UNL     1      -9.305  11.009  63.109  1.00  0.00    -0.339 C  
BRANCH   6   7
HETATM    7  C   UNL     1      -8.950   9.537  63.312  1.00  0.00    -0.208 C  
BRANCH   7   8
HETATM    8  C   UNL     1      -8.018   9.355  64.507  1.00  0.00    -0.126 C  
BRANCH   8   9
HETATM    9  C   UNL     1      -8.291   8.030  65.217  1.00  0.00    -0.151 C  
BRANCH   9  10
HETATM   10  C   UNL     1      -9.050   8.262  66.519  1.00  0.00    -0.219 C  
BRANCH  10  11
HETATM   11  C   UNL     1     -10.320   7.416  66.595  1.00  0.00    -0.241 C  
BRANCH  11  12
HETATM   12  C   UNL     1     -10.440   6.777  67.974  1.00  0.00    -0.253 C  
BRANCH  12  13
HETATM   13  C   UNL     1      -9.667   7.544  69.044  1.00  0.00    -0.162 C  
BRANCH  13  14
HETATM   14  C   UNL     1     -10.623   8.266  69.964  1.00  0.00    -0.235 C  
HETATM   15  O   UNL     1     -10.886   7.929  71.110  1.00  0.00    -0.230 OA 
BRANCH  14  16
HETATM   16  O   UNL     1     -11.153   9.349  69.328  1.00  0.00    -0.169 OA 
BRANCH  16  17
HETATM   17  C   UNL     1     -10.659  10.626  69.779  1.00  0.00    -0.184 C  
HETATM   18  C   UNL     1      -9.473  11.050  68.920  1.00  0.00    -0.166 C  
HETATM   19  C   UNL     1     -11.800  11.626  69.660  1.00  0.00    -0.419 C  
ENDBRANCH  16  17
ENDBRANCH  14  16
ENDBRANCH  13  14
ENDBRANCH  12  13
ENDBRANCH  11  12
ENDBRANCH  10  11
ENDBRANCH   9  10
ENDBRANCH   8   9
ENDBRANCH   7   8
ENDBRANCH   6   7
ENDBRANCH   5   6
ENDBRANCH   4   5
ENDBRANCH   3   4
ENDBRANCH   2   3
TORSDOF 14
ENDMDL
MODEL      320
REMARK 921   NORMALIZED FREE ENERGY PREDICTED BY IDOCK:   -2.83 KCAL/MOL
REMARK 922        TOTAL FREE ENERGY PREDICTED BY IDOCK:   -6.71 KCAL/MOL
REMARK 923 INTER-LIGAND FREE ENERGY PREDICTED BY IDOCK:   -5.28 KCAL/MOL
REMARK 924 INTRA-LIGAND FREE ENERGY PREDICTED BY IDOCK:   -1.43 KCAL/MOL
REMARK 927      BINDING AFFINITY PREDICTED BY RF-SCORE:    0.00 PKD
ROOT
HETATM    1  C   UNL     1     -10.146   5.010  65.905  1.00  0.00    -0.194 C  
HETATM    2  C   UNL     1      -9.972   5.183  67.405  1.00  0.00    -0.215 C  
ENDROOT
BRANCH   2   3
HETATM    3  C   UNL     1     -11.016   6.141  67.975  1.00  0.00    -0.399 C  
BRANCH   3   4
HETATM    4  C   UNL     1     -11.144   7.398  67.115  1.00  0.00    -0.049 C  
BRANCH   4   5
HETATM    5  C   UNL     1     -10.107   8.444  67.521  1.00  0.00    -0.279 C  
BRANCH   5   6
HETATM    6  C   UNL     1     -10.417   9.024  68.899  1.00  0.00    -0.231 C  
BRANCH   6   7
HETATM    7  C   UNL     1     -10.848  10.486  68.787  1.00  0.00    -0.269 C  
BRANCH   7   8
HETATM    8  C   UNL     1     -10.098  11.196  67.664  1.00  0.00    -0.203 C  
BRANCH   8   9
HETATM    9  C   UNL     1      -9.149  12.255  68.224  1.00  0.00    -0.187 C  
BRANCH   9  10
HETATM   10  C   UNL     1      -8.251  12.811  67.123  1.00  0.00    -0.146 C  
BRANCH  10  11
HETATM   11  C   UNL     1      -8.186  14.337  67.161  1.00  0.00    -0.184 C  
BRANCH  11  12
HETATM   12  C   UNL     1      -9.592  14.915  67.285  1.00  0.00    -0.216 C  
BRANCH  12  13
HETATM   13  C   UNL     1     -10.235  15.189  65.928  1.00  0.00    -0.345 C  
BRANCH  13  14
HETATM   14  C   UNL     1     -11.396  14.251  65.699  1.00  0.00    -0.317 C  
HETATM   15  O   UNL     1     -12.362  14.133  66.441  1.00  0.00    -0.460 OA 
BRANCH  14  16
HETATM   16  O   UNL     1     -11.209  13.552  64.544  1.00  0.00    -0.346 OA 
BRANCH  16  17
HETATM   17  C   UNL     1     -11.754  12.218  64.542  1.00  0.00    -0.353 C  
HETATM   18  C   UNL     1     -12.885  12.126  63.522  1.00  0.00    -0.453 C  
HETATM   19  C   UNL     1     -10.624  11.262  64.185  1.00  0.00    -0.437 C  
ENDBRANCH  16  17
ENDBRANCH  14  16
ENDBRANCH  13  14
ENDBRANCH  12  13
ENDBRANCH  11  12
ENDBRANCH  10  11
ENDBRANCH   9  10
ENDBRANCH   8   9
ENDBRANCH   7   8
ENDBRANCH   6   7
ENDBRANCH   5   6
ENDBRANCH   4   5
ENDBRANCH   3   4
ENDBRANCH   2   3
TORSDOF 14
ENDMDL
MODEL      321
REMARK 921   NORMALIZED FREE ENERGY PREDICTED BY IDOCK:   -2.83 KCAL/MOL
REMARK 922        TOTAL FREE ENERGY PREDICTED BY IDOCK:   -6.71 KCAL/MOL
REMARK 923 INTER-LIGAND FREE ENERGY PREDICTED BY IDOCK:   -5.84 KCAL/MOL
REMARK 924 INTRA-LIGAND FREE ENERGY PREDICTED BY IDOCK:   -0.88 KCAL/MOL
REMARK 927      BINDING AFFINITY PREDICTED BY RF-SCORE:    0.00 PKD
ROOT
HETATM    1  C   UNL     1     -10.171   2.520  72.092  1.00  0.00    -0.171 C  
HETATM    2  C   UNL     1      -9.776   3.683  71.196  1.00  0.00    -0.245 C  
ENDROOT
BRANCH   2   3
HETATM    3  C   UNL     1      -9.791   5.002  71.965  1.00  0.00    -0.226 C  
BRANCH   3   4
HETATM    4  C   UNL     1     -10.679   6.036  71.274  1.00  0.00    -0.320 C  
BRANCH   4   5
HETATM    5  C   UNL     1     -11.747   6.563  72.231  1.00  0.00    -0.320 C  
BRANCH   5   6
HETATM    6  C   UNL     1     -11.607   8.069  72.442  1.00  0.00    -0.450 C  
BRANCH   6   7
HETATM    7  C   UNL     1     -10.314   8.587  71.814  1.00  0.00    -0.354 C  
BRANCH   7   8
HETATM    8  C   UNL     1     -10.604   9.648  70.756  1.00  0.00    -0.392 C  
BRANCH   8   9
HETATM    9  C   UNL     1     -12.047  10.141  70.856  1.00  0.00    -0.453 C  
BRANCH   9  10
HETATM   10  C   UNL     1     -12.245  11.403  70.023  1.00  0.00    -0.377 C  
BRANCH  10  11
HETATM   11  C   UNL     1     -12.157  11.115  68.525  1.00  0.00    -0.129 C  
BRANCH  11  12
HETATM   12  C   UNL     1     -11.237  12.128  67.852  1.00  0.00    -0.329 C  
BRANCH  12  13
HETATM   13  C   UNL     1     -11.458  13.549  68.363  1.00  0.00    -0.346 C  
BRANCH  13  14
HETATM   14  C   UNL     1     -10.571  14.518  67.618  1.00  0.00    -0.251 C  
HETATM   15  O   UNL     1      -9.516  14.227  67.070  1.00  0.00    -0.234 OA 
BRANCH  14  16
HETATM   16  O   UNL     1     -11.116  15.766  67.646  1.00  0.00    -0.323 OA 
BRANCH  16  17
HETATM   17  C   UNL     1     -10.297  16.778  68.265  1.00  0.00    -0.319 C  
HETATM   18  C   UNL     1     -10.560  18.127  67.604  1.00  0.00    -0.424 C  
HETATM   19  C   UNL     1     -10.659  16.820  69.743  1.00  0.00    -0.174 C  
ENDBRANCH  16  17
ENDBRANCH  14  16
ENDBRANCH  13  14
ENDBRANCH  12  13
ENDBRANCH  11  12
ENDBRANCH  10  11
ENDBRANCH   9  10
ENDBRANCH   8   9
ENDBRANCH   7   8
ENDBRANCH   6   7
ENDBRANCH   5   6
ENDBRANCH   4   5
ENDBRANCH   3   4
ENDBRANCH   2   3
TORSDOF 14
ENDMDL
MODEL      322
REMARK 921   NORMALIZED FREE ENERGY PREDICTED BY IDOCK:   -2.82 KCAL/MOL
REMARK 922        TOTAL FREE ENERGY PREDICTED BY IDOCK:   -6.69 KCAL/MOL
REMARK 923 INTER-LIGAND FREE ENERGY PREDICTED BY IDOCK:   -5.71 KCAL/MOL
REMARK 924 INTRA-LIGAND FREE ENERGY PREDICTED BY IDOCK:   -0.98 KCAL/MOL
REMARK 927      BINDING AFFINITY PREDICTED BY RF-SCORE:    0.00 PKD
ROOT
HETATM    1  C   UNL     1     -10.064   6.540  71.827  1.00  0.00    -0.202 C  
HETATM    2  C   UNL     1     -10.483   7.822  72.526  1.00  0.00    -0.343 C  
ENDROOT
BRANCH   2   3
HETATM    3  C   UNL     1     -11.953   8.140  72.264  1.00  0.00    -0.434 C  
BRANCH   3   4
HETATM    4  C   UNL     1     -12.109   9.470  71.527  1.00  0.00    -0.468 C  
BRANCH   4   5
HETATM    5  C   UNL     1     -10.850   9.801  70.727  1.00  0.00    -0.403 C  
BRANCH   5   6
HETATM    6  C   UNL     1     -11.197  10.253  69.310  1.00  0.00    -0.281 C  
BRANCH   6   7
HETATM    7  C   UNL     1     -10.278   9.586  68.288  1.00  0.00    -0.225 C  
BRANCH   7   8
HETATM    8  C   UNL     1     -10.231  10.385  66.988  1.00  0.00    -0.277 C  
BRANCH   8   9
HETATM    9  C   UNL     1     -10.039  11.875  67.268  1.00  0.00    -0.213 C  
BRANCH   9  10
HETATM   10  C   UNL     1     -11.116  12.698  66.570  1.00  0.00    -0.320 C  
BRANCH  10  11
HETATM   11  C   UNL     1     -12.166  13.211  67.554  1.00  0.00    -0.169 C  
BRANCH  11  12
HETATM   12  C   UNL     1     -11.955  14.699  67.813  1.00  0.00    -0.302 C  
BRANCH  12  13
HETATM   13  C   UNL     1     -10.822  15.285  66.974  1.00  0.00    -0.321 C  
BRANCH  13  14
HETATM   14  C   UNL     1      -9.700  15.759  67.866  1.00  0.00    -0.216 C  
HETATM   15  O   UNL     1      -8.726  15.090  68.186  1.00  0.00    -0.158 OA 
BRANCH  14  16
HETATM   16  O   UNL     1      -9.931  17.040  68.266  1.00  0.00    -0.259 OA 
BRANCH  16  17
HETATM   17  C   UNL     1      -9.863  18.029  67.220  1.00  0.00    -0.306 C  
HETATM   18  C   UNL     1     -10.451  19.346  67.718  1.00  0.00    -0.556 C  
HETATM   19  C   UNL     1      -8.397  18.198  66.846  1.00  0.00    -0.258 C  
ENDBRANCH  16  17
ENDBRANCH  14  16
ENDBRANCH  13  14
ENDBRANCH  12  13
ENDBRANCH  11  12
ENDBRANCH  10  11
ENDBRANCH   9  10
ENDBRANCH   8   9
ENDBRANCH   7   8
ENDBRANCH   6   7
ENDBRANCH   5   6
ENDBRANCH   4   5
ENDBRANCH   3   4
ENDBRANCH   2   3
TORSDOF 14
ENDMDL
MODEL      323
REMARK 921   NORMALIZED FREE ENERGY PREDICTED BY IDOCK:   -2.81 KCAL/MOL
REMARK 922        TOTAL FREE ENERGY PREDICTED BY IDOCK:   -6.68 KCAL/MOL
REMARK 923 INTER-LIGAND FREE ENERGY PREDICTED BY IDOCK:   -4.22 KCAL/MOL
REMARK 924 INTRA-LIGAND FREE ENERGY PREDICTED BY IDOCK:   -2.46 KCAL/MOL
REMARK 927      BINDING AFFINITY PREDICTED BY RF-SCORE:    0.00 PKD
ROOT
HETATM    1  C   UNL     1     -11.307   6.266  69.255  1.00  0.00    -0.411 C  
HETATM    2  C   UNL     1     -10.529   7.557  69.059  1.00  0.00    -0.216 C  
ENDROOT
BRANCH   2   3
HETATM    3  C   UNL     1     -10.289   8.265  70.390  1.00  0.00    -0.214 C  
BRANCH   3   4
HETATM    4  C   UNL     1     -11.602   8.751  71.003  1.00  0.00    -0.337 C  
BRANCH   4   5
HETATM    5  C   UNL     1     -11.756   8.242  72.436  1.00  0.00    -0.463 C  
BRANCH   5   6
HETATM    6  C   UNL     1     -10.416   7.784  73.008  1.00  0.00    -0.432 C  
BRANCH   6   7
HETATM    7  C   UNL     1     -10.571   6.463  73.760  1.00  0.00    -0.271 C  
BRANCH   7   8
HETATM    8  C   UNL     1     -11.108   5.368  72.842  1.00  0.00    -0.360 C  
BRANCH   8   9
HETATM    9  C   UNL     1     -10.105   4.223  72.711  1.00  0.00    -0.214 C  
BRANCH   9  10
HETATM   10  C   UNL     1      -9.305   4.352  71.418  1.00  0.00    -0.206 C  
BRANCH  10  11
HETATM   11  C   UNL     1      -8.049   5.201  71.610  1.00  0.00    -0.115 C  
BRANCH  11  12
HETATM   12  C   UNL     1      -7.068   4.946  70.471  1.00  0.00    -0.052 C  
BRANCH  12  13
HETATM   13  C   UNL     1      -7.262   5.911  69.304  1.00  0.00    -0.074 C  
BRANCH  13  14
HETATM   14  C   UNL     1      -7.220   5.162  67.993  1.00  0.00    -0.067 C  
HETATM   15  O   UNL     1      -6.294   4.458  67.615  1.00  0.00    -0.035 OA 
BRANCH  14  16
HETATM   16  O   UNL     1      -8.366   5.388  67.290  1.00  0.00    -0.108 OA 
BRANCH  16  17
HETATM   17  C   UNL     1      -8.981   4.212  66.728  1.00  0.00    -0.126 C  
HETATM   18  C   UNL     1      -9.425   3.278  67.850  1.00  0.00    -0.219 C  
HETATM   19  C   UNL     1     -10.174   4.670  65.901  1.00  0.00    -0.303 C  
ENDBRANCH  16  17
ENDBRANCH  14  16
ENDBRANCH  13  14
ENDBRANCH  12  13
ENDBRANCH  11  12
ENDBRANCH  10  11
ENDBRANCH   9  10
ENDBRANCH   8   9
ENDBRANCH   7   8
ENDBRANCH   6   7
ENDBRANCH   5   6
ENDBRANCH   4   5
ENDBRANCH   3   4
ENDBRANCH   2   3
TORSDOF 14
ENDMDL
MODEL      324
REMARK 921   NORMALIZED FREE ENERGY PREDICTED BY IDOCK:   -2.81 KCAL/MOL
REMARK 922        TOTAL FREE ENERGY PREDICTED BY IDOCK:   -6.68 KCAL/MOL
REMARK 923 INTER-LIGAND FREE ENERGY PREDICTED BY IDOCK:   -5.44 KCAL/MOL
REMARK 924 INTRA-LIGAND FREE ENERGY PREDICTED BY IDOCK:   -1.24 KCAL/MOL
REMARK 927      BINDING AFFINITY PREDICTED BY RF-SCORE:    0.00 PKD
ROOT
HETATM    1  C   UNL     1     -10.407   9.847  66.874  1.00  0.00    -0.300 C  
HETATM    2  C   UNL     1     -10.675   9.385  68.296  1.00  0.00    -0.220 C  
ENDROOT
BRANCH   2   3
HETATM    3  C   UNL     1     -11.380  10.470  69.107  1.00  0.00    -0.319 C  
BRANCH   3   4
HETATM    4  C   UNL     1     -11.097  10.317  70.601  1.00  0.00    -0.358 C  
BRANCH   4   5
HETATM    5  C   UNL     1     -12.395  10.118  71.383  1.00  0.00    -0.515 C  
BRANCH   5   6
HETATM    6  C   UNL     1     -13.317  11.327  71.243  1.00  0.00    -0.003 C  
BRANCH   6   7
HETATM    7  C   UNL     1     -12.835  12.481  72.122  1.00  0.00    -0.189 C  
BRANCH   7   8
HETATM    8  C   UNL     1     -13.843  13.627  72.124  1.00  0.00    -0.642 C  
BRANCH   8   9
HETATM    9  C   UNL     1     -13.577  14.593  70.970  1.00  0.00    -0.331 C  
BRANCH   9  10
HETATM   10  C   UNL     1     -12.133  15.084  71.000  1.00  0.00    -0.381 C  
BRANCH  10  11
HETATM   11  C   UNL     1     -11.274  14.386  69.947  1.00  0.00    -0.226 C  
BRANCH  11  12
HETATM   12  C   UNL     1     -11.737  14.782  68.549  1.00  0.00    -0.347 C  
BRANCH  12  13
HETATM   13  C   UNL     1     -10.573  15.083  67.609  1.00  0.00    -0.267 C  
BRANCH  13  14
HETATM   14  C   UNL     1     -10.131  16.519  67.765  1.00  0.00    -0.264 C  
HETATM   15  O   UNL     1     -10.595  17.468  67.147  1.00  0.00    -0.330 OA 
BRANCH  14  16
HETATM   16  O   UNL     1      -9.137  16.603  68.693  1.00  0.00    -0.228 OA 
BRANCH  16  17
HETATM   17  C   UNL     1      -7.889  15.994  68.309  1.00  0.00    -0.144 C  
HETATM   18  C   UNL     1      -6.875  17.078  67.957  1.00  0.00    -0.166 C  
HETATM   19  C   UNL     1      -7.404  15.163  69.489  1.00  0.00    -0.210 C  
ENDBRANCH  16  17
ENDBRANCH  14  16
ENDBRANCH  13  14
ENDBRANCH  12  13
ENDBRANCH  11  12
ENDBRANCH  10  11
ENDBRANCH   9  10
ENDBRANCH   8   9
ENDBRANCH   7   8
ENDBRANCH   6   7
ENDBRANCH   5   6
ENDBRANCH   4   5
ENDBRANCH   3   4
ENDBRANCH   2   3
TORSDOF 14
ENDMDL
MODEL      325
REMARK 921   NORMALIZED FREE ENERGY PREDICTED BY IDOCK:   -2.81 KCAL/MOL
REMARK 922        TOTAL FREE ENERGY PREDICTED BY IDOCK:   -6.67 KCAL/MOL
REMARK 923 INTER-LIGAND FREE ENERGY PREDICTED BY IDOCK:   -5.06 KCAL/MOL
REMARK 924 INTRA-LIGAND FREE ENERGY PREDICTED BY IDOCK:   -1.61 KCAL/MOL
REMARK 927      BINDING AFFINITY PREDICTED BY RF-SCORE:    0.00 PKD
ROOT
HETATM    1  C   UNL     1     -11.005   7.895  72.280  1.00  0.00    -0.359 C  
HETATM    2  C   UNL     1     -12.016   8.979  71.943  1.00  0.00    -0.445 C  
ENDROOT
BRANCH   2   3
HETATM    3  C   UNL     1     -11.439   9.982  70.947  1.00  0.00    -0.452 C  
BRANCH   3   4
HETATM    4  C   UNL     1     -12.271  11.263  70.905  1.00  0.00    -0.460 C  
BRANCH   4   5
HETATM    5  C   UNL     1     -12.315  11.839  69.491  1.00  0.00    -0.120 C  
BRANCH   5   6
HETATM    6  C   UNL     1     -11.806  13.278  69.463  1.00  0.00    -0.388 C  
BRANCH   6   7
HETATM    7  C   UNL     1     -12.022  13.903  68.085  1.00  0.00    -0.385 C  
BRANCH   7   8
HETATM    8  C   UNL     1     -10.692  14.140  67.374  1.00  0.00    -0.284 C  
BRANCH   8   9
HETATM    9  C   UNL     1      -9.543  14.224  68.377  1.00  0.00    -0.221 C  
BRANCH   9  10
HETATM   10  C   UNL     1      -8.539  13.100  68.142  1.00  0.00    -0.181 C  
BRANCH  10  11
HETATM   11  C   UNL     1      -9.011  12.135  67.055  1.00  0.00    -0.201 C  
BRANCH  11  12
HETATM   12  C   UNL     1      -9.349  10.782  67.670  1.00  0.00    -0.156 C  
BRANCH  12  13
HETATM   13  C   UNL     1     -10.028   9.840  66.677  1.00  0.00    -0.292 C  
BRANCH  13  14
HETATM   14  C   UNL     1      -8.994   9.154  65.816  1.00  0.00    -0.193 C  
HETATM   15  O   UNL     1      -8.034   8.523  66.238  1.00  0.00    -0.098 OA 
BRANCH  14  16
HETATM   16  O   UNL     1      -9.287   9.342  64.499  1.00  0.00    -0.121 OA 
BRANCH  16  17
HETATM   17  C   UNL     1      -8.580  10.426  63.864  1.00  0.00    -0.176 C  
HETATM   18  C   UNL     1      -7.494   9.867  62.951  1.00  0.00    -0.131 C  
HETATM   19  C   UNL     1      -9.597  11.229  63.065  1.00  0.00    -0.397 C  
ENDBRANCH  16  17
ENDBRANCH  14  16
ENDBRANCH  13  14
ENDBRANCH  12  13
ENDBRANCH  11  12
ENDBRANCH  10  11
ENDBRANCH   9  10
ENDBRANCH   8   9
ENDBRANCH   7   8
ENDBRANCH   6   7
ENDBRANCH   5   6
ENDBRANCH   4   5
ENDBRANCH   3   4
ENDBRANCH   2   3
TORSDOF 14
ENDMDL
MODEL      326
REMARK 921   NORMALIZED FREE ENERGY PREDICTED BY IDOCK:   -2.80 KCAL/MOL
REMARK 922        TOTAL FREE ENERGY PREDICTED BY IDOCK:   -6.66 KCAL/MOL
REMARK 923 INTER-LIGAND FREE ENERGY PREDICTED BY IDOCK:   -5.09 KCAL/MOL
REMARK 924 INTRA-LIGAND FREE ENERGY PREDICTED BY IDOCK:   -1.56 KCAL/MOL
REMARK 927      BINDING AFFINITY PREDICTED BY RF-SCORE:    0.00 PKD
ROOT
HETATM    1  C   UNL     1     -10.662  17.665  67.679  1.00  0.00    -0.318 C  
HETATM    2  C   UNL     1     -10.158  16.450  68.440  1.00  0.00    -0.245 C  
ENDROOT
BRANCH   2   3
HETATM    3  C   UNL     1     -10.947  15.197  68.067  1.00  0.00    -0.295 C  
BRANCH   3   4
HETATM    4  C   UNL     1     -10.029  14.106  67.519  1.00  0.00    -0.236 C  
BRANCH   4   5
HETATM    5  C   UNL     1     -10.468  13.675  66.121  1.00  0.00    -0.297 C  
BRANCH   5   6
HETATM    6  C   UNL     1     -10.021  12.247  65.815  1.00  0.00    -0.273 C  
BRANCH   6   7
HETATM    7  C   UNL     1      -9.412  11.593  67.054  1.00  0.00    -0.191 C  
BRANCH   7   8
HETATM    8  C   UNL     1      -9.179  10.101  66.829  1.00  0.00    -0.174 C  
BRANCH   8   9
HETATM    9  C   UNL     1     -10.483   9.393  66.463  1.00  0.00    -0.199 C  
BRANCH   9  10
HETATM   10  C   UNL     1     -10.528   7.996  67.076  1.00  0.00    -0.410 C  
BRANCH  10  11
HETATM   11  C   UNL     1      -9.321   7.731  67.975  1.00  0.00    -0.146 C  
BRANCH  11  12
HETATM   12  C   UNL     1      -9.779   7.520  69.414  1.00  0.00    -0.164 C  
BRANCH  12  13
HETATM   13  C   UNL     1      -9.305   8.630  70.348  1.00  0.00    -0.191 C  
BRANCH  13  14
HETATM   14  C   UNL     1     -10.273   8.800  71.495  1.00  0.00    -0.300 C  
HETATM   15  O   UNL     1     -10.517   7.950  72.341  1.00  0.00    -0.232 OA 
BRANCH  14  16
HETATM   16  O   UNL     1     -10.839  10.039  71.448  1.00  0.00    -0.140 OA 
BRANCH  16  17
HETATM   17  C   UNL     1     -12.123  10.100  70.796  1.00  0.00    -0.343 C  
HETATM   18  C   UNL     1     -13.161  10.668  71.759  1.00  0.00    -0.526 C  
HETATM   19  C   UNL     1     -11.973  10.994  69.573  1.00  0.00    -0.413 C  
ENDBRANCH  16  17
ENDBRANCH  14  16
ENDBRANCH  13  14
ENDBRANCH  12  13
ENDBRANCH  11  12
ENDBRANCH  10  11
ENDBRANCH   9  10
ENDBRANCH   8   9
ENDBRANCH   7   8
ENDBRANCH   6   7
ENDBRANCH   5   6
ENDBRANCH   4   5
ENDBRANCH   3   4
ENDBRANCH   2   3
TORSDOF 14
ENDMDL
MODEL      327
REMARK 921   NORMALIZED FREE ENERGY PREDICTED BY IDOCK:   -2.79 KCAL/MOL
REMARK 922        TOTAL FREE ENERGY PREDICTED BY IDOCK:   -6.65 KCAL/MOL
REMARK 923 INTER-LIGAND FREE ENERGY PREDICTED BY IDOCK:   -5.08 KCAL/MOL
REMARK 924 INTRA-LIGAND FREE ENERGY PREDICTED BY IDOCK:   -1.57 KCAL/MOL
REMARK 927      BINDING AFFINITY PREDICTED BY RF-SCORE:    0.00 PKD
ROOT
HETATM    1  C   UNL     1      -7.404  10.037  64.625  1.00  0.00    -0.143 C  
HETATM    2  C   UNL     1      -8.657  10.375  63.834  1.00  0.00    -0.178 C  
ENDROOT
BRANCH   2   3
HETATM    3  C   UNL     1      -9.893  10.376  64.730  1.00  0.00    -0.406 C  
BRANCH   3   4
HETATM    4  C   UNL     1     -11.051  11.130  64.077  1.00  0.00    -0.173 C  
BRANCH   4   5
HETATM    5  C   UNL     1     -10.637  12.556  63.715  1.00  0.00    -0.471 C  
BRANCH   5   6
HETATM    6  C   UNL     1     -10.822  13.504  64.898  1.00  0.00    -0.371 C  
BRANCH   6   7
HETATM    7  C   UNL     1     -11.989  13.054  65.776  1.00  0.00    -0.482 C  
BRANCH   7   8
HETATM    8  C   UNL     1     -11.591  13.031  67.249  1.00  0.00    -0.409 C  
BRANCH   8   9
HETATM    9  C   UNL     1     -10.148  12.559  67.419  1.00  0.00    -0.211 C  
BRANCH   9  10
HETATM   10  C   UNL     1     -10.072  11.403  68.412  1.00  0.00    -0.207 C  
BRANCH  10  11
HETATM   11  C   UNL     1     -11.066  10.294  68.070  1.00  0.00    -0.336 C  
BRANCH  11  12
HETATM   12  C   UNL     1     -10.575   8.963  68.631  1.00  0.00    -0.182 C  
BRANCH  12  13
HETATM   13  C   UNL     1     -10.447   7.887  67.556  1.00  0.00    -0.332 C  
BRANCH  13  14
HETATM   14  C   UNL     1     -10.815   6.535  68.121  1.00  0.00    -0.295 C  
HETATM   15  O   UNL     1     -11.561   6.352  69.074  1.00  0.00    -0.276 OA 
BRANCH  14  16
HETATM   16  O   UNL     1     -10.193   5.550  67.416  1.00  0.00    -0.172 OA 
BRANCH  16  17
HETATM   17  C   UNL     1      -9.557   4.533  68.216  1.00  0.00    -0.143 C  
HETATM   18  C   UNL     1      -9.110   3.381  67.323  1.00  0.00    -0.200 C  
HETATM   19  C   UNL     1      -8.363   5.176  68.909  1.00  0.00    -0.087 C  
ENDBRANCH  16  17
ENDBRANCH  14  16
ENDBRANCH  13  14
ENDBRANCH  12  13
ENDBRANCH  11  12
ENDBRANCH  10  11
ENDBRANCH   9  10
ENDBRANCH   8   9
ENDBRANCH   7   8
ENDBRANCH   6   7
ENDBRANCH   5   6
ENDBRANCH   4   5
ENDBRANCH   3   4
ENDBRANCH   2   3
TORSDOF 14
ENDMDL
MODEL      328
REMARK 921   NORMALIZED FREE ENERGY PREDICTED BY IDOCK:   -2.79 KCAL/MOL
REMARK 922        TOTAL FREE ENERGY PREDICTED BY IDOCK:   -6.64 KCAL/MOL
REMARK 923 INTER-LIGAND FREE ENERGY PREDICTED BY IDOCK:   -4.91 KCAL/MOL
REMARK 924 INTRA-LIGAND FREE ENERGY PREDICTED BY IDOCK:   -1.73 KCAL/MOL
REMARK 927      BINDING AFFINITY PREDICTED BY RF-SCORE:    0.00 PKD
ROOT
HETATM    1  C   UNL     1      -8.035  10.383  64.983  1.00  0.00    -0.126 C  
HETATM    2  C   UNL     1      -9.104  10.791  63.982  1.00  0.00    -0.215 C  
ENDROOT
BRANCH   2   3
HETATM    3  C   UNL     1     -10.494  10.752  64.611  1.00  0.00    -0.346 C  
BRANCH   3   4
HETATM    4  C   UNL     1     -11.370  11.892  64.091  1.00  0.00    -0.455 C  
BRANCH   4   5
HETATM    5  C   UNL     1     -10.611  13.217  64.118  1.00  0.00    -0.331 C  
BRANCH   5   6
HETATM    6  C   UNL     1     -11.048  14.083  65.298  1.00  0.00    -0.325 C  
BRANCH   6   7
HETATM    7  C   UNL     1     -12.276  13.486  65.983  1.00  0.00    -0.493 C  
BRANCH   7   8
HETATM    8  C   UNL     1     -11.940  13.004  67.392  1.00  0.00    -0.372 C  
BRANCH   8   9
HETATM    9  C   UNL     1     -10.469  13.255  67.719  1.00  0.00    -0.242 C  
BRANCH   9  10
HETATM   10  C   UNL     1      -9.769  11.952  68.092  1.00  0.00    -0.194 C  
BRANCH  10  11
HETATM   11  C   UNL     1     -10.768  10.829  68.365  1.00  0.00    -0.255 C  
BRANCH  11  12
HETATM   12  C   UNL     1     -10.040   9.492  68.451  1.00  0.00    -0.199 C  
BRANCH  12  13
HETATM   13  C   UNL     1     -10.242   8.800  69.797  1.00  0.00    -0.205 C  
BRANCH  13  14
HETATM   14  C   UNL     1     -10.430   7.315  69.599  1.00  0.00    -0.231 C  
HETATM   15  O   UNL     1     -10.368   6.735  68.524  1.00  0.00    -0.169 OA 
BRANCH  14  16
HETATM   16  O   UNL     1     -10.682   6.714  70.796  1.00  0.00    -0.223 OA 
BRANCH  16  17
HETATM   17  C   UNL     1      -9.524   6.185  71.471  1.00  0.00    -0.148 C  
HETATM   18  C   UNL     1      -9.606   6.505  72.960  1.00  0.00    -0.161 C  
HETATM   19  C   UNL     1      -9.507   4.681  71.241  1.00  0.00    -0.221 C  
ENDBRANCH  16  17
ENDBRANCH  14  16
ENDBRANCH  13  14
ENDBRANCH  12  13
ENDBRANCH  11  12
ENDBRANCH  10  11
ENDBRANCH   9  10
ENDBRANCH   8   9
ENDBRANCH   7   8
ENDBRANCH   6   7
ENDBRANCH   5   6
ENDBRANCH   4   5
ENDBRANCH   3   4
ENDBRANCH   2   3
TORSDOF 14
ENDMDL
MODEL      329
REMARK 921   NORMALIZED FREE ENERGY PREDICTED BY IDOCK:   -2.79 KCAL/MOL
REMARK 922        TOTAL FREE ENERGY PREDICTED BY IDOCK:   -6.63 KCAL/MOL
REMARK 923 INTER-LIGAND FREE ENERGY PREDICTED BY IDOCK:   -4.75 KCAL/MOL
REMARK 924 INTRA-LIGAND FREE ENERGY PREDICTED BY IDOCK:   -1.88 KCAL/MOL
REMARK 927      BINDING AFFINITY PREDICTED BY RF-SCORE:    0.00 PKD
ROOT
HETATM    1  C   UNL     1      -9.654   4.052  68.177  1.00  0.00    -0.189 C  
HETATM    2  C   UNL     1     -10.227   5.001  67.138  1.00  0.00    -0.234 C  
ENDROOT
BRANCH   2   3
HETATM    3  C   UNL     1      -9.396   6.278  67.037  1.00  0.00    -0.135 C  
BRANCH   3   4
HETATM    4  C   UNL     1      -8.704   6.595  68.362  1.00  0.00    -0.122 C  
BRANCH   4   5
HETATM    5  C   UNL     1      -7.798   7.818  68.225  1.00  0.00    -0.121 C  
BRANCH   5   6
HETATM    6  C   UNL     1      -7.304   7.983  66.789  1.00  0.00    -0.089 C  
BRANCH   6   7
HETATM    7  C   UNL     1      -7.543   9.408  66.294  1.00  0.00    -0.097 C  
BRANCH   7   8
HETATM    8  C   UNL     1      -8.473   9.421  65.083  1.00  0.00    -0.166 C  
BRANCH   8   9
HETATM    9  C   UNL     1      -9.884   9.849  65.481  1.00  0.00    -0.381 C  
BRANCH   9  10
HETATM   10  C   UNL     1      -9.863  10.625  66.795  1.00  0.00    -0.240 C  
BRANCH  10  11
HETATM   11  C   UNL     1     -11.171  10.468  67.568  1.00  0.00    -0.299 C  
BRANCH  11  12
HETATM   12  C   UNL     1     -10.970  10.879  69.023  1.00  0.00    -0.285 C  
BRANCH  12  13
HETATM   13  C   UNL     1      -9.752  10.210  69.657  1.00  0.00    -0.250 C  
BRANCH  13  14
HETATM   14  C   UNL     1     -10.173   9.366  70.836  1.00  0.00    -0.303 C  
HETATM   15  O   UNL     1      -9.476   9.123  71.812  1.00  0.00    -0.312 OA 
BRANCH  14  16
HETATM   16  O   UNL     1     -11.444   8.910  70.653  1.00  0.00    -0.266 OA 
BRANCH  16  17
HETATM   17  C   UNL     1     -12.244   8.830  71.849  1.00  0.00    -0.361 C  
HETATM   18  C   UNL     1     -13.116  10.075  71.967  1.00  0.00    -0.541 C  
HETATM   19  C   UNL     1     -13.101   7.576  71.743  1.00  0.00    -0.362 C  
ENDBRANCH  16  17
ENDBRANCH  14  16
ENDBRANCH  13  14
ENDBRANCH  12  13
ENDBRANCH  11  12
ENDBRANCH  10  11
ENDBRANCH   9  10
ENDBRANCH   8   9
ENDBRANCH   7   8
ENDBRANCH   6   7
ENDBRANCH   5   6
ENDBRANCH   4   5
ENDBRANCH   3   4
ENDBRANCH   2   3
TORSDOF 14
ENDMDL
MODEL      330
REMARK 921   NORMALIZED FREE ENERGY PREDICTED BY IDOCK:   -2.78 KCAL/MOL
REMARK 922        TOTAL FREE ENERGY PREDICTED BY IDOCK:   -6.63 KCAL/MOL
REMARK 923 INTER-LIGAND FREE ENERGY PREDICTED BY IDOCK:   -5.99 KCAL/MOL
REMARK 924 INTRA-LIGAND FREE ENERGY PREDICTED BY IDOCK:   -0.63 KCAL/MOL
REMARK 927      BINDING AFFINITY PREDICTED BY RF-SCORE:    0.00 PKD
ROOT
HETATM    1  C   UNL     1      -9.097   8.016  68.743  1.00  0.00    -0.144 C  
HETATM    2  C   UNL     1     -10.525   7.521  68.585  1.00  0.00    -0.207 C  
ENDROOT
BRANCH   2   3
HETATM    3  C   UNL     1     -10.753   6.231  69.369  1.00  0.00    -0.364 C  
BRANCH   3   4
HETATM    4  C   UNL     1     -11.628   6.475  70.597  1.00  0.00    -0.442 C  
BRANCH   4   5
HETATM    5  C   UNL     1     -11.581   7.944  71.016  1.00  0.00    -0.299 C  
BRANCH   5   6
HETATM    6  C   UNL     1     -12.176   8.142  72.408  1.00  0.00    -0.374 C  
BRANCH   6   7
HETATM    7  C   UNL     1     -12.962   9.450  72.481  1.00  0.00    -0.345 C  
BRANCH   7   8
HETATM    8  C   UNL     1     -13.275   9.982  71.085  1.00  0.00    -0.441 C  
BRANCH   8   9
HETATM    9  C   UNL     1     -12.305  11.096  70.694  1.00  0.00    -0.482 C  
BRANCH   9  10
HETATM   10  C   UNL     1     -12.161  11.179  69.178  1.00  0.00    -0.352 C  
BRANCH  10  11
HETATM   11  C   UNL     1     -10.909  11.954  68.769  1.00  0.00    -0.270 C  
BRANCH  11  12
HETATM   12  C   UNL     1     -11.298  13.172  67.937  1.00  0.00    -0.321 C  
BRANCH  12  13
HETATM   13  C   UNL     1     -11.758  14.346  68.798  1.00  0.00    -0.372 C  
BRANCH  13  14
HETATM   14  C   UNL     1     -10.566  15.125  69.302  1.00  0.00    -0.253 C  
HETATM   15  O   UNL     1     -10.518  15.724  70.368  1.00  0.00    -0.296 OA 
BRANCH  14  16
HETATM   16  O   UNL     1      -9.552  15.065  68.393  1.00  0.00    -0.200 OA 
BRANCH  16  17
HETATM   17  C   UNL     1      -9.221  16.318  67.763  1.00  0.00    -0.203 C  
HETATM   18  C   UNL     1      -8.252  16.074  66.612  1.00  0.00    -0.324 C  
HETATM   19  C   UNL     1     -10.519  16.933  67.257  1.00  0.00    -0.301 C  
ENDBRANCH  16  17
ENDBRANCH  14  16
ENDBRANCH  13  14
ENDBRANCH  12  13
ENDBRANCH  11  12
ENDBRANCH  10  11
ENDBRANCH   9  10
ENDBRANCH   8   9
ENDBRANCH   7   8
ENDBRANCH   6   7
ENDBRANCH   5   6
ENDBRANCH   4   5
ENDBRANCH   3   4
ENDBRANCH   2   3
TORSDOF 14
ENDMDL
MODEL      331
REMARK 921   NORMALIZED FREE ENERGY PREDICTED BY IDOCK:   -2.77 KCAL/MOL
REMARK 922        TOTAL FREE ENERGY PREDICTED BY IDOCK:   -6.60 KCAL/MOL
REMARK 923 INTER-LIGAND FREE ENERGY PREDICTED BY IDOCK:   -4.01 KCAL/MOL
REMARK 924 INTRA-LIGAND FREE ENERGY PREDICTED BY IDOCK:   -2.59 KCAL/MOL
REMARK 927      BINDING AFFINITY PREDICTED BY RF-SCORE:    0.00 PKD
ROOT
HETATM    1  C   UNL     1      -8.000   5.274  66.206  1.00  0.00    -0.104 C  
HETATM    2  C   UNL     1      -8.078   5.990  64.867  1.00  0.00    -0.133 C  
ENDROOT
BRANCH   2   3
HETATM    3  C   UNL     1      -7.373   7.344  64.922  1.00  0.00    -0.080 C  
BRANCH   3   4
HETATM    4  C   UNL     1      -6.447   7.438  66.135  1.00  0.00    -0.045 C  
BRANCH   4   5
HETATM    5  C   UNL     1      -6.577   8.799  66.815  1.00  0.00    -0.061 C  
BRANCH   5   6
HETATM    6  C   UNL     1      -6.900   9.896  65.803  1.00  0.00    -0.104 C  
BRANCH   6   7
HETATM    7  C   UNL     1      -7.912  10.885  66.378  1.00  0.00    -0.157 C  
BRANCH   7   8
HETATM    8  C   UNL     1      -9.095  11.074  65.432  1.00  0.00    -0.213 C  
BRANCH   8   9
HETATM    9  C   UNL     1     -10.015   9.855  65.456  1.00  0.00    -0.363 C  
BRANCH   9  10
HETATM   10  C   UNL     1     -10.438   9.526  66.884  1.00  0.00    -0.279 C  
BRANCH  10  11
HETATM   11  C   UNL     1     -10.439   8.020  67.143  1.00  0.00    -0.408 C  
BRANCH  11  12
HETATM   12  C   UNL     1      -9.706   7.714  68.445  1.00  0.00    -0.164 C  
BRANCH  12  13
HETATM   13  C   UNL     1      -9.384   8.973  69.246  1.00  0.00    -0.150 C  
BRANCH  13  14
HETATM   14  C   UNL     1      -9.234   8.638  70.711  1.00  0.00    -0.185 C  
HETATM   15  O   UNL     1      -8.551   9.266  71.509  1.00  0.00    -0.320 OA 
BRANCH  14  16
HETATM   16  O   UNL     1      -9.971   7.533  71.014  1.00  0.00    -0.186 OA 
BRANCH  16  17
HETATM   17  C   UNL     1     -11.167   7.785  71.778  1.00  0.00    -0.256 C  
HETATM   18  C   UNL     1     -12.347   7.064  71.136  1.00  0.00    -0.423 C  
HETATM   19  C   UNL     1     -10.924   7.274  73.191  1.00  0.00    -0.384 C  
ENDBRANCH  16  17
ENDBRANCH  14  16
ENDBRANCH  13  14
ENDBRANCH  12  13
ENDBRANCH  11  12
ENDBRANCH  10  11
ENDBRANCH   9  10
ENDBRANCH   8   9
ENDBRANCH   7   8
ENDBRANCH   6   7
ENDBRANCH   5   6
ENDBRANCH   4   5
ENDBRANCH   3   4
ENDBRANCH   2   3
TORSDOF 14
ENDMDL
MODEL      332
REMARK 921   NORMALIZED FREE ENERGY PREDICTED BY IDOCK:   -2.77 KCAL/MOL
REMARK 922        TOTAL FREE ENERGY PREDICTED BY IDOCK:   -6.60 KCAL/MOL
REMARK 923 INTER-LIGAND FREE ENERGY PREDICTED BY IDOCK:   -5.87 KCAL/MOL
REMARK 924 INTRA-LIGAND FREE ENERGY PREDICTED BY IDOCK:   -0.73 KCAL/MOL
REMARK 927      BINDING AFFINITY PREDICTED BY RF-SCORE:    0.00 PKD
ROOT
HETATM    1  C   UNL     1     -10.638   6.997  73.276  1.00  0.00    -0.378 C  
HETATM    2  C   UNL     1     -11.562   8.023  72.641  1.00  0.00    -0.448 C  
ENDROOT
BRANCH   2   3
HETATM    3  C   UNL     1     -10.777   9.025  71.797  1.00  0.00    -0.437 C  
BRANCH   3   4
HETATM    4  C   UNL     1     -11.682  10.143  71.280  1.00  0.00    -0.426 C  
BRANCH   4   5
HETATM    5  C   UNL     1     -11.622  10.232  69.756  1.00  0.00    -0.294 C  
BRANCH   5   6
HETATM    6  C   UNL     1     -10.379   9.532  69.209  1.00  0.00    -0.219 C  
BRANCH   6   7
HETATM    7  C   UNL     1     -10.355   9.584  67.683  1.00  0.00    -0.299 C  
BRANCH   7   8
HETATM    8  C   UNL     1      -9.298  10.564  67.182  1.00  0.00    -0.173 C  
BRANCH   8   9
HETATM    9  C   UNL     1      -8.537  11.191  68.349  1.00  0.00    -0.152 C  
BRANCH   9  10
HETATM   10  C   UNL     1      -8.337  12.686  68.122  1.00  0.00    -0.175 C  
BRANCH  10  11
HETATM   11  C   UNL     1      -8.836  13.122  66.745  1.00  0.00    -0.140 C  
BRANCH  11  12
HETATM   12  C   UNL     1      -9.507  14.488  66.842  1.00  0.00    -0.263 C  
BRANCH  12  13
HETATM   13  C   UNL     1     -10.036  14.978  65.497  1.00  0.00    -0.400 C  
BRANCH  13  14
HETATM   14  C   UNL     1     -11.516  14.701  65.383  1.00  0.00    -0.352 C  
HETATM   15  O   UNL     1     -12.322  14.802  66.298  1.00  0.00    -0.160 OA 
BRANCH  14  16
HETATM   16  O   UNL     1     -11.823  14.319  64.112  1.00  0.00    -0.389 OA 
BRANCH  16  17
HETATM   17  C   UNL     1     -11.896  12.895  63.902  1.00  0.00    -0.473 C  
HETATM   18  C   UNL     1     -10.566  12.388  63.355  1.00  0.00    -0.375 C  
HETATM   19  C   UNL     1     -12.211  12.250  65.244  1.00  0.00    -0.313 C  
ENDBRANCH  16  17
ENDBRANCH  14  16
ENDBRANCH  13  14
ENDBRANCH  12  13
ENDBRANCH  11  12
ENDBRANCH  10  11
ENDBRANCH   9  10
ENDBRANCH   8   9
ENDBRANCH   7   8
ENDBRANCH   6   7
ENDBRANCH   5   6
ENDBRANCH   4   5
ENDBRANCH   3   4
ENDBRANCH   2   3
TORSDOF 14
ENDMDL
MODEL      333
REMARK 921   NORMALIZED FREE ENERGY PREDICTED BY IDOCK:   -2.76 KCAL/MOL
REMARK 922        TOTAL FREE ENERGY PREDICTED BY IDOCK:   -6.58 KCAL/MOL
REMARK 923 INTER-LIGAND FREE ENERGY PREDICTED BY IDOCK:   -5.26 KCAL/MOL
REMARK 924 INTRA-LIGAND FREE ENERGY PREDICTED BY IDOCK:   -1.32 KCAL/MOL
REMARK 927      BINDING AFFINITY PREDICTED BY RF-SCORE:    0.00 PKD
ROOT
HETATM    1  C   UNL     1     -11.615  15.048  70.398  1.00  0.00    -0.330 C  
HETATM    2  C   UNL     1     -12.014  15.584  69.032  1.00  0.00    -0.323 C  
ENDROOT
BRANCH   2   3
HETATM    3  C   UNL     1     -11.318  14.815  67.912  1.00  0.00    -0.331 C  
BRANCH   3   4
HETATM    4  C   UNL     1      -9.987  14.230  68.384  1.00  0.00    -0.240 C  
BRANCH   4   5
HETATM    5  C   UNL     1      -9.450  13.216  67.376  1.00  0.00    -0.214 C  
BRANCH   5   6
HETATM    6  C   UNL     1      -9.041  11.915  68.063  1.00  0.00    -0.189 C  
BRANCH   6   7
HETATM    7  C   UNL     1     -10.236  11.276  68.769  1.00  0.00    -0.215 C  
BRANCH   7   8
HETATM    8  C   UNL     1     -11.153  10.575  67.770  1.00  0.00    -0.382 C  
BRANCH   8   9
HETATM    9  C   UNL     1     -10.366   9.607  66.889  1.00  0.00    -0.307 C  
BRANCH   9  10
HETATM   10  C   UNL     1     -10.513   8.176  67.394  1.00  0.00    -0.356 C  
BRANCH  10  11
HETATM   11  C   UNL     1      -9.196   7.628  67.942  1.00  0.00    -0.139 C  
BRANCH  11  12
HETATM   12  C   UNL     1      -9.465   6.716  69.133  1.00  0.00    -0.136 C  
BRANCH  12  13
HETATM   13  C   UNL     1     -10.928   6.287  69.224  1.00  0.00    -0.435 C  
BRANCH  13  14
HETATM   14  C   UNL     1     -11.443   6.478  70.631  1.00  0.00    -0.374 C  
HETATM   15  O   UNL     1     -12.566   6.867  70.921  1.00  0.00    -0.357 OA 
BRANCH  14  16
HETATM   16  O   UNL     1     -10.472   6.156  71.531  1.00  0.00    -0.210 OA 
BRANCH  16  17
HETATM   17  C   UNL     1     -10.595   4.848  72.122  1.00  0.00    -0.164 C  
HETATM   18  C   UNL     1      -9.298   4.070  71.924  1.00  0.00    -0.192 C  
HETATM   19  C   UNL     1     -10.890   5.040  73.603  1.00  0.00    -0.369 C  
ENDBRANCH  16  17
ENDBRANCH  14  16
ENDBRANCH  13  14
ENDBRANCH  12  13
ENDBRANCH  11  12
ENDBRANCH  10  11
ENDBRANCH   9  10
ENDBRANCH   8   9
ENDBRANCH   7   8
ENDBRANCH   6   7
ENDBRANCH   5   6
ENDBRANCH   4   5
ENDBRANCH   3   4
ENDBRANCH   2   3
TORSDOF 14
ENDMDL
MODEL      334
REMARK 921   NORMALIZED FREE ENERGY PREDICTED BY IDOCK:   -2.75 KCAL/MOL
REMARK 922        TOTAL FREE ENERGY PREDICTED BY IDOCK:   -6.57 KCAL/MOL
REMARK 923 INTER-LIGAND FREE ENERGY PREDICTED BY IDOCK:   -4.80 KCAL/MOL
REMARK 924 INTRA-LIGAND FREE ENERGY PREDICTED BY IDOCK:   -1.77 KCAL/MOL
REMARK 927      BINDING AFFINITY PREDICTED BY RF-SCORE:    0.00 PKD
ROOT
HETATM    1  C   UNL     1      -8.095   4.323  65.841  1.00  0.00    -0.098 C  
HETATM    2  C   UNL     1      -9.100   5.463  65.786  1.00  0.00    -0.160 C  
ENDROOT
BRANCH   2   3
HETATM    3  C   UNL     1      -8.636   6.650  66.627  1.00  0.00    -0.123 C  
BRANCH   3   4
HETATM    4  C   UNL     1      -9.694   7.751  66.663  1.00  0.00    -0.292 C  
BRANCH   4   5
HETATM    5  C   UNL     1      -9.233   8.975  65.873  1.00  0.00    -0.290 C  
BRANCH   5   6
HETATM    6  C   UNL     1      -8.238   9.810  66.677  1.00  0.00    -0.120 C  
BRANCH   6   7
HETATM    7  C   UNL     1      -8.713  11.258  66.792  1.00  0.00    -0.166 C  
BRANCH   7   8
HETATM    8  C   UNL     1     -10.142  11.410  66.277  1.00  0.00    -0.263 C  
BRANCH   8   9
HETATM    9  C   UNL     1     -10.961  12.317  67.194  1.00  0.00    -0.308 C  
BRANCH   9  10
HETATM   10  C   UNL     1     -11.804  11.491  68.159  1.00  0.00    -0.306 C  
BRANCH  10  11
HETATM   11  C   UNL     1     -11.484  11.821  69.617  1.00  0.00    -0.341 C  
BRANCH  11  12
HETATM   12  C   UNL     1     -11.392  10.536  70.434  1.00  0.00    -0.411 C  
BRANCH  12  13
HETATM   13  C   UNL     1     -10.414   9.529  69.834  1.00  0.00    -0.269 C  
BRANCH  13  14
HETATM   14  C   UNL     1      -9.875   8.617  70.910  1.00  0.00    -0.205 C  
HETATM   15  O   UNL     1      -9.656   8.948  72.068  1.00  0.00    -0.305 OA 
BRANCH  14  16
HETATM   16  O   UNL     1      -9.665   7.370  70.403  1.00  0.00    -0.176 OA 
BRANCH  16  17
HETATM   17  C   UNL     1     -10.860   6.641  70.059  1.00  0.00    -0.280 C  
HETATM   18  C   UNL     1     -10.484   5.269  69.510  1.00  0.00    -0.304 C  
HETATM   19  C   UNL     1     -11.695   6.508  71.324  1.00  0.00    -0.386 C  
ENDBRANCH  16  17
ENDBRANCH  14  16
ENDBRANCH  13  14
ENDBRANCH  12  13
ENDBRANCH  11  12
ENDBRANCH  10  11
ENDBRANCH   9  10
ENDBRANCH   8   9
ENDBRANCH   7   8
ENDBRANCH   6   7
ENDBRANCH   5   6
ENDBRANCH   4   5
ENDBRANCH   3   4
ENDBRANCH   2   3
TORSDOF 14
ENDMDL
MODEL      335
REMARK 921   NORMALIZED FREE ENERGY PREDICTED BY IDOCK:   -2.75 KCAL/MOL
REMARK 922        TOTAL FREE ENERGY PREDICTED BY IDOCK:   -6.57 KCAL/MOL
REMARK 923 INTER-LIGAND FREE ENERGY PREDICTED BY IDOCK:   -5.54 KCAL/MOL
REMARK 924 INTRA-LIGAND FREE ENERGY PREDICTED BY IDOCK:   -1.03 KCAL/MOL
REMARK 927      BINDING AFFINITY PREDICTED BY RF-SCORE:    0.00 PKD
ROOT
HETATM    1  C   UNL     1     -11.612  15.944  69.162  1.00  0.00    -0.382 C  
HETATM    2  C   UNL     1     -11.458  14.837  70.193  1.00  0.00    -0.313 C  
ENDROOT
BRANCH   2   3
HETATM    3  C   UNL     1     -12.393  13.668  69.893  1.00  0.00    -0.310 C  
BRANCH   3   4
HETATM    4  C   UNL     1     -12.224  12.547  70.917  1.00  0.00    -0.277 C  
BRANCH   4   5
HETATM    5  C   UNL     1     -11.592  11.313  70.275  1.00  0.00    -0.366 C  
BRANCH   5   6
HETATM    6  C   UNL     1     -11.999  11.181  68.809  1.00  0.00    -0.337 C  
BRANCH   6   7
HETATM    7  C   UNL     1     -10.767  11.072  67.912  1.00  0.00    -0.263 C  
BRANCH   7   8
HETATM    8  C   UNL     1      -9.485  11.048  68.740  1.00  0.00    -0.190 C  
BRANCH   8   9
HETATM    9  C   UNL     1      -8.553  12.191  68.339  1.00  0.00    -0.141 C  
BRANCH   9  10
HETATM   10  C   UNL     1      -9.353  13.388  67.836  1.00  0.00    -0.216 C  
BRANCH  10  11
HETATM   11  C   UNL     1      -8.538  14.251  66.874  1.00  0.00    -0.172 C  
BRANCH  11  12
HETATM   12  C   UNL     1      -8.072  15.520  67.580  1.00  0.00    -0.185 C  
BRANCH  12  13
HETATM   13  C   UNL     1      -8.773  16.772  67.058  1.00  0.00    -0.226 C  
BRANCH  13  14
HETATM   14  C   UNL     1      -8.565  17.925  68.011  1.00  0.00    -0.256 C  
HETATM   15  O   UNL     1      -7.559  18.109  68.683  1.00  0.00    -0.286 OA 
BRANCH  14  16
HETATM   16  O   UNL     1      -9.664  18.730  68.016  1.00  0.00    -0.299 OA 
BRANCH  16  17
HETATM   17  C   UNL     1      -9.600  19.857  67.119  1.00  0.00    -0.381 C  
HETATM   18  C   UNL     1      -8.166  20.051  66.639  1.00  0.00    -0.355 C  
HETATM   19  C   UNL     1     -10.528  19.563  65.948  1.00  0.00    -0.585 C  
ENDBRANCH  16  17
ENDBRANCH  14  16
ENDBRANCH  13  14
ENDBRANCH  12  13
ENDBRANCH  11  12
ENDBRANCH  10  11
ENDBRANCH   9  10
ENDBRANCH   8   9
ENDBRANCH   7   8
ENDBRANCH   6   7
ENDBRANCH   5   6
ENDBRANCH   4   5
ENDBRANCH   3   4
ENDBRANCH   2   3
TORSDOF 14
ENDMDL
MODEL      336
REMARK 921   NORMALIZED FREE ENERGY PREDICTED BY IDOCK:   -2.74 KCAL/MOL
REMARK 922        TOTAL FREE ENERGY PREDICTED BY IDOCK:   -6.55 KCAL/MOL
REMARK 923 INTER-LIGAND FREE ENERGY PREDICTED BY IDOCK:   -4.96 KCAL/MOL
REMARK 924 INTRA-LIGAND FREE ENERGY PREDICTED BY IDOCK:   -1.59 KCAL/MOL
REMARK 927      BINDING AFFINITY PREDICTED BY RF-SCORE:    0.00 PKD
ROOT
HETATM    1  C   UNL     1     -10.375  19.833  66.615  1.00  0.00    -0.614 C  
HETATM    2  C   UNL     1      -9.767  19.269  67.889  1.00  0.00    -0.422 C  
ENDROOT
BRANCH   2   3
HETATM    3  C   UNL     1     -10.229  17.835  68.135  1.00  0.00    -0.383 C  
BRANCH   3   4
HETATM    4  C   UNL     1      -9.052  16.925  68.482  1.00  0.00    -0.257 C  
BRANCH   4   5
HETATM    5  C   UNL     1      -7.913  17.101  67.479  1.00  0.00    -0.190 C  
BRANCH   5   6
HETATM    6  C   UNL     1      -6.681  16.300  67.895  1.00  0.00    -0.151 C  
BRANCH   6   7
HETATM    7  C   UNL     1      -6.795  15.844  69.349  1.00  0.00    -0.200 C  
BRANCH   7   8
HETATM    8  C   UNL     1      -6.140  14.480  69.550  1.00  0.00    -0.113 C  
BRANCH   8   9
HETATM    9  C   UNL     1      -5.299  14.092  68.335  1.00  0.00    -0.104 C  
BRANCH   9  10
HETATM   10  C   UNL     1      -5.716  12.725  67.805  1.00  0.00    -0.131 C  
BRANCH  10  11
HETATM   11  C   UNL     1      -6.804  12.089  68.668  1.00  0.00    -0.091 C  
BRANCH  11  12
HETATM   12  C   UNL     1      -7.875  11.463  67.780  1.00  0.00    -0.117 C  
BRANCH  12  13
HETATM   13  C   UNL     1      -9.229  12.154  67.921  1.00  0.00    -0.188 C  
BRANCH  13  14
HETATM   14  C   UNL     1      -9.754  12.559  66.564  1.00  0.00    -0.246 C  
HETATM   15  O   UNL     1      -9.421  12.052  65.501  1.00  0.00    -0.206 OA 
BRANCH  14  16
HETATM   16  O   UNL     1     -10.654  13.574  66.696  1.00  0.00    -0.276 OA 
BRANCH  16  17
HETATM   17  C   UNL     1     -11.196  14.076  65.458  1.00  0.00    -0.311 C  
HETATM   18  C   UNL     1     -12.718  13.999  65.496  1.00  0.00    -0.517 C  
HETATM   19  C   UNL     1     -10.730  15.517  65.306  1.00  0.00    -0.440 C  
ENDBRANCH  16  17
ENDBRANCH  14  16
ENDBRANCH  13  14
ENDBRANCH  12  13
ENDBRANCH  11  12
ENDBRANCH  10  11
ENDBRANCH   9  10
ENDBRANCH   8   9
ENDBRANCH   7   8
ENDBRANCH   6   7
ENDBRANCH   5   6
ENDBRANCH   4   5
ENDBRANCH   3   4
ENDBRANCH   2   3
TORSDOF 14
ENDMDL
MODEL      337
REMARK 921   NORMALIZED FREE ENERGY PREDICTED BY IDOCK:   -2.74 KCAL/MOL
REMARK 922        TOTAL FREE ENERGY PREDICTED BY IDOCK:   -6.55 KCAL/MOL
REMARK 923 INTER-LIGAND FREE ENERGY PREDICTED BY IDOCK:   -4.78 KCAL/MOL
REMARK 924 INTRA-LIGAND FREE ENERGY PREDICTED BY IDOCK:   -1.76 KCAL/MOL
REMARK 927      BINDING AFFINITY PREDICTED BY RF-SCORE:    0.00 PKD
ROOT
HETATM    1  C   UNL     1     -10.225   8.378  69.163  1.00  0.00    -0.217 C  
HETATM    2  C   UNL     1      -9.445   9.539  69.758  1.00  0.00    -0.228 C  
ENDROOT
BRANCH   2   3
HETATM    3  C   UNL     1      -8.297   9.961  68.844  1.00  0.00    -0.124 C  
BRANCH   3   4
HETATM    4  C   UNL     1      -7.188  10.657  69.631  1.00  0.00    -0.139 C  
BRANCH   4   5
HETATM    5  C   UNL     1      -6.482  11.703  68.770  1.00  0.00    -0.064 C  
BRANCH   5   6
HETATM    6  C   UNL     1      -6.406  13.050  69.485  1.00  0.00    -0.103 C  
BRANCH   6   7
HETATM    7  C   UNL     1      -7.063  14.147  68.648  1.00  0.00    -0.110 C  
BRANCH   7   8
HETATM    8  C   UNL     1      -8.175  13.578  67.772  1.00  0.00    -0.176 C  
BRANCH   8   9
HETATM    9  C   UNL     1      -9.544  14.080  68.230  1.00  0.00    -0.224 C  
BRANCH   9  10
HETATM   10  C   UNL     1     -10.470  12.911  68.548  1.00  0.00    -0.260 C  
BRANCH  10  11
HETATM   11  C   UNL     1     -11.911  13.197  68.128  1.00  0.00    -0.386 C  
BRANCH  11  12
HETATM   12  C   UNL     1     -11.936  13.788  66.722  1.00  0.00    -0.465 C  
BRANCH  12  13
HETATM   13  C   UNL     1     -11.989  12.716  65.637  1.00  0.00    -0.507 C  
BRANCH  13  14
HETATM   14  C   UNL     1     -10.731  12.754  64.801  1.00  0.00    -0.316 C  
HETATM   15  O   UNL     1     -10.509  13.552  63.901  1.00  0.00    -0.196 OA 
BRANCH  14  16
HETATM   16  O   UNL     1      -9.879  11.766  65.196  1.00  0.00    -0.243 OA 
BRANCH  16  17
HETATM   17  C   UNL     1     -10.106  10.482  64.582  1.00  0.00    -0.338 C  
HETATM   18  C   UNL     1      -9.619  10.510  63.137  1.00  0.00    -0.375 C  
HETATM   19  C   UNL     1      -9.339   9.446  65.392  1.00  0.00    -0.311 C  
ENDBRANCH  16  17
ENDBRANCH  14  16
ENDBRANCH  13  14
ENDBRANCH  12  13
ENDBRANCH  11  12
ENDBRANCH  10  11
ENDBRANCH   9  10
ENDBRANCH   8   9
ENDBRANCH   7   8
ENDBRANCH   6   7
ENDBRANCH   5   6
ENDBRANCH   4   5
ENDBRANCH   3   4
ENDBRANCH   2   3
TORSDOF 14
ENDMDL
MODEL      338
REMARK 921   NORMALIZED FREE ENERGY PREDICTED BY IDOCK:   -2.74 KCAL/MOL
REMARK 922        TOTAL FREE ENERGY PREDICTED BY IDOCK:   -6.54 KCAL/MOL
REMARK 923 INTER-LIGAND FREE ENERGY PREDICTED BY IDOCK:   -5.08 KCAL/MOL
REMARK 924 INTRA-LIGAND FREE ENERGY PREDICTED BY IDOCK:   -1.46 KCAL/MOL
REMARK 927      BINDING AFFINITY PREDICTED BY RF-SCORE:    0.00 PKD
ROOT
HETATM    1  C   UNL     1     -10.475  10.602  66.759  1.00  0.00    -0.303 C  
HETATM    2  C   UNL     1     -11.129  10.305  68.099  1.00  0.00    -0.324 C  
ENDROOT
BRANCH   2   3
HETATM    3  C   UNL     1     -11.742  11.565  68.706  1.00  0.00    -0.397 C  
BRANCH   3   4
HETATM    4  C   UNL     1     -11.433  11.669  70.198  1.00  0.00    -0.206 C  
BRANCH   4   5
HETATM    5  C   UNL     1     -12.647  12.180  70.972  1.00  0.00    -0.359 C  
BRANCH   5   6
HETATM    6  C   UNL     1     -13.102  11.167  72.021  1.00  0.00    -0.433 C  
BRANCH   6   7
HETATM    7  C   UNL     1     -13.724   9.940  71.356  1.00  0.00    -0.203 C  
BRANCH   7   8
HETATM    8  C   UNL     1     -13.391   8.668  72.130  1.00  0.00    -0.431 C  
BRANCH   8   9
HETATM    9  C   UNL     1     -12.122   8.013  71.587  1.00  0.00    -0.339 C  
BRANCH   9  10
HETATM   10  C   UNL     1     -10.922   8.349  72.467  1.00  0.00    -0.388 C  
BRANCH  10  11
HETATM   11  C   UNL     1     -10.420   7.126  73.234  1.00  0.00    -0.391 C  
BRANCH  11  12
HETATM   12  C   UNL     1     -11.129   5.871  72.735  1.00  0.00    -0.321 C  
BRANCH  12  13
HETATM   13  C   UNL     1     -10.465   4.588  73.229  1.00  0.00    -0.259 C  
BRANCH  13  14
HETATM   14  C   UNL     1     -10.088   3.710  72.059  1.00  0.00    -0.129 C  
HETATM   15  O   UNL     1     -10.041   2.487  72.084  1.00  0.00    -0.158 OA 
BRANCH  14  16
HETATM   16  O   UNL     1      -9.806   4.479  70.970  1.00  0.00    -0.176 OA 
BRANCH  16  17
HETATM   17  C   UNL     1      -8.407   4.749  70.759  1.00  0.00    -0.094 C  
HETATM   18  C   UNL     1      -7.889   3.903  69.601  1.00  0.00    -0.052 C  
HETATM   19  C   UNL     1      -8.269   6.233  70.448  1.00  0.00    -0.121 C  
ENDBRANCH  16  17
ENDBRANCH  14  16
ENDBRANCH  13  14
ENDBRANCH  12  13
ENDBRANCH  11  12
ENDBRANCH  10  11
ENDBRANCH   9  10
ENDBRANCH   8   9
ENDBRANCH   7   8
ENDBRANCH   6   7
ENDBRANCH   5   6
ENDBRANCH   4   5
ENDBRANCH   3   4
ENDBRANCH   2   3
TORSDOF 14
ENDMDL
MODEL      339
REMARK 921   NORMALIZED FREE ENERGY PREDICTED BY IDOCK:   -2.73 KCAL/MOL
REMARK 922        TOTAL FREE ENERGY PREDICTED BY IDOCK:   -6.54 KCAL/MOL
REMARK 923 INTER-LIGAND FREE ENERGY PREDICTED BY IDOCK:   -4.81 KCAL/MOL
REMARK 924 INTRA-LIGAND FREE ENERGY PREDICTED BY IDOCK:   -1.73 KCAL/MOL
REMARK 927      BINDING AFFINITY PREDICTED BY RF-SCORE:    0.00 PKD
ROOT
HETATM    1  C   UNL     1      -7.201   6.985  69.002  1.00  0.00    -0.091 C  
HETATM    2  C   UNL     1      -7.687   7.470  70.358  1.00  0.00    -0.091 C  
ENDROOT
BRANCH   2   3
HETATM    3  C   UNL     1      -8.609   8.678  70.216  1.00  0.00    -0.144 C  
BRANCH   3   4
HETATM    4  C   UNL     1      -9.472   8.867  71.463  1.00  0.00    -0.347 C  
BRANCH   4   5
HETATM    5  C   UNL     1     -10.875   9.342  71.088  1.00  0.00    -0.427 C  
BRANCH   5   6
HETATM    6  C   UNL     1     -11.944   8.599  71.886  1.00  0.00    -0.424 C  
BRANCH   6   7
HETATM    7  C   UNL     1     -12.421   7.360  71.129  1.00  0.00    -0.343 C  
BRANCH   7   8
HETATM    8  C   UNL     1     -11.638   6.121  71.555  1.00  0.00    -0.304 C  
BRANCH   8   9
HETATM    9  C   UNL     1     -10.855   5.538  70.379  1.00  0.00    -0.274 C  
BRANCH   9  10
HETATM   10  C   UNL     1     -11.115   6.339  69.107  1.00  0.00    -0.457 C  
BRANCH  10  11
HETATM   11  C   UNL     1     -10.617   5.605  67.863  1.00  0.00    -0.266 C  
BRANCH  11  12
HETATM   12  C   UNL     1     -10.162   6.611  66.811  1.00  0.00    -0.263 C  
BRANCH  12  13
HETATM   13  C   UNL     1     -10.519   8.049  67.183  1.00  0.00    -0.408 C  
BRANCH  13  14
HETATM   14  C   UNL     1      -9.984   9.006  66.145  1.00  0.00    -0.241 C  
HETATM   15  O   UNL     1     -10.372  10.155  65.982  1.00  0.00    -0.232 OA 
BRANCH  14  16
HETATM   16  O   UNL     1      -9.008   8.402  65.412  1.00  0.00    -0.151 OA 
BRANCH  16  17
HETATM   17  C   UNL     1      -7.750   9.105  65.370  1.00  0.00    -0.098 C  
HETATM   18  C   UNL     1      -7.714  10.022  64.152  1.00  0.00    -0.144 C  
HETATM   19  C   UNL     1      -7.633   9.909  66.657  1.00  0.00    -0.103 C  
ENDBRANCH  16  17
ENDBRANCH  14  16
ENDBRANCH  13  14
ENDBRANCH  12  13
ENDBRANCH  11  12
ENDBRANCH  10  11
ENDBRANCH   9  10
ENDBRANCH   8   9
ENDBRANCH   7   8
ENDBRANCH   6   7
ENDBRANCH   5   6
ENDBRANCH   4   5
ENDBRANCH   3   4
ENDBRANCH   2   3
TORSDOF 14
ENDMDL
MODEL      340
REMARK 921   NORMALIZED FREE ENERGY PREDICTED BY IDOCK:   -2.73 KCAL/MOL
REMARK 922        TOTAL FREE ENERGY PREDICTED BY IDOCK:   -6.53 KCAL/MOL
REMARK 923 INTER-LIGAND FREE ENERGY PREDICTED BY IDOCK:   -4.71 KCAL/MOL
REMARK 924 INTRA-LIGAND FREE ENERGY PREDICTED BY IDOCK:   -1.82 KCAL/MOL
REMARK 927      BINDING AFFINITY PREDICTED BY RF-SCORE:    0.00 PKD
ROOT
HETATM    1  C   UNL     1     -11.783   6.405  70.504  1.00  0.00    -0.385 C  
HETATM    2  C   UNL     1     -12.002   6.695  71.980  1.00  0.00    -0.361 C  
ENDROOT
BRANCH   2   3
HETATM    3  C   UNL     1     -11.331   5.639  72.856  1.00  0.00    -0.325 C  
BRANCH   3   4
HETATM    4  C   UNL     1     -10.237   6.255  73.727  1.00  0.00    -0.285 C  
BRANCH   4   5
HETATM    5  C   UNL     1      -8.872   5.658  73.389  1.00  0.00    -0.123 C  
BRANCH   5   6
HETATM    6  C   UNL     1      -8.174   6.455  72.289  1.00  0.00    -0.107 C  
BRANCH   6   7
HETATM    7  C   UNL     1      -7.601   7.758  72.845  1.00  0.00    -0.131 C  
BRANCH   7   8
HETATM    8  C   UNL     1      -7.870   8.925  71.898  1.00  0.00     0.022 C  
BRANCH   8   9
HETATM    9  C   UNL     1      -8.921   8.551  70.854  1.00  0.00    -0.206 C  
BRANCH   9  10
HETATM   10  C   UNL     1     -10.039   9.588  70.819  1.00  0.00    -0.352 C  
BRANCH  10  11
HETATM   11  C   UNL     1     -10.130  10.279  69.459  1.00  0.00    -0.260 C  
BRANCH  11  12
HETATM   12  C   UNL     1     -10.164   9.237  68.346  1.00  0.00    -0.231 C  
BRANCH  12  13
HETATM   13  C   UNL     1     -10.985   9.693  67.142  1.00  0.00    -0.066 C  
BRANCH  13  14
HETATM   14  C   UNL     1     -10.079  10.252  66.071  1.00  0.00    -0.244 C  
HETATM   15  O   UNL     1      -9.365   9.583  65.335  1.00  0.00    -0.229 OA 
BRANCH  14  16
HETATM   16  O   UNL     1     -10.171  11.611  66.045  1.00  0.00    -0.218 OA 
BRANCH  16  17
HETATM   17  C   UNL     1     -11.509  12.136  66.151  1.00  0.00    -0.371 C  
HETATM   18  C   UNL     1     -11.510  13.362  67.058  1.00  0.00    -0.372 C  
HETATM   19  C   UNL     1     -11.969  12.500  64.746  1.00  0.00    -0.469 C  
ENDBRANCH  16  17
ENDBRANCH  14  16
ENDBRANCH  13  14
ENDBRANCH  12  13
ENDBRANCH  11  12
ENDBRANCH  10  11
ENDBRANCH   9  10
ENDBRANCH   8   9
ENDBRANCH   7   8
ENDBRANCH   6   7
ENDBRANCH   5   6
ENDBRANCH   4   5
ENDBRANCH   3   4
ENDBRANCH   2   3
TORSDOF 14
ENDMDL
MODEL      341
REMARK 921   NORMALIZED FREE ENERGY PREDICTED BY IDOCK:   -2.73 KCAL/MOL
REMARK 922        TOTAL FREE ENERGY PREDICTED BY IDOCK:   -6.53 KCAL/MOL
REMARK 923 INTER-LIGAND FREE ENERGY PREDICTED BY IDOCK:   -5.64 KCAL/MOL
REMARK 924 INTRA-LIGAND FREE ENERGY PREDICTED BY IDOCK:   -0.89 KCAL/MOL
REMARK 927      BINDING AFFINITY PREDICTED BY RF-SCORE:    0.00 PKD
ROOT
HETATM    1  C   UNL     1     -13.751  13.306  72.354  1.00  0.00    -0.678 C  
HETATM    2  C   UNL     1     -13.042  14.523  72.926  1.00  0.00    -0.614 C  
ENDROOT
BRANCH   2   3
HETATM    3  C   UNL     1     -12.047  15.104  71.924  1.00  0.00    -0.448 C  
BRANCH   3   4
HETATM    4  C   UNL     1     -12.601  15.056  70.501  1.00  0.00    -0.420 C  
BRANCH   4   5
HETATM    5  C   UNL     1     -11.529  14.599  69.514  1.00  0.00    -0.334 C  
BRANCH   5   6
HETATM    6  C   UNL     1     -11.371  15.595  68.367  1.00  0.00    -0.365 C  
BRANCH   6   7
HETATM    7  C   UNL     1     -11.057  14.871  67.059  1.00  0.00    -0.338 C  
BRANCH   7   8
HETATM    8  C   UNL     1     -11.591  13.441  67.080  1.00  0.00    -0.399 C  
BRANCH   8   9
HETATM    9  C   UNL     1     -10.563  12.464  66.513  1.00  0.00    -0.261 C  
BRANCH   9  10
HETATM   10  C   UNL     1     -10.789  12.249  65.020  1.00  0.00    -0.337 C  
BRANCH  10  11
HETATM   11  C   UNL     1     -10.358  10.852  64.576  1.00  0.00    -0.417 C  
BRANCH  11  12
HETATM   12  C   UNL     1      -9.427  10.238  65.616  1.00  0.00    -0.274 C  
BRANCH  12  13
HETATM   13  C   UNL     1      -8.307   9.414  64.987  1.00  0.00    -0.155 C  
BRANCH  13  14
HETATM   14  C   UNL     1      -7.479   8.748  66.060  1.00  0.00    -0.089 C  
HETATM   15  O   UNL     1      -6.316   8.390  65.931  1.00  0.00    -0.051 OA 
BRANCH  14  16
HETATM   16  O   UNL     1      -8.219   8.601  67.195  1.00  0.00    -0.106 OA 
BRANCH  16  17
HETATM   17  C   UNL     1      -7.780   7.552  68.080  1.00  0.00    -0.120 C  
HETATM   18  C   UNL     1      -7.957   7.995  69.529  1.00  0.00    -0.115 C  
HETATM   19  C   UNL     1      -8.624   6.320  67.784  1.00  0.00    -0.115 C  
ENDBRANCH  16  17
ENDBRANCH  14  16
ENDBRANCH  13  14
ENDBRANCH  12  13
ENDBRANCH  11  12
ENDBRANCH  10  11
ENDBRANCH   9  10
ENDBRANCH   8   9
ENDBRANCH   7   8
ENDBRANCH   6   7
ENDBRANCH   5   6
ENDBRANCH   4   5
ENDBRANCH   3   4
ENDBRANCH   2   3
TORSDOF 14
ENDMDL
MODEL      342
REMARK 921   NORMALIZED FREE ENERGY PREDICTED BY IDOCK:   -2.72 KCAL/MOL
REMARK 922        TOTAL FREE ENERGY PREDICTED BY IDOCK:   -6.51 KCAL/MOL
REMARK 923 INTER-LIGAND FREE ENERGY PREDICTED BY IDOCK:   -5.50 KCAL/MOL
REMARK 924 INTRA-LIGAND FREE ENERGY PREDICTED BY IDOCK:   -1.01 KCAL/MOL
REMARK 927      BINDING AFFINITY PREDICTED BY RF-SCORE:    0.00 PKD
ROOT
HETATM    1  C   UNL     1     -12.318  14.808  70.197  1.00  0.00    -0.381 C  
HETATM    2  C   UNL     1     -11.389  14.635  69.007  1.00  0.00    -0.299 C  
ENDROOT
BRANCH   2   3
HETATM    3  C   UNL     1     -11.908  13.563  68.051  1.00  0.00    -0.400 C  
BRANCH   3   4
HETATM    4  C   UNL     1     -11.773  14.006  66.595  1.00  0.00    -0.420 C  
BRANCH   4   5
HETATM    5  C   UNL     1     -11.220  12.874  65.730  1.00  0.00    -0.324 C  
BRANCH   5   6
HETATM    6  C   UNL     1     -12.013  12.730  64.433  1.00  0.00    -0.464 C  
BRANCH   6   7
HETATM    7  C   UNL     1     -11.501  11.547  63.613  1.00  0.00    -0.374 C  
BRANCH   7   8
HETATM    8  C   UNL     1      -9.987  11.617  63.432  1.00  0.00    -0.447 C  
BRANCH   8   9
HETATM    9  C   UNL     1      -9.359  10.228  63.539  1.00  0.00    -0.341 C  
BRANCH   9  10
HETATM   10  C   UNL     1      -9.471   9.693  64.963  1.00  0.00    -0.312 C  
BRANCH  10  11
HETATM   11  C   UNL     1      -8.121   9.223  65.502  1.00  0.00    -0.113 C  
BRANCH  11  12
HETATM   12  C   UNL     1      -8.329   8.156  66.571  1.00  0.00    -0.113 C  
BRANCH  12  13
HETATM   13  C   UNL     1      -9.222   8.636  67.712  1.00  0.00    -0.146 C  
BRANCH  13  14
HETATM   14  C   UNL     1     -10.299   7.617  67.999  1.00  0.00    -0.205 C  
HETATM   15  O   UNL     1     -11.033   7.115  67.159  1.00  0.00    -0.342 OA 
BRANCH  14  16
HETATM   16  O   UNL     1     -10.335   7.341  69.333  1.00  0.00    -0.196 OA 
BRANCH  16  17
HETATM   17  C   UNL     1      -9.400   6.337  69.776  1.00  0.00    -0.145 C  
HETATM   18  C   UNL     1      -8.567   6.884  70.930  1.00  0.00    -0.136 C  
HETATM   19  C   UNL     1     -10.206   5.123  70.216  1.00  0.00    -0.342 C  
ENDBRANCH  16  17
ENDBRANCH  14  16
ENDBRANCH  13  14
ENDBRANCH  12  13
ENDBRANCH  11  12
ENDBRANCH  10  11
ENDBRANCH   9  10
ENDBRANCH   8   9
ENDBRANCH   7   8
ENDBRANCH   6   7
ENDBRANCH   5   6
ENDBRANCH   4   5
ENDBRANCH   3   4
ENDBRANCH   2   3
TORSDOF 14
ENDMDL
MODEL      343
REMARK 921   NORMALIZED FREE ENERGY PREDICTED BY IDOCK:   -2.71 KCAL/MOL
REMARK 922        TOTAL FREE ENERGY PREDICTED BY IDOCK:   -6.50 KCAL/MOL
REMARK 923 INTER-LIGAND FREE ENERGY PREDICTED BY IDOCK:   -5.75 KCAL/MOL
REMARK 924 INTRA-LIGAND FREE ENERGY PREDICTED BY IDOCK:   -0.76 KCAL/MOL
REMARK 927      BINDING AFFINITY PREDICTED BY RF-SCORE:    0.00 PKD
ROOT
HETATM    1  C   UNL     1      -9.841  17.790  68.124  1.00  0.00    -0.326 C  
HETATM    2  C   UNL     1     -10.399  17.096  66.893  1.00  0.00    -0.308 C  
ENDROOT
BRANCH   2   3
HETATM    3  C   UNL     1     -10.593  15.601  67.141  1.00  0.00    -0.308 C  
BRANCH   3   4
HETATM    4  C   UNL     1     -11.694  15.349  68.170  1.00  0.00    -0.276 C  
BRANCH   4   5
HETATM    5  C   UNL     1     -11.154  14.564  69.364  1.00  0.00    -0.297 C  
BRANCH   5   6
HETATM    6  C   UNL     1     -12.200  14.450  70.471  1.00  0.00    -0.411 C  
BRANCH   6   7
HETATM    7  C   UNL     1     -12.419  12.989  70.862  1.00  0.00    -0.396 C  
BRANCH   7   8
HETATM    8  C   UNL     1     -11.812  12.046  69.826  1.00  0.00    -0.401 C  
BRANCH   8   9
HETATM    9  C   UNL     1     -12.306  10.615  70.033  1.00  0.00    -0.341 C  
BRANCH   9  10
HETATM   10  C   UNL     1     -11.542   9.939  71.166  1.00  0.00    -0.468 C  
BRANCH  10  11
HETATM   11  C   UNL     1     -12.456   9.066  72.026  1.00  0.00    -0.460 C  
BRANCH  11  12
HETATM   12  C   UNL     1     -11.987   7.616  71.979  1.00  0.00    -0.341 C  
BRANCH  12  13
HETATM   13  C   UNL     1     -10.906   7.316  73.015  1.00  0.00    -0.399 C  
BRANCH  13  14
HETATM   14  C   UNL     1     -10.769   5.825  73.213  1.00  0.00    -0.267 C  
HETATM   15  O   UNL     1     -11.651   5.004  73.001  1.00  0.00    -0.312 OA 
BRANCH  14  16
HETATM   16  O   UNL     1      -9.518   5.528  73.664  1.00  0.00    -0.137 OA 
BRANCH  16  17
HETATM   17  C   UNL     1      -8.744   4.672  72.802  1.00  0.00    -0.114 C  
HETATM   18  C   UNL     1      -7.718   5.503  72.039  1.00  0.00    -0.101 C  
HETATM   19  C   UNL     1      -8.056   3.637  73.682  1.00  0.00    -0.083 C  
ENDBRANCH  16  17
ENDBRANCH  14  16
ENDBRANCH  13  14
ENDBRANCH  12  13
ENDBRANCH  11  12
ENDBRANCH  10  11
ENDBRANCH   9  10
ENDBRANCH   8   9
ENDBRANCH   7   8
ENDBRANCH   6   7
ENDBRANCH   5   6
ENDBRANCH   4   5
ENDBRANCH   3   4
ENDBRANCH   2   3
TORSDOF 14
ENDMDL
MODEL      344
REMARK 921   NORMALIZED FREE ENERGY PREDICTED BY IDOCK:   -2.71 KCAL/MOL
REMARK 922        TOTAL FREE ENERGY PREDICTED BY IDOCK:   -6.50 KCAL/MOL
REMARK 923 INTER-LIGAND FREE ENERGY PREDICTED BY IDOCK:   -4.35 KCAL/MOL
REMARK 924 INTRA-LIGAND FREE ENERGY PREDICTED BY IDOCK:   -2.15 KCAL/MOL
REMARK 927      BINDING AFFINITY PREDICTED BY RF-SCORE:    0.00 PKD
ROOT
HETATM    1  C   UNL     1     -11.153  10.373  69.537  1.00  0.00    -0.314 C  
HETATM    2  C   UNL     1      -9.694  10.067  69.239  1.00  0.00    -0.227 C  
ENDROOT
BRANCH   2   3
HETATM    3  C   UNL     1      -8.994   9.473  70.459  1.00  0.00    -0.265 C  
BRANCH   3   4
HETATM    4  C   UNL     1      -7.711   8.744  70.062  1.00  0.00    -0.082 C  
BRANCH   4   5
HETATM    5  C   UNL     1      -7.605   7.399  70.779  1.00  0.00    -0.083 C  
BRANCH   5   6
HETATM    6  C   UNL     1      -7.883   7.545  72.274  1.00  0.00    -0.109 C  
BRANCH   6   7
HETATM    7  C   UNL     1      -8.869   6.479  72.748  1.00  0.00    -0.127 C  
BRANCH   7   8
HETATM    8  C   UNL     1      -9.949   7.087  73.640  1.00  0.00    -0.348 C  
BRANCH   8   9
HETATM    9  C   UNL     1     -11.143   7.557  72.811  1.00  0.00    -0.416 C  
BRANCH   9  10
HETATM   10  C   UNL     1     -11.877   6.368  72.200  1.00  0.00    -0.361 C  
BRANCH  10  11
HETATM   11  C   UNL     1     -12.317   6.649  70.764  1.00  0.00    -0.218 C  
BRANCH  11  12
HETATM   12  C   UNL     1     -11.099   6.935  69.892  1.00  0.00    -0.333 C  
BRANCH  12  13
HETATM   13  C   UNL     1     -10.665   5.720  69.075  1.00  0.00    -0.354 C  
BRANCH  13  14
HETATM   14  C   UNL     1     -10.292   6.137  67.673  1.00  0.00    -0.201 C  
HETATM   15  O   UNL     1     -10.893   5.809  66.658  1.00  0.00    -0.297 OA 
BRANCH  14  16
HETATM   16  O   UNL     1      -9.185   6.931  67.702  1.00  0.00    -0.121 OA 
BRANCH  16  17
HETATM   17  C   UNL     1      -8.682   7.327  66.410  1.00  0.00    -0.142 C  
HETATM   18  C   UNL     1      -9.234   8.700  66.042  1.00  0.00    -0.276 C  
HETATM   19  C   UNL     1      -7.163   7.360  66.502  1.00  0.00    -0.079 C  
ENDBRANCH  16  17
ENDBRANCH  14  16
ENDBRANCH  13  14
ENDBRANCH  12  13
ENDBRANCH  11  12
ENDBRANCH  10  11
ENDBRANCH   9  10
ENDBRANCH   8   9
ENDBRANCH   7   8
ENDBRANCH   6   7
ENDBRANCH   5   6
ENDBRANCH   4   5
ENDBRANCH   3   4
ENDBRANCH   2   3
TORSDOF 14
ENDMDL
MODEL      345
REMARK 921   NORMALIZED FREE ENERGY PREDICTED BY IDOCK:   -2.71 KCAL/MOL
REMARK 922        TOTAL FREE ENERGY PREDICTED BY IDOCK:   -6.50 KCAL/MOL
REMARK 923 INTER-LIGAND FREE ENERGY PREDICTED BY IDOCK:   -4.99 KCAL/MOL
REMARK 924 INTRA-LIGAND FREE ENERGY PREDICTED BY IDOCK:   -1.51 KCAL/MOL
REMARK 927      BINDING AFFINITY PREDICTED BY RF-SCORE:    0.00 PKD
ROOT
HETATM    1  C   UNL     1     -12.275  13.960  67.160  1.00  0.00    -0.353 C  
HETATM    2  C   UNL     1     -11.397  12.721  67.227  1.00  0.00    -0.364 C  
ENDROOT
BRANCH   2   3
HETATM    3  C   UNL     1     -10.490  12.619  66.003  1.00  0.00    -0.288 C  
BRANCH   3   4
HETATM    4  C   UNL     1     -11.153  11.810  64.888  1.00  0.00    -0.345 C  
BRANCH   4   5
HETATM    5  C   UNL     1     -10.569  12.180  63.526  1.00  0.00    -0.501 C  
BRANCH   5   6
HETATM    6  C   UNL     1      -9.332  11.343  63.207  1.00  0.00    -0.267 C  
BRANCH   6   7
HETATM    7  C   UNL     1      -9.506   9.908  63.704  1.00  0.00    -0.154 C  
BRANCH   7   8
HETATM    8  C   UNL     1      -8.459   9.561  64.759  1.00  0.00    -0.170 C  
BRANCH   8   9
HETATM    9  C   UNL     1      -9.014   8.558  65.770  1.00  0.00    -0.229 C  
BRANCH   9  10
HETATM   10  C   UNL     1      -9.078   9.176  67.163  1.00  0.00    -0.146 C  
BRANCH  10  11
HETATM   11  C   UNL     1     -10.507   9.208  67.704  1.00  0.00    -0.323 C  
BRANCH  11  12
HETATM   12  C   UNL     1     -10.515   9.771  69.121  1.00  0.00    -0.232 C  
BRANCH  12  13
HETATM   13  C   UNL     1     -10.359   8.685  70.184  1.00  0.00    -0.219 C  
BRANCH  13  14
HETATM   14  C   UNL     1      -9.267   9.059  71.158  1.00  0.00    -0.256 C  
HETATM   15  O   UNL     1      -8.244   9.665  70.869  1.00  0.00    -0.290 OA 
BRANCH  14  16
HETATM   16  O   UNL     1      -9.586   8.620  72.407  1.00  0.00    -0.288 OA 
BRANCH  16  17
HETATM   17  C   UNL     1      -9.222   7.254  72.687  1.00  0.00    -0.140 C  
HETATM   18  C   UNL     1      -8.067   7.223  73.682  1.00  0.00    -0.145 C  
HETATM   19  C   UNL     1     -10.450   6.561  73.263  1.00  0.00    -0.280 C  
ENDBRANCH  16  17
ENDBRANCH  14  16
ENDBRANCH  13  14
ENDBRANCH  12  13
ENDBRANCH  11  12
ENDBRANCH  10  11
ENDBRANCH   9  10
ENDBRANCH   8   9
ENDBRANCH   7   8
ENDBRANCH   6   7
ENDBRANCH   5   6
ENDBRANCH   4   5
ENDBRANCH   3   4
ENDBRANCH   2   3
TORSDOF 14
ENDMDL
MODEL      346
REMARK 921   NORMALIZED FREE ENERGY PREDICTED BY IDOCK:   -2.71 KCAL/MOL
REMARK 922        TOTAL FREE ENERGY PREDICTED BY IDOCK:   -6.49 KCAL/MOL
REMARK 923 INTER-LIGAND FREE ENERGY PREDICTED BY IDOCK:   -4.60 KCAL/MOL
REMARK 924 INTRA-LIGAND FREE ENERGY PREDICTED BY IDOCK:   -1.89 KCAL/MOL
REMARK 927      BINDING AFFINITY PREDICTED BY RF-SCORE:    0.00 PKD
ROOT
HETATM    1  C   UNL     1     -10.516  19.942  65.837  1.00  0.00    -0.567 C  
HETATM    2  C   UNL     1      -9.622  19.429  66.954  1.00  0.00    -0.419 C  
ENDROOT
BRANCH   2   3
HETATM    3  C   UNL     1     -10.332  18.362  67.784  1.00  0.00    -0.428 C  
BRANCH   3   4
HETATM    4  C   UNL     1      -9.397  17.196  68.103  1.00  0.00    -0.264 C  
BRANCH   4   5
HETATM    5  C   UNL     1      -8.886  16.540  66.821  1.00  0.00    -0.255 C  
BRANCH   5   6
HETATM    6  C   UNL     1      -8.046  15.303  67.128  1.00  0.00    -0.248 C  
BRANCH   6   7
HETATM    7  C   UNL     1      -8.656  14.505  68.279  1.00  0.00    -0.171 C  
BRANCH   7   8
HETATM    8  C   UNL     1      -7.976  13.147  68.429  1.00  0.00    -0.130 C  
BRANCH   8   9
HETATM    9  C   UNL     1      -6.867  12.973  67.392  1.00  0.00    -0.126 C  
BRANCH   9  10
HETATM   10  C   UNL     1      -6.761  11.516  66.954  1.00  0.00    -0.139 C  
BRANCH  10  11
HETATM   11  C   UNL     1      -7.474  10.578  67.927  1.00  0.00    -0.091 C  
BRANCH  11  12
HETATM   12  C   UNL     1      -8.069   9.395  67.170  1.00  0.00    -0.102 C  
BRANCH  12  13
HETATM   13  C   UNL     1      -9.571   9.541  66.943  1.00  0.00    -0.217 C  
BRANCH  13  14
HETATM   14  C   UNL     1      -9.852   9.887  65.500  1.00  0.00    -0.311 C  
HETATM   15  O   UNL     1      -9.247   9.434  64.538  1.00  0.00    -0.216 OA 
BRANCH  14  16
HETATM   16  O   UNL     1     -10.879  10.779  65.426  1.00  0.00    -0.137 OA 
BRANCH  16  17
HETATM   17  C   UNL     1     -10.597  12.083  65.973  1.00  0.00    -0.268 C  
HETATM   18  C   UNL     1      -9.826  12.912  64.951  1.00  0.00    -0.048 C  
HETATM   19  C   UNL     1     -11.931  12.737  66.306  1.00  0.00    -0.460 C  
ENDBRANCH  16  17
ENDBRANCH  14  16
ENDBRANCH  13  14
ENDBRANCH  12  13
ENDBRANCH  11  12
ENDBRANCH  10  11
ENDBRANCH   9  10
ENDBRANCH   8   9
ENDBRANCH   7   8
ENDBRANCH   6   7
ENDBRANCH   5   6
ENDBRANCH   4   5
ENDBRANCH   3   4
ENDBRANCH   2   3
TORSDOF 14
ENDMDL
MODEL      347
REMARK 921   NORMALIZED FREE ENERGY PREDICTED BY IDOCK:   -2.71 KCAL/MOL
REMARK 922        TOTAL FREE ENERGY PREDICTED BY IDOCK:   -6.49 KCAL/MOL
REMARK 923 INTER-LIGAND FREE ENERGY PREDICTED BY IDOCK:   -6.16 KCAL/MOL
REMARK 924 INTRA-LIGAND FREE ENERGY PREDICTED BY IDOCK:   -0.33 KCAL/MOL
REMARK 927      BINDING AFFINITY PREDICTED BY RF-SCORE:    0.00 PKD
ROOT
HETATM    1  C   UNL     1      -9.409   4.094  63.793  1.00  0.00    -0.147 C  
HETATM    2  C   UNL     1      -9.143   4.083  65.290  1.00  0.00    -0.139 C  
ENDROOT
BRANCH   2   3
HETATM    3  C   UNL     1     -10.421   4.355  66.080  1.00  0.00    -0.136 C  
BRANCH   3   4
HETATM    4  C   UNL     1     -10.539   5.832  66.453  1.00  0.00    -0.219 C  
BRANCH   4   5
HETATM    5  C   UNL     1     -10.031   6.078  67.873  1.00  0.00    -0.151 C  
BRANCH   5   6
HETATM    6  C   UNL     1      -9.880   7.571  68.156  1.00  0.00    -0.179 C  
BRANCH   6   7
HETATM    7  C   UNL     1     -10.176   8.393  66.903  1.00  0.00    -0.383 C  
BRANCH   7   8
HETATM    8  C   UNL     1     -10.751   9.760  67.266  1.00  0.00    -0.296 C  
BRANCH   8   9
HETATM    9  C   UNL     1     -10.456  10.786  66.173  1.00  0.00    -0.278 C  
BRANCH   9  10
HETATM   10  C   UNL     1     -11.072  12.137  66.520  1.00  0.00    -0.352 C  
BRANCH  10  11
HETATM   11  C   UNL     1     -12.224  12.494  65.581  1.00  0.00    -0.403 C  
BRANCH  11  12
HETATM   12  C   UNL     1     -11.699  13.292  64.392  1.00  0.00    -0.433 C  
BRANCH  12  13
HETATM   13  C   UNL     1     -12.327  14.680  64.295  1.00  0.00    -0.375 C  
BRANCH  13  14
HETATM   14  C   UNL     1     -11.275  15.746  64.488  1.00  0.00    -0.322 C  
HETATM   15  O   UNL     1     -11.401  16.923  64.177  1.00  0.00    -1.208 OA 
BRANCH  14  16
HETATM   16  O   UNL     1     -10.161  15.204  65.056  1.00  0.00    -0.364 OA 
BRANCH  16  17
HETATM   17  C   UNL     1      -9.770  15.789  66.314  1.00  0.00    -0.302 C  
HETATM   18  C   UNL     1      -9.233  17.197  66.080  1.00  0.00    -0.216 C  
HETATM   19  C   UNL     1     -11.003  15.821  67.207  1.00  0.00    -0.259 C  
ENDBRANCH  16  17
ENDBRANCH  14  16
ENDBRANCH  13  14
ENDBRANCH  12  13
ENDBRANCH  11  12
ENDBRANCH  10  11
ENDBRANCH   9  10
ENDBRANCH   8   9
ENDBRANCH   7   8
ENDBRANCH   6   7
ENDBRANCH   5   6
ENDBRANCH   4   5
ENDBRANCH   3   4
ENDBRANCH   2   3
TORSDOF 14
ENDMDL
MODEL      348
REMARK 921   NORMALIZED FREE ENERGY PREDICTED BY IDOCK:   -2.70 KCAL/MOL
REMARK 922        TOTAL FREE ENERGY PREDICTED BY IDOCK:   -6.49 KCAL/MOL
REMARK 923 INTER-LIGAND FREE ENERGY PREDICTED BY IDOCK:   -5.13 KCAL/MOL
REMARK 924 INTRA-LIGAND FREE ENERGY PREDICTED BY IDOCK:   -1.36 KCAL/MOL
REMARK 927      BINDING AFFINITY PREDICTED BY RF-SCORE:    0.00 PKD
ROOT
HETATM    1  C   UNL     1     -12.677  14.052  65.382  1.00  0.00    -0.499 C  
HETATM    2  C   UNL     1     -11.968  13.165  66.392  1.00  0.00    -0.462 C  
ENDROOT
BRANCH   2   3
HETATM    3  C   UNL     1     -10.701  12.553  65.798  1.00  0.00    -0.299 C  
BRANCH   3   4
HETATM    4  C   UNL     1     -11.023  11.311  64.968  1.00  0.00    -0.226 C  
BRANCH   4   5
HETATM    5  C   UNL     1     -10.754  11.562  63.485  1.00  0.00    -0.483 C  
BRANCH   5   6
HETATM    6  C   UNL     1      -9.312  11.218  63.118  1.00  0.00    -0.325 C  
BRANCH   6   7
HETATM    7  C   UNL     1      -9.063   9.716  63.244  1.00  0.00    -0.223 C  
BRANCH   7   8
HETATM    8  C   UNL     1      -8.137   9.408  64.417  1.00  0.00    -0.138 C  
BRANCH   8   9
HETATM    9  C   UNL     1      -8.678   8.247  65.251  1.00  0.00    -0.121 C  
BRANCH   9  10
HETATM   10  C   UNL     1      -9.026   8.712  66.661  1.00  0.00    -0.174 C  
BRANCH  10  11
HETATM   11  C   UNL     1     -10.389   8.189  67.111  1.00  0.00    -0.391 C  
BRANCH  11  12
HETATM   12  C   UNL     1     -10.323   7.745  68.568  1.00  0.00    -0.226 C  
BRANCH  12  13
HETATM   13  C   UNL     1     -11.090   6.449  68.821  1.00  0.00    -0.404 C  
BRANCH  13  14
HETATM   14  C   UNL     1     -10.131   5.323  69.126  1.00  0.00    -0.219 C  
HETATM   15  O   UNL     1     -10.111   4.677  70.165  1.00  0.00    -0.246 OA 
BRANCH  14  16
HETATM   16  O   UNL     1      -9.287   5.132  68.073  1.00  0.00    -0.113 OA 
BRANCH  16  17
HETATM   17  C   UNL     1      -9.621   4.024  67.214  1.00  0.00    -0.189 C  
HETATM   18  C   UNL     1     -10.235   4.544  65.919  1.00  0.00    -0.289 C  
HETATM   19  C   UNL     1      -8.335   3.258  66.935  1.00  0.00    -0.097 C  
ENDBRANCH  16  17
ENDBRANCH  14  16
ENDBRANCH  13  14
ENDBRANCH  12  13
ENDBRANCH  11  12
ENDBRANCH  10  11
ENDBRANCH   9  10
ENDBRANCH   8   9
ENDBRANCH   7   8
ENDBRANCH   6   7
ENDBRANCH   5   6
ENDBRANCH   4   5
ENDBRANCH   3   4
ENDBRANCH   2   3
TORSDOF 14
ENDMDL
MODEL      349
REMARK 921   NORMALIZED FREE ENERGY PREDICTED BY IDOCK:   -2.69 KCAL/MOL
REMARK 922        TOTAL FREE ENERGY PREDICTED BY IDOCK:   -6.47 KCAL/MOL
REMARK 923 INTER-LIGAND FREE ENERGY PREDICTED BY IDOCK:   -5.20 KCAL/MOL
REMARK 924 INTRA-LIGAND FREE ENERGY PREDICTED BY IDOCK:   -1.27 KCAL/MOL
REMARK 927      BINDING AFFINITY PREDICTED BY RF-SCORE:    0.00 PKD
ROOT
HETATM    1  C   UNL     1     -12.512  11.886  63.439  1.00  0.00    -0.582 C  
HETATM    2  C   UNL     1     -11.628  12.756  64.319  1.00  0.00    -0.433 C  
ENDROOT
BRANCH   2   3
HETATM    3  C   UNL     1     -12.401  13.953  64.867  1.00  0.00    -0.445 C  
BRANCH   3   4
HETATM    4  C   UNL     1     -12.175  14.117  66.370  1.00  0.00    -0.473 C  
BRANCH   4   5
HETATM    5  C   UNL     1     -11.306  12.986  66.917  1.00  0.00    -0.352 C  
BRANCH   5   6
HETATM    6  C   UNL     1     -11.942  12.346  68.149  1.00  0.00    -0.272 C  
BRANCH   6   7
HETATM    7  C   UNL     1     -11.668  10.843  68.183  1.00  0.00    -0.231 C  
BRANCH   7   8
HETATM    8  C   UNL     1     -10.739  10.480  69.339  1.00  0.00    -0.277 C  
BRANCH   8   9
HETATM    9  C   UNL     1      -9.296  10.872  69.025  1.00  0.00    -0.144 C  
BRANCH   9  10
HETATM   10  C   UNL     1      -8.556   9.718  68.356  1.00  0.00    -0.119 C  
BRANCH  10  11
HETATM   11  C   UNL     1      -9.099   8.361  68.803  1.00  0.00    -0.143 C  
BRANCH  11  12
HETATM   12  C   UNL     1      -8.064   7.644  69.663  1.00  0.00    -0.126 C  
BRANCH  12  13
HETATM   13  C   UNL     1      -8.094   6.129  69.474  1.00  0.00    -0.112 C  
BRANCH  13  14
HETATM   14  C   UNL     1      -9.368   5.555  70.047  1.00  0.00    -0.148 C  
HETATM   15  O   UNL     1     -10.092   4.747  69.480  1.00  0.00    -0.226 OA 
BRANCH  14  16
HETATM   16  O   UNL     1      -9.596   6.072  71.287  1.00  0.00    -0.166 OA 
BRANCH  16  17
HETATM   17  C   UNL     1     -10.985   6.184  71.657  1.00  0.00    -0.267 C  
HETATM   18  C   UNL     1     -11.235   5.423  72.954  1.00  0.00    -0.372 C  
HETATM   19  C   UNL     1     -11.293   7.665  71.830  1.00  0.00    -0.308 C  
ENDBRANCH  16  17
ENDBRANCH  14  16
ENDBRANCH  13  14
ENDBRANCH  12  13
ENDBRANCH  11  12
ENDBRANCH  10  11
ENDBRANCH   9  10
ENDBRANCH   8   9
ENDBRANCH   7   8
ENDBRANCH   6   7
ENDBRANCH   5   6
ENDBRANCH   4   5
ENDBRANCH   3   4
ENDBRANCH   2   3
TORSDOF 14
ENDMDL
MODEL      350
REMARK 921   NORMALIZED FREE ENERGY PREDICTED BY IDOCK:   -2.68 KCAL/MOL
REMARK 922        TOTAL FREE ENERGY PREDICTED BY IDOCK:   -6.43 KCAL/MOL
REMARK 923 INTER-LIGAND FREE ENERGY PREDICTED BY IDOCK:   -5.26 KCAL/MOL
REMARK 924 INTRA-LIGAND FREE ENERGY PREDICTED BY IDOCK:   -1.18 KCAL/MOL
REMARK 927      BINDING AFFINITY PREDICTED BY RF-SCORE:    0.00 PKD
ROOT
HETATM    1  C   UNL     1      -8.079   9.941  64.868  1.00  0.00    -0.145 C  
HETATM    2  C   UNL     1      -9.215   9.017  65.273  1.00  0.00    -0.205 C  
ENDROOT
BRANCH   2   3
HETATM    3  C   UNL     1     -10.235   9.744  66.146  1.00  0.00    -0.278 C  
BRANCH   3   4
HETATM    4  C   UNL     1      -9.792  11.177  66.439  1.00  0.00    -0.248 C  
BRANCH   4   5
HETATM    5  C   UNL     1     -10.732  11.844  67.441  1.00  0.00    -0.271 C  
BRANCH   5   6
HETATM    6  C   UNL     1     -11.491  10.806  68.265  1.00  0.00    -0.353 C  
BRANCH   6   7
HETATM    7  C   UNL     1     -11.205  10.982  69.755  1.00  0.00    -0.339 C  
BRANCH   7   8
HETATM    8  C   UNL     1     -12.488  11.271  70.531  1.00  0.00    -0.398 C  
BRANCH   8   9
HETATM    9  C   UNL     1     -13.272   9.985  70.790  1.00  0.00    -0.270 C  
BRANCH   9  10
HETATM   10  C   UNL     1     -13.206   9.601  72.265  1.00  0.00    -0.492 C  
BRANCH  10  11
HETATM   11  C   UNL     1     -12.381   8.334  72.485  1.00  0.00    -0.335 C  
BRANCH  11  12
HETATM   12  C   UNL     1     -12.653   7.334  71.365  1.00  0.00    -0.423 C  
BRANCH  12  13
HETATM   13  C   UNL     1     -11.481   6.383  71.133  1.00  0.00    -0.381 C  
BRANCH  13  14
HETATM   14  C   UNL     1     -10.554   6.941  70.080  1.00  0.00    -0.226 C  
HETATM   15  O   UNL     1     -10.907   7.588  69.104  1.00  0.00    -0.189 OA 
BRANCH  14  16
HETATM   16  O   UNL     1      -9.264   6.615  70.375  1.00  0.00    -0.155 OA 
BRANCH  16  17
HETATM   17  C   UNL     1      -8.354   7.730  70.454  1.00  0.00    -0.123 C  
HETATM   18  C   UNL     1      -8.195   8.362  69.075  1.00  0.00    -0.118 C  
HETATM   19  C   UNL     1      -8.939   8.729  71.443  1.00  0.00    -0.307 C  
ENDBRANCH  16  17
ENDBRANCH  14  16
ENDBRANCH  13  14
ENDBRANCH  12  13
ENDBRANCH  11  12
ENDBRANCH  10  11
ENDBRANCH   9  10
ENDBRANCH   8   9
ENDBRANCH   7   8
ENDBRANCH   6   7
ENDBRANCH   5   6
ENDBRANCH   4   5
ENDBRANCH   3   4
ENDBRANCH   2   3
TORSDOF 14
ENDMDL
MODEL      351
REMARK 921   NORMALIZED FREE ENERGY PREDICTED BY IDOCK:   -2.66 KCAL/MOL
REMARK 922        TOTAL FREE ENERGY PREDICTED BY IDOCK:   -6.40 KCAL/MOL
REMARK 923 INTER-LIGAND FREE ENERGY PREDICTED BY IDOCK:   -5.58 KCAL/MOL
REMARK 924 INTRA-LIGAND FREE ENERGY PREDICTED BY IDOCK:   -0.82 KCAL/MOL
REMARK 927      BINDING AFFINITY PREDICTED BY RF-SCORE:    0.00 PKD
ROOT
HETATM    1  C   UNL     1      -5.825  10.081  62.536  1.00  0.00    -0.104 C  
HETATM    2  C   UNL     1      -6.434   9.252  63.655  1.00  0.00    -0.092 C  
ENDROOT
BRANCH   2   3
HETATM    3  C   UNL     1      -7.950   9.148  63.504  1.00  0.00    -0.145 C  
BRANCH   3   4
HETATM    4  C   UNL     1      -8.642  10.429  63.971  1.00  0.00    -0.179 C  
BRANCH   4   5
HETATM    5  C   UNL     1      -9.719  10.859  62.977  1.00  0.00    -0.380 C  
BRANCH   5   6
HETATM    6  C   UNL     1     -10.537  12.029  63.519  1.00  0.00    -0.514 C  
BRANCH   6   7
HETATM    7  C   UNL     1     -10.413  12.120  65.039  1.00  0.00    -0.326 C  
BRANCH   7   8
HETATM    8  C   UNL     1     -11.688  12.682  65.662  1.00  0.00    -0.458 C  
BRANCH   8   9
HETATM    9  C   UNL     1     -11.603  12.668  67.188  1.00  0.00    -0.434 C  
BRANCH   9  10
HETATM   10  C   UNL     1     -10.161  12.851  67.650  1.00  0.00    -0.220 C  
BRANCH  10  11
HETATM   11  C   UNL     1      -9.803  14.327  67.820  1.00  0.00    -0.223 C  
BRANCH  11  12
HETATM   12  C   UNL     1     -10.995  15.090  68.389  1.00  0.00    -0.266 C  
BRANCH  12  13
HETATM   13  C   UNL     1     -11.271  16.389  67.636  1.00  0.00    -0.072 C  
BRANCH  13  14
HETATM   14  C   UNL     1      -9.989  16.949  67.068  1.00  0.00    -0.279 C  
HETATM   15  O   UNL     1      -9.608  16.804  65.915  1.00  0.00    -0.458 OA 
BRANCH  14  16
HETATM   16  O   UNL     1      -9.316  17.640  68.031  1.00  0.00    -0.261 OA 
BRANCH  16  17
HETATM   17  C   UNL     1      -9.090  19.033  67.740  1.00  0.00    -0.292 C  
HETATM   18  C   UNL     1     -10.114  19.886  68.481  1.00  0.00    -0.538 C  
HETATM   19  C   UNL     1      -7.675  19.371  68.191  1.00  0.00    -0.342 C  
ENDBRANCH  16  17
ENDBRANCH  14  16
ENDBRANCH  13  14
ENDBRANCH  12  13
ENDBRANCH  11  12
ENDBRANCH  10  11
ENDBRANCH   9  10
ENDBRANCH   8   9
ENDBRANCH   7   8
ENDBRANCH   6   7
ENDBRANCH   5   6
ENDBRANCH   4   5
ENDBRANCH   3   4
ENDBRANCH   2   3
TORSDOF 14
ENDMDL
MODEL      352
REMARK 921   NORMALIZED FREE ENERGY PREDICTED BY IDOCK:   -2.66 KCAL/MOL
REMARK 922        TOTAL FREE ENERGY PREDICTED BY IDOCK:   -6.40 KCAL/MOL
REMARK 923 INTER-LIGAND FREE ENERGY PREDICTED BY IDOCK:   -4.66 KCAL/MOL
REMARK 924 INTRA-LIGAND FREE ENERGY PREDICTED BY IDOCK:   -1.75 KCAL/MOL
REMARK 927      BINDING AFFINITY PREDICTED BY RF-SCORE:    0.00 PKD
ROOT
HETATM    1  C   UNL     1      -8.849  10.208  64.190  1.00  0.00    -0.243 C  
HETATM    2  C   UNL     1      -7.880   9.336  64.972  1.00  0.00    -0.111 C  
ENDROOT
BRANCH   2   3
HETATM    3  C   UNL     1      -8.028   7.865  64.591  1.00  0.00    -0.143 C  
BRANCH   3   4
HETATM    4  C   UNL     1      -7.352   6.956  65.617  1.00  0.00    -0.079 C  
BRANCH   4   5
HETATM    5  C   UNL     1      -8.153   5.671  65.817  1.00  0.00    -0.114 C  
BRANCH   5   6
HETATM    6  C   UNL     1      -8.837   5.652  67.182  1.00  0.00    -0.106 C  
BRANCH   6   7
HETATM    7  C   UNL     1     -10.357   5.691  67.027  1.00  0.00    -0.306 C  
BRANCH   7   8
HETATM    8  C   UNL     1     -10.971   6.773  67.912  1.00  0.00    -0.309 C  
BRANCH   8   9
HETATM    9  C   UNL     1      -9.981   7.913  68.150  1.00  0.00    -0.210 C  
BRANCH   9  10
HETATM   10  C   UNL     1     -10.718   9.228  68.382  1.00  0.00    -0.192 C  
BRANCH  10  11
HETATM   11  C   UNL     1     -10.059  10.061  69.480  1.00  0.00    -0.248 C  
BRANCH  11  12
HETATM   12  C   UNL     1     -10.308   9.420  70.842  1.00  0.00    -0.380 C  
BRANCH  12  13
HETATM   13  C   UNL     1     -11.789   9.381  71.209  1.00  0.00    -0.435 C  
BRANCH  13  14
HETATM   14  C   UNL     1     -12.185   7.989  71.641  1.00  0.00    -0.307 C  
HETATM   15  O   UNL     1     -13.264   7.461  71.407  1.00  0.00    -0.364 OA 
BRANCH  14  16
HETATM   16  O   UNL     1     -11.165   7.407  72.332  1.00  0.00    -0.260 OA 
BRANCH  16  17
HETATM   17  C   UNL     1     -11.067   5.977  72.188  1.00  0.00    -0.279 C  
HETATM   18  C   UNL     1     -10.051   5.638  71.102  1.00  0.00    -0.262 C  
HETATM   19  C   UNL     1     -10.631   5.411  73.533  1.00  0.00    -0.310 C  
ENDBRANCH  16  17
ENDBRANCH  14  16
ENDBRANCH  13  14
ENDBRANCH  12  13
ENDBRANCH  11  12
ENDBRANCH  10  11
ENDBRANCH   9  10
ENDBRANCH   8   9
ENDBRANCH   7   8
ENDBRANCH   6   7
ENDBRANCH   5   6
ENDBRANCH   4   5
ENDBRANCH   3   4
ENDBRANCH   2   3
TORSDOF 14
ENDMDL
MODEL      353
REMARK 921   NORMALIZED FREE ENERGY PREDICTED BY IDOCK:   -2.66 KCAL/MOL
REMARK 922        TOTAL FREE ENERGY PREDICTED BY IDOCK:   -6.40 KCAL/MOL
REMARK 923 INTER-LIGAND FREE ENERGY PREDICTED BY IDOCK:   -4.59 KCAL/MOL
REMARK 924 INTRA-LIGAND FREE ENERGY PREDICTED BY IDOCK:   -1.81 KCAL/MOL
REMARK 927      BINDING AFFINITY PREDICTED BY RF-SCORE:    0.00 PKD
ROOT
HETATM    1  C   UNL     1      -6.715  14.565  68.343  1.00  0.00    -0.105 C  
HETATM    2  C   UNL     1      -6.547  13.061  68.201  1.00  0.00    -0.103 C  
ENDROOT
BRANCH   2   3
HETATM    3  C   UNL     1      -6.379  12.393  69.564  1.00  0.00    -0.116 C  
BRANCH   3   4
HETATM    4  C   UNL     1      -6.431  10.871  69.445  1.00  0.00    -0.086 C  
BRANCH   4   5
HETATM    5  C   UNL     1      -6.630  10.444  67.992  1.00  0.00    -0.061 C  
BRANCH   5   6
HETATM    6  C   UNL     1      -7.090   8.991  67.899  1.00  0.00    -0.079 C  
BRANCH   6   7
HETATM    7  C   UNL     1      -7.921   8.606  69.122  1.00  0.00    -0.110 C  
BRANCH   7   8
HETATM    8  C   UNL     1      -9.365   8.302  68.733  1.00  0.00    -0.143 C  
BRANCH   8   9
HETATM    9  C   UNL     1      -9.514   8.205  67.215  1.00  0.00    -0.196 C  
BRANCH   9  10
HETATM   10  C   UNL     1     -10.649   9.098  66.725  1.00  0.00    -0.207 C  
BRANCH  10  11
HETATM   11  C   UNL     1     -10.751  10.386  67.542  1.00  0.00    -0.339 C  
BRANCH  11  12
HETATM   12  C   UNL     1     -10.260  11.569  66.715  1.00  0.00    -0.254 C  
BRANCH  12  13
HETATM   13  C   UNL     1     -11.195  11.898  65.553  1.00  0.00    -0.353 C  
BRANCH  13  14
HETATM   14  C   UNL     1     -11.996  13.141  65.861  1.00  0.00    -0.427 C  
HETATM   15  O   UNL     1     -12.984  13.512  65.242  1.00  0.00    -0.701 OA 
BRANCH  14  16
HETATM   16  O   UNL     1     -11.455  13.791  66.929  1.00  0.00    -0.319 OA 
BRANCH  16  17
HETATM   17  C   UNL     1     -11.177  15.189  66.718  1.00  0.00    -0.285 C  
HETATM   18  C   UNL     1     -10.870  15.860  68.053  1.00  0.00    -0.317 C  
HETATM   19  C   UNL     1      -9.982  15.281  65.779  1.00  0.00    -0.391 C  
ENDBRANCH  16  17
ENDBRANCH  14  16
ENDBRANCH  13  14
ENDBRANCH  12  13
ENDBRANCH  11  12
ENDBRANCH  10  11
ENDBRANCH   9  10
ENDBRANCH   8   9
ENDBRANCH   7   8
ENDBRANCH   6   7
ENDBRANCH   5   6
ENDBRANCH   4   5
ENDBRANCH   3   4
ENDBRANCH   2   3
TORSDOF 14
ENDMDL
MODEL      354
REMARK 921   NORMALIZED FREE ENERGY PREDICTED BY IDOCK:   -2.66 KCAL/MOL
REMARK 922        TOTAL FREE ENERGY PREDICTED BY IDOCK:   -6.40 KCAL/MOL
REMARK 923 INTER-LIGAND FREE ENERGY PREDICTED BY IDOCK:   -5.38 KCAL/MOL
REMARK 924 INTRA-LIGAND FREE ENERGY PREDICTED BY IDOCK:   -1.02 KCAL/MOL
REMARK 927      BINDING AFFINITY PREDICTED BY RF-SCORE:    0.00 PKD
ROOT
HETATM    1  C   UNL     1     -12.308  11.958  63.535  1.00  0.00    -0.603 C  
HETATM    2  C   UNL     1     -11.602  13.074  64.288  1.00  0.00    -0.437 C  
ENDROOT
BRANCH   2   3
HETATM    3  C   UNL     1     -12.452  13.580  65.450  1.00  0.00    -0.540 C  
BRANCH   3   4
HETATM    4  C   UNL     1     -11.590  13.898  66.671  1.00  0.00    -0.392 C  
BRANCH   4   5
HETATM    5  C   UNL     1     -10.145  13.456  66.447  1.00  0.00    -0.292 C  
BRANCH   5   6
HETATM    6  C   UNL     1      -9.665  12.538  67.570  1.00  0.00    -0.196 C  
BRANCH   6   7
HETATM    7  C   UNL     1      -9.425  11.123  67.049  1.00  0.00    -0.193 C  
BRANCH   7   8
HETATM    8  C   UNL     1     -10.742  10.373  66.866  1.00  0.00    -0.272 C  
BRANCH   8   9
HETATM    9  C   UNL     1     -10.651   8.958  67.435  1.00  0.00    -0.305 C  
BRANCH   9  10
HETATM   10  C   UNL     1     -10.511   8.995  68.953  1.00  0.00    -0.231 C  
BRANCH  10  11
HETATM   11  C   UNL     1     -11.535   9.931  69.595  1.00  0.00    -0.160 C  
BRANCH  11  12
HETATM   12  C   UNL     1     -11.804   9.501  71.033  1.00  0.00    -0.408 C  
BRANCH  12  13
HETATM   13  C   UNL     1     -11.193   8.142  71.363  1.00  0.00    -0.297 C  
BRANCH  13  14
HETATM   14  C   UNL     1      -9.884   8.319  72.094  1.00  0.00    -0.272 C  
HETATM   15  O   UNL     1      -9.120   9.264  71.949  1.00  0.00    -0.290 OA 
BRANCH  14  16
HETATM   16  O   UNL     1      -9.676   7.270  72.939  1.00  0.00    -0.148 OA 
BRANCH  16  17
HETATM   17  C   UNL     1      -8.320   6.783  72.987  1.00  0.00    -0.115 C  
HETATM   18  C   UNL     1      -7.930   6.491  74.432  1.00  0.00    -0.119 C  
HETATM   19  C   UNL     1      -8.259   5.517  72.143  1.00  0.00    -0.112 C  
ENDBRANCH  16  17
ENDBRANCH  14  16
ENDBRANCH  13  14
ENDBRANCH  12  13
ENDBRANCH  11  12
ENDBRANCH  10  11
ENDBRANCH   9  10
ENDBRANCH   8   9
ENDBRANCH   7   8
ENDBRANCH   6   7
ENDBRANCH   5   6
ENDBRANCH   4   5
ENDBRANCH   3   4
ENDBRANCH   2   3
TORSDOF 14
ENDMDL
MODEL      355
REMARK 921   NORMALIZED FREE ENERGY PREDICTED BY IDOCK:   -2.65 KCAL/MOL
REMARK 922        TOTAL FREE ENERGY PREDICTED BY IDOCK:   -6.38 KCAL/MOL
REMARK 923 INTER-LIGAND FREE ENERGY PREDICTED BY IDOCK:   -4.61 KCAL/MOL
REMARK 924 INTRA-LIGAND FREE ENERGY PREDICTED BY IDOCK:   -1.77 KCAL/MOL
REMARK 927      BINDING AFFINITY PREDICTED BY RF-SCORE:    0.00 PKD
ROOT
HETATM    1  C   UNL     1      -9.466   8.070  66.823  1.00  0.00    -0.259 C  
HETATM    2  C   UNL     1     -10.488   8.426  67.890  1.00  0.00    -0.255 C  
ENDROOT
BRANCH   2   3
HETATM    3  C   UNL     1     -10.677   7.278  68.880  1.00  0.00    -0.173 C  
BRANCH   3   4
HETATM    4  C   UNL     1      -9.553   7.248  69.914  1.00  0.00    -0.163 C  
BRANCH   4   5
HETATM    5  C   UNL     1      -9.064   8.660  70.229  1.00  0.00    -0.172 C  
BRANCH   5   6
HETATM    6  C   UNL     1      -7.588   8.660  70.623  1.00  0.00    -0.080 C  
BRANCH   6   7
HETATM    7  C   UNL     1      -6.935   9.998  70.279  1.00  0.00    -0.153 C  
BRANCH   7   8
HETATM    8  C   UNL     1      -7.766  10.768  69.256  1.00  0.00    -0.129 C  
BRANCH   8   9
HETATM    9  C   UNL     1      -6.973  11.939  68.677  1.00  0.00    -0.095 C  
BRANCH   9  10
HETATM   10  C   UNL     1      -7.680  12.518  67.456  1.00  0.00    -0.165 C  
BRANCH  10  11
HETATM   11  C   UNL     1      -8.955  11.746  67.119  1.00  0.00    -0.177 C  
BRANCH  11  12
HETATM   12  C   UNL     1      -9.776  12.519  66.092  1.00  0.00    -0.259 C  
BRANCH  12  13
HETATM   13  C   UNL     1     -11.265  12.186  66.163  1.00  0.00    -0.386 C  
BRANCH  13  14
HETATM   14  C   UNL     1     -12.008  13.266  66.911  1.00  0.00    -0.375 C  
HETATM   15  O   UNL     1     -12.658  14.162  66.390  1.00  0.00    -0.427 OA 
BRANCH  14  16
HETATM   16  O   UNL     1     -11.848  13.098  68.254  1.00  0.00    -0.333 OA 
BRANCH  16  17
HETATM   17  C   UNL     1     -11.895  14.310  69.032  1.00  0.00    -0.335 C  
HETATM   18  C   UNL     1     -12.365  13.993  70.448  1.00  0.00    -0.429 C  
HETATM   19  C   UNL     1     -10.492  14.899  69.047  1.00  0.00    -0.247 C  
ENDBRANCH  16  17
ENDBRANCH  14  16
ENDBRANCH  13  14
ENDBRANCH  12  13
ENDBRANCH  11  12
ENDBRANCH  10  11
ENDBRANCH   9  10
ENDBRANCH   8   9
ENDBRANCH   7   8
ENDBRANCH   6   7
ENDBRANCH   5   6
ENDBRANCH   4   5
ENDBRANCH   3   4
ENDBRANCH   2   3
TORSDOF 14
ENDMDL
MODEL      356
REMARK 921   NORMALIZED FREE ENERGY PREDICTED BY IDOCK:   -2.65 KCAL/MOL
REMARK 922        TOTAL FREE ENERGY PREDICTED BY IDOCK:   -6.38 KCAL/MOL
REMARK 923 INTER-LIGAND FREE ENERGY PREDICTED BY IDOCK:   -4.23 KCAL/MOL
REMARK 924 INTRA-LIGAND FREE ENERGY PREDICTED BY IDOCK:   -2.15 KCAL/MOL
REMARK 927      BINDING AFFINITY PREDICTED BY RF-SCORE:    0.00 PKD
ROOT
HETATM    1  C   UNL     1     -13.858   8.962  71.738  1.00  0.00    -0.465 C  
HETATM    2  C   UNL     1     -12.382   9.216  71.999  1.00  0.00    -0.448 C  
ENDROOT
BRANCH   2   3
HETATM    3  C   UNL     1     -11.719   8.003  72.646  1.00  0.00    -0.418 C  
BRANCH   3   4
HETATM    4  C   UNL     1     -10.811   7.274  71.657  1.00  0.00    -0.246 C  
BRANCH   4   5
HETATM    5  C   UNL     1     -11.606   6.268  70.826  1.00  0.00    -0.347 C  
BRANCH   5   6
HETATM    6  C   UNL     1     -11.376   6.480  69.331  1.00  0.00    -0.395 C  
BRANCH   6   7
HETATM    7  C   UNL     1     -10.304   7.542  69.093  1.00  0.00    -0.215 C  
BRANCH   7   8
HETATM    8  C   UNL     1     -10.700   8.476  67.952  1.00  0.00    -0.148 C  
BRANCH   8   9
HETATM    9  C   UNL     1     -11.113   9.847  68.485  1.00  0.00    -0.181 C  
BRANCH   9  10
HETATM   10  C   UNL     1     -10.598  10.958  67.576  1.00  0.00    -0.271 C  
BRANCH  10  11
HETATM   11  C   UNL     1     -10.263  10.437  66.179  1.00  0.00    -0.288 C  
BRANCH  11  12
HETATM   12  C   UNL     1      -8.796  10.703  65.861  1.00  0.00    -0.187 C  
BRANCH  12  13
HETATM   13  C   UNL     1      -8.062   9.451  65.387  1.00  0.00    -0.118 C  
BRANCH  13  14
HETATM   14  C   UNL     1      -7.382   8.770  66.552  1.00  0.00    -0.081 C  
HETATM   15  O   UNL     1      -7.205   7.564  66.655  1.00  0.00    -0.079 OA 
BRANCH  14  16
HETATM   16  O   UNL     1      -6.996   9.698  67.473  1.00  0.00    -0.082 OA 
BRANCH  16  17
HETATM   17  C   UNL     1      -6.795   9.189  68.806  1.00  0.00    -0.061 C  
HETATM   18  C   UNL     1      -5.314   9.253  69.162  1.00  0.00    -0.036 C  
HETATM   19  C   UNL     1      -7.618  10.050  69.754  1.00  0.00    -0.167 C  
ENDBRANCH  16  17
ENDBRANCH  14  16
ENDBRANCH  13  14
ENDBRANCH  12  13
ENDBRANCH  11  12
ENDBRANCH  10  11
ENDBRANCH   9  10
ENDBRANCH   8   9
ENDBRANCH   7   8
ENDBRANCH   6   7
ENDBRANCH   5   6
ENDBRANCH   4   5
ENDBRANCH   3   4
ENDBRANCH   2   3
TORSDOF 14
ENDMDL
MODEL      357
REMARK 921   NORMALIZED FREE ENERGY PREDICTED BY IDOCK:   -2.64 KCAL/MOL
REMARK 922        TOTAL FREE ENERGY PREDICTED BY IDOCK:   -6.38 KCAL/MOL
REMARK 923 INTER-LIGAND FREE ENERGY PREDICTED BY IDOCK:   -4.46 KCAL/MOL
REMARK 924 INTRA-LIGAND FREE ENERGY PREDICTED BY IDOCK:   -1.92 KCAL/MOL
REMARK 927      BINDING AFFINITY PREDICTED BY RF-SCORE:    0.00 PKD
ROOT
HETATM    1  C   UNL     1      -7.615   7.757  68.437  1.00  0.00    -0.109 C  
HETATM    2  C   UNL     1      -8.632   8.281  67.437  1.00  0.00    -0.125 C  
ENDROOT
BRANCH   2   3
HETATM    3  C   UNL     1      -7.967   8.638  66.109  1.00  0.00    -0.106 C  
BRANCH   3   4
HETATM    4  C   UNL     1      -8.140  10.121  65.783  1.00  0.00    -0.142 C  
BRANCH   4   5
HETATM    5  C   UNL     1      -6.957  10.935  66.304  1.00  0.00    -0.120 C  
BRANCH   5   6
HETATM    6  C   UNL     1      -7.389  11.891  67.414  1.00  0.00    -0.145 C  
BRANCH   6   7
HETATM    7  C   UNL     1      -8.864  12.263  67.266  1.00  0.00    -0.190 C  
BRANCH   7   8
HETATM    8  C   UNL     1      -9.024  13.606  66.559  1.00  0.00    -0.068 C  
BRANCH   8   9
HETATM    9  C   UNL     1     -10.328  13.654  65.764  1.00  0.00    -0.304 C  
BRANCH   9  10
HETATM   10  C   UNL     1     -11.438  12.915  66.504  1.00  0.00    -0.390 C  
BRANCH  10  11
HETATM   11  C   UNL     1     -12.230  13.849  67.419  1.00  0.00    -0.291 C  
BRANCH  11  12
HETATM   12  C   UNL     1     -12.003  13.466  68.877  1.00  0.00    -0.362 C  
BRANCH  12  13
HETATM   13  C   UNL     1     -10.937  14.328  69.550  1.00  0.00    -0.206 C  
BRANCH  13  14
HETATM   14  C   UNL     1     -11.522  15.659  69.960  1.00  0.00    -0.344 C  
HETATM   15  O   UNL     1     -12.615  15.814  70.487  1.00  0.00    -0.421 OA 
BRANCH  14  16
HETATM   16  O   UNL     1     -10.654  16.664  69.654  1.00  0.00    -0.316 OA 
BRANCH  16  17
HETATM   17  C   UNL     1      -9.911  16.480  68.433  1.00  0.00    -0.237 C  
HETATM   18  C   UNL     1     -10.506  17.352  67.332  1.00  0.00    -0.336 C  
HETATM   19  C   UNL     1      -8.466  16.871  68.712  1.00  0.00    -0.244 C  
ENDBRANCH  16  17
ENDBRANCH  14  16
ENDBRANCH  13  14
ENDBRANCH  12  13
ENDBRANCH  11  12
ENDBRANCH  10  11
ENDBRANCH   9  10
ENDBRANCH   8   9
ENDBRANCH   7   8
ENDBRANCH   6   7
ENDBRANCH   5   6
ENDBRANCH   4   5
ENDBRANCH   3   4
ENDBRANCH   2   3
TORSDOF 14
ENDMDL
MODEL      358
REMARK 921   NORMALIZED FREE ENERGY PREDICTED BY IDOCK:   -2.64 KCAL/MOL
REMARK 922        TOTAL FREE ENERGY PREDICTED BY IDOCK:   -6.36 KCAL/MOL
REMARK 923 INTER-LIGAND FREE ENERGY PREDICTED BY IDOCK:   -4.70 KCAL/MOL
REMARK 924 INTRA-LIGAND FREE ENERGY PREDICTED BY IDOCK:   -1.66 KCAL/MOL
REMARK 927      BINDING AFFINITY PREDICTED BY RF-SCORE:    0.00 PKD
ROOT
HETATM    1  C   UNL     1     -10.194  11.029  63.455  1.00  0.00    -0.424 C  
HETATM    2  C   UNL     1      -8.830  10.743  64.063  1.00  0.00    -0.120 C  
ENDROOT
BRANCH   2   3
HETATM    3  C   UNL     1      -8.506   9.252  64.015  1.00  0.00    -0.202 C  
BRANCH   3   4
HETATM    4  C   UNL     1      -7.460   8.878  65.064  1.00  0.00    -0.097 C  
BRANCH   4   5
HETATM    5  C   UNL     1      -7.163   7.380  65.027  1.00  0.00    -0.067 C  
BRANCH   5   6
HETATM    6  C   UNL     1      -7.240   6.765  66.423  1.00  0.00    -0.072 C  
BRANCH   6   7
HETATM    7  C   UNL     1      -8.520   5.946  66.585  1.00  0.00    -0.111 C  
BRANCH   7   8
HETATM    8  C   UNL     1      -9.188   6.230  67.927  1.00  0.00    -0.116 C  
BRANCH   8   9
HETATM    9  C   UNL     1      -9.331   7.734  68.160  1.00  0.00    -0.148 C  
BRANCH   9  10
HETATM   10  C   UNL     1     -10.617   8.258  67.528  1.00  0.00    -0.291 C  
BRANCH  10  11
HETATM   11  C   UNL     1     -10.487   9.721  67.109  1.00  0.00    -0.316 C  
BRANCH  11  12
HETATM   12  C   UNL     1     -10.488  10.619  68.342  1.00  0.00    -0.212 C  
BRANCH  12  13
HETATM   13  C   UNL     1     -11.896  11.029  68.767  1.00  0.00    -0.352 C  
BRANCH  13  14
HETATM   14  C   UNL     1     -11.926  11.348  70.242  1.00  0.00    -0.373 C  
HETATM   15  O   UNL     1     -12.499  12.306  70.743  1.00  0.00    -0.346 OA 
BRANCH  14  16
HETATM   16  O   UNL     1     -11.218  10.413  70.936  1.00  0.00    -0.311 OA 
BRANCH  16  17
HETATM   17  C   UNL     1     -11.884   9.146  71.109  1.00  0.00    -0.307 C  
HETATM   18  C   UNL     1     -10.944   8.162  71.797  1.00  0.00    -0.322 C  
HETATM   19  C   UNL     1     -13.124   9.394  71.958  1.00  0.00    -0.516 C  
ENDBRANCH  16  17
ENDBRANCH  14  16
ENDBRANCH  13  14
ENDBRANCH  12  13
ENDBRANCH  11  12
ENDBRANCH  10  11
ENDBRANCH   9  10
ENDBRANCH   8   9
ENDBRANCH   7   8
ENDBRANCH   6   7
ENDBRANCH   5   6
ENDBRANCH   4   5
ENDBRANCH   3   4
ENDBRANCH   2   3
TORSDOF 14
ENDMDL
MODEL      359
REMARK 921   NORMALIZED FREE ENERGY PREDICTED BY IDOCK:   -2.64 KCAL/MOL
REMARK 922        TOTAL FREE ENERGY PREDICTED BY IDOCK:   -6.36 KCAL/MOL
REMARK 923 INTER-LIGAND FREE ENERGY PREDICTED BY IDOCK:   -5.07 KCAL/MOL
REMARK 924 INTRA-LIGAND FREE ENERGY PREDICTED BY IDOCK:   -1.29 KCAL/MOL
REMARK 927      BINDING AFFINITY PREDICTED BY RF-SCORE:    0.00 PKD
ROOT
HETATM    1  C   UNL     1      -7.895  14.020  67.834  1.00  0.00    -0.161 C  
HETATM    2  C   UNL     1      -7.024  12.802  67.572  1.00  0.00    -0.149 C  
ENDROOT
BRANCH   2   3
HETATM    3  C   UNL     1      -7.042  11.844  68.761  1.00  0.00    -0.111 C  
BRANCH   3   4
HETATM    4  C   UNL     1      -7.663  10.501  68.381  1.00  0.00    -0.104 C  
BRANCH   4   5
HETATM    5  C   UNL     1      -8.240  10.548  66.968  1.00  0.00    -0.125 C  
BRANCH   5   6
HETATM    6  C   UNL     1      -9.755  10.349  66.980  1.00  0.00    -0.216 C  
BRANCH   6   7
HETATM    7  C   UNL     1     -10.148   9.131  66.147  1.00  0.00    -0.278 C  
BRANCH   7   8
HETATM    8  C   UNL     1      -9.598   7.845  66.758  1.00  0.00    -0.278 C  
BRANCH   8   9
HETATM    9  C   UNL     1     -10.725   6.861  67.069  1.00  0.00    -0.432 C  
BRANCH   9  10
HETATM   10  C   UNL     1     -10.177   5.608  67.744  1.00  0.00    -0.238 C  
BRANCH  10  11
HETATM   11  C   UNL     1      -9.943   5.825  69.239  1.00  0.00    -0.238 C  
BRANCH  11  12
HETATM   12  C   UNL     1     -11.246   6.239  69.915  1.00  0.00    -0.498 C  
BRANCH  12  13
HETATM   13  C   UNL     1     -11.016   6.925  71.260  1.00  0.00    -0.275 C  
BRANCH  13  14
HETATM   14  C   UNL     1     -10.514   8.334  71.050  1.00  0.00    -0.202 C  
HETATM   15  O   UNL     1      -9.516   8.810  71.574  1.00  0.00    -0.222 OA 
BRANCH  14  16
HETATM   16  O   UNL     1     -11.339   9.000  70.194  1.00  0.00    -0.222 OA 
BRANCH  16  17
HETATM   17  C   UNL     1     -11.635  10.361  70.563  1.00  0.00    -0.344 C  
HETATM   18  C   UNL     1     -12.010  11.161  69.320  1.00  0.00    -0.421 C  
HETATM   19  C   UNL     1     -12.790  10.325  71.553  1.00  0.00    -0.557 C  
ENDBRANCH  16  17
ENDBRANCH  14  16
ENDBRANCH  13  14
ENDBRANCH  12  13
ENDBRANCH  11  12
ENDBRANCH  10  11
ENDBRANCH   9  10
ENDBRANCH   8   9
ENDBRANCH   7   8
ENDBRANCH   6   7
ENDBRANCH   5   6
ENDBRANCH   4   5
ENDBRANCH   3   4
ENDBRANCH   2   3
TORSDOF 14
ENDMDL
MODEL      360
REMARK 921   NORMALIZED FREE ENERGY PREDICTED BY IDOCK:   -2.62 KCAL/MOL
REMARK 922        TOTAL FREE ENERGY PREDICTED BY IDOCK:   -6.33 KCAL/MOL
REMARK 923 INTER-LIGAND FREE ENERGY PREDICTED BY IDOCK:   -4.71 KCAL/MOL
REMARK 924 INTRA-LIGAND FREE ENERGY PREDICTED BY IDOCK:   -1.62 KCAL/MOL
REMARK 927      BINDING AFFINITY PREDICTED BY RF-SCORE:    0.00 PKD
ROOT
HETATM    1  C   UNL     1      -6.551  14.695  69.152  1.00  0.00    -0.112 C  
HETATM    2  C   UNL     1      -6.429  13.499  68.221  1.00  0.00    -0.104 C  
ENDROOT
BRANCH   2   3
HETATM    3  C   UNL     1      -6.168  12.214  69.003  1.00  0.00    -0.081 C  
BRANCH   3   4
HETATM    4  C   UNL     1      -6.289  10.984  68.105  1.00  0.00    -0.056 C  
BRANCH   4   5
HETATM    5  C   UNL     1      -7.217  11.261  66.923  1.00  0.00    -0.142 C  
BRANCH   5   6
HETATM    6  C   UNL     1      -8.273  10.168  66.780  1.00  0.00    -0.122 C  
BRANCH   6   7
HETATM    7  C   UNL     1      -9.109  10.051  68.053  1.00  0.00    -0.132 C  
BRANCH   7   8
HETATM    8  C   UNL     1     -10.596  10.214  67.751  1.00  0.00    -0.304 C  
BRANCH   8   9
HETATM    9  C   UNL     1     -10.809  10.975  66.443  1.00  0.00    -0.253 C  
BRANCH   9  10
HETATM   10  C   UNL     1     -11.722  12.177  66.661  1.00  0.00    -0.385 C  
BRANCH  10  11
HETATM   11  C   UNL     1     -11.546  12.778  68.055  1.00  0.00    -0.388 C  
BRANCH  11  12
HETATM   12  C   UNL     1     -10.533  13.917  68.008  1.00  0.00    -0.243 C  
BRANCH  12  13
HETATM   13  C   UNL     1     -11.190  15.276  67.777  1.00  0.00    -0.327 C  
BRANCH  13  14
HETATM   14  C   UNL     1     -11.142  16.103  69.040  1.00  0.00    -0.336 C  
HETATM   15  O   UNL     1     -11.838  15.917  70.029  1.00  0.00    -0.342 OA 
BRANCH  14  16
HETATM   16  O   UNL     1     -10.210  17.089  68.915  1.00  0.00    -0.286 OA 
BRANCH  16  17
HETATM   17  C   UNL     1     -10.014  17.581  67.575  1.00  0.00    -0.315 C  
HETATM   18  C   UNL     1     -10.622  18.974  67.445  1.00  0.00    -0.559 C  
HETATM   19  C   UNL     1      -8.515  17.618  67.315  1.00  0.00    -0.225 C  
ENDBRANCH  16  17
ENDBRANCH  14  16
ENDBRANCH  13  14
ENDBRANCH  12  13
ENDBRANCH  11  12
ENDBRANCH  10  11
ENDBRANCH   9  10
ENDBRANCH   8   9
ENDBRANCH   7   8
ENDBRANCH   6   7
ENDBRANCH   5   6
ENDBRANCH   4   5
ENDBRANCH   3   4
ENDBRANCH   2   3
TORSDOF 14
ENDMDL
MODEL      361
REMARK 921   NORMALIZED FREE ENERGY PREDICTED BY IDOCK:   -2.61 KCAL/MOL
REMARK 922        TOTAL FREE ENERGY PREDICTED BY IDOCK:   -6.31 KCAL/MOL
REMARK 923 INTER-LIGAND FREE ENERGY PREDICTED BY IDOCK:   -4.72 KCAL/MOL
REMARK 924 INTRA-LIGAND FREE ENERGY PREDICTED BY IDOCK:   -1.59 KCAL/MOL
REMARK 927      BINDING AFFINITY PREDICTED BY RF-SCORE:    0.00 PKD
ROOT
HETATM    1  C   UNL     1      -9.255   7.358  67.376  1.00  0.00    -0.146 C  
HETATM    2  C   UNL     1     -10.576   6.965  68.017  1.00  0.00    -0.273 C  
ENDROOT
BRANCH   2   3
HETATM    3  C   UNL     1     -10.429   5.694  68.850  1.00  0.00    -0.310 C  
BRANCH   3   4
HETATM    4  C   UNL     1     -11.007   5.880  70.252  1.00  0.00    -0.390 C  
BRANCH   4   5
HETATM    5  C   UNL     1     -11.437   7.329  70.476  1.00  0.00    -0.310 C  
BRANCH   5   6
HETATM    6  C   UNL     1     -11.337   7.715  71.950  1.00  0.00    -0.308 C  
BRANCH   6   7
HETATM    7  C   UNL     1     -12.063   9.033  72.216  1.00  0.00    -0.358 C  
BRANCH   7   8
HETATM    8  C   UNL     1     -12.662   9.599  70.931  1.00  0.00    -0.280 C  
BRANCH   8   9
HETATM    9  C   UNL     1     -12.309  11.077  70.767  1.00  0.00    -0.496 C  
BRANCH   9  10
HETATM   10  C   UNL     1     -12.102  11.422  69.296  1.00  0.00    -0.356 C  
BRANCH  10  11
HETATM   11  C   UNL     1     -10.930  10.650  68.692  1.00  0.00    -0.291 C  
BRANCH  11  12
HETATM   12  C   UNL     1      -9.692  11.540  68.639  1.00  0.00    -0.172 C  
BRANCH  12  13
HETATM   13  C   UNL     1      -8.490  10.834  68.015  1.00  0.00    -0.124 C  
BRANCH  13  14
HETATM   14  C   UNL     1      -7.710  11.795  67.150  1.00  0.00    -0.162 C  
HETATM   15  O   UNL     1      -6.827  11.476  66.365  1.00  0.00    -0.068 OA 
BRANCH  14  16
HETATM   16  O   UNL     1      -8.132  13.071  67.373  1.00  0.00    -0.168 OA 
BRANCH  16  17
HETATM   17  C   UNL     1      -7.081  14.041  67.553  1.00  0.00    -0.160 C  
HETATM   18  C   UNL     1      -7.581  15.423  67.146  1.00  0.00    -0.238 C  
HETATM   19  C   UNL     1      -6.685  14.019  69.023  1.00  0.00    -0.109 C  
ENDBRANCH  16  17
ENDBRANCH  14  16
ENDBRANCH  13  14
ENDBRANCH  12  13
ENDBRANCH  11  12
ENDBRANCH  10  11
ENDBRANCH   9  10
ENDBRANCH   8   9
ENDBRANCH   7   8
ENDBRANCH   6   7
ENDBRANCH   5   6
ENDBRANCH   4   5
ENDBRANCH   3   4
ENDBRANCH   2   3
TORSDOF 14
ENDMDL
MODEL      362
REMARK 921   NORMALIZED FREE ENERGY PREDICTED BY IDOCK:   -2.60 KCAL/MOL
REMARK 922        TOTAL FREE ENERGY PREDICTED BY IDOCK:   -6.30 KCAL/MOL
REMARK 923 INTER-LIGAND FREE ENERGY PREDICTED BY IDOCK:   -4.77 KCAL/MOL
REMARK 924 INTRA-LIGAND FREE ENERGY PREDICTED BY IDOCK:   -1.53 KCAL/MOL
REMARK 927      BINDING AFFINITY PREDICTED BY RF-SCORE:    0.00 PKD
ROOT
HETATM    1  C   UNL     1     -10.438  10.567  66.797  1.00  0.00    -0.302 C  
HETATM    2  C   UNL     1     -10.968   9.956  68.084  1.00  0.00    -0.261 C  
ENDROOT
BRANCH   2   3
HETATM    3  C   UNL     1     -11.731  10.988  68.912  1.00  0.00    -0.400 C  
BRANCH   3   4
HETATM    4  C   UNL     1     -11.492  10.784  70.408  1.00  0.00    -0.397 C  
BRANCH   4   5
HETATM    5  C   UNL     1     -12.766  11.060  71.205  1.00  0.00    -0.537 C  
BRANCH   5   6
HETATM    6  C   UNL     1     -13.063   9.927  72.185  1.00  0.00    -0.497 C  
BRANCH   6   7
HETATM    7  C   UNL     1     -13.700   8.740  71.464  1.00  0.00    -0.384 C  
BRANCH   7   8
HETATM    8  C   UNL     1     -13.171   7.417  72.011  1.00  0.00    -0.187 C  
BRANCH   8   9
HETATM    9  C   UNL     1     -12.498   6.599  70.909  1.00  0.00    -0.183 C  
BRANCH   9  10
HETATM   10  C   UNL     1     -11.110   7.151  70.600  1.00  0.00    -0.294 C  
BRANCH  10  11
HETATM   11  C   UNL     1     -10.024   6.436  71.402  1.00  0.00    -0.206 C  
BRANCH  11  12
HETATM   12  C   UNL     1      -9.558   5.190  70.654  1.00  0.00    -0.242 C  
BRANCH  12  13
HETATM   13  C   UNL     1      -8.364   5.466  69.744  1.00  0.00    -0.100 C  
BRANCH  13  14
HETATM   14  C   UNL     1      -8.114   4.285  68.837  1.00  0.00    -0.072 C  
HETATM   15  O   UNL     1      -7.282   3.409  69.035  1.00  0.00    -0.048 OA 
BRANCH  14  16
HETATM   16  O   UNL     1      -8.949   4.338  67.761  1.00  0.00    -0.107 OA 
BRANCH  16  17
HETATM   17  C   UNL     1      -9.031   5.623  67.114  1.00  0.00    -0.112 C  
HETATM   18  C   UNL     1      -8.038   5.680  65.957  1.00  0.00    -0.109 C  
HETATM   19  C   UNL     1     -10.458   5.792  66.611  1.00  0.00    -0.330 C  
ENDBRANCH  16  17
ENDBRANCH  14  16
ENDBRANCH  13  14
ENDBRANCH  12  13
ENDBRANCH  11  12
ENDBRANCH  10  11
ENDBRANCH   9  10
ENDBRANCH   8   9
ENDBRANCH   7   8
ENDBRANCH   6   7
ENDBRANCH   5   6
ENDBRANCH   4   5
ENDBRANCH   3   4
ENDBRANCH   2   3
TORSDOF 14
ENDMDL
MODEL      363
REMARK 921   NORMALIZED FREE ENERGY PREDICTED BY IDOCK:   -2.60 KCAL/MOL
REMARK 922        TOTAL FREE ENERGY PREDICTED BY IDOCK:   -6.30 KCAL/MOL
REMARK 923 INTER-LIGAND FREE ENERGY PREDICTED BY IDOCK:   -4.37 KCAL/MOL
REMARK 924 INTRA-LIGAND FREE ENERGY PREDICTED BY IDOCK:   -1.92 KCAL/MOL
REMARK 927      BINDING AFFINITY PREDICTED BY RF-SCORE:    0.00 PKD
ROOT
HETATM    1  C   UNL     1      -8.698   9.869  65.481  1.00  0.00    -0.170 C  
HETATM    2  C   UNL     1      -9.685  10.804  64.801  1.00  0.00    -0.338 C  
ENDROOT
BRANCH   2   3
HETATM    3  C   UNL     1     -10.825  11.184  65.743  1.00  0.00    -0.218 C  
BRANCH   3   4
HETATM    4  C   UNL     1     -11.583  12.408  65.230  1.00  0.00    -0.419 C  
BRANCH   4   5
HETATM    5  C   UNL     1     -10.642  13.368  64.504  1.00  0.00    -0.441 C  
BRANCH   5   6
HETATM    6  C   UNL     1     -10.519  14.694  65.251  1.00  0.00    -0.420 C  
BRANCH   6   7
HETATM    7  C   UNL     1     -11.245  14.629  66.594  1.00  0.00    -0.349 C  
BRANCH   7   8
HETATM    8  C   UNL     1     -10.256  14.477  67.747  1.00  0.00    -0.226 C  
BRANCH   8   9
HETATM    9  C   UNL     1      -8.860  14.941  67.334  1.00  0.00    -0.204 C  
BRANCH   9  10
HETATM   10  C   UNL     1      -7.850  13.808  67.481  1.00  0.00    -0.189 C  
BRANCH  10  11
HETATM   11  C   UNL     1      -8.453  12.599  68.195  1.00  0.00    -0.177 C  
BRANCH  11  12
HETATM   12  C   UNL     1      -7.415  11.487  68.304  1.00  0.00    -0.103 C  
BRANCH  12  13
HETATM   13  C   UNL     1      -7.214  11.013  69.742  1.00  0.00    -0.008 C  
BRANCH  13  14
HETATM   14  C   UNL     1      -7.498   9.533  69.850  1.00  0.00    -0.113 C  
HETATM   15  O   UNL     1      -6.688   8.686  70.203  1.00  0.00    -0.038 OA 
BRANCH  14  16
HETATM   16  O   UNL     1      -8.788   9.279  69.494  1.00  0.00    -0.135 OA 
BRANCH  16  17
HETATM   17  C   UNL     1      -9.704   9.109  70.594  1.00  0.00    -0.256 C  
HETATM   18  C   UNL     1     -10.938   9.977  70.374  1.00  0.00    -0.384 C  
HETATM   19  C   UNL     1     -10.081   7.635  70.651  1.00  0.00    -0.187 C  
ENDBRANCH  16  17
ENDBRANCH  14  16
ENDBRANCH  13  14
ENDBRANCH  12  13
ENDBRANCH  11  12
ENDBRANCH  10  11
ENDBRANCH   9  10
ENDBRANCH   8   9
ENDBRANCH   7   8
ENDBRANCH   6   7
ENDBRANCH   5   6
ENDBRANCH   4   5
ENDBRANCH   3   4
ENDBRANCH   2   3
TORSDOF 14
ENDMDL
MODEL      364
REMARK 921   NORMALIZED FREE ENERGY PREDICTED BY IDOCK:   -2.60 KCAL/MOL
REMARK 922        TOTAL FREE ENERGY PREDICTED BY IDOCK:   -6.29 KCAL/MOL
REMARK 923 INTER-LIGAND FREE ENERGY PREDICTED BY IDOCK:   -3.83 KCAL/MOL
REMARK 924 INTRA-LIGAND FREE ENERGY PREDICTED BY IDOCK:   -2.47 KCAL/MOL
REMARK 927      BINDING AFFINITY PREDICTED BY RF-SCORE:    0.00 PKD
ROOT
HETATM    1  C   UNL     1      -9.694  12.388  68.167  1.00  0.00    -0.214 C  
HETATM    2  C   UNL     1     -10.814  11.654  67.448  1.00  0.00    -0.298 C  
ENDROOT
BRANCH   2   3
HETATM    3  C   UNL     1     -11.351  10.501  68.292  1.00  0.00    -0.332 C  
BRANCH   3   4
HETATM    4  C   UNL     1     -11.227  10.803  69.785  1.00  0.00    -0.365 C  
BRANCH   4   5
HETATM    5  C   UNL     1     -11.403   9.532  70.614  1.00  0.00    -0.364 C  
BRANCH   5   6
HETATM    6  C   UNL     1     -10.199   8.603  70.467  1.00  0.00    -0.229 C  
BRANCH   6   7
HETATM    7  C   UNL     1      -8.917   9.303  70.915  1.00  0.00    -0.273 C  
BRANCH   7   8
HETATM    8  C   UNL     1      -7.699   8.733  70.193  1.00  0.00    -0.084 C  
BRANCH   8   9
HETATM    9  C   UNL     1      -7.059   9.785  69.288  1.00  0.00    -0.066 C  
BRANCH   9  10
HETATM   10  C   UNL     1      -7.533   9.618  67.848  1.00  0.00    -0.083 C  
BRANCH  10  11
HETATM   11  C   UNL     1      -7.695   8.147  67.470  1.00  0.00    -0.102 C  
BRANCH  11  12
HETATM   12  C   UNL     1      -9.072   7.913  66.859  1.00  0.00    -0.172 C  
BRANCH  12  13
HETATM   13  C   UNL     1      -9.143   6.621  66.049  1.00  0.00    -0.104 C  
BRANCH  13  14
HETATM   14  C   UNL     1     -10.091   5.644  66.702  1.00  0.00    -0.198 C  
HETATM   15  O   UNL     1     -10.657   4.723  66.129  1.00  0.00    -0.309 OA 
BRANCH  14  16
HETATM   16  O   UNL     1     -10.226   5.940  68.026  1.00  0.00    -0.152 OA 
BRANCH  16  17
HETATM   17  C   UNL     1      -9.815   4.896  68.931  1.00  0.00    -0.170 C  
HETATM   18  C   UNL     1      -8.306   4.961  69.138  1.00  0.00    -0.082 C  
HETATM   19  C   UNL     1     -10.552   5.114  70.245  1.00  0.00    -0.230 C  
ENDBRANCH  16  17
ENDBRANCH  14  16
ENDBRANCH  13  14
ENDBRANCH  12  13
ENDBRANCH  11  12
ENDBRANCH  10  11
ENDBRANCH   9  10
ENDBRANCH   8   9
ENDBRANCH   7   8
ENDBRANCH   6   7
ENDBRANCH   5   6
ENDBRANCH   4   5
ENDBRANCH   3   4
ENDBRANCH   2   3
TORSDOF 14
ENDMDL
MODEL      365
REMARK 921   NORMALIZED FREE ENERGY PREDICTED BY IDOCK:   -2.60 KCAL/MOL
REMARK 922        TOTAL FREE ENERGY PREDICTED BY IDOCK:   -6.29 KCAL/MOL
REMARK 923 INTER-LIGAND FREE ENERGY PREDICTED BY IDOCK:   -5.35 KCAL/MOL
REMARK 924 INTRA-LIGAND FREE ENERGY PREDICTED BY IDOCK:   -0.94 KCAL/MOL
REMARK 927      BINDING AFFINITY PREDICTED BY RF-SCORE:    0.00 PKD
ROOT
HETATM    1  C   UNL     1      -9.045   4.625  66.649  1.00  0.00    -0.119 C  
HETATM    2  C   UNL     1      -9.129   6.021  66.054  1.00  0.00    -0.143 C  
ENDROOT
BRANCH   2   3
HETATM    3  C   UNL     1      -9.188   7.085  67.147  1.00  0.00    -0.153 C  
BRANCH   3   4
HETATM    4  C   UNL     1     -10.547   7.783  67.168  1.00  0.00    -0.401 C  
BRANCH   4   5
HETATM    5  C   UNL     1     -10.434   9.212  66.640  1.00  0.00    -0.237 C  
BRANCH   5   6
HETATM    6  C   UNL     1      -9.241   9.938  67.258  1.00  0.00    -0.156 C  
BRANCH   6   7
HETATM    7  C   UNL     1      -9.694  11.205  67.982  1.00  0.00    -0.183 C  
BRANCH   7   8
HETATM    8  C   UNL     1     -11.172  11.487  67.725  1.00  0.00    -0.343 C  
BRANCH   8   9
HETATM    9  C   UNL     1     -11.938  11.628  69.039  1.00  0.00    -0.368 C  
BRANCH   9  10
HETATM   10  C   UNL     1     -11.707  13.004  69.655  1.00  0.00    -0.364 C  
BRANCH  10  11
HETATM   11  C   UNL     1     -12.252  14.121  68.766  1.00  0.00    -0.234 C  
BRANCH  11  12
HETATM   12  C   UNL     1     -11.544  15.434  69.087  1.00  0.00    -0.354 C  
BRANCH  12  13
HETATM   13  C   UNL     1     -10.133  15.495  68.508  1.00  0.00    -0.211 C  
BRANCH  13  14
HETATM   14  C   UNL     1     -10.101  16.398  67.298  1.00  0.00    -0.270 C  
HETATM   15  O   UNL     1     -10.731  16.211  66.265  1.00  0.00    -0.294 OA 
BRANCH  14  16
HETATM   16  O   UNL     1      -9.267  17.451  67.524  1.00  0.00    -0.231 OA 
BRANCH  16  17
HETATM   17  C   UNL     1      -9.904  18.638  68.037  1.00  0.00    -0.342 C  
HETATM   18  C   UNL     1      -8.854  19.566  68.638  1.00  0.00    -0.386 C  
HETATM   19  C   UNL     1     -10.621  19.311  66.875  1.00  0.00    -0.557 C  
ENDBRANCH  16  17
ENDBRANCH  14  16
ENDBRANCH  13  14
ENDBRANCH  12  13
ENDBRANCH  11  12
ENDBRANCH  10  11
ENDBRANCH   9  10
ENDBRANCH   8   9
ENDBRANCH   7   8
ENDBRANCH   6   7
ENDBRANCH   5   6
ENDBRANCH   4   5
ENDBRANCH   3   4
ENDBRANCH   2   3
TORSDOF 14
ENDMDL
MODEL      366
REMARK 921   NORMALIZED FREE ENERGY PREDICTED BY IDOCK:   -2.60 KCAL/MOL
REMARK 922        TOTAL FREE ENERGY PREDICTED BY IDOCK:   -6.29 KCAL/MOL
REMARK 923 INTER-LIGAND FREE ENERGY PREDICTED BY IDOCK:   -4.10 KCAL/MOL
REMARK 924 INTRA-LIGAND FREE ENERGY PREDICTED BY IDOCK:   -2.19 KCAL/MOL
REMARK 927      BINDING AFFINITY PREDICTED BY RF-SCORE:    0.00 PKD
ROOT
HETATM    1  C   UNL     1     -11.781   6.721  70.103  1.00  0.00    -0.370 C  
HETATM    2  C   UNL     1     -10.623   7.350  70.860  1.00  0.00    -0.234 C  
ENDROOT
BRANCH   2   3
HETATM    3  C   UNL     1     -10.661   6.977  72.340  1.00  0.00    -0.262 C  
BRANCH   3   4
HETATM    4  C   UNL     1     -11.721   5.910  72.615  1.00  0.00    -0.247 C  
BRANCH   4   5
HETATM    5  C   UNL     1     -11.116   4.720  73.357  1.00  0.00    -0.422 C  
BRANCH   5   6
HETATM    6  C   UNL     1      -9.765   5.079  73.972  1.00  0.00    -0.154 C  
BRANCH   6   7
HETATM    7  C   UNL     1      -8.676   4.126  73.483  1.00  0.00    -0.091 C  
BRANCH   7   8
HETATM    8  C   UNL     1      -9.245   3.089  72.519  1.00  0.00    -0.141 C  
BRANCH   8   9
HETATM    9  C   UNL     1      -8.386   2.982  71.260  1.00  0.00    -0.085 C  
BRANCH   9  10
HETATM   10  C   UNL     1      -8.596   4.195  70.360  1.00  0.00    -0.107 C  
BRANCH  10  11
HETATM   11  C   UNL     1      -9.784   4.004  69.418  1.00  0.00    -0.205 C  
BRANCH  11  12
HETATM   12  C   UNL     1      -9.333   4.165  67.970  1.00  0.00    -0.213 C  
BRANCH  12  13
HETATM   13  C   UNL     1     -10.183   5.172  67.200  1.00  0.00    -0.254 C  
BRANCH  13  14
HETATM   14  C   UNL     1      -9.495   6.516  67.160  1.00  0.00    -0.131 C  
HETATM   15  O   UNL     1      -8.316   6.711  67.425  1.00  0.00    -0.120 OA 
BRANCH  14  16
HETATM   16  O   UNL     1     -10.381   7.482  66.787  1.00  0.00    -0.288 OA 
BRANCH  16  17
HETATM   17  C   UNL     1      -9.906   8.835  66.930  1.00  0.00    -0.229 C  
HETATM   18  C   UNL     1      -9.830   9.502  65.561  1.00  0.00    -0.304 C  
HETATM   19  C   UNL     1     -10.885   9.570  67.836  1.00  0.00    -0.240 C  
ENDBRANCH  16  17
ENDBRANCH  14  16
ENDBRANCH  13  14
ENDBRANCH  12  13
ENDBRANCH  11  12
ENDBRANCH  10  11
ENDBRANCH   9  10
ENDBRANCH   8   9
ENDBRANCH   7   8
ENDBRANCH   6   7
ENDBRANCH   5   6
ENDBRANCH   4   5
ENDBRANCH   3   4
ENDBRANCH   2   3
TORSDOF 14
ENDMDL
MODEL      367
REMARK 921   NORMALIZED FREE ENERGY PREDICTED BY IDOCK:   -2.59 KCAL/MOL
REMARK 922        TOTAL FREE ENERGY PREDICTED BY IDOCK:   -6.27 KCAL/MOL
REMARK 923 INTER-LIGAND FREE ENERGY PREDICTED BY IDOCK:   -4.01 KCAL/MOL
REMARK 924 INTRA-LIGAND FREE ENERGY PREDICTED BY IDOCK:   -2.26 KCAL/MOL
REMARK 927      BINDING AFFINITY PREDICTED BY RF-SCORE:    0.00 PKD
ROOT
HETATM    1  C   UNL     1      -9.331   3.495  68.315  1.00  0.00    -0.235 C  
HETATM    2  C   UNL     1      -8.970   4.166  67.000  1.00  0.00    -0.137 C  
ENDROOT
BRANCH   2   3
HETATM    3  C   UNL     1      -7.719   5.030  67.145  1.00  0.00    -0.092 C  
BRANCH   3   4
HETATM    4  C   UNL     1      -7.443   5.363  68.611  1.00  0.00    -0.075 C  
BRANCH   4   5
HETATM    5  C   UNL     1      -7.159   6.854  68.787  1.00  0.00    -0.089 C  
BRANCH   5   6
HETATM    6  C   UNL     1      -7.335   7.610  67.472  1.00  0.00    -0.095 C  
BRANCH   6   7
HETATM    7  C   UNL     1      -8.481   8.616  67.574  1.00  0.00    -0.124 C  
BRANCH   7   8
HETATM    8  C   UNL     1      -9.552   8.337  66.523  1.00  0.00    -0.312 C  
BRANCH   8   9
HETATM    9  C   UNL     1     -10.627   7.400  67.072  1.00  0.00    -0.414 C  
BRANCH   9  10
HETATM   10  C   UNL     1     -10.765   7.563  68.582  1.00  0.00    -0.111 C  
BRANCH  10  11
HETATM   11  C   UNL     1     -11.380   6.325  69.233  1.00  0.00    -0.411 C  
BRANCH  11  12
HETATM   12  C   UNL     1     -11.690   6.606  70.700  1.00  0.00    -0.452 C  
BRANCH  12  13
HETATM   13  C   UNL     1     -10.783   7.682  71.294  1.00  0.00    -0.248 C  
BRANCH  13  14
HETATM   14  C   UNL     1      -9.973   7.113  72.435  1.00  0.00    -0.166 C  
HETATM   15  O   UNL     1      -9.796   7.663  73.513  1.00  0.00    -0.298 OA 
BRANCH  14  16
HETATM   16  O   UNL     1      -9.466   5.898  72.086  1.00  0.00    -0.150 OA 
BRANCH  16  17
HETATM   17  C   UNL     1      -9.414   4.928  73.151  1.00  0.00    -0.131 C  
HETATM   18  C   UNL     1     -10.829   4.575  73.595  1.00  0.00    -0.371 C  
HETATM   19  C   UNL     1      -8.691   3.699  72.616  1.00  0.00    -0.102 C  
ENDBRANCH  16  17
ENDBRANCH  14  16
ENDBRANCH  13  14
ENDBRANCH  12  13
ENDBRANCH  11  12
ENDBRANCH  10  11
ENDBRANCH   9  10
ENDBRANCH   8   9
ENDBRANCH   7   8
ENDBRANCH   6   7
ENDBRANCH   5   6
ENDBRANCH   4   5
ENDBRANCH   3   4
ENDBRANCH   2   3
TORSDOF 14
ENDMDL
MODEL      368
REMARK 921   NORMALIZED FREE ENERGY PREDICTED BY IDOCK:   -2.57 KCAL/MOL
REMARK 922        TOTAL FREE ENERGY PREDICTED BY IDOCK:   -6.24 KCAL/MOL
REMARK 923 INTER-LIGAND FREE ENERGY PREDICTED BY IDOCK:   -4.39 KCAL/MOL
REMARK 924 INTRA-LIGAND FREE ENERGY PREDICTED BY IDOCK:   -1.85 KCAL/MOL
REMARK 927      BINDING AFFINITY PREDICTED BY RF-SCORE:    0.00 PKD
ROOT
HETATM    1  C   UNL     1      -8.951   4.421  66.164  1.00  0.00    -0.121 C  
HETATM    2  C   UNL     1      -9.732   5.723  66.095  1.00  0.00    -0.105 C  
ENDROOT
BRANCH   2   3
HETATM    3  C   UNL     1      -9.538   6.552  67.363  1.00  0.00    -0.142 C  
BRANCH   3   4
HETATM    4  C   UNL     1     -10.768   7.408  67.658  1.00  0.00    -0.278 C  
BRANCH   4   5
HETATM    5  C   UNL     1     -10.369   8.856  67.942  1.00  0.00    -0.286 C  
BRANCH   5   6
HETATM    6  C   UNL     1      -9.226   8.927  68.952  1.00  0.00    -0.140 C  
BRANCH   6   7
HETATM    7  C   UNL     1      -9.578   9.864  70.106  1.00  0.00    -0.237 C  
BRANCH   7   8
HETATM    8  C   UNL     1     -10.909  10.569  69.854  1.00  0.00    -0.334 C  
BRANCH   8   9
HETATM    9  C   UNL     1     -11.893  10.300  70.992  1.00  0.00    -0.472 C  
BRANCH   9  10
HETATM   10  C   UNL     1     -12.152   8.804  71.139  1.00  0.00    -0.310 C  
BRANCH  10  11
HETATM   11  C   UNL     1     -11.709   8.284  72.506  1.00  0.00    -0.451 C  
BRANCH  11  12
HETATM   12  C   UNL     1     -11.435   6.786  72.429  1.00  0.00    -0.302 C  
BRANCH  12  13
HETATM   13  C   UNL     1     -10.193   6.459  71.604  1.00  0.00    -0.221 C  
BRANCH  13  14
HETATM   14  C   UNL     1      -9.230   5.624  72.414  1.00  0.00    -0.144 C  
HETATM   15  O   UNL     1      -8.916   5.842  73.576  1.00  0.00    -0.129 OA 
BRANCH  14  16
HETATM   16  O   UNL     1      -8.760   4.591  71.660  1.00  0.00    -0.112 OA 
BRANCH  16  17
HETATM   17  C   UNL     1      -9.773   3.743  71.085  1.00  0.00    -0.175 C  
HETATM   18  C   UNL     1      -9.226   3.064  69.834  1.00  0.00    -0.225 C  
HETATM   19  C   UNL     1     -10.157   2.711  72.136  1.00  0.00    -0.213 C  
ENDBRANCH  16  17
ENDBRANCH  14  16
ENDBRANCH  13  14
ENDBRANCH  12  13
ENDBRANCH  11  12
ENDBRANCH  10  11
ENDBRANCH   9  10
ENDBRANCH   8   9
ENDBRANCH   7   8
ENDBRANCH   6   7
ENDBRANCH   5   6
ENDBRANCH   4   5
ENDBRANCH   3   4
ENDBRANCH   2   3
TORSDOF 14
ENDMDL
MODEL      369
REMARK 921   NORMALIZED FREE ENERGY PREDICTED BY IDOCK:   -2.56 KCAL/MOL
REMARK 922        TOTAL FREE ENERGY PREDICTED BY IDOCK:   -6.22 KCAL/MOL
REMARK 923 INTER-LIGAND FREE ENERGY PREDICTED BY IDOCK:   -4.91 KCAL/MOL
REMARK 924 INTRA-LIGAND FREE ENERGY PREDICTED BY IDOCK:   -1.31 KCAL/MOL
REMARK 927      BINDING AFFINITY PREDICTED BY RF-SCORE:    0.00 PKD
ROOT
HETATM    1  C   UNL     1     -10.921   5.082  72.351  1.00  0.00    -0.198 C  
HETATM    2  C   UNL     1      -9.804   4.104  72.022  1.00  0.00    -0.242 C  
ENDROOT
BRANCH   2   3
HETATM    3  C   UNL     1      -8.440   4.675  72.404  1.00  0.00    -0.115 C  
BRANCH   3   4
HETATM    4  C   UNL     1      -8.442   6.202  72.345  1.00  0.00    -0.115 C  
BRANCH   4   5
HETATM    5  C   UNL     1      -7.697   6.701  71.108  1.00  0.00    -0.097 C  
BRANCH   5   6
HETATM    6  C   UNL     1      -8.668   7.221  70.049  1.00  0.00    -0.141 C  
BRANCH   6   7
HETATM    7  C   UNL     1      -8.781   6.235  68.887  1.00  0.00    -0.125 C  
BRANCH   7   8
HETATM    8  C   UNL     1      -8.293   6.863  67.585  1.00  0.00    -0.123 C  
BRANCH   8   9
HETATM    9  C   UNL     1      -9.469   7.303  66.714  1.00  0.00    -0.218 C  
BRANCH   9  10
HETATM   10  C   UNL     1      -9.017   8.320  65.671  1.00  0.00    -0.157 C  
BRANCH  10  11
HETATM   11  C   UNL     1      -9.824   9.615  65.755  1.00  0.00    -0.373 C  
BRANCH  11  12
HETATM   12  C   UNL     1     -10.569   9.680  67.084  1.00  0.00    -0.298 C  
BRANCH  12  13
HETATM   13  C   UNL     1     -10.265  10.956  67.864  1.00  0.00    -0.205 C  
BRANCH  13  14
HETATM   14  C   UNL     1     -11.544  11.690  68.189  1.00  0.00    -0.319 C  
HETATM   15  O   UNL     1     -11.890  12.038  69.310  1.00  0.00    -0.303 OA 
BRANCH  14  16
HETATM   16  O   UNL     1     -12.260  11.905  67.050  1.00  0.00    -0.492 OA 
BRANCH  16  17
HETATM   17  C   UNL     1     -11.677  12.849  66.130  1.00  0.00    -0.396 C  
HETATM   18  C   UNL     1     -12.398  12.772  64.788  1.00  0.00    -0.540 C  
HETATM   19  C   UNL     1     -11.823  14.235  66.744  1.00  0.00    -0.449 C  
ENDBRANCH  16  17
ENDBRANCH  14  16
ENDBRANCH  13  14
ENDBRANCH  12  13
ENDBRANCH  11  12
ENDBRANCH  10  11
ENDBRANCH   9  10
ENDBRANCH   8   9
ENDBRANCH   7   8
ENDBRANCH   6   7
ENDBRANCH   5   6
ENDBRANCH   4   5
ENDBRANCH   3   4
ENDBRANCH   2   3
TORSDOF 14
ENDMDL
MODEL      370
REMARK 921   NORMALIZED FREE ENERGY PREDICTED BY IDOCK:   -2.56 KCAL/MOL
REMARK 922        TOTAL FREE ENERGY PREDICTED BY IDOCK:   -6.22 KCAL/MOL
REMARK 923 INTER-LIGAND FREE ENERGY PREDICTED BY IDOCK:   -4.52 KCAL/MOL
REMARK 924 INTRA-LIGAND FREE ENERGY PREDICTED BY IDOCK:   -1.70 KCAL/MOL
REMARK 927      BINDING AFFINITY PREDICTED BY RF-SCORE:    0.00 PKD
ROOT
HETATM    1  C   UNL     1      -7.096   7.156  69.734  1.00  0.00    -0.073 C  
HETATM    2  C   UNL     1      -6.980   7.930  71.037  1.00  0.00    -0.049 C  
ENDROOT
BRANCH   2   3
HETATM    3  C   UNL     1      -7.800   7.273  72.145  1.00  0.00    -0.092 C  
BRANCH   3   4
HETATM    4  C   UNL     1      -8.567   6.059  71.621  1.00  0.00    -0.131 C  
BRANCH   4   5
HETATM    5  C   UNL     1      -9.407   5.426  72.729  1.00  0.00    -0.148 C  
BRANCH   5   6
HETATM    6  C   UNL     1     -10.901   5.584  72.450  1.00  0.00    -0.301 C  
BRANCH   6   7
HETATM    7  C   UNL     1     -11.137   6.078  71.024  1.00  0.00    -0.348 C  
BRANCH   7   8
HETATM    8  C   UNL     1     -12.121   7.245  71.002  1.00  0.00    -0.361 C  
BRANCH   8   9
HETATM    9  C   UNL     1     -11.827   8.231  72.131  1.00  0.00    -0.431 C  
BRANCH   9  10
HETATM   10  C   UNL     1     -11.955   9.669  71.639  1.00  0.00    -0.470 C  
BRANCH  10  11
HETATM   11  C   UNL     1     -11.099   9.923  70.400  1.00  0.00    -0.382 C  
BRANCH  11  12
HETATM   12  C   UNL     1     -11.903  10.697  69.360  1.00  0.00    -0.325 C  
BRANCH  12  13
HETATM   13  C   UNL     1     -11.182  10.799  68.018  1.00  0.00    -0.372 C  
BRANCH  13  14
HETATM   14  C   UNL     1     -10.705  12.213  67.785  1.00  0.00    -0.209 C  
HETATM   15  O   UNL     1     -11.430  13.167  67.540  1.00  0.00    -0.291 OA 
BRANCH  14  16
HETATM   16  O   UNL     1      -9.347  12.269  67.886  1.00  0.00    -0.177 OA 
BRANCH  16  17
HETATM   17  C   UNL     1      -8.659  11.040  67.582  1.00  0.00    -0.125 C  
HETATM   18  C   UNL     1      -7.856  11.205  66.297  1.00  0.00    -0.109 C  
HETATM   19  C   UNL     1      -7.744  10.726  68.757  1.00  0.00    -0.121 C  
ENDBRANCH  16  17
ENDBRANCH  14  16
ENDBRANCH  13  14
ENDBRANCH  12  13
ENDBRANCH  11  12
ENDBRANCH  10  11
ENDBRANCH   9  10
ENDBRANCH   8   9
ENDBRANCH   7   8
ENDBRANCH   6   7
ENDBRANCH   5   6
ENDBRANCH   4   5
ENDBRANCH   3   4
ENDBRANCH   2   3
TORSDOF 14
ENDMDL
MODEL      371
REMARK 921   NORMALIZED FREE ENERGY PREDICTED BY IDOCK:   -2.55 KCAL/MOL
REMARK 922        TOTAL FREE ENERGY PREDICTED BY IDOCK:   -6.20 KCAL/MOL
REMARK 923 INTER-LIGAND FREE ENERGY PREDICTED BY IDOCK:   -4.63 KCAL/MOL
REMARK 924 INTRA-LIGAND FREE ENERGY PREDICTED BY IDOCK:   -1.57 KCAL/MOL
REMARK 927      BINDING AFFINITY PREDICTED BY RF-SCORE:    0.00 PKD
ROOT
HETATM    1  C   UNL     1      -7.415   6.779  70.004  1.00  0.00    -0.094 C  
HETATM    2  C   UNL     1      -7.154   7.650  71.222  1.00  0.00    -0.054 C  
ENDROOT
BRANCH   2   3
HETATM    3  C   UNL     1      -8.192   7.399  72.314  1.00  0.00    -0.115 C  
BRANCH   3   4
HETATM    4  C   UNL     1      -8.780   5.992  72.206  1.00  0.00    -0.131 C  
BRANCH   4   5
HETATM    5  C   UNL     1      -9.834   5.758  73.287  1.00  0.00    -0.174 C  
BRANCH   5   6
HETATM    6  C   UNL     1     -11.195   5.436  72.674  1.00  0.00    -0.333 C  
BRANCH   6   7
HETATM    7  C   UNL     1     -11.276   5.946  71.236  1.00  0.00    -0.280 C  
BRANCH   7   8
HETATM    8  C   UNL     1     -12.277   7.091  71.114  1.00  0.00    -0.427 C  
BRANCH   8   9
HETATM    9  C   UNL     1     -11.972   8.194  72.127  1.00  0.00    -0.413 C  
BRANCH   9  10
HETATM   10  C   UNL     1     -11.965   9.561  71.450  1.00  0.00    -0.464 C  
BRANCH  10  11
HETATM   11  C   UNL     1     -11.396   9.489  70.034  1.00  0.00    -0.204 C  
BRANCH  11  12
HETATM   12  C   UNL     1      -9.917   9.863  70.046  1.00  0.00    -0.302 C  
BRANCH  12  13
HETATM   13  C   UNL     1      -9.247   9.650  68.691  1.00  0.00    -0.136 C  
BRANCH  13  14
HETATM   14  C   UNL     1     -10.263   9.195  67.670  1.00  0.00    -0.236 C  
HETATM   15  O   UNL     1     -10.487   8.030  67.372  1.00  0.00    -0.258 OA 
BRANCH  14  16
HETATM   16  O   UNL     1     -10.893  10.275  67.127  1.00  0.00    -0.262 OA 
BRANCH  16  17
HETATM   17  C   UNL     1     -10.027  11.359  66.742  1.00  0.00    -0.208 C  
HETATM   18  C   UNL     1      -9.752  11.291  65.244  1.00  0.00    -0.280 C  
HETATM   19  C   UNL     1     -10.731  12.659  67.105  1.00  0.00    -0.264 C  
ENDBRANCH  16  17
ENDBRANCH  14  16
ENDBRANCH  13  14
ENDBRANCH  12  13
ENDBRANCH  11  12
ENDBRANCH  10  11
ENDBRANCH   9  10
ENDBRANCH   8   9
ENDBRANCH   7   8
ENDBRANCH   6   7
ENDBRANCH   5   6
ENDBRANCH   4   5
ENDBRANCH   3   4
ENDBRANCH   2   3
TORSDOF 14
ENDMDL
MODEL      372
REMARK 921   NORMALIZED FREE ENERGY PREDICTED BY IDOCK:   -2.55 KCAL/MOL
REMARK 922        TOTAL FREE ENERGY PREDICTED BY IDOCK:   -6.20 KCAL/MOL
REMARK 923 INTER-LIGAND FREE ENERGY PREDICTED BY IDOCK:   -5.14 KCAL/MOL
REMARK 924 INTRA-LIGAND FREE ENERGY PREDICTED BY IDOCK:   -1.07 KCAL/MOL
REMARK 927      BINDING AFFINITY PREDICTED BY RF-SCORE:    0.00 PKD
ROOT
HETATM    1  C   UNL     1     -11.433  15.850  68.619  1.00  0.00    -0.391 C  
HETATM    2  C   UNL     1     -11.751  14.427  68.191  1.00  0.00    -0.377 C  
ENDROOT
BRANCH   2   3
HETATM    3  C   UNL     1     -11.762  14.296  66.670  1.00  0.00    -0.417 C  
BRANCH   3   4
HETATM    4  C   UNL     1     -11.418  12.873  66.233  1.00  0.00    -0.395 C  
BRANCH   4   5
HETATM    5  C   UNL     1     -10.545  12.179  67.277  1.00  0.00    -0.255 C  
BRANCH   5   6
HETATM    6  C   UNL     1     -10.629  10.659  67.148  1.00  0.00    -0.312 C  
BRANCH   6   7
HETATM    7  C   UNL     1     -11.060  10.025  68.469  1.00  0.00    -0.219 C  
BRANCH   7   8
HETATM    8  C   UNL     1     -11.929  10.982  69.280  1.00  0.00    -0.410 C  
BRANCH   8   9
HETATM    9  C   UNL     1     -12.049  10.517  70.731  1.00  0.00    -0.470 C  
BRANCH   9  10
HETATM   10  C   UNL     1     -11.504   9.101  70.890  1.00  0.00    -0.357 C  
BRANCH  10  11
HETATM   11  C   UNL     1     -10.466   9.014  72.007  1.00  0.00    -0.309 C  
BRANCH  11  12
HETATM   12  C   UNL     1     -10.565   7.663  72.707  1.00  0.00    -0.381 C  
BRANCH  12  13
HETATM   13  C   UNL     1      -9.937   6.534  71.893  1.00  0.00    -0.192 C  
BRANCH  13  14
HETATM   14  C   UNL     1      -8.538   6.248  72.384  1.00  0.00    -0.121 C  
HETATM   15  O   UNL     1      -7.743   7.094  72.771  1.00  0.00    -0.083 OA 
BRANCH  14  16
HETATM   16  O   UNL     1      -8.290   4.910  72.332  1.00  0.00    -0.116 OA 
BRANCH  16  17
HETATM   17  C   UNL     1      -9.266   4.080  72.992  1.00  0.00    -0.110 C  
HETATM   18  C   UNL     1      -9.065   2.625  72.583  1.00  0.00    -0.111 C  
HETATM   19  C   UNL     1      -9.072   4.253  74.493  1.00  0.00    -0.108 C  
ENDBRANCH  16  17
ENDBRANCH  14  16
ENDBRANCH  13  14
ENDBRANCH  12  13
ENDBRANCH  11  12
ENDBRANCH  10  11
ENDBRANCH   9  10
ENDBRANCH   8   9
ENDBRANCH   7   8
ENDBRANCH   6   7
ENDBRANCH   5   6
ENDBRANCH   4   5
ENDBRANCH   3   4
ENDBRANCH   2   3
TORSDOF 14
ENDMDL
MODEL      373
REMARK 921   NORMALIZED FREE ENERGY PREDICTED BY IDOCK:   -2.55 KCAL/MOL
REMARK 922        TOTAL FREE ENERGY PREDICTED BY IDOCK:   -6.20 KCAL/MOL
REMARK 923 INTER-LIGAND FREE ENERGY PREDICTED BY IDOCK:   -5.38 KCAL/MOL
REMARK 924 INTRA-LIGAND FREE ENERGY PREDICTED BY IDOCK:   -0.81 KCAL/MOL
REMARK 927      BINDING AFFINITY PREDICTED BY RF-SCORE:    0.00 PKD
ROOT
HETATM    1  C   UNL     1     -14.310  15.087  72.311  1.00  0.00    -0.540 C  
HETATM    2  C   UNL     1     -13.246  15.555  71.331  1.00  0.00    -0.587 C  
ENDROOT
BRANCH   2   3
HETATM    3  C   UNL     1     -11.961  14.746  71.483  1.00  0.00    -0.415 C  
BRANCH   3   4
HETATM    4  C   UNL     1     -11.936  13.559  70.520  1.00  0.00    -0.344 C  
BRANCH   4   5
HETATM    5  C   UNL     1     -11.506  14.000  69.122  1.00  0.00    -0.340 C  
BRANCH   5   6
HETATM    6  C   UNL     1     -11.783  12.912  68.088  1.00  0.00    -0.395 C  
BRANCH   6   7
HETATM    7  C   UNL     1     -10.481  12.418  67.458  1.00  0.00    -0.229 C  
BRANCH   7   8
HETATM    8  C   UNL     1     -10.680  11.070  66.770  1.00  0.00    -0.319 C  
BRANCH   8   9
HETATM    9  C   UNL     1     -10.357   9.918  67.719  1.00  0.00    -0.268 C  
BRANCH   9  10
HETATM   10  C   UNL     1     -10.203  10.424  69.150  1.00  0.00    -0.239 C  
BRANCH  10  11
HETATM   11  C   UNL     1     -11.379  10.004  70.030  1.00  0.00    -0.334 C  
BRANCH  11  12
HETATM   12  C   UNL     1     -10.880   9.163  71.201  1.00  0.00    -0.381 C  
BRANCH  12  13
HETATM   13  C   UNL     1     -10.936   7.665  70.913  1.00  0.00    -0.261 C  
BRANCH  13  14
HETATM   14  C   UNL     1     -10.030   6.915  71.860  1.00  0.00    -0.171 C  
HETATM   15  O   UNL     1     -10.381   5.996  72.588  1.00  0.00    -0.187 OA 
BRANCH  14  16
HETATM   16  O   UNL     1      -8.764   7.413  71.787  1.00  0.00    -0.115 OA 
BRANCH  16  17
HETATM   17  C   UNL     1      -8.184   7.418  70.468  1.00  0.00    -0.127 C  
HETATM   18  C   UNL     1      -6.988   8.363  70.436  1.00  0.00    -0.037 C  
HETATM   19  C   UNL     1      -7.756   5.992  70.151  1.00  0.00    -0.096 C  
ENDBRANCH  16  17
ENDBRANCH  14  16
ENDBRANCH  13  14
ENDBRANCH  12  13
ENDBRANCH  11  12
ENDBRANCH  10  11
ENDBRANCH   9  10
ENDBRANCH   8   9
ENDBRANCH   7   8
ENDBRANCH   6   7
ENDBRANCH   5   6
ENDBRANCH   4   5
ENDBRANCH   3   4
ENDBRANCH   2   3
TORSDOF 14
ENDMDL
MODEL      374
REMARK 921   NORMALIZED FREE ENERGY PREDICTED BY IDOCK:   -2.55 KCAL/MOL
REMARK 922        TOTAL FREE ENERGY PREDICTED BY IDOCK:   -6.20 KCAL/MOL
REMARK 923 INTER-LIGAND FREE ENERGY PREDICTED BY IDOCK:   -5.04 KCAL/MOL
REMARK 924 INTRA-LIGAND FREE ENERGY PREDICTED BY IDOCK:   -1.15 KCAL/MOL
REMARK 927      BINDING AFFINITY PREDICTED BY RF-SCORE:    0.00 PKD
ROOT
HETATM    1  C   UNL     1      -8.222   9.359  64.940  1.00  0.00    -0.143 C  
HETATM    2  C   UNL     1      -9.241   8.402  65.536  1.00  0.00    -0.057 C  
ENDROOT
BRANCH   2   3
HETATM    3  C   UNL     1      -9.963   9.033  66.725  1.00  0.00    -0.332 C  
BRANCH   3   4
HETATM    4  C   UNL     1     -10.507   7.965  67.673  1.00  0.00    -0.303 C  
BRANCH   4   5
HETATM    5  C   UNL     1     -10.413   8.429  69.126  1.00  0.00    -0.218 C  
BRANCH   5   6
HETATM    6  C   UNL     1     -10.553   9.946  69.234  1.00  0.00    -0.245 C  
BRANCH   6   7
HETATM    7  C   UNL     1     -12.018  10.364  69.129  1.00  0.00    -0.056 C  
BRANCH   7   8
HETATM    8  C   UNL     1     -12.540  10.882  70.466  1.00  0.00    -0.409 C  
BRANCH   8   9
HETATM    9  C   UNL     1     -11.855  12.194  70.849  1.00  0.00     0.247 C  
BRANCH   9  10
HETATM   10  C   UNL     1     -12.888  13.282  71.123  1.00  0.00    -0.363 C  
BRANCH  10  11
HETATM   11  C   UNL     1     -12.704  14.484  70.199  1.00  0.00    -0.264 C  
BRANCH  11  12
HETATM   12  C   UNL     1     -11.495  14.267  69.295  1.00  0.00    -0.330 C  
BRANCH  12  13
HETATM   13  C   UNL     1     -11.777  14.637  67.841  1.00  0.00    -0.379 C  
BRANCH  13  14
HETATM   14  C   UNL     1     -11.495  13.461  66.936  1.00  0.00    -0.342 C  
HETATM   15  O   UNL     1     -10.628  12.619  67.128  1.00  0.00    -0.233 OA 
BRANCH  14  16
HETATM   16  O   UNL     1     -12.347  13.476  65.873  1.00  0.00    -0.438 OA 
BRANCH  16  17
HETATM   17  C   UNL     1     -11.734  13.772  64.603  1.00  0.00    -0.395 C  
HETATM   18  C   UNL     1     -11.979  12.621  63.633  1.00  0.00    -0.615 C  
HETATM   19  C   UNL     1     -12.359  15.060  64.083  1.00  0.00    -0.167 C  
ENDBRANCH  16  17
ENDBRANCH  14  16
ENDBRANCH  13  14
ENDBRANCH  12  13
ENDBRANCH  11  12
ENDBRANCH  10  11
ENDBRANCH   9  10
ENDBRANCH   8   9
ENDBRANCH   7   8
ENDBRANCH   6   7
ENDBRANCH   5   6
ENDBRANCH   4   5
ENDBRANCH   3   4
ENDBRANCH   2   3
TORSDOF 14
ENDMDL
MODEL      375
REMARK 921   NORMALIZED FREE ENERGY PREDICTED BY IDOCK:   -2.54 KCAL/MOL
REMARK 922        TOTAL FREE ENERGY PREDICTED BY IDOCK:   -6.18 KCAL/MOL
REMARK 923 INTER-LIGAND FREE ENERGY PREDICTED BY IDOCK:   -4.86 KCAL/MOL
REMARK 924 INTRA-LIGAND FREE ENERGY PREDICTED BY IDOCK:   -1.32 KCAL/MOL
REMARK 927      BINDING AFFINITY PREDICTED BY RF-SCORE:    0.00 PKD
ROOT
HETATM    1  C   UNL     1     -11.104  12.346  64.155  1.00  0.00    -0.425 C  
HETATM    2  C   UNL     1     -10.964  13.241  65.376  1.00  0.00    -0.299 C  
ENDROOT
BRANCH   2   3
HETATM    3  C   UNL     1     -11.831  12.742  66.529  1.00  0.00    -0.471 C  
BRANCH   3   4
HETATM    4  C   UNL     1     -10.996  12.501  67.786  1.00  0.00    -0.270 C  
BRANCH   4   5
HETATM    5  C   UNL     1     -10.277  11.155  67.712  1.00  0.00    -0.205 C  
BRANCH   5   6
HETATM    6  C   UNL     1     -10.184  10.501  69.089  1.00  0.00    -0.241 C  
BRANCH   6   7
HETATM    7  C   UNL     1      -9.018   9.515  69.143  1.00  0.00    -0.148 C  
BRANCH   7   8
HETATM    8  C   UNL     1      -8.233   9.519  67.834  1.00  0.00    -0.114 C  
BRANCH   8   9
HETATM    9  C   UNL     1      -7.658   8.135  67.536  1.00  0.00    -0.101 C  
BRANCH   9  10
HETATM   10  C   UNL     1      -7.432   7.355  68.827  1.00  0.00    -0.101 C  
BRANCH  10  11
HETATM   11  C   UNL     1      -8.060   5.963  68.766  1.00  0.00    -0.103 C  
BRANCH  11  12
HETATM   12  C   UNL     1      -8.576   5.563  70.144  1.00  0.00    -0.122 C  
BRANCH  12  13
HETATM   13  C   UNL     1     -10.034   5.108  70.114  1.00  0.00    -0.324 C  
BRANCH  13  14
HETATM   14  C   UNL     1     -10.929   6.246  69.685  1.00  0.00    -0.374 C  
HETATM   15  O   UNL     1     -11.534   6.303  68.623  1.00  0.00    -0.263 OA 
BRANCH  14  16
HETATM   16  O   UNL     1     -10.964   7.203  70.655  1.00  0.00    -0.242 OA 
BRANCH  16  17
HETATM   17  C   UNL     1     -11.814   6.903  71.779  1.00  0.00    -0.316 C  
HETATM   18  C   UNL     1     -11.092   7.251  73.077  1.00  0.00    -0.361 C  
HETATM   19  C   UNL     1     -13.083   7.731  71.627  1.00  0.00    -0.378 C  
ENDBRANCH  16  17
ENDBRANCH  14  16
ENDBRANCH  13  14
ENDBRANCH  12  13
ENDBRANCH  11  12
ENDBRANCH  10  11
ENDBRANCH   9  10
ENDBRANCH   8   9
ENDBRANCH   7   8
ENDBRANCH   6   7
ENDBRANCH   5   6
ENDBRANCH   4   5
ENDBRANCH   3   4
ENDBRANCH   2   3
TORSDOF 14
ENDMDL
MODEL      376
REMARK 921   NORMALIZED FREE ENERGY PREDICTED BY IDOCK:   -2.53 KCAL/MOL
REMARK 922        TOTAL FREE ENERGY PREDICTED BY IDOCK:   -6.17 KCAL/MOL
REMARK 923 INTER-LIGAND FREE ENERGY PREDICTED BY IDOCK:   -4.22 KCAL/MOL
REMARK 924 INTRA-LIGAND FREE ENERGY PREDICTED BY IDOCK:   -1.95 KCAL/MOL
REMARK 927      BINDING AFFINITY PREDICTED BY RF-SCORE:    0.00 PKD
ROOT
HETATM    1  C   UNL     1     -10.304   5.593  68.735  1.00  0.00    -0.288 C  
HETATM    2  C   UNL     1     -10.700   6.961  69.266  1.00  0.00    -0.265 C  
ENDROOT
BRANCH   2   3
HETATM    3  C   UNL     1     -11.031   6.901  70.756  1.00  0.00    -0.297 C  
BRANCH   3   4
HETATM    4  C   UNL     1     -12.528   7.093  70.998  1.00  0.00    -0.359 C  
BRANCH   4   5
HETATM    5  C   UNL     1     -12.788   8.341  71.839  1.00  0.00    -0.371 C  
BRANCH   5   6
HETATM    6  C   UNL     1     -13.017   9.566  70.957  1.00  0.00    -0.277 C  
BRANCH   6   7
HETATM    7  C   UNL     1     -11.917  10.604  71.171  1.00  0.00    -0.401 C  
BRANCH   7   8
HETATM    8  C   UNL     1     -11.067  10.772  69.914  1.00  0.00    -0.339 C  
BRANCH   8   9
HETATM    9  C   UNL     1     -11.859  10.393  68.664  1.00  0.00     0.052 C  
BRANCH   9  10
HETATM   10  C   UNL     1     -10.920  10.087  67.502  1.00  0.00    -0.276 C  
BRANCH  10  11
HETATM   11  C   UNL     1      -9.651  10.936  67.560  1.00  0.00    -0.171 C  
BRANCH  11  12
HETATM   12  C   UNL     1      -9.229  11.340  66.151  1.00  0.00    -0.222 C  
BRANCH  12  13
HETATM   13  C   UNL     1      -9.669  10.329  65.095  1.00  0.00    -0.364 C  
BRANCH  13  14
HETATM   14  C   UNL     1      -8.465   9.734  64.405  1.00  0.00    -0.179 C  
HETATM   15  O   UNL     1      -7.543  10.377  63.922  1.00  0.00    -0.119 OA 
BRANCH  14  16
HETATM   16  O   UNL     1      -8.557   8.375  64.397  1.00  0.00    -0.095 OA 
BRANCH  16  17
HETATM   17  C   UNL     1      -8.624   7.758  65.697  1.00  0.00    -0.127 C  
HETATM   18  C   UNL     1      -8.863   6.260  65.544  1.00  0.00    -0.042 C  
HETATM   19  C   UNL     1      -7.300   8.026  66.400  1.00  0.00    -0.083 C  
ENDBRANCH  16  17
ENDBRANCH  14  16
ENDBRANCH  13  14
ENDBRANCH  12  13
ENDBRANCH  11  12
ENDBRANCH  10  11
ENDBRANCH   9  10
ENDBRANCH   8   9
ENDBRANCH   7   8
ENDBRANCH   6   7
ENDBRANCH   5   6
ENDBRANCH   4   5
ENDBRANCH   3   4
ENDBRANCH   2   3
TORSDOF 14
ENDMDL
MODEL      377
REMARK 921   NORMALIZED FREE ENERGY PREDICTED BY IDOCK:   -2.53 KCAL/MOL
REMARK 922        TOTAL FREE ENERGY PREDICTED BY IDOCK:   -6.17 KCAL/MOL
REMARK 923 INTER-LIGAND FREE ENERGY PREDICTED BY IDOCK:   -4.47 KCAL/MOL
REMARK 924 INTRA-LIGAND FREE ENERGY PREDICTED BY IDOCK:   -1.70 KCAL/MOL
REMARK 927      BINDING AFFINITY PREDICTED BY RF-SCORE:    0.00 PKD
ROOT
HETATM    1  C   UNL     1     -10.802  15.794  64.970  1.00  0.00    -0.461 C  
HETATM    2  C   UNL     1      -9.692  16.153  65.945  1.00  0.00    -0.374 C  
ENDROOT
BRANCH   2   3
HETATM    3  C   UNL     1     -10.152  15.987  67.392  1.00  0.00    -0.258 C  
BRANCH   3   4
HETATM    4  C   UNL     1      -9.060  15.352  68.251  1.00  0.00    -0.187 C  
BRANCH   4   5
HETATM    5  C   UNL     1      -8.181  14.422  67.416  1.00  0.00    -0.215 C  
BRANCH   5   6
HETATM    6  C   UNL     1      -8.421  12.958  67.781  1.00  0.00    -0.185 C  
BRANCH   6   7
HETATM    7  C   UNL     1      -8.841  12.155  66.551  1.00  0.00    -0.151 C  
BRANCH   7   8
HETATM    8  C   UNL     1     -10.253  12.529  66.107  1.00  0.00    -0.269 C  
BRANCH   8   9
HETATM    9  C   UNL     1     -11.133  11.286  65.979  1.00  0.00    -0.181 C  
BRANCH   9  10
HETATM   10  C   UNL     1     -10.820  10.286  67.087  1.00  0.00    -0.278 C  
BRANCH  10  11
HETATM   11  C   UNL     1     -11.411  10.721  68.428  1.00  0.00    -0.358 C  
BRANCH  11  12
HETATM   12  C   UNL     1     -10.580  10.152  69.573  1.00  0.00    -0.269 C  
BRANCH  12  13
HETATM   13  C   UNL     1      -9.289   9.496  69.091  1.00  0.00    -0.163 C  
BRANCH  13  14
HETATM   14  C   UNL     1      -9.036   8.215  69.850  1.00  0.00    -0.151 C  
HETATM   15  O   UNL     1      -7.945   7.845  70.261  1.00  0.00    -0.098 OA 
BRANCH  14  16
HETATM   16  O   UNL     1     -10.203   7.530  70.009  1.00  0.00    -0.206 OA 
BRANCH  16  17
HETATM   17  C   UNL     1     -10.333   6.824  71.258  1.00  0.00    -0.204 C  
HETATM   18  C   UNL     1     -10.950   7.744  72.307  1.00  0.00    -0.345 C  
HETATM   19  C   UNL     1     -11.223   5.614  71.010  1.00  0.00    -0.120 C  
ENDBRANCH  16  17
ENDBRANCH  14  16
ENDBRANCH  13  14
ENDBRANCH  12  13
ENDBRANCH  11  12
ENDBRANCH  10  11
ENDBRANCH   9  10
ENDBRANCH   8   9
ENDBRANCH   7   8
ENDBRANCH   6   7
ENDBRANCH   5   6
ENDBRANCH   4   5
ENDBRANCH   3   4
ENDBRANCH   2   3
TORSDOF 14
ENDMDL
MODEL      378
REMARK 921   NORMALIZED FREE ENERGY PREDICTED BY IDOCK:   -2.53 KCAL/MOL
REMARK 922        TOTAL FREE ENERGY PREDICTED BY IDOCK:   -6.17 KCAL/MOL
REMARK 923 INTER-LIGAND FREE ENERGY PREDICTED BY IDOCK:   -4.49 KCAL/MOL
REMARK 924 INTRA-LIGAND FREE ENERGY PREDICTED BY IDOCK:   -1.68 KCAL/MOL
REMARK 927      BINDING AFFINITY PREDICTED BY RF-SCORE:    0.00 PKD
ROOT
HETATM    1  C   UNL     1      -8.645   4.243  66.065  1.00  0.00    -0.113 C  
HETATM    2  C   UNL     1     -10.089   4.418  66.509  1.00  0.00    -0.217 C  
ENDROOT
BRANCH   2   3
HETATM    3  C   UNL     1     -10.203   5.461  67.619  1.00  0.00    -0.236 C  
BRANCH   3   4
HETATM    4  C   UNL     1     -10.989   6.684  67.151  1.00  0.00    -0.478 C  
BRANCH   4   5
HETATM    5  C   UNL     1     -10.051   7.848  66.835  1.00  0.00    -0.362 C  
BRANCH   5   6
HETATM    6  C   UNL     1      -8.837   7.847  67.762  1.00  0.00    -0.122 C  
BRANCH   6   7
HETATM    7  C   UNL     1      -8.666   9.209  68.432  1.00  0.00    -0.129 C  
BRANCH   7   8
HETATM    8  C   UNL     1      -9.954  10.024  68.357  1.00  0.00    -0.178 C  
BRANCH   8   9
HETATM    9  C   UNL     1     -10.492  10.327  69.755  1.00  0.00    -0.300 C  
BRANCH   9  10
HETATM   10  C   UNL     1     -11.507   9.272  70.182  1.00  0.00    -0.138 C  
BRANCH  10  11
HETATM   11  C   UNL     1     -12.030   9.527  71.595  1.00  0.00    -0.474 C  
BRANCH  11  12
HETATM   12  C   UNL     1     -11.949   8.247  72.420  1.00  0.00    -0.447 C  
BRANCH  12  13
HETATM   13  C   UNL     1     -10.510   7.800  72.667  1.00  0.00    -0.363 C  
BRANCH  13  14
HETATM   14  C   UNL     1     -10.450   6.301  72.840  1.00  0.00    -0.218 C  
HETATM   15  O   UNL     1     -11.422   5.567  72.960  1.00  0.00    -0.291 OA 
BRANCH  14  16
HETATM   16  O   UNL     1      -9.153   5.884  72.847  1.00  0.00    -0.124 OA 
BRANCH  16  17
HETATM   17  C   UNL     1      -8.345   6.380  71.761  1.00  0.00    -0.120 C  
HETATM   18  C   UNL     1      -6.982   6.812  72.290  1.00  0.00    -0.067 C  
HETATM   19  C   UNL     1      -8.201   5.254  70.746  1.00  0.00    -0.110 C  
ENDBRANCH  16  17
ENDBRANCH  14  16
ENDBRANCH  13  14
ENDBRANCH  12  13
ENDBRANCH  11  12
ENDBRANCH  10  11
ENDBRANCH   9  10
ENDBRANCH   8   9
ENDBRANCH   7   8
ENDBRANCH   6   7
ENDBRANCH   5   6
ENDBRANCH   4   5
ENDBRANCH   3   4
ENDBRANCH   2   3
TORSDOF 14
ENDMDL
MODEL      379
REMARK 921   NORMALIZED FREE ENERGY PREDICTED BY IDOCK:   -2.53 KCAL/MOL
REMARK 922        TOTAL FREE ENERGY PREDICTED BY IDOCK:   -6.16 KCAL/MOL
REMARK 923 INTER-LIGAND FREE ENERGY PREDICTED BY IDOCK:   -4.16 KCAL/MOL
REMARK 924 INTRA-LIGAND FREE ENERGY PREDICTED BY IDOCK:   -2.00 KCAL/MOL
REMARK 927      BINDING AFFINITY PREDICTED BY RF-SCORE:    0.00 PKD
ROOT
HETATM    1  C   UNL     1      -7.965   8.906  70.958  1.00  0.00    -0.183 C  
HETATM    2  C   UNL     1      -8.151   9.930  69.851  1.00  0.00    -0.200 C  
ENDROOT
BRANCH   2   3
HETATM    3  C   UNL     1      -7.175   9.687  68.702  1.00  0.00    -0.073 C  
BRANCH   3   4
HETATM    4  C   UNL     1      -6.962   8.193  68.463  1.00  0.00    -0.072 C  
BRANCH   4   5
HETATM    5  C   UNL     1      -6.842   7.892  66.970  1.00  0.00    -0.073 C  
BRANCH   5   6
HETATM    6  C   UNL     1      -7.406   9.034  66.127  1.00  0.00    -0.091 C  
BRANCH   6   7
HETATM    7  C   UNL     1      -8.730   8.629  65.482  1.00  0.00    -0.219 C  
BRANCH   7   8
HETATM    8  C   UNL     1      -9.905   9.344  66.144  1.00  0.00    -0.356 C  
BRANCH   8   9
HETATM    9  C   UNL     1     -10.452   8.528  67.314  1.00  0.00    -0.366 C  
BRANCH   9  10
HETATM   10  C   UNL     1     -10.538   7.050  66.949  1.00  0.00    -0.372 C  
BRANCH  10  11
HETATM   11  C   UNL     1     -10.117   6.152  68.112  1.00  0.00    -0.181 C  
BRANCH  11  12
HETATM   12  C   UNL     1     -11.204   6.140  69.181  1.00  0.00    -0.409 C  
BRANCH  12  13
HETATM   13  C   UNL     1     -10.787   6.878  70.450  1.00  0.00    -0.297 C  
BRANCH  13  14
HETATM   14  C   UNL     1     -11.298   6.152  71.671  1.00  0.00    -0.284 C  
HETATM   15  O   UNL     1     -12.133   6.590  72.451  1.00  0.00    -0.228 OA 
BRANCH  14  16
HETATM   16  O   UNL     1     -10.691   4.937  71.780  1.00  0.00    -0.144 OA 
BRANCH  16  17
HETATM   17  C   UNL     1     -10.307   4.562  73.117  1.00  0.00    -0.180 C  
HETATM   18  C   UNL     1     -10.916   3.208  73.466  1.00  0.00    -0.323 C  
HETATM   19  C   UNL     1      -8.787   4.498  73.156  1.00  0.00    -0.110 C  
ENDBRANCH  16  17
ENDBRANCH  14  16
ENDBRANCH  13  14
ENDBRANCH  12  13
ENDBRANCH  11  12
ENDBRANCH  10  11
ENDBRANCH   9  10
ENDBRANCH   8   9
ENDBRANCH   7   8
ENDBRANCH   6   7
ENDBRANCH   5   6
ENDBRANCH   4   5
ENDBRANCH   3   4
ENDBRANCH   2   3
TORSDOF 14
ENDMDL
MODEL      380
REMARK 921   NORMALIZED FREE ENERGY PREDICTED BY IDOCK:   -2.53 KCAL/MOL
REMARK 922        TOTAL FREE ENERGY PREDICTED BY IDOCK:   -6.16 KCAL/MOL
REMARK 923 INTER-LIGAND FREE ENERGY PREDICTED BY IDOCK:   -3.93 KCAL/MOL
REMARK 924 INTRA-LIGAND FREE ENERGY PREDICTED BY IDOCK:   -2.23 KCAL/MOL
REMARK 927      BINDING AFFINITY PREDICTED BY RF-SCORE:    0.00 PKD
ROOT
HETATM    1  C   UNL     1     -11.508   6.537  69.311  1.00  0.00    -0.307 C  
HETATM    2  C   UNL     1     -11.181   5.842  70.623  1.00  0.00    -0.284 C  
ENDROOT
BRANCH   2   3
HETATM    3  C   UNL     1      -9.930   4.976  70.492  1.00  0.00    -0.312 C  
BRANCH   3   4
HETATM    4  C   UNL     1      -9.568   4.322  71.825  1.00  0.00    -0.218 C  
BRANCH   4   5
HETATM    5  C   UNL     1      -8.140   4.679  72.237  1.00  0.00    -0.102 C  
BRANCH   5   6
HETATM    6  C   UNL     1      -8.063   6.100  72.792  1.00  0.00    -0.106 C  
BRANCH   6   7
HETATM    7  C   UNL     1      -9.192   6.354  73.790  1.00  0.00    -0.147 C  
BRANCH   7   8
HETATM    8  C   UNL     1      -9.929   7.651  73.467  1.00  0.00    -0.354 C  
BRANCH   8   9
HETATM    9  C   UNL     1      -9.177   8.459  72.410  1.00  0.00    -0.345 C  
BRANCH   9  10
HETATM   10  C   UNL     1     -10.151   9.081  71.414  1.00  0.00    -0.399 C  
BRANCH  10  11
HETATM   11  C   UNL     1      -9.423   9.711  70.227  1.00  0.00    -0.300 C  
BRANCH  11  12
HETATM   12  C   UNL     1      -8.400   8.730  69.663  1.00  0.00    -0.126 C  
BRANCH  12  13
HETATM   13  C   UNL     1      -8.745   8.275  68.247  1.00  0.00    -0.136 C  
BRANCH  13  14
HETATM   14  C   UNL     1      -7.763   7.227  67.780  1.00  0.00    -0.112 C  
HETATM   15  O   UNL     1      -6.552   7.382  67.703  1.00  0.00    -0.056 OA 
BRANCH  14  16
HETATM   16  O   UNL     1      -8.425   6.081  67.455  1.00  0.00    -0.106 OA 
BRANCH  16  17
HETATM   17  C   UNL     1      -9.025   6.072  66.145  1.00  0.00    -0.152 C  
HETATM   18  C   UNL     1      -8.009   5.588  65.116  1.00  0.00    -0.110 C  
HETATM   19  C   UNL     1     -10.227   5.140  66.198  1.00  0.00    -0.258 C  
ENDBRANCH  16  17
ENDBRANCH  14  16
ENDBRANCH  13  14
ENDBRANCH  12  13
ENDBRANCH  11  12
ENDBRANCH  10  11
ENDBRANCH   9  10
ENDBRANCH   8   9
ENDBRANCH   7   8
ENDBRANCH   6   7
ENDBRANCH   5   6
ENDBRANCH   4   5
ENDBRANCH   3   4
ENDBRANCH   2   3
TORSDOF 14
ENDMDL
MODEL      381
REMARK 921   NORMALIZED FREE ENERGY PREDICTED BY IDOCK:   -2.50 KCAL/MOL
REMARK 922        TOTAL FREE ENERGY PREDICTED BY IDOCK:   -6.12 KCAL/MOL
REMARK 923 INTER-LIGAND FREE ENERGY PREDICTED BY IDOCK:   -5.18 KCAL/MOL
REMARK 924 INTRA-LIGAND FREE ENERGY PREDICTED BY IDOCK:   -0.94 KCAL/MOL
REMARK 927      BINDING AFFINITY PREDICTED BY RF-SCORE:    0.00 PKD
ROOT
HETATM    1  C   UNL     1      -5.976   7.047  70.305  1.00  0.00    -0.024 C  
HETATM    2  C   UNL     1      -6.605   8.229  69.584  1.00  0.00    -0.037 C  
ENDROOT
BRANCH   2   3
HETATM    3  C   UNL     1      -5.556   9.280  69.228  1.00  0.00    -0.035 C  
BRANCH   3   4
HETATM    4  C   UNL     1      -6.020  10.153  68.063  1.00  0.00    -0.041 C  
BRANCH   4   5
HETATM    5  C   UNL     1      -6.397  11.552  68.547  1.00  0.00    -0.052 C  
BRANCH   5   6
HETATM    6  C   UNL     1      -7.910  11.698  68.697  1.00  0.00    -0.132 C  
BRANCH   6   7
HETATM    7  C   UNL     1      -8.490  12.539  67.561  1.00  0.00    -0.177 C  
BRANCH   7   8
HETATM    8  C   UNL     1      -8.939  11.658  66.399  1.00  0.00    -0.198 C  
BRANCH   8   9
HETATM    9  C   UNL     1     -10.464  11.574  66.334  1.00  0.00    -0.292 C  
BRANCH   9  10
HETATM   10  C   UNL     1     -11.008  10.745  67.493  1.00  0.00    -0.372 C  
BRANCH  10  11
HETATM   11  C   UNL     1     -12.058  11.513  68.296  1.00  0.00    -0.073 C  
BRANCH  11  12
HETATM   12  C   UNL     1     -11.931  11.175  69.777  1.00  0.00    -0.428 C  
BRANCH  12  13
HETATM   13  C   UNL     1     -12.296  12.351  70.680  1.00  0.00    -0.367 C  
BRANCH  13  14
HETATM   14  C   UNL     1     -13.109  11.873  71.860  1.00  0.00    -0.369 C  
HETATM   15  O   UNL     1     -13.182  10.712  72.240  1.00  0.00    -0.400 OA 
BRANCH  14  16
HETATM   16  O   UNL     1     -13.753  12.926  72.439  1.00  0.00    -0.565 OA 
BRANCH  16  17
HETATM   17  C   UNL     1     -13.222  14.224  72.109  1.00  0.00    -0.402 C  
HETATM   18  C   UNL     1     -14.331  15.104  71.543  1.00  0.00    -0.660 C  
HETATM   19  C   UNL     1     -12.654  14.824  73.388  1.00  0.00    -0.556 C  
ENDBRANCH  16  17
ENDBRANCH  14  16
ENDBRANCH  13  14
ENDBRANCH  12  13
ENDBRANCH  11  12
ENDBRANCH  10  11
ENDBRANCH   9  10
ENDBRANCH   8   9
ENDBRANCH   7   8
ENDBRANCH   6   7
ENDBRANCH   5   6
ENDBRANCH   4   5
ENDBRANCH   3   4
ENDBRANCH   2   3
TORSDOF 14
ENDMDL
MODEL      382
REMARK 921   NORMALIZED FREE ENERGY PREDICTED BY IDOCK:   -2.50 KCAL/MOL
REMARK 922        TOTAL FREE ENERGY PREDICTED BY IDOCK:   -6.11 KCAL/MOL
REMARK 923 INTER-LIGAND FREE ENERGY PREDICTED BY IDOCK:   -4.61 KCAL/MOL
REMARK 924 INTRA-LIGAND FREE ENERGY PREDICTED BY IDOCK:   -1.50 KCAL/MOL
REMARK 927      BINDING AFFINITY PREDICTED BY RF-SCORE:    0.00 PKD
ROOT
HETATM    1  C   UNL     1     -10.148  11.307  64.986  1.00  0.00    -0.331 C  
HETATM    2  C   UNL     1     -10.450  12.536  65.828  1.00  0.00    -0.296 C  
ENDROOT
BRANCH   2   3
HETATM    3  C   UNL     1     -11.788  12.395  66.551  1.00  0.00    -0.407 C  
BRANCH   3   4
HETATM    4  C   UNL     1     -11.594  12.311  68.064  1.00  0.00    -0.408 C  
BRANCH   4   5
HETATM    5  C   UNL     1     -11.275  10.880  68.494  1.00  0.00    -0.335 C  
BRANCH   5   6
HETATM    6  C   UNL     1      -9.874  10.781  69.095  1.00  0.00    -0.194 C  
BRANCH   6   7
HETATM    7  C   UNL     1      -9.632   9.390  69.679  1.00  0.00    -0.199 C  
BRANCH   7   8
HETATM    8  C   UNL     1      -9.790   9.396  71.197  1.00  0.00    -0.287 C  
BRANCH   8   9
HETATM    9  C   UNL     1     -10.113   7.997  71.719  1.00  0.00    -0.249 C  
BRANCH   9  10
HETATM   10  C   UNL     1     -11.153   7.317  70.834  1.00  0.00    -0.284 C  
BRANCH  10  11
HETATM   11  C   UNL     1     -10.606   6.043  70.192  1.00  0.00    -0.341 C  
BRANCH  11  12
HETATM   12  C   UNL     1     -10.953   6.015  68.708  1.00  0.00    -0.384 C  
BRANCH  12  13
HETATM   13  C   UNL     1      -9.723   5.841  67.821  1.00  0.00    -0.130 C  
BRANCH  13  14
HETATM   14  C   UNL     1      -9.510   7.073  66.973  1.00  0.00    -0.149 C  
HETATM   15  O   UNL     1     -10.402   7.784  66.529  1.00  0.00    -0.234 OA 
BRANCH  14  16
HETATM   16  O   UNL     1      -8.177   7.276  66.773  1.00  0.00    -0.116 OA 
BRANCH  16  17
HETATM   17  C   UNL     1      -7.839   7.952  65.546  1.00  0.00    -0.112 C  
HETATM   18  C   UNL     1      -6.993   9.182  65.853  1.00  0.00    -0.088 C  
HETATM   19  C   UNL     1      -7.068   6.966  64.679  1.00  0.00    -0.061 C  
ENDBRANCH  16  17
ENDBRANCH  14  16
ENDBRANCH  13  14
ENDBRANCH  12  13
ENDBRANCH  11  12
ENDBRANCH  10  11
ENDBRANCH   9  10
ENDBRANCH   8   9
ENDBRANCH   7   8
ENDBRANCH   6   7
ENDBRANCH   5   6
ENDBRANCH   4   5
ENDBRANCH   3   4
ENDBRANCH   2   3
TORSDOF 14
ENDMDL
MODEL      383
REMARK 921   NORMALIZED FREE ENERGY PREDICTED BY IDOCK:   -2.49 KCAL/MOL
REMARK 922        TOTAL FREE ENERGY PREDICTED BY IDOCK:   -6.10 KCAL/MOL
REMARK 923 INTER-LIGAND FREE ENERGY PREDICTED BY IDOCK:   -5.93 KCAL/MOL
REMARK 924 INTRA-LIGAND FREE ENERGY PREDICTED BY IDOCK:   -0.17 KCAL/MOL
REMARK 927      BINDING AFFINITY PREDICTED BY RF-SCORE:    0.00 PKD
ROOT
HETATM    1  C   UNL     1      -6.683  17.528  68.930  1.00  0.00    -0.239 C  
HETATM    2  C   UNL     1      -5.878  18.593  69.656  1.00  0.00    -0.259 C  
ENDROOT
BRANCH   2   3
HETATM    3  C   UNL     1      -6.440  19.988  69.391  1.00  0.00    -0.365 C  
BRANCH   3   4
HETATM    4  C   UNL     1      -5.754  20.644  68.193  1.00  0.00    -0.321 C  
BRANCH   4   5
HETATM    5  C   UNL     1      -6.699  20.715  66.995  1.00  0.00    -0.343 C  
BRANCH   5   6
HETATM    6  C   UNL     1      -8.132  21.007  67.436  1.00  0.00    -0.046 C  
BRANCH   6   7
HETATM    7  C   UNL     1      -9.081  19.913  66.952  1.00  0.00    -0.452 C  
BRANCH   7   8
HETATM    8  C   UNL     1      -9.910  19.353  68.106  1.00  0.00    -0.485 C  
BRANCH   8   9
HETATM    9  C   UNL     1     -10.457  17.968  67.766  1.00  0.00    -0.421 C  
BRANCH   9  10
HETATM   10  C   UNL     1     -10.376  17.709  66.264  1.00  0.00    -0.342 C  
BRANCH  10  11
HETATM   11  C   UNL     1     -10.034  16.252  65.957  1.00  0.00    -0.370 C  
BRANCH  11  12
HETATM   12  C   UNL     1     -10.957  15.718  64.867  1.00  0.00    -0.443 C  
BRANCH  12  13
HETATM   13  C   UNL     1     -10.956  14.193  64.794  1.00  0.00    -0.409 C  
BRANCH  13  14
HETATM   14  C   UNL     1     -10.815  13.602  66.177  1.00  0.00    -0.279 C  
HETATM   15  O   UNL     1     -11.723  13.492  66.990  1.00  0.00    -0.341 OA 
BRANCH  14  16
HETATM   16  O   UNL     1      -9.527  13.211  66.387  1.00  0.00    -0.257 OA 
BRANCH  16  17
HETATM   17  C   UNL     1      -9.209  12.861  67.748  1.00  0.00    -0.200 C  
HETATM   18  C   UNL     1      -9.839  13.872  68.700  1.00  0.00    -0.175 C  
HETATM   19  C   UNL     1      -9.758  11.464  68.002  1.00  0.00    -0.190 C  
ENDBRANCH  16  17
ENDBRANCH  14  16
ENDBRANCH  13  14
ENDBRANCH  12  13
ENDBRANCH  11  12
ENDBRANCH  10  11
ENDBRANCH   9  10
ENDBRANCH   8   9
ENDBRANCH   7   8
ENDBRANCH   6   7
ENDBRANCH   5   6
ENDBRANCH   4   5
ENDBRANCH   3   4
ENDBRANCH   2   3
TORSDOF 14
ENDMDL
MODEL      384
REMARK 921   NORMALIZED FREE ENERGY PREDICTED BY IDOCK:   -2.49 KCAL/MOL
REMARK 922        TOTAL FREE ENERGY PREDICTED BY IDOCK:   -6.09 KCAL/MOL
REMARK 923 INTER-LIGAND FREE ENERGY PREDICTED BY IDOCK:   -4.77 KCAL/MOL
REMARK 924 INTRA-LIGAND FREE ENERGY PREDICTED BY IDOCK:   -1.32 KCAL/MOL
REMARK 927      BINDING AFFINITY PREDICTED BY RF-SCORE:    0.00 PKD
ROOT
HETATM    1  C   UNL     1      -7.071   6.628  69.701  1.00  0.00    -0.068 C  
HETATM    2  C   UNL     1      -7.673   7.871  69.065  1.00  0.00    -0.101 C  
ENDROOT
BRANCH   2   3
HETATM    3  C   UNL     1      -6.660   8.576  68.165  1.00  0.00    -0.061 C  
BRANCH   3   4
HETATM    4  C   UNL     1      -7.330   9.137  66.911  1.00  0.00    -0.090 C  
BRANCH   4   5
HETATM    5  C   UNL     1      -7.094  10.641  66.794  1.00  0.00    -0.118 C  
BRANCH   5   6
HETATM    6  C   UNL     1      -7.919  11.413  67.821  1.00  0.00    -0.119 C  
BRANCH   6   7
HETATM    7  C   UNL     1      -8.831  12.428  67.133  1.00  0.00    -0.197 C  
BRANCH   7   8
HETATM    8  C   UNL     1      -9.797  11.737  66.174  1.00  0.00    -0.254 C  
BRANCH   8   9
HETATM    9  C   UNL     1     -11.224  11.765  66.719  1.00  0.00    -0.388 C  
BRANCH   9  10
HETATM   10  C   UNL     1     -11.387  10.760  67.855  1.00  0.00    -0.372 C  
BRANCH  10  11
HETATM   11  C   UNL     1     -12.160  11.354  69.032  1.00  0.00    -0.316 C  
BRANCH  11  12
HETATM   12  C   UNL     1     -11.497  10.956  70.346  1.00  0.00    -0.367 C  
BRANCH  12  13
HETATM   13  C   UNL     1     -12.204   9.787  71.028  1.00  0.00    -0.436 C  
BRANCH  13  14
HETATM   14  C   UNL     1     -11.192   8.793  71.547  1.00  0.00    -0.307 C  
HETATM   15  O   UNL     1     -10.038   9.060  71.855  1.00  0.00    -0.339 OA 
BRANCH  14  16
HETATM   16  O   UNL     1     -11.752   7.553  71.618  1.00  0.00    -0.265 OA 
BRANCH  16  17
HETATM   17  C   UNL     1     -10.815   6.465  71.747  1.00  0.00    -0.241 C  
HETATM   18  C   UNL     1     -11.332   5.460  72.771  1.00  0.00    -0.358 C  
HETATM   19  C   UNL     1     -10.674   5.818  70.376  1.00  0.00    -0.372 C  
ENDBRANCH  16  17
ENDBRANCH  14  16
ENDBRANCH  13  14
ENDBRANCH  12  13
ENDBRANCH  11  12
ENDBRANCH  10  11
ENDBRANCH   9  10
ENDBRANCH   8   9
ENDBRANCH   7   8
ENDBRANCH   6   7
ENDBRANCH   5   6
ENDBRANCH   4   5
ENDBRANCH   3   4
ENDBRANCH   2   3
TORSDOF 14
ENDMDL
MODEL      385
REMARK 921   NORMALIZED FREE ENERGY PREDICTED BY IDOCK:   -2.48 KCAL/MOL
REMARK 922        TOTAL FREE ENERGY PREDICTED BY IDOCK:   -6.08 KCAL/MOL
REMARK 923 INTER-LIGAND FREE ENERGY PREDICTED BY IDOCK:   -5.31 KCAL/MOL
REMARK 924 INTRA-LIGAND FREE ENERGY PREDICTED BY IDOCK:   -0.77 KCAL/MOL
REMARK 927      BINDING AFFINITY PREDICTED BY RF-SCORE:    0.00 PKD
ROOT
HETATM    1  C   UNL     1      -7.007   3.908  65.315  1.00  0.00    -0.061 C  
HETATM    2  C   UNL     1      -7.988   3.770  66.468  1.00  0.00    -0.089 C  
ENDROOT
BRANCH   2   3
HETATM    3  C   UNL     1      -8.886   5.001  66.579  1.00  0.00    -0.112 C  
BRANCH   3   4
HETATM    4  C   UNL     1      -8.341   6.161  65.748  1.00  0.00    -0.143 C  
BRANCH   4   5
HETATM    5  C   UNL     1      -8.517   7.488  66.484  1.00  0.00    -0.131 C  
BRANCH   5   6
HETATM    6  C   UNL     1      -9.992   7.784  66.749  1.00  0.00    -0.331 C  
BRANCH   6   7
HETATM    7  C   UNL     1     -10.184   9.235  67.185  1.00  0.00    -0.324 C  
BRANCH   7   8
HETATM    8  C   UNL     1     -10.408  10.146  65.980  1.00  0.00    -0.234 C  
BRANCH   8   9
HETATM    9  C   UNL     1     -10.834  11.545  66.423  1.00  0.00    -0.334 C  
BRANCH   9  10
HETATM   10  C   UNL     1     -11.490  11.498  67.799  1.00  0.00    -0.357 C  
BRANCH  10  11
HETATM   11  C   UNL     1     -11.303  12.810  68.561  1.00  0.00    -0.326 C  
BRANCH  11  12
HETATM   12  C   UNL     1     -11.965  13.954  67.801  1.00  0.00    -0.390 C  
BRANCH  12  13
HETATM   13  C   UNL     1     -11.590  15.324  68.360  1.00  0.00    -0.365 C  
BRANCH  13  14
HETATM   14  C   UNL     1     -10.816  16.115  67.333  1.00  0.00    -0.265 C  
HETATM   15  O   UNL     1     -10.362  15.661  66.291  1.00  0.00    -0.281 OA 
BRANCH  14  16
HETATM   16  O   UNL     1     -10.694  17.411  67.737  1.00  0.00    -0.373 OA 
BRANCH  16  17
HETATM   17  C   UNL     1      -9.767  18.206  66.972  1.00  0.00    -0.307 C  
HETATM   18  C   UNL     1     -10.469  19.456  66.452  1.00  0.00    -0.581 C  
HETATM   19  C   UNL     1      -8.613  18.577  67.893  1.00  0.00    -0.304 C  
ENDBRANCH  16  17
ENDBRANCH  14  16
ENDBRANCH  13  14
ENDBRANCH  12  13
ENDBRANCH  11  12
ENDBRANCH  10  11
ENDBRANCH   9  10
ENDBRANCH   8   9
ENDBRANCH   7   8
ENDBRANCH   6   7
ENDBRANCH   5   6
ENDBRANCH   4   5
ENDBRANCH   3   4
ENDBRANCH   2   3
TORSDOF 14
ENDMDL
MODEL      386
REMARK 921   NORMALIZED FREE ENERGY PREDICTED BY IDOCK:   -2.46 KCAL/MOL
REMARK 922        TOTAL FREE ENERGY PREDICTED BY IDOCK:   -6.05 KCAL/MOL
REMARK 923 INTER-LIGAND FREE ENERGY PREDICTED BY IDOCK:   -5.36 KCAL/MOL
REMARK 924 INTRA-LIGAND FREE ENERGY PREDICTED BY IDOCK:   -0.69 KCAL/MOL
REMARK 927      BINDING AFFINITY PREDICTED BY RF-SCORE:    0.00 PKD
ROOT
HETATM    1  C   UNL     1      -8.163   4.754  63.707  1.00  0.00    -0.115 C  
HETATM    2  C   UNL     1      -7.820   3.809  64.846  1.00  0.00    -0.085 C  
ENDROOT
BRANCH   2   3
HETATM    3  C   UNL     1      -9.065   3.437  65.649  1.00  0.00    -0.151 C  
BRANCH   3   4
HETATM    4  C   UNL     1      -9.260   4.379  66.837  1.00  0.00    -0.150 C  
BRANCH   4   5
HETATM    5  C   UNL     1      -9.305   3.598  68.150  1.00  0.00    -0.236 C  
BRANCH   5   6
HETATM    6  C   UNL     1      -9.717   4.496  69.314  1.00  0.00    -0.260 C  
BRANCH   6   7
HETATM    7  C   UNL     1      -9.730   5.963  68.889  1.00  0.00    -0.168 C  
BRANCH   7   8
HETATM    8  C   UNL     1     -10.911   6.705  69.510  1.00  0.00    -0.367 C  
BRANCH   8   9
HETATM    9  C   UNL     1     -10.605   8.194  69.658  1.00  0.00    -0.223 C  
BRANCH   9  10
HETATM   10  C   UNL     1     -11.583   8.852  70.626  1.00  0.00    -0.251 C  
BRANCH  10  11
HETATM   11  C   UNL     1     -12.260  10.074  70.006  1.00  0.00    -0.039 C  
BRANCH  11  12
HETATM   12  C   UNL     1     -12.031  11.299  70.885  1.00  0.00    -0.319 C  
BRANCH  12  13
HETATM   13  C   UNL     1     -13.281  11.703  71.664  1.00  0.00    -0.376 C  
BRANCH  13  14
HETATM   14  C   UNL     1     -13.219  13.166  72.032  1.00  0.00    -0.446 C  
HETATM   15  O   UNL     1     -14.019  13.744  72.756  1.00  0.00    -0.714 OA 
BRANCH  14  16
HETATM   16  O   UNL     1     -12.142  13.751  71.436  1.00  0.00    -0.250 OA 
BRANCH  16  17
HETATM   17  C   UNL     1     -12.427  14.966  70.715  1.00  0.00    -0.339 C  
HETATM   18  C   UNL     1     -11.863  16.160  71.477  1.00  0.00    -0.528 C  
HETATM   19  C   UNL     1     -11.781  14.845  69.342  1.00  0.00    -0.349 C  
ENDBRANCH  16  17
ENDBRANCH  14  16
ENDBRANCH  13  14
ENDBRANCH  12  13
ENDBRANCH  11  12
ENDBRANCH  10  11
ENDBRANCH   9  10
ENDBRANCH   8   9
ENDBRANCH   7   8
ENDBRANCH   6   7
ENDBRANCH   5   6
ENDBRANCH   4   5
ENDBRANCH   3   4
ENDBRANCH   2   3
TORSDOF 14
ENDMDL
MODEL      387
REMARK 921   NORMALIZED FREE ENERGY PREDICTED BY IDOCK:   -2.46 KCAL/MOL
REMARK 922        TOTAL FREE ENERGY PREDICTED BY IDOCK:   -6.05 KCAL/MOL
REMARK 923 INTER-LIGAND FREE ENERGY PREDICTED BY IDOCK:   -4.26 KCAL/MOL
REMARK 924 INTRA-LIGAND FREE ENERGY PREDICTED BY IDOCK:   -1.79 KCAL/MOL
REMARK 927      BINDING AFFINITY PREDICTED BY RF-SCORE:    0.00 PKD
ROOT
HETATM    1  C   UNL     1      -9.119   7.836  72.000  1.00  0.00    -0.180 C  
HETATM    2  C   UNL     1     -10.204   8.393  71.093  1.00  0.00    -0.254 C  
ENDROOT
BRANCH   2   3
HETATM    3  C   UNL     1      -9.607   9.000  69.825  1.00  0.00    -0.182 C  
BRANCH   3   4
HETATM    4  C   UNL     1     -10.673   9.715  68.997  1.00  0.00    -0.232 C  
BRANCH   4   5
HETATM    5  C   UNL     1     -10.658   9.225  67.550  1.00  0.00    -0.329 C  
BRANCH   5   6
HETATM    6  C   UNL     1      -9.446   9.766  66.794  1.00  0.00    -0.209 C  
BRANCH   6   7
HETATM    7  C   UNL     1      -9.589   9.522  65.293  1.00  0.00    -0.314 C  
BRANCH   7   8
HETATM    8  C   UNL     1     -10.237  10.718  64.601  1.00  0.00    -0.419 C  
BRANCH   8   9
HETATM    9  C   UNL     1      -9.926  12.016  65.346  1.00  0.00    -0.279 C  
BRANCH   9  10
HETATM   10  C   UNL     1     -11.213  12.741  65.725  1.00  0.00    -0.341 C  
BRANCH  10  11
HETATM   11  C   UNL     1     -11.056  13.537  67.020  1.00  0.00    -0.310 C  
BRANCH  11  12
HETATM   12  C   UNL     1      -9.892  14.515  66.893  1.00  0.00    -0.265 C  
BRANCH  12  13
HETATM   13  C   UNL     1      -8.957  14.473  68.099  1.00  0.00    -0.182 C  
BRANCH  13  14
HETATM   14  C   UNL     1      -7.521  14.609  67.653  1.00  0.00    -0.186 C  
HETATM   15  O   UNL     1      -7.103  15.456  66.876  1.00  0.00    -0.191 OA 
BRANCH  14  16
HETATM   16  O   UNL     1      -6.757  13.647  68.243  1.00  0.00    -0.085 OA 
BRANCH  16  17
HETATM   17  C   UNL     1      -7.117  12.291  67.911  1.00  0.00    -0.105 C  
HETATM   18  C   UNL     1      -6.290  11.817  66.720  1.00  0.00    -0.083 C  
HETATM   19  C   UNL     1      -6.843  11.432  69.137  1.00  0.00    -0.111 C  
ENDBRANCH  16  17
ENDBRANCH  14  16
ENDBRANCH  13  14
ENDBRANCH  12  13
ENDBRANCH  11  12
ENDBRANCH  10  11
ENDBRANCH   9  10
ENDBRANCH   8   9
ENDBRANCH   7   8
ENDBRANCH   6   7
ENDBRANCH   5   6
ENDBRANCH   4   5
ENDBRANCH   3   4
ENDBRANCH   2   3
TORSDOF 14
ENDMDL
MODEL      388
REMARK 921   NORMALIZED FREE ENERGY PREDICTED BY IDOCK:   -2.43 KCAL/MOL
REMARK 922        TOTAL FREE ENERGY PREDICTED BY IDOCK:   -5.99 KCAL/MOL
REMARK 923 INTER-LIGAND FREE ENERGY PREDICTED BY IDOCK:   -5.05 KCAL/MOL
REMARK 924 INTRA-LIGAND FREE ENERGY PREDICTED BY IDOCK:   -0.94 KCAL/MOL
REMARK 927      BINDING AFFINITY PREDICTED BY RF-SCORE:    0.00 PKD
ROOT
HETATM    1  C   UNL     1     -14.214  15.182  71.681  1.00  0.00    -0.664 C  
HETATM    2  C   UNL     1     -13.002  15.168  70.764  1.00  0.00    -0.468 C  
ENDROOT
BRANCH   2   3
HETATM    3  C   UNL     1     -12.478  13.748  70.561  1.00  0.00    -0.409 C  
BRANCH   3   4
HETATM    4  C   UNL     1     -11.439  13.695  69.441  1.00  0.00    -0.343 C  
BRANCH   4   5
HETATM    5  C   UNL     1     -12.062  14.084  68.102  1.00  0.00    -0.307 C  
BRANCH   5   6
HETATM    6  C   UNL     1     -12.252  12.863  67.204  1.00  0.00    -0.131 C  
BRANCH   6   7
HETATM    7  C   UNL     1     -11.626  13.098  65.830  1.00  0.00    -0.383 C  
BRANCH   7   8
HETATM    8  C   UNL     1     -11.000  11.818  65.284  1.00  0.00    -0.350 C  
BRANCH   8   9
HETATM    9  C   UNL     1     -10.602  10.876  66.420  1.00  0.00    -0.289 C  
BRANCH   9  10
HETATM   10  C   UNL     1      -9.131  11.056  66.780  1.00  0.00    -0.172 C  
BRANCH  10  11
HETATM   11  C   UNL     1      -8.957  11.670  68.169  1.00  0.00    -0.182 C  
BRANCH  11  12
HETATM   12  C   UNL     1      -8.083  12.917  68.082  1.00  0.00    -0.158 C  
BRANCH  12  13
HETATM   13  C   UNL     1      -8.312  13.704  66.794  1.00  0.00     0.089 C  
BRANCH  13  14
HETATM   14  C   UNL     1      -8.137  15.183  67.046  1.00  0.00    -0.205 C  
HETATM   15  O   UNL     1      -7.201  15.859  66.642  1.00  0.00    -0.168 OA 
BRANCH  14  16
HETATM   16  O   UNL     1      -9.175  15.655  67.792  1.00  0.00    -0.192 OA 
BRANCH  16  17
HETATM   17  C   UNL     1      -8.797  16.365  68.987  1.00  0.00    -0.240 C  
HETATM   18  C   UNL     1      -7.383  15.968  69.395  1.00  0.00    -0.212 C  
HETATM   19  C   UNL     1      -8.873  17.854  68.677  1.00  0.00    -0.267 C  
ENDBRANCH  16  17
ENDBRANCH  14  16
ENDBRANCH  13  14
ENDBRANCH  12  13
ENDBRANCH  11  12
ENDBRANCH  10  11
ENDBRANCH   9  10
ENDBRANCH   8   9
ENDBRANCH   7   8
ENDBRANCH   6   7
ENDBRANCH   5   6
ENDBRANCH   4   5
ENDBRANCH   3   4
ENDBRANCH   2   3
TORSDOF 14
ENDMDL
MODEL      389
REMARK 921   NORMALIZED FREE ENERGY PREDICTED BY IDOCK:   -2.40 KCAL/MOL
REMARK 922        TOTAL FREE ENERGY PREDICTED BY IDOCK:   -5.94 KCAL/MOL
REMARK 923 INTER-LIGAND FREE ENERGY PREDICTED BY IDOCK:   -4.67 KCAL/MOL
REMARK 924 INTRA-LIGAND FREE ENERGY PREDICTED BY IDOCK:   -1.27 KCAL/MOL
REMARK 927      BINDING AFFINITY PREDICTED BY RF-SCORE:    0.00 PKD
ROOT
HETATM    1  C   UNL     1     -10.434  10.567  66.804  1.00  0.00    -0.302 C  
HETATM    2  C   UNL     1     -10.939   9.967  68.107  1.00  0.00    -0.289 C  
ENDROOT
BRANCH   2   3
HETATM    3  C   UNL     1     -11.666  11.012  68.951  1.00  0.00    -0.400 C  
BRANCH   3   4
HETATM    4  C   UNL     1     -11.373  10.823  70.439  1.00  0.00    -0.342 C  
BRANCH   4   5
HETATM    5  C   UNL     1     -12.613  11.120  71.280  1.00  0.00    -0.503 C  
BRANCH   5   6
HETATM    6  C   UNL     1     -12.986   9.926  72.157  1.00  0.00    -0.471 C  
BRANCH   6   7
HETATM    7  C   UNL     1     -13.718   8.862  71.340  1.00  0.00    -0.323 C  
BRANCH   7   8
HETATM    8  C   UNL     1     -13.292   7.458  71.759  1.00  0.00    -0.373 C  
BRANCH   8   9
HETATM    9  C   UNL     1     -12.482   6.780  70.655  1.00  0.00    -0.142 C  
BRANCH   9  10
HETATM   10  C   UNL     1     -11.055   7.319  70.623  1.00  0.00    -0.287 C  
BRANCH  10  11
HETATM   11  C   UNL     1     -10.105   6.459  71.455  1.00  0.00    -0.215 C  
BRANCH  11  12
HETATM   12  C   UNL     1     -10.750   5.111  71.757  1.00  0.00    -0.203 C  
BRANCH  12  13
HETATM   13  C   UNL     1     -10.219   4.481  73.042  1.00  0.00    -0.220 C  
BRANCH  13  14
HETATM   14  C   UNL     1     -10.684   3.048  73.154  1.00  0.00    -0.158 C  
HETATM   15  O   UNL     1     -11.647   2.671  73.808  1.00  0.00    -0.179 OA 
BRANCH  14  16
HETATM   16  O   UNL     1      -9.871   2.236  72.422  1.00  0.00    -0.114 OA 
BRANCH  16  17
HETATM   17  C   UNL     1      -8.458   2.454  72.609  1.00  0.00    -0.063 C  
HETATM   18  C   UNL     1      -7.929   1.508  73.681  1.00  0.00    -0.041 C  
HETATM   19  C   UNL     1      -7.775   2.197  71.274  1.00  0.00    -0.040 C  
ENDBRANCH  16  17
ENDBRANCH  14  16
ENDBRANCH  13  14
ENDBRANCH  12  13
ENDBRANCH  11  12
ENDBRANCH  10  11
ENDBRANCH   9  10
ENDBRANCH   8   9
ENDBRANCH   7   8
ENDBRANCH   6   7
ENDBRANCH   5   6
ENDBRANCH   4   5
ENDBRANCH   3   4
ENDBRANCH   2   3
TORSDOF 14
ENDMDL
MODEL      390
REMARK 921   NORMALIZED FREE ENERGY PREDICTED BY IDOCK:   -2.40 KCAL/MOL
REMARK 922        TOTAL FREE ENERGY PREDICTED BY IDOCK:   -5.94 KCAL/MOL
REMARK 923 INTER-LIGAND FREE ENERGY PREDICTED BY IDOCK:   -5.48 KCAL/MOL
REMARK 924 INTRA-LIGAND FREE ENERGY PREDICTED BY IDOCK:   -0.46 KCAL/MOL
REMARK 927      BINDING AFFINITY PREDICTED BY RF-SCORE:    0.00 PKD
ROOT
HETATM    1  C   UNL     1     -12.626  14.912  70.689  1.00  0.00    -0.420 C  
HETATM    2  C   UNL     1     -11.600  15.924  70.207  1.00  0.00    -0.365 C  
ENDROOT
BRANCH   2   3
HETATM    3  C   UNL     1     -11.459  15.888  68.687  1.00  0.00    -0.391 C  
BRANCH   3   4
HETATM    4  C   UNL     1     -11.915  14.543  68.121  1.00  0.00    -0.296 C  
BRANCH   4   5
HETATM    5  C   UNL     1     -10.717  13.705  67.678  1.00  0.00    -0.253 C  
BRANCH   5   6
HETATM    6  C   UNL     1     -10.939  13.114  66.287  1.00  0.00    -0.295 C  
BRANCH   6   7
HETATM    7  C   UNL     1      -9.865  12.077  65.962  1.00  0.00    -0.258 C  
BRANCH   7   8
HETATM    8  C   UNL     1     -10.277  11.214  64.772  1.00  0.00    -0.365 C  
BRANCH   8   9
HETATM    9  C   UNL     1      -9.573   9.858  64.810  1.00  0.00    -0.339 C  
BRANCH   9  10
HETATM   10  C   UNL     1      -9.041   9.565  66.209  1.00  0.00    -0.202 C  
BRANCH  10  11
HETATM   11  C   UNL     1      -9.306   8.118  66.625  1.00  0.00    -0.250 C  
BRANCH  11  12
HETATM   12  C   UNL     1     -10.441   8.068  67.642  1.00  0.00    -0.301 C  
BRANCH  12  13
HETATM   13  C   UNL     1     -10.577   9.366  68.433  1.00  0.00    -0.247 C  
BRANCH  13  14
HETATM   14  C   UNL     1     -10.744   9.069  69.904  1.00  0.00    -0.229 C  
HETATM   15  O   UNL     1     -10.438   9.827  70.814  1.00  0.00    -0.303 OA 
BRANCH  14  16
HETATM   16  O   UNL     1     -11.283   7.828  70.071  1.00  0.00    -0.224 OA 
BRANCH  16  17
HETATM   17  C   UNL     1     -10.719   7.055  71.148  1.00  0.00    -0.230 C  
HETATM   18  C   UNL     1      -9.217   7.306  71.228  1.00  0.00    -0.151 C  
HETATM   19  C   UNL     1     -11.410   7.489  72.433  1.00  0.00    -0.360 C  
ENDBRANCH  16  17
ENDBRANCH  14  16
ENDBRANCH  13  14
ENDBRANCH  12  13
ENDBRANCH  11  12
ENDBRANCH  10  11
ENDBRANCH   9  10
ENDBRANCH   8   9
ENDBRANCH   7   8
ENDBRANCH   6   7
ENDBRANCH   5   6
ENDBRANCH   4   5
ENDBRANCH   3   4
ENDBRANCH   2   3
TORSDOF 14
ENDMDL
MODEL      391
REMARK 921   NORMALIZED FREE ENERGY PREDICTED BY IDOCK:   -2.40 KCAL/MOL
REMARK 922        TOTAL FREE ENERGY PREDICTED BY IDOCK:   -5.93 KCAL/MOL
REMARK 923 INTER-LIGAND FREE ENERGY PREDICTED BY IDOCK:   -4.43 KCAL/MOL
REMARK 924 INTRA-LIGAND FREE ENERGY PREDICTED BY IDOCK:   -1.51 KCAL/MOL
REMARK 927      BINDING AFFINITY PREDICTED BY RF-SCORE:    0.00 PKD
ROOT
HETATM    1  C   UNL     1      -5.584   8.968  69.289  1.00  0.00    -0.035 C  
HETATM    2  C   UNL     1      -6.822   9.674  68.761  1.00  0.00    -0.051 C  
ENDROOT
BRANCH   2   3
HETATM    3  C   UNL     1      -6.449  10.782  67.779  1.00  0.00    -0.059 C  
BRANCH   3   4
HETATM    4  C   UNL     1      -7.677  11.591  67.363  1.00  0.00    -0.143 C  
BRANCH   4   5
HETATM    5  C   UNL     1      -7.363  13.086  67.340  1.00  0.00    -0.122 C  
BRANCH   5   6
HETATM    6  C   UNL     1      -8.257  13.855  68.310  1.00  0.00    -0.158 C  
BRANCH   6   7
HETATM    7  C   UNL     1      -9.689  13.323  68.266  1.00  0.00    -0.225 C  
BRANCH   7   8
HETATM    8  C   UNL     1     -10.701  14.460  68.378  1.00  0.00    -0.250 C  
BRANCH   8   9
HETATM    9  C   UNL     1     -12.027  14.078  67.721  1.00  0.00    -0.392 C  
BRANCH   9  10
HETATM   10  C   UNL     1     -12.000  14.393  66.229  1.00  0.00    -0.391 C  
BRANCH  10  11
HETATM   11  C   UNL     1     -12.402  13.184  65.386  1.00  0.00    -0.532 C  
BRANCH  11  12
HETATM   12  C   UNL     1     -11.256  12.789  64.461  1.00  0.00    -0.373 C  
BRANCH  12  13
HETATM   13  C   UNL     1     -10.487  11.571  64.969  1.00  0.00    -0.344 C  
BRANCH  13  14
HETATM   14  C   UNL     1      -9.790  10.877  63.823  1.00  0.00    -0.337 C  
HETATM   15  O   UNL     1      -9.612  11.358  62.713  1.00  0.00    -0.357 OA 
BRANCH  14  16
HETATM   16  O   UNL     1      -9.389   9.632  64.207  1.00  0.00    -0.244 OA 
BRANCH  16  17
HETATM   17  C   UNL     1      -8.046   9.277  63.824  1.00  0.00    -0.155 C  
HETATM   18  C   UNL     1      -7.312   8.677  65.019  1.00  0.00    -0.086 C  
HETATM   19  C   UNL     1      -8.146   8.268  62.689  1.00  0.00    -0.172 C  
ENDBRANCH  16  17
ENDBRANCH  14  16
ENDBRANCH  13  14
ENDBRANCH  12  13
ENDBRANCH  11  12
ENDBRANCH  10  11
ENDBRANCH   9  10
ENDBRANCH   8   9
ENDBRANCH   7   8
ENDBRANCH   6   7
ENDBRANCH   5   6
ENDBRANCH   4   5
ENDBRANCH   3   4
ENDBRANCH   2   3
TORSDOF 14
ENDMDL
MODEL      392
REMARK 921   NORMALIZED FREE ENERGY PREDICTED BY IDOCK:   -2.39 KCAL/MOL
REMARK 922        TOTAL FREE ENERGY PREDICTED BY IDOCK:   -5.92 KCAL/MOL
REMARK 923 INTER-LIGAND FREE ENERGY PREDICTED BY IDOCK:   -3.73 KCAL/MOL
REMARK 924 INTRA-LIGAND FREE ENERGY PREDICTED BY IDOCK:   -2.19 KCAL/MOL
REMARK 927      BINDING AFFINITY PREDICTED BY RF-SCORE:    0.00 PKD
ROOT
HETATM    1  C   UNL     1     -11.297   6.371  69.439  1.00  0.00    -0.443 C  
HETATM    2  C   UNL     1     -10.402   7.266  70.282  1.00  0.00    -0.219 C  
ENDROOT
BRANCH   2   3
HETATM    3  C   UNL     1     -10.709   7.111  71.770  1.00  0.00    -0.241 C  
BRANCH   3   4
HETATM    4  C   UNL     1     -11.948   6.245  71.993  1.00  0.00    -0.353 C  
BRANCH   4   5
HETATM    5  C   UNL     1     -11.647   5.102  72.960  1.00  0.00    -0.301 C  
BRANCH   5   6
HETATM    6  C   UNL     1     -10.384   5.382  73.773  1.00  0.00    -0.277 C  
BRANCH   6   7
HETATM    7  C   UNL     1      -9.453   4.171  73.764  1.00  0.00    -0.121 C  
BRANCH   7   8
HETATM    8  C   UNL     1     -10.182   2.921  73.278  1.00  0.00    -0.209 C  
BRANCH   8   9
HETATM    9  C   UNL     1      -9.391   2.222  72.173  1.00  0.00    -0.156 C  
BRANCH   9  10
HETATM   10  C   UNL     1      -8.716   3.243  71.264  1.00  0.00    -0.123 C  
BRANCH  10  11
HETATM   11  C   UNL     1      -9.503   3.462  69.973  1.00  0.00    -0.243 C  
BRANCH  11  12
HETATM   12  C   UNL     1      -8.664   3.041  68.772  1.00  0.00    -0.137 C  
BRANCH  12  13
HETATM   13  C   UNL     1      -9.409   3.205  67.450  1.00  0.00    -0.232 C  
BRANCH  13  14
HETATM   14  C   UNL     1      -9.175   4.585  66.884  1.00  0.00    -0.133 C  
HETATM   15  O   UNL     1      -9.979   5.214  66.209  1.00  0.00    -0.173 OA 
BRANCH  14  16
HETATM   16  O   UNL     1      -7.935   5.028  67.233  1.00  0.00    -0.098 OA 
BRANCH  16  17
HETATM   17  C   UNL     1      -7.870   6.409  67.640  1.00  0.00    -0.106 C  
HETATM   18  C   UNL     1      -7.150   6.517  68.979  1.00  0.00    -0.085 C  
HETATM   19  C   UNL     1      -7.118   7.170  66.557  1.00  0.00    -0.078 C  
ENDBRANCH  16  17
ENDBRANCH  14  16
ENDBRANCH  13  14
ENDBRANCH  12  13
ENDBRANCH  11  12
ENDBRANCH  10  11
ENDBRANCH   9  10
ENDBRANCH   8   9
ENDBRANCH   7   8
ENDBRANCH   6   7
ENDBRANCH   5   6
ENDBRANCH   4   5
ENDBRANCH   3   4
ENDBRANCH   2   3
TORSDOF 14
ENDMDL
MODEL      393
REMARK 921   NORMALIZED FREE ENERGY PREDICTED BY IDOCK:   -2.39 KCAL/MOL
REMARK 922        TOTAL FREE ENERGY PREDICTED BY IDOCK:   -5.91 KCAL/MOL
REMARK 923 INTER-LIGAND FREE ENERGY PREDICTED BY IDOCK:   -3.80 KCAL/MOL
REMARK 924 INTRA-LIGAND FREE ENERGY PREDICTED BY IDOCK:   -2.10 KCAL/MOL
REMARK 927      BINDING AFFINITY PREDICTED BY RF-SCORE:    0.00 PKD
ROOT
HETATM    1  C   UNL     1     -11.075   5.522  72.484  1.00  0.00    -0.324 C  
HETATM    2  C   UNL     1     -11.936   6.611  71.864  1.00  0.00    -0.386 C  
ENDROOT
BRANCH   2   3
HETATM    3  C   UNL     1     -11.748   7.943  72.587  1.00  0.00    -0.398 C  
BRANCH   3   4
HETATM    4  C   UNL     1     -11.078   8.975  71.682  1.00  0.00    -0.433 C  
BRANCH   4   5
HETATM    5  C   UNL     1      -9.561   8.796  71.680  1.00  0.00    -0.363 C  
BRANCH   5   6
HETATM    6  C   UNL     1      -8.997   8.863  70.262  1.00  0.00    -0.201 C  
BRANCH   6   7
HETATM    7  C   UNL     1     -10.049   8.437  69.239  1.00  0.00    -0.202 C  
BRANCH   7   8
HETATM    8  C   UNL     1      -9.988   9.313  67.991  1.00  0.00    -0.216 C  
BRANCH   8   9
HETATM    9  C   UNL     1      -8.596   9.918  67.813  1.00  0.00    -0.121 C  
BRANCH   9  10
HETATM   10  C   UNL     1      -7.864   9.255  66.651  1.00  0.00    -0.104 C  
BRANCH  10  11
HETATM   11  C   UNL     1      -8.836   8.724  65.598  1.00  0.00    -0.239 C  
BRANCH  11  12
HETATM   12  C   UNL     1      -8.357   7.370  65.083  1.00  0.00    -0.085 C  
BRANCH  12  13
HETATM   13  C   UNL     1      -8.828   6.211  65.958  1.00  0.00    -0.160 C  
BRANCH  13  14
HETATM   14  C   UNL     1      -7.722   5.194  66.120  1.00  0.00    -0.091 C  
HETATM   15  O   UNL     1      -6.894   4.914  65.263  1.00  0.00    -0.057 OA 
BRANCH  14  16
HETATM   16  O   UNL     1      -7.784   4.632  67.359  1.00  0.00    -0.088 OA 
BRANCH  16  17
HETATM   17  C   UNL     1      -8.259   5.504  68.403  1.00  0.00    -0.099 C  
HETATM   18  C   UNL     1      -9.283   4.769  69.261  1.00  0.00    -0.172 C  
HETATM   19  C   UNL     1      -7.055   5.921  69.236  1.00  0.00    -0.066 C  
ENDBRANCH  16  17
ENDBRANCH  14  16
ENDBRANCH  13  14
ENDBRANCH  12  13
ENDBRANCH  11  12
ENDBRANCH  10  11
ENDBRANCH   9  10
ENDBRANCH   8   9
ENDBRANCH   7   8
ENDBRANCH   6   7
ENDBRANCH   5   6
ENDBRANCH   4   5
ENDBRANCH   3   4
ENDBRANCH   2   3
TORSDOF 14
ENDMDL
MODEL      394
REMARK 921   NORMALIZED FREE ENERGY PREDICTED BY IDOCK:   -2.39 KCAL/MOL
REMARK 922        TOTAL FREE ENERGY PREDICTED BY IDOCK:   -5.91 KCAL/MOL
REMARK 923 INTER-LIGAND FREE ENERGY PREDICTED BY IDOCK:   -3.86 KCAL/MOL
REMARK 924 INTRA-LIGAND FREE ENERGY PREDICTED BY IDOCK:   -2.05 KCAL/MOL
REMARK 927      BINDING AFFINITY PREDICTED BY RF-SCORE:    0.00 PKD
ROOT
HETATM    1  C   UNL     1     -12.281   6.708  70.704  1.00  0.00    -0.262 C  
HETATM    2  C   UNL     1     -11.837   7.258  72.049  1.00  0.00    -0.332 C  
ENDROOT
BRANCH   2   3
HETATM    3  C   UNL     1     -11.089   6.201  72.859  1.00  0.00    -0.281 C  
BRANCH   3   4
HETATM    4  C   UNL     1     -10.207   6.844  73.929  1.00  0.00    -0.401 C  
BRANCH   4   5
HETATM    5  C   UNL     1      -8.825   6.193  73.960  1.00  0.00    -0.130 C  
BRANCH   5   6
HETATM    6  C   UNL     1      -7.855   6.909  73.023  1.00  0.00    -0.104 C  
BRANCH   6   7
HETATM    7  C   UNL     1      -8.233   8.382  72.873  1.00  0.00    -0.181 C  
BRANCH   7   8
HETATM    8  C   UNL     1      -8.446   8.747  71.406  1.00  0.00    -0.245 C  
BRANCH   8   9
HETATM    9  C   UNL     1      -7.871   7.672  70.485  1.00  0.00    -0.095 C  
BRANCH   9  10
HETATM   10  C   UNL     1      -8.968   7.059  69.621  1.00  0.00    -0.141 C  
BRANCH  10  11
HETATM   11  C   UNL     1      -9.075   7.751  68.263  1.00  0.00    -0.130 C  
BRANCH  11  12
HETATM   12  C   UNL     1     -10.454   8.383  68.106  1.00  0.00    -0.228 C  
BRANCH  12  13
HETATM   13  C   UNL     1     -10.381   9.878  67.805  1.00  0.00    -0.268 C  
BRANCH  13  14
HETATM   14  C   UNL     1      -9.665  10.115  66.496  1.00  0.00    -0.200 C  
HETATM   15  O   UNL     1     -10.075   9.767  65.397  1.00  0.00    -0.305 OA 
BRANCH  14  16
HETATM   16  O   UNL     1      -8.492  10.771  66.720  1.00  0.00    -0.128 OA 
BRANCH  16  17
HETATM   17  C   UNL     1      -8.451  11.558  67.926  1.00  0.00    -0.142 C  
HETATM   18  C   UNL     1      -7.171  11.252  68.697  1.00  0.00    -0.098 C  
HETATM   19  C   UNL     1      -8.500  13.024  67.518  1.00  0.00    -0.190 C  
ENDBRANCH  16  17
ENDBRANCH  14  16
ENDBRANCH  13  14
ENDBRANCH  12  13
ENDBRANCH  11  12
ENDBRANCH  10  11
ENDBRANCH   9  10
ENDBRANCH   8   9
ENDBRANCH   7   8
ENDBRANCH   6   7
ENDBRANCH   5   6
ENDBRANCH   4   5
ENDBRANCH   3   4
ENDBRANCH   2   3
TORSDOF 14
ENDMDL
MODEL      395
REMARK 921   NORMALIZED FREE ENERGY PREDICTED BY IDOCK:   -2.35 KCAL/MOL
REMARK 922        TOTAL FREE ENERGY PREDICTED BY IDOCK:   -5.84 KCAL/MOL
REMARK 923 INTER-LIGAND FREE ENERGY PREDICTED BY IDOCK:   -4.95 KCAL/MOL
REMARK 924 INTRA-LIGAND FREE ENERGY PREDICTED BY IDOCK:   -0.88 KCAL/MOL
REMARK 927      BINDING AFFINITY PREDICTED BY RF-SCORE:    0.00 PKD
ROOT
HETATM    1  C   UNL     1      -8.174  19.445  68.591  1.00  0.00    -0.399 C  
HETATM    2  C   UNL     1      -9.603  19.062  68.241  1.00  0.00    -0.411 C  
ENDROOT
BRANCH   2   3
HETATM    3  C   UNL     1      -9.637  17.893  67.259  1.00  0.00    -0.273 C  
BRANCH   3   4
HETATM    4  C   UNL     1     -10.514  18.212  66.049  1.00  0.00    -0.346 C  
BRANCH   4   5
HETATM    5  C   UNL     1     -10.831  16.945  65.257  1.00  0.00    -0.113 C  
BRANCH   5   6
HETATM    6  C   UNL     1     -10.776  15.706  66.148  1.00  0.00    -0.305 C  
BRANCH   6   7
HETATM    7  C   UNL     1     -11.086  14.445  65.344  1.00  0.00    -0.331 C  
BRANCH   7   8
HETATM    8  C   UNL     1     -12.189  13.626  66.009  1.00  0.00    -0.492 C  
BRANCH   8   9
HETATM    9  C   UNL     1     -11.864  13.363  67.479  1.00  0.00    -0.408 C  
BRANCH   9  10
HETATM   10  C   UNL     1     -11.648  11.873  67.725  1.00  0.00    -0.393 C  
BRANCH  10  11
HETATM   11  C   UNL     1     -10.310  11.393  67.163  1.00  0.00    -0.247 C  
BRANCH  11  12
HETATM   12  C   UNL     1      -9.997   9.995  67.685  1.00  0.00    -0.214 C  
BRANCH  12  13
HETATM   13  C   UNL     1     -10.631   8.897  66.835  1.00  0.00    -0.254 C  
BRANCH  13  14
HETATM   14  C   UNL     1      -9.814   7.630  66.922  1.00  0.00    -0.234 C  
HETATM   15  O   UNL     1      -9.909   6.678  66.158  1.00  0.00    -0.026 OA 
BRANCH  14  16
HETATM   16  O   UNL     1      -8.955   7.700  67.978  1.00  0.00    -0.127 OA 
BRANCH  16  17
HETATM   17  C   UNL     1      -9.002   6.578  68.880  1.00  0.00    -0.128 C  
HETATM   18  C   UNL     1      -7.621   5.938  68.978  1.00  0.00    -0.090 C  
HETATM   19  C   UNL     1      -9.453   7.101  70.237  1.00  0.00    -0.162 C  
ENDBRANCH  16  17
ENDBRANCH  14  16
ENDBRANCH  13  14
ENDBRANCH  12  13
ENDBRANCH  11  12
ENDBRANCH  10  11
ENDBRANCH   9  10
ENDBRANCH   8   9
ENDBRANCH   7   8
ENDBRANCH   6   7
ENDBRANCH   5   6
ENDBRANCH   4   5
ENDBRANCH   3   4
ENDBRANCH   2   3
TORSDOF 14
ENDMDL
MODEL      396
REMARK 921   NORMALIZED FREE ENERGY PREDICTED BY IDOCK:   -2.34 KCAL/MOL
REMARK 922        TOTAL FREE ENERGY PREDICTED BY IDOCK:   -5.82 KCAL/MOL
REMARK 923 INTER-LIGAND FREE ENERGY PREDICTED BY IDOCK:   -5.00 KCAL/MOL
REMARK 924 INTRA-LIGAND FREE ENERGY PREDICTED BY IDOCK:   -0.82 KCAL/MOL
REMARK 927      BINDING AFFINITY PREDICTED BY RF-SCORE:    0.00 PKD
ROOT
HETATM    1  C   UNL     1     -10.092  17.477  68.439  1.00  0.00    -0.358 C  
HETATM    2  C   UNL     1      -9.777  16.045  68.036  1.00  0.00    -0.217 C  
ENDROOT
BRANCH   2   3
HETATM    3  C   UNL     1     -10.196  15.060  69.125  1.00  0.00    -0.241 C  
BRANCH   3   4
HETATM    4  C   UNL     1     -11.554  15.434  69.718  1.00  0.00    -0.339 C  
BRANCH   4   5
HETATM    5  C   UNL     1     -11.697  14.887  71.138  1.00  0.00    -0.377 C  
BRANCH   5   6
HETATM    6  C   UNL     1     -13.139  14.478  71.431  1.00  0.00    -0.423 C  
BRANCH   6   7
HETATM    7  C   UNL     1     -13.234  12.977  71.695  1.00  0.00    -0.426 C  
BRANCH   7   8
HETATM    8  C   UNL     1     -12.179  12.211  70.901  1.00  0.00    -0.310 C  
BRANCH   8   9
HETATM    9  C   UNL     1     -12.580  10.747  70.728  1.00  0.00    -0.476 C  
BRANCH   9  10
HETATM   10  C   UNL     1     -11.426   9.823  71.107  1.00  0.00    -0.472 C  
BRANCH  10  11
HETATM   11  C   UNL     1     -11.924   8.490  71.663  1.00  0.00    -0.372 C  
BRANCH  11  12
HETATM   12  C   UNL     1     -11.350   7.337  70.847  1.00  0.00    -0.308 C  
BRANCH  12  13
HETATM   13  C   UNL     1     -10.727   7.803  69.533  1.00  0.00    -0.200 C  
BRANCH  13  14
HETATM   14  C   UNL     1      -9.367   7.173  69.346  1.00  0.00    -0.147 C  
HETATM   15  O   UNL     1      -8.313   7.644  69.751  1.00  0.00    -0.129 OA 
BRANCH  14  16
HETATM   16  O   UNL     1      -9.486   6.004  68.656  1.00  0.00    -0.123 OA 
BRANCH  16  17
HETATM   17  C   UNL     1      -8.854   4.864  69.271  1.00  0.00    -0.088 C  
HETATM   18  C   UNL     1      -9.832   3.695  69.312  1.00  0.00     0.072 C  
HETATM   19  C   UNL     1      -7.628   4.516  68.438  1.00  0.00    -0.068 C  
ENDBRANCH  16  17
ENDBRANCH  14  16
ENDBRANCH  13  14
ENDBRANCH  12  13
ENDBRANCH  11  12
ENDBRANCH  10  11
ENDBRANCH   9  10
ENDBRANCH   8   9
ENDBRANCH   7   8
ENDBRANCH   6   7
ENDBRANCH   5   6
ENDBRANCH   4   5
ENDBRANCH   3   4
ENDBRANCH   2   3
TORSDOF 14
ENDMDL
MODEL      397
REMARK 921   NORMALIZED FREE ENERGY PREDICTED BY IDOCK:   -2.32 KCAL/MOL
REMARK 922        TOTAL FREE ENERGY PREDICTED BY IDOCK:   -5.79 KCAL/MOL
REMARK 923 INTER-LIGAND FREE ENERGY PREDICTED BY IDOCK:   -4.51 KCAL/MOL
REMARK 924 INTRA-LIGAND FREE ENERGY PREDICTED BY IDOCK:   -1.29 KCAL/MOL
REMARK 927      BINDING AFFINITY PREDICTED BY RF-SCORE:    0.00 PKD
ROOT
HETATM    1  C   UNL     1     -10.483  13.475  68.764  1.00  0.00    -0.212 C  
HETATM    2  C   UNL     1     -11.879  12.883  68.650  1.00  0.00    -0.347 C  
ENDROOT
BRANCH   2   3
HETATM    3  C   UNL     1     -12.014  11.622  69.502  1.00  0.00    -0.383 C  
BRANCH   3   4
HETATM    4  C   UNL     1     -12.335  11.967  70.955  1.00  0.00    -0.362 C  
BRANCH   4   5
HETATM    5  C   UNL     1     -13.117  10.837  71.624  1.00  0.00    -0.551 C  
BRANCH   5   6
HETATM    6  C   UNL     1     -12.723   9.477  71.051  1.00  0.00    -0.314 C  
BRANCH   6   7
HETATM    7  C   UNL     1     -12.686   8.416  72.150  1.00  0.00    -0.399 C  
BRANCH   7   8
HETATM    8  C   UNL     1     -11.451   7.529  72.017  1.00  0.00    -0.319 C  
BRANCH   8   9
HETATM    9  C   UNL     1     -10.275   8.106  72.803  1.00  0.00    -0.372 C  
BRANCH   9  10
HETATM   10  C   UNL     1      -8.996   8.059  71.973  1.00  0.00    -0.212 C  
BRANCH  10  11
HETATM   11  C   UNL     1      -9.138   7.135  70.764  1.00  0.00    -0.153 C  
BRANCH  11  12
HETATM   12  C   UNL     1      -8.622   7.834  69.510  1.00  0.00    -0.135 C  
BRANCH  12  13
HETATM   13  C   UNL     1      -7.123   8.114  69.571  1.00  0.00    -0.051 C  
BRANCH  13  14
HETATM   14  C   UNL     1      -6.865   9.602  69.534  1.00  0.00    -0.056 C  
HETATM   15  O   UNL     1      -7.171  10.390  70.419  1.00  0.00    -0.266 OA 
BRANCH  14  16
HETATM   16  O   UNL     1      -6.244   9.939  68.369  1.00  0.00    -0.049 OA 
BRANCH  16  17
HETATM   17  C   UNL     1      -6.704  11.161  67.762  1.00  0.00    -0.065 C  
HETATM   18  C   UNL     1      -5.771  11.552  66.621  1.00  0.00    -0.139 C  
HETATM   19  C   UNL     1      -8.115  10.913  67.246  1.00  0.00    -0.123 C  
ENDBRANCH  16  17
ENDBRANCH  14  16
ENDBRANCH  13  14
ENDBRANCH  12  13
ENDBRANCH  11  12
ENDBRANCH  10  11
ENDBRANCH   9  10
ENDBRANCH   8   9
ENDBRANCH   7   8
ENDBRANCH   6   7
ENDBRANCH   5   6
ENDBRANCH   4   5
ENDBRANCH   3   4
ENDBRANCH   2   3
TORSDOF 14
ENDMDL
MODEL      398
REMARK 921   NORMALIZED FREE ENERGY PREDICTED BY IDOCK:   -2.30 KCAL/MOL
REMARK 922        TOTAL FREE ENERGY PREDICTED BY IDOCK:   -5.75 KCAL/MOL
REMARK 923 INTER-LIGAND FREE ENERGY PREDICTED BY IDOCK:   -4.77 KCAL/MOL
REMARK 924 INTRA-LIGAND FREE ENERGY PREDICTED BY IDOCK:   -0.98 KCAL/MOL
REMARK 927      BINDING AFFINITY PREDICTED BY RF-SCORE:    0.00 PKD
ROOT
HETATM    1  C   UNL     1      -7.422  18.693  69.055  1.00  0.00    -0.243 C  
HETATM    2  C   UNL     1      -8.837  18.700  68.498  1.00  0.00    -0.361 C  
ENDROOT
BRANCH   2   3
HETATM    3  C   UNL     1      -8.933  17.865  67.224  1.00  0.00    -0.250 C  
BRANCH   3   4
HETATM    4  C   UNL     1      -9.871  18.512  66.206  1.00  0.00    -0.352 C  
BRANCH   4   5
HETATM    5  C   UNL     1     -10.730  17.459  65.509  1.00  0.00    -0.081 C  
BRANCH   5   6
HETATM    6  C   UNL     1     -10.676  16.123  66.248  1.00  0.00    -0.213 C  
BRANCH   6   7
HETATM    7  C   UNL     1     -11.052  14.972  65.316  1.00  0.00    -0.391 C  
BRANCH   7   8
HETATM    8  C   UNL     1     -12.319  14.268  65.795  1.00  0.00    -0.420 C  
BRANCH   8   9
HETATM    9  C   UNL     1     -12.161  13.777  67.233  1.00  0.00    -0.393 C  
BRANCH   9  10
HETATM   10  C   UNL     1     -11.750  12.308  67.259  1.00  0.00    -0.394 C  
BRANCH  10  11
HETATM   11  C   UNL     1     -10.698  12.033  68.333  1.00  0.00    -0.255 C  
BRANCH  11  12
HETATM   12  C   UNL     1      -9.981  10.719  68.035  1.00  0.00    -0.183 C  
BRANCH  12  13
HETATM   13  C   UNL     1     -10.188  10.252  66.596  1.00  0.00    -0.294 C  
BRANCH  13  14
HETATM   14  C   UNL     1      -8.937  10.490  65.784  1.00  0.00    -0.180 C  
HETATM   15  O   UNL     1      -7.942  11.080  66.182  1.00  0.00    -0.163 OA 
BRANCH  14  16
HETATM   16  O   UNL     1      -9.081   9.954  64.539  1.00  0.00    -0.215 OA 
BRANCH  16  17
HETATM   17  C   UNL     1      -7.870   9.439  63.952  1.00  0.00    -0.129 C  
HETATM   18  C   UNL     1      -7.615   8.023  64.457  1.00  0.00    -0.114 C  
HETATM   19  C   UNL     1      -8.055   9.449  62.440  1.00  0.00    -0.138 C  
ENDBRANCH  16  17
ENDBRANCH  14  16
ENDBRANCH  13  14
ENDBRANCH  12  13
ENDBRANCH  11  12
ENDBRANCH  10  11
ENDBRANCH   9  10
ENDBRANCH   8   9
ENDBRANCH   7   8
ENDBRANCH   6   7
ENDBRANCH   5   6
ENDBRANCH   4   5
ENDBRANCH   3   4
ENDBRANCH   2   3
TORSDOF 14
ENDMDL
MODEL      399
REMARK 921   NORMALIZED FREE ENERGY PREDICTED BY IDOCK:   -2.30 KCAL/MOL
REMARK 922        TOTAL FREE ENERGY PREDICTED BY IDOCK:   -5.74 KCAL/MOL
REMARK 923 INTER-LIGAND FREE ENERGY PREDICTED BY IDOCK:   -4.37 KCAL/MOL
REMARK 924 INTRA-LIGAND FREE ENERGY PREDICTED BY IDOCK:   -1.38 KCAL/MOL
REMARK 927      BINDING AFFINITY PREDICTED BY RF-SCORE:    0.00 PKD
ROOT
HETATM    1  C   UNL     1     -10.688  11.289  64.202  1.00  0.00    -0.436 C  
HETATM    2  C   UNL     1     -10.649  12.350  65.289  1.00  0.00    -0.322 C  
ENDROOT
BRANCH   2   3
HETATM    3  C   UNL     1     -11.910  12.307  66.150  1.00  0.00    -0.398 C  
BRANCH   3   4
HETATM    4  C   UNL     1     -11.565  12.301  67.638  1.00  0.00    -0.421 C  
BRANCH   4   5
HETATM    5  C   UNL     1     -11.329  10.876  68.137  1.00  0.00    -0.383 C  
BRANCH   5   6
HETATM    6  C   UNL     1     -11.801  10.709  69.580  1.00  0.00    -0.358 C  
BRANCH   6   7
HETATM    7  C   UNL     1     -10.973   9.647  70.302  1.00  0.00    -0.337 C  
BRANCH   7   8
HETATM    8  C   UNL     1     -11.868   8.566  70.900  1.00  0.00    -0.243 C  
BRANCH   8   9
HETATM    9  C   UNL     1     -11.065   7.626  71.798  1.00  0.00    -0.281 C  
BRANCH   9  10
HETATM   10  C   UNL     1     -10.997   6.228  71.192  1.00  0.00    -0.336 C  
BRANCH  10  11
HETATM   11  C   UNL     1      -9.625   5.939  70.584  1.00  0.00    -0.208 C  
BRANCH  11  12
HETATM   12  C   UNL     1      -8.544   6.688  71.357  1.00  0.00    -0.125 C  
BRANCH  12  13
HETATM   13  C   UNL     1      -7.151   6.475  70.771  1.00  0.00    -0.069 C  
BRANCH  13  14
HETATM   14  C   UNL     1      -6.672   7.733  70.086  1.00  0.00    -0.041 C  
HETATM   15  O   UNL     1      -6.221   8.717  70.658  1.00  0.00    -0.034 OA 
BRANCH  14  16
HETATM   16  O   UNL     1      -6.818   7.614  68.737  1.00  0.00    -0.061 OA 
BRANCH  16  17
HETATM   17  C   UNL     1      -7.765   8.523  68.141  1.00  0.00    -0.102 C  
HETATM   18  C   UNL     1      -7.037   9.481  67.204  1.00  0.00    -0.086 C  
HETATM   19  C   UNL     1      -8.783   7.688  67.378  1.00  0.00    -0.124 C  
ENDBRANCH  16  17
ENDBRANCH  14  16
ENDBRANCH  13  14
ENDBRANCH  12  13
ENDBRANCH  11  12
ENDBRANCH  10  11
ENDBRANCH   9  10
ENDBRANCH   8   9
ENDBRANCH   7   8
ENDBRANCH   6   7
ENDBRANCH   5   6
ENDBRANCH   4   5
ENDBRANCH   3   4
ENDBRANCH   2   3
TORSDOF 14
ENDMDL
MODEL      400
REMARK 921   NORMALIZED FREE ENERGY PREDICTED BY IDOCK:   -2.29 KCAL/MOL
REMARK 922        TOTAL FREE ENERGY PREDICTED BY IDOCK:   -5.74 KCAL/MOL
REMARK 923 INTER-LIGAND FREE ENERGY PREDICTED BY IDOCK:   -4.36 KCAL/MOL
REMARK 924 INTRA-LIGAND FREE ENERGY PREDICTED BY IDOCK:   -1.37 KCAL/MOL
REMARK 927      BINDING AFFINITY PREDICTED BY RF-SCORE:    0.00 PKD
ROOT
HETATM    1  C   UNL     1     -11.829  13.391  69.408  1.00  0.00    -0.390 C  
HETATM    2  C   UNL     1     -11.623  14.802  68.881  1.00  0.00    -0.340 C  
ENDROOT
BRANCH   2   3
HETATM    3  C   UNL     1     -10.808  14.796  67.590  1.00  0.00    -0.285 C  
BRANCH   3   4
HETATM    4  C   UNL     1      -9.542  13.952  67.737  1.00  0.00    -0.222 C  
BRANCH   4   5
HETATM    5  C   UNL     1      -9.355  13.035  66.530  1.00  0.00    -0.220 C  
BRANCH   5   6
HETATM    6  C   UNL     1      -9.292  11.569  66.952  1.00  0.00    -0.189 C  
BRANCH   6   7
HETATM    7  C   UNL     1     -10.642  10.886  66.740  1.00  0.00    -0.313 C  
BRANCH   7   8
HETATM    8  C   UNL     1     -10.945   9.903  67.868  1.00  0.00    -0.281 C  
BRANCH   8   9
HETATM    9  C   UNL     1     -10.308  10.363  69.179  1.00  0.00    -0.241 C  
BRANCH   9  10
HETATM   10  C   UNL     1     -11.152   9.924  70.371  1.00  0.00    -0.382 C  
BRANCH  10  11
HETATM   11  C   UNL     1     -10.366   9.023  71.322  1.00  0.00    -0.383 C  
BRANCH  11  12
HETATM   12  C   UNL     1     -10.212   7.633  70.715  1.00  0.00    -0.201 C  
BRANCH  12  13
HETATM   13  C   UNL     1      -8.751   7.250  70.491  1.00  0.00    -0.148 C  
BRANCH  13  14
HETATM   14  C   UNL     1      -8.661   5.929  69.765  1.00  0.00    -0.129 C  
HETATM   15  O   UNL     1      -7.960   5.711  68.786  1.00  0.00    -0.094 OA 
BRANCH  14  16
HETATM   16  O   UNL     1      -9.476   5.014  70.360  1.00  0.00    -0.148 OA 
BRANCH  16  17
HETATM   17  C   UNL     1      -8.803   3.881  70.944  1.00  0.00    -0.081 C  
HETATM   18  C   UNL     1      -8.966   3.911  72.459  1.00  0.00    -0.129 C  
HETATM   19  C   UNL     1      -9.429   2.624  70.356  1.00  0.00    -0.185 C  
ENDBRANCH  16  17
ENDBRANCH  14  16
ENDBRANCH  13  14
ENDBRANCH  12  13
ENDBRANCH  11  12
ENDBRANCH  10  11
ENDBRANCH   9  10
ENDBRANCH   8   9
ENDBRANCH   7   8
ENDBRANCH   6   7
ENDBRANCH   5   6
ENDBRANCH   4   5
ENDBRANCH   3   4
ENDBRANCH   2   3
TORSDOF 14
ENDMDL
MODEL      401
REMARK 921   NORMALIZED FREE ENERGY PREDICTED BY IDOCK:   -2.29 KCAL/MOL
REMARK 922        TOTAL FREE ENERGY PREDICTED BY IDOCK:   -5.73 KCAL/MOL
REMARK 923 INTER-LIGAND FREE ENERGY PREDICTED BY IDOCK:   -3.97 KCAL/MOL
REMARK 924 INTRA-LIGAND FREE ENERGY PREDICTED BY IDOCK:   -1.76 KCAL/MOL
REMARK 927      BINDING AFFINITY PREDICTED BY RF-SCORE:    0.00 PKD
ROOT
HETATM    1  C   UNL     1     -11.409   6.380  69.235  1.00  0.00    -0.405 C  
HETATM    2  C   UNL     1     -10.243   7.352  69.148  1.00  0.00    -0.196 C  
ENDROOT
BRANCH   2   3
HETATM    3  C   UNL     1     -10.033   8.082  70.473  1.00  0.00    -0.193 C  
BRANCH   3   4
HETATM    4  C   UNL     1     -11.345   8.221  71.243  1.00  0.00    -0.308 C  
BRANCH   4   5
HETATM    5  C   UNL     1     -11.216   7.637  72.649  1.00  0.00    -0.419 C  
BRANCH   5   6
HETATM    6  C   UNL     1      -9.754   7.552  73.082  1.00  0.00    -0.301 C  
BRANCH   6   7
HETATM    7  C   UNL     1      -9.440   6.175  73.665  1.00  0.00    -0.147 C  
BRANCH   7   8
HETATM    8  C   UNL     1     -10.682   5.288  73.677  1.00  0.00    -0.343 C  
BRANCH   8   9
HETATM    9  C   UNL     1     -10.408   3.952  72.987  1.00  0.00    -0.239 C  
BRANCH   9  10
HETATM   10  C   UNL     1     -10.152   4.158  71.497  1.00  0.00    -0.184 C  
BRANCH  10  11
HETATM   11  C   UNL     1      -9.369   2.994  70.891  1.00  0.00    -0.221 C  
BRANCH  11  12
HETATM   12  C   UNL     1      -8.957   3.332  69.462  1.00  0.00    -0.176 C  
BRANCH  12  13
HETATM   13  C   UNL     1      -9.365   2.251  68.464  1.00  0.00    -0.250 C  
BRANCH  13  14
HETATM   14  C   UNL     1      -8.415   2.236  67.290  1.00  0.00    -0.092 C  
HETATM   15  O   UNL     1      -7.328   1.674  67.272  1.00  0.00    -0.052 OA 
BRANCH  14  16
HETATM   16  O   UNL     1      -8.944   2.944  66.253  1.00  0.00    -0.139 OA 
BRANCH  16  17
HETATM   17  C   UNL     1      -8.100   3.990  65.732  1.00  0.00    -0.097 C  
HETATM   18  C   UNL     1      -8.334   4.140  64.233  1.00  0.00    -0.098 C  
HETATM   19  C   UNL     1      -8.457   5.274  66.467  1.00  0.00    -0.112 C  
ENDBRANCH  16  17
ENDBRANCH  14  16
ENDBRANCH  13  14
ENDBRANCH  12  13
ENDBRANCH  11  12
ENDBRANCH  10  11
ENDBRANCH   9  10
ENDBRANCH   8   9
ENDBRANCH   7   8
ENDBRANCH   6   7
ENDBRANCH   5   6
ENDBRANCH   4   5
ENDBRANCH   3   4
ENDBRANCH   2   3
TORSDOF 14
ENDMDL
MODEL      402
REMARK 921   NORMALIZED FREE ENERGY PREDICTED BY IDOCK:   -2.29 KCAL/MOL
REMARK 922        TOTAL FREE ENERGY PREDICTED BY IDOCK:   -5.72 KCAL/MOL
REMARK 923 INTER-LIGAND FREE ENERGY PREDICTED BY IDOCK:   -5.34 KCAL/MOL
REMARK 924 INTRA-LIGAND FREE ENERGY PREDICTED BY IDOCK:   -0.38 KCAL/MOL
REMARK 927      BINDING AFFINITY PREDICTED BY RF-SCORE:    0.00 PKD
ROOT
HETATM    1  C   UNL     1      -9.523   9.135  66.098  1.00  0.00    -0.309 C  
HETATM    2  C   UNL     1     -10.516   9.148  67.249  1.00  0.00    -0.335 C  
ENDROOT
BRANCH   2   3
HETATM    3  C   UNL     1      -9.941   9.868  68.467  1.00  0.00    -0.175 C  
BRANCH   3   4
HETATM    4  C   UNL     1     -11.015  10.109  69.527  1.00  0.00    -0.295 C  
BRANCH   4   5
HETATM    5  C   UNL     1     -12.058  11.108  69.028  1.00  0.00    -0.315 C  
BRANCH   5   6
HETATM    6  C   UNL     1     -11.435  12.480  68.778  1.00  0.00    -0.353 C  
BRANCH   6   7
HETATM    7  C   UNL     1     -11.748  13.435  69.929  1.00  0.00    -0.337 C  
BRANCH   7   8
HETATM    8  C   UNL     1     -12.406  14.714  69.418  1.00  0.00    -0.199 C  
BRANCH   8   9
HETATM    9  C   UNL     1     -11.356  15.726  68.962  1.00  0.00    -0.354 C  
BRANCH   9  10
HETATM   10  C   UNL     1     -10.032  15.490  69.681  1.00  0.00    -0.287 C  
BRANCH  10  11
HETATM   11  C   UNL     1      -8.841  15.622  68.733  1.00  0.00    -0.208 C  
BRANCH  11  12
HETATM   12  C   UNL     1      -8.316  17.053  68.750  1.00  0.00    -0.237 C  
BRANCH  12  13
HETATM   13  C   UNL     1      -6.807  17.127  68.531  1.00  0.00    -0.190 C  
BRANCH  13  14
HETATM   14  C   UNL     1      -6.478  18.180  67.499  1.00  0.00    -0.184 C  
HETATM   15  O   UNL     1      -5.348  18.490  67.148  1.00  0.00    -0.129 OA 
BRANCH  14  16
HETATM   16  O   UNL     1      -7.625  18.736  67.019  1.00  0.00    -0.223 OA 
BRANCH  16  17
HETATM   17  C   UNL     1      -7.964  20.020  67.579  1.00  0.00    -0.307 C  
HETATM   18  C   UNL     1      -7.042  21.091  67.005  1.00  0.00    -0.348 C  
HETATM   19  C   UNL     1      -9.415  20.307  67.221  1.00  0.00    -0.557 C  
ENDBRANCH  16  17
ENDBRANCH  14  16
ENDBRANCH  13  14
ENDBRANCH  12  13
ENDBRANCH  11  12
ENDBRANCH  10  11
ENDBRANCH   9  10
ENDBRANCH   8   9
ENDBRANCH   7   8
ENDBRANCH   6   7
ENDBRANCH   5   6
ENDBRANCH   4   5
ENDBRANCH   3   4
ENDBRANCH   2   3
TORSDOF 14
ENDMDL
MODEL      403
REMARK 921   NORMALIZED FREE ENERGY PREDICTED BY IDOCK:   -2.28 KCAL/MOL
REMARK 922        TOTAL FREE ENERGY PREDICTED BY IDOCK:   -5.72 KCAL/MOL
REMARK 923 INTER-LIGAND FREE ENERGY PREDICTED BY IDOCK:   -3.94 KCAL/MOL
REMARK 924 INTRA-LIGAND FREE ENERGY PREDICTED BY IDOCK:   -1.78 KCAL/MOL
REMARK 927      BINDING AFFINITY PREDICTED BY RF-SCORE:    0.00 PKD
ROOT
HETATM    1  C   UNL     1     -11.765   6.280  70.275  1.00  0.00    -0.289 C  
HETATM    2  C   UNL     1     -12.112   6.451  71.745  1.00  0.00    -0.351 C  
ENDROOT
BRANCH   2   3
HETATM    3  C   UNL     1     -11.505   5.333  72.589  1.00  0.00    -0.270 C  
BRANCH   3   4
HETATM    4  C   UNL     1     -10.647   5.896  73.721  1.00  0.00    -0.275 C  
BRANCH   4   5
HETATM    5  C   UNL     1      -9.251   5.278  73.707  1.00  0.00    -0.125 C  
BRANCH   5   6
HETATM    6  C   UNL     1      -8.314   6.046  72.776  1.00  0.00    -0.118 C  
BRANCH   6   7
HETATM    7  C   UNL     1      -7.755   7.285  73.472  1.00  0.00    -0.113 C  
BRANCH   7   8
HETATM    8  C   UNL     1      -7.797   8.500  72.549  1.00  0.00    -0.095 C  
BRANCH   8   9
HETATM    9  C   UNL     1      -8.659   8.222  71.318  1.00  0.00    -0.179 C  
BRANCH   9  10
HETATM   10  C   UNL     1      -9.834   9.192  71.252  1.00  0.00    -0.363 C  
BRANCH  10  11
HETATM   11  C   UNL     1      -9.959   9.840  69.874  1.00  0.00    -0.282 C  
BRANCH  11  12
HETATM   12  C   UNL     1      -9.536   8.850  68.793  1.00  0.00    -0.159 C  
BRANCH  12  13
HETATM   13  C   UNL     1     -10.502   8.827  67.610  1.00  0.00    -0.310 C  
BRANCH  13  14
HETATM   14  C   UNL     1     -10.014   9.747  66.516  1.00  0.00    -0.239 C  
HETATM   15  O   UNL     1     -10.022  10.969  66.570  1.00  0.00    -0.200 OA 
BRANCH  14  16
HETATM   16  O   UNL     1      -9.565   9.015  65.458  1.00  0.00    -0.224 OA 
BRANCH  16  17
HETATM   17  C   UNL     1      -8.259   8.430  65.630  1.00  0.00    -0.132 C  
HETATM   18  C   UNL     1      -8.284   6.975  65.174  1.00  0.00    -0.113 C  
HETATM   19  C   UNL     1      -7.280   9.242  64.794  1.00  0.00    -0.103 C  
ENDBRANCH  16  17
ENDBRANCH  14  16
ENDBRANCH  13  14
ENDBRANCH  12  13
ENDBRANCH  11  12
ENDBRANCH  10  11
ENDBRANCH   9  10
ENDBRANCH   8   9
ENDBRANCH   7   8
ENDBRANCH   6   7
ENDBRANCH   5   6
ENDBRANCH   4   5
ENDBRANCH   3   4
ENDBRANCH   2   3
TORSDOF 14
ENDMDL
MODEL      404
REMARK 921   NORMALIZED FREE ENERGY PREDICTED BY IDOCK:   -2.27 KCAL/MOL
REMARK 922        TOTAL FREE ENERGY PREDICTED BY IDOCK:   -5.70 KCAL/MOL
REMARK 923 INTER-LIGAND FREE ENERGY PREDICTED BY IDOCK:   -5.00 KCAL/MOL
REMARK 924 INTRA-LIGAND FREE ENERGY PREDICTED BY IDOCK:   -0.71 KCAL/MOL
REMARK 927      BINDING AFFINITY PREDICTED BY RF-SCORE:    0.00 PKD
ROOT
HETATM    1  C   UNL     1     -12.267  14.372  70.244  1.00  0.00    -0.397 C  
HETATM    2  C   UNL     1     -11.791  12.932  70.350  1.00  0.00    -0.239 C  
ENDROOT
BRANCH   2   3
HETATM    3  C   UNL     1     -12.967  11.973  70.518  1.00  0.00     0.209 C  
BRANCH   3   4
HETATM    4  C   UNL     1     -12.885  11.222  71.846  1.00  0.00    -0.386 C  
BRANCH   4   5
HETATM    5  C   UNL     1     -12.546   9.750  71.620  1.00  0.00    -0.509 C  
BRANCH   5   6
HETATM    6  C   UNL     1     -13.734   8.850  71.955  1.00  0.00    -0.509 C  
BRANCH   6   7
HETATM    7  C   UNL     1     -13.430   7.396  71.600  1.00  0.00    -0.437 C  
BRANCH   7   8
HETATM    8  C   UNL     1     -11.939   7.099  71.729  1.00  0.00    -0.348 C  
BRANCH   8   9
HETATM    9  C   UNL     1     -11.405   6.423  70.467  1.00  0.00    -0.438 C  
BRANCH   9  10
HETATM   10  C   UNL     1     -11.109   7.457  69.385  1.00  0.00    -0.052 C  
BRANCH  10  11
HETATM   11  C   UNL     1      -9.815   8.218  69.666  1.00  0.00    -0.184 C  
BRANCH  11  12
HETATM   12  C   UNL     1     -10.084   9.720  69.672  1.00  0.00    -0.250 C  
BRANCH  12  13
HETATM   13  C   UNL     1      -9.145  10.487  68.744  1.00  0.00    -0.166 C  
BRANCH  13  14
HETATM   14  C   UNL     1      -9.938  11.265  67.722  1.00  0.00    -0.176 C  
HETATM   15  O   UNL     1      -9.856  12.472  67.538  1.00  0.00    -0.194 OA 
BRANCH  14  16
HETATM   16  O   UNL     1     -10.762  10.425  67.034  1.00  0.00    -0.261 OA 
BRANCH  16  17
HETATM   17  C   UNL     1     -10.315  10.079  65.709  1.00  0.00    -0.121 C  
HETATM   18  C   UNL     1     -10.655  11.207  64.740  1.00  0.00    -0.371 C  
HETATM   19  C   UNL     1      -8.810   9.858  65.776  1.00  0.00    -0.171 C  
ENDBRANCH  16  17
ENDBRANCH  14  16
ENDBRANCH  13  14
ENDBRANCH  12  13
ENDBRANCH  11  12
ENDBRANCH  10  11
ENDBRANCH   9  10
ENDBRANCH   8   9
ENDBRANCH   7   8
ENDBRANCH   6   7
ENDBRANCH   5   6
ENDBRANCH   4   5
ENDBRANCH   3   4
ENDBRANCH   2   3
TORSDOF 14
ENDMDL
MODEL      405
REMARK 921   NORMALIZED FREE ENERGY PREDICTED BY IDOCK:   -2.27 KCAL/MOL
REMARK 922        TOTAL FREE ENERGY PREDICTED BY IDOCK:   -5.69 KCAL/MOL
REMARK 923 INTER-LIGAND FREE ENERGY PREDICTED BY IDOCK:   -3.58 KCAL/MOL
REMARK 924 INTRA-LIGAND FREE ENERGY PREDICTED BY IDOCK:   -2.11 KCAL/MOL
REMARK 927      BINDING AFFINITY PREDICTED BY RF-SCORE:    0.00 PKD
ROOT
HETATM    1  C   UNL     1      -8.025   8.896  71.152  1.00  0.00    -0.181 C  
HETATM    2  C   UNL     1      -7.621   9.718  69.939  1.00  0.00    -0.154 C  
ENDROOT
BRANCH   2   3
HETATM    3  C   UNL     1      -6.840   8.874  68.934  1.00  0.00    -0.061 C  
BRANCH   3   4
HETATM    4  C   UNL     1      -6.770   7.412  69.375  1.00  0.00    -0.041 C  
BRANCH   4   5
HETATM    5  C   UNL     1      -5.976   6.578  68.371  1.00  0.00    -0.021 C  
BRANCH   5   6
HETATM    6  C   UNL     1      -5.560   7.414  67.162  1.00  0.00    -0.030 C  
BRANCH   6   7
HETATM    7  C   UNL     1      -5.902   6.692  65.860  1.00  0.00    -0.026 C  
BRANCH   7   8
HETATM    8  C   UNL     1      -6.752   7.574  64.950  1.00  0.00    -0.047 C  
BRANCH   8   9
HETATM    9  C   UNL     1      -8.209   7.592  65.411  1.00  0.00    -0.137 C  
BRANCH   9  10
HETATM   10  C   UNL     1      -8.735   6.172  65.593  1.00  0.00    -0.133 C  
BRANCH  10  11
HETATM   11  C   UNL     1      -9.376   5.977  66.966  1.00  0.00    -0.128 C  
BRANCH  11  12
HETATM   12  C   UNL     1     -10.493   6.995  67.170  1.00  0.00    -0.383 C  
BRANCH  12  13
HETATM   13  C   UNL     1     -10.317   7.810  68.449  1.00  0.00    -0.231 C  
BRANCH  13  14
HETATM   14  C   UNL     1     -11.097   7.184  69.581  1.00  0.00    -0.179 C  
HETATM   15  O   UNL     1     -11.406   6.002  69.652  1.00  0.00    -0.411 OA 
BRANCH  14  16
HETATM   16  O   UNL     1     -11.410   8.130  70.511  1.00  0.00    -0.268 OA 
BRANCH  16  17
HETATM   17  C   UNL     1     -12.039   7.628  71.706  1.00  0.00    -0.305 C  
HETATM   18  C   UNL     1     -11.063   7.711  72.875  1.00  0.00    -0.448 C  
HETATM   19  C   UNL     1     -13.271   8.483  71.968  1.00  0.00    -0.399 C  
ENDBRANCH  16  17
ENDBRANCH  14  16
ENDBRANCH  13  14
ENDBRANCH  12  13
ENDBRANCH  11  12
ENDBRANCH  10  11
ENDBRANCH   9  10
ENDBRANCH   8   9
ENDBRANCH   7   8
ENDBRANCH   6   7
ENDBRANCH   5   6
ENDBRANCH   4   5
ENDBRANCH   3   4
ENDBRANCH   2   3
TORSDOF 14
ENDMDL
MODEL      406
REMARK 921   NORMALIZED FREE ENERGY PREDICTED BY IDOCK:   -2.26 KCAL/MOL
REMARK 922        TOTAL FREE ENERGY PREDICTED BY IDOCK:   -5.68 KCAL/MOL
REMARK 923 INTER-LIGAND FREE ENERGY PREDICTED BY IDOCK:   -5.19 KCAL/MOL
REMARK 924 INTRA-LIGAND FREE ENERGY PREDICTED BY IDOCK:   -0.50 KCAL/MOL
REMARK 927      BINDING AFFINITY PREDICTED BY RF-SCORE:    0.00 PKD
ROOT
HETATM    1  C   UNL     1      -9.931   2.623  72.167  1.00  0.00    -0.236 C  
HETATM    2  C   UNL     1      -9.591   3.503  70.975  1.00  0.00    -0.243 C  
ENDROOT
BRANCH   2   3
HETATM    3  C   UNL     1      -9.308   4.939  71.411  1.00  0.00    -0.199 C  
BRANCH   3   4
HETATM    4  C   UNL     1     -10.485   5.859  71.089  1.00  0.00    -0.291 C  
BRANCH   4   5
HETATM    5  C   UNL     1     -11.261   6.215  72.356  1.00  0.00    -0.329 C  
BRANCH   5   6
HETATM    6  C   UNL     1     -11.072   7.684  72.726  1.00  0.00    -0.437 C  
BRANCH   6   7
HETATM    7  C   UNL     1     -10.061   8.352  71.797  1.00  0.00    -0.317 C  
BRANCH   7   8
HETATM    8  C   UNL     1     -10.718   9.453  70.969  1.00  0.00    -0.407 C  
BRANCH   8   9
HETATM    9  C   UNL     1     -11.925  10.040  71.699  1.00  0.00    -0.369 C  
BRANCH   9  10
HETATM   10  C   UNL     1     -12.252  11.433  71.169  1.00  0.00    -0.330 C  
BRANCH  10  11
HETATM   11  C   UNL     1     -12.518  11.419  69.665  1.00  0.00    -0.133 C  
BRANCH  11  12
HETATM   12  C   UNL     1     -11.796  12.585  68.997  1.00  0.00    -0.344 C  
BRANCH  12  13
HETATM   13  C   UNL     1     -11.379  12.272  67.562  1.00  0.00    -0.388 C  
BRANCH  13  14
HETATM   14  C   UNL     1     -10.138  13.050  67.195  1.00  0.00    -0.244 C  
HETATM   15  O   UNL     1      -9.833  13.393  66.061  1.00  0.00    -0.286 OA 
BRANCH  14  16
HETATM   16  O   UNL     1      -9.406  13.314  68.313  1.00  0.00    -0.212 OA 
BRANCH  16  17
HETATM   17  C   UNL     1      -8.147  12.617  68.398  1.00  0.00    -0.137 C  
HETATM   18  C   UNL     1      -8.322  11.180  67.919  1.00  0.00    -0.129 C  
HETATM   19  C   UNL     1      -7.151  13.363  67.522  1.00  0.00    -0.154 C  
ENDBRANCH  16  17
ENDBRANCH  14  16
ENDBRANCH  13  14
ENDBRANCH  12  13
ENDBRANCH  11  12
ENDBRANCH  10  11
ENDBRANCH   9  10
ENDBRANCH   8   9
ENDBRANCH   7   8
ENDBRANCH   6   7
ENDBRANCH   5   6
ENDBRANCH   4   5
ENDBRANCH   3   4
ENDBRANCH   2   3
TORSDOF 14
ENDMDL
MODEL      407
REMARK 921   NORMALIZED FREE ENERGY PREDICTED BY IDOCK:   -2.24 KCAL/MOL
REMARK 922        TOTAL FREE ENERGY PREDICTED BY IDOCK:   -5.64 KCAL/MOL
REMARK 923 INTER-LIGAND FREE ENERGY PREDICTED BY IDOCK:   -4.49 KCAL/MOL
REMARK 924 INTRA-LIGAND FREE ENERGY PREDICTED BY IDOCK:   -1.16 KCAL/MOL
REMARK 927      BINDING AFFINITY PREDICTED BY RF-SCORE:    0.00 PKD
ROOT
HETATM    1  C   UNL     1     -10.580   8.982  68.961  1.00  0.00    -0.209 C  
HETATM    2  C   UNL     1      -9.442   9.975  69.132  1.00  0.00    -0.214 C  
ENDROOT
BRANCH   2   3
HETATM    3  C   UNL     1      -8.946  10.485  67.781  1.00  0.00    -0.132 C  
BRANCH   3   4
HETATM    4  C   UNL     1      -7.419  10.473  67.711  1.00  0.00    -0.087 C  
BRANCH   4   5
HETATM    5  C   UNL     1      -6.891  11.785  67.132  1.00  0.00    -0.148 C  
BRANCH   5   6
HETATM    6  C   UNL     1      -6.035  12.535  68.150  1.00  0.00    -0.073 C  
BRANCH   6   7
HETATM    7  C   UNL     1      -6.356  14.028  68.132  1.00  0.00    -0.128 C  
BRANCH   7   8
HETATM    8  C   UNL     1      -7.768  14.281  67.609  1.00  0.00    -0.190 C  
BRANCH   8   9
HETATM    9  C   UNL     1      -8.743  14.521  68.761  1.00  0.00    -0.147 C  
BRANCH   9  10
HETATM   10  C   UNL     1     -10.121  13.957  68.427  1.00  0.00    -0.237 C  
BRANCH  10  11
HETATM   11  C   UNL     1     -10.401  13.994  66.925  1.00  0.00    -0.269 C  
BRANCH  11  12
HETATM   12  C   UNL     1     -11.216  15.235  66.577  1.00  0.00    -0.228 C  
BRANCH  12  13
HETATM   13  C   UNL     1     -10.385  16.304  65.873  1.00  0.00    -0.381 C  
BRANCH  13  14
HETATM   14  C   UNL     1     -10.168  17.486  66.788  1.00  0.00    -0.327 C  
HETATM   15  O   UNL     1     -10.823  17.727  67.793  1.00  0.00    -0.371 OA 
BRANCH  14  16
HETATM   16  O   UNL     1      -9.135  18.248  66.329  1.00  0.00    -0.408 OA 
BRANCH  16  17
HETATM   17  C   UNL     1      -9.470  19.618  66.034  1.00  0.00    -0.292 C  
HETATM   18  C   UNL     1     -10.868  19.688  65.431  1.00  0.00    -0.109 C  
HETATM   19  C   UNL     1      -9.405  20.396  67.342  1.00  0.00    -0.536 C  
ENDBRANCH  16  17
ENDBRANCH  14  16
ENDBRANCH  13  14
ENDBRANCH  12  13
ENDBRANCH  11  12
ENDBRANCH  10  11
ENDBRANCH   9  10
ENDBRANCH   8   9
ENDBRANCH   7   8
ENDBRANCH   6   7
ENDBRANCH   5   6
ENDBRANCH   4   5
ENDBRANCH   3   4
ENDBRANCH   2   3
TORSDOF 14
ENDMDL
MODEL      408
REMARK 921   NORMALIZED FREE ENERGY PREDICTED BY IDOCK:   -2.24 KCAL/MOL
REMARK 922        TOTAL FREE ENERGY PREDICTED BY IDOCK:   -5.64 KCAL/MOL
REMARK 923 INTER-LIGAND FREE ENERGY PREDICTED BY IDOCK:   -4.84 KCAL/MOL
REMARK 924 INTRA-LIGAND FREE ENERGY PREDICTED BY IDOCK:   -0.79 KCAL/MOL
REMARK 927      BINDING AFFINITY PREDICTED BY RF-SCORE:    0.00 PKD
ROOT
HETATM    1  C   UNL     1      -8.752  10.046  64.981  1.00  0.00    -0.192 C  
HETATM    2  C   UNL     1      -9.647   9.070  65.727  1.00  0.00    -0.287 C  
ENDROOT
BRANCH   2   3
HETATM    3  C   UNL     1     -10.238   9.710  66.981  1.00  0.00    -0.308 C  
BRANCH   3   4
HETATM    4  C   UNL     1     -10.576   8.655  68.034  1.00  0.00    -0.205 C  
BRANCH   4   5
HETATM    5  C   UNL     1     -10.321   9.190  69.442  1.00  0.00    -0.220 C  
BRANCH   5   6
HETATM    6  C   UNL     1     -10.590  10.692  69.522  1.00  0.00    -0.265 C  
BRANCH   6   7
HETATM    7  C   UNL     1     -12.090  10.970  69.610  1.00  0.00    -0.411 C  
BRANCH   7   8
HETATM    8  C   UNL     1     -12.429  11.761  70.871  1.00  0.00    -0.416 C  
BRANCH   8   9
HETATM    9  C   UNL     1     -11.826  13.164  70.815  1.00  0.00     0.018 C  
BRANCH   9  10
HETATM   10  C   UNL     1     -12.899  14.222  71.044  1.00  0.00    -0.427 C  
BRANCH  10  11
HETATM   11  C   UNL     1     -12.952  15.235  69.901  1.00  0.00     0.079 C  
BRANCH  11  12
HETATM   12  C   UNL     1     -11.838  14.949  68.900  1.00  0.00    -0.334 C  
BRANCH  12  13
HETATM   13  C   UNL     1     -10.638  15.876  69.077  1.00  0.00    -0.247 C  
BRANCH  13  14
HETATM   14  C   UNL     1     -10.360  16.624  67.795  1.00  0.00    -0.306 C  
HETATM   15  O   UNL     1     -10.546  16.183  66.669  1.00  0.00    -0.311 OA 
BRANCH  14  16
HETATM   16  O   UNL     1      -9.867  17.863  68.076  1.00  0.00    -0.292 OA 
BRANCH  16  17
HETATM   17  C   UNL     1      -8.480  18.061  67.738  1.00  0.00    -0.247 C  
HETATM   18  C   UNL     1      -8.350  19.229  66.766  1.00  0.00    -0.311 C  
HETATM   19  C   UNL     1      -7.730  18.347  69.031  1.00  0.00    -0.163 C  
ENDBRANCH  16  17
ENDBRANCH  14  16
ENDBRANCH  13  14
ENDBRANCH  12  13
ENDBRANCH  11  12
ENDBRANCH  10  11
ENDBRANCH   9  10
ENDBRANCH   8   9
ENDBRANCH   7   8
ENDBRANCH   6   7
ENDBRANCH   5   6
ENDBRANCH   4   5
ENDBRANCH   3   4
ENDBRANCH   2   3
TORSDOF 14
ENDMDL
MODEL      409
REMARK 921   NORMALIZED FREE ENERGY PREDICTED BY IDOCK:   -2.22 KCAL/MOL
REMARK 922        TOTAL FREE ENERGY PREDICTED BY IDOCK:   -5.61 KCAL/MOL
REMARK 923 INTER-LIGAND FREE ENERGY PREDICTED BY IDOCK:   -4.28 KCAL/MOL
REMARK 924 INTRA-LIGAND FREE ENERGY PREDICTED BY IDOCK:   -1.33 KCAL/MOL
REMARK 927      BINDING AFFINITY PREDICTED BY RF-SCORE:    0.00 PKD
ROOT
HETATM    1  C   UNL     1      -6.944   9.328  63.468  1.00  0.00    -0.091 C  
HETATM    2  C   UNL     1      -6.175   8.178  64.097  1.00  0.00    -0.066 C  
ENDROOT
BRANCH   2   3
HETATM    3  C   UNL     1      -6.908   6.852  63.906  1.00  0.00    -0.054 C  
BRANCH   3   4
HETATM    4  C   UNL     1      -7.092   6.124  65.237  1.00  0.00    -0.064 C  
BRANCH   4   5
HETATM    5  C   UNL     1      -8.472   5.472  65.315  1.00  0.00    -0.147 C  
BRANCH   5   6
HETATM    6  C   UNL     1      -9.015   5.495  66.742  1.00  0.00    -0.114 C  
BRANCH   6   7
HETATM    7  C   UNL     1     -10.538   5.624  66.740  1.00  0.00    -0.372 C  
BRANCH   7   8
HETATM    8  C   UNL     1     -10.969   7.043  67.101  1.00  0.00    -0.393 C  
BRANCH   8   9
HETATM    9  C   UNL     1      -9.756   7.933  67.367  1.00  0.00    -0.210 C  
BRANCH   9  10
HETATM   10  C   UNL     1      -9.592   8.967  66.257  1.00  0.00    -0.327 C  
BRANCH  10  11
HETATM   11  C   UNL     1      -8.851  10.211  66.746  1.00  0.00    -0.143 C  
BRANCH  11  12
HETATM   12  C   UNL     1      -9.838  11.350  66.977  1.00  0.00    -0.214 C  
BRANCH  12  13
HETATM   13  C   UNL     1      -9.215  12.723  66.739  1.00  0.00    -0.225 C  
BRANCH  13  14
HETATM   14  C   UNL     1     -10.079  13.536  65.805  1.00  0.00    -0.287 C  
HETATM   15  O   UNL     1      -9.850  14.687  65.459  1.00  0.00    -0.340 OA 
BRANCH  14  16
HETATM   16  O   UNL     1     -11.153  12.800  65.403  1.00  0.00    -0.277 OA 
BRANCH  16  17
HETATM   17  C   UNL     1     -11.990  13.428  64.414  1.00  0.00    -0.411 C  
HETATM   18  C   UNL     1     -12.360  12.416  63.335  1.00  0.00    -0.603 C  
HETATM   19  C   UNL     1     -13.235  13.940  65.125  1.00  0.00     0.060 C  
ENDBRANCH  16  17
ENDBRANCH  14  16
ENDBRANCH  13  14
ENDBRANCH  12  13
ENDBRANCH  11  12
ENDBRANCH  10  11
ENDBRANCH   9  10
ENDBRANCH   8   9
ENDBRANCH   7   8
ENDBRANCH   6   7
ENDBRANCH   5   6
ENDBRANCH   4   5
ENDBRANCH   3   4
ENDBRANCH   2   3
TORSDOF 14
ENDMDL
MODEL      410
REMARK 921   NORMALIZED FREE ENERGY PREDICTED BY IDOCK:   -2.19 KCAL/MOL
REMARK 922        TOTAL FREE ENERGY PREDICTED BY IDOCK:   -5.56 KCAL/MOL
REMARK 923 INTER-LIGAND FREE ENERGY PREDICTED BY IDOCK:   -4.74 KCAL/MOL
REMARK 924 INTRA-LIGAND FREE ENERGY PREDICTED BY IDOCK:   -0.81 KCAL/MOL
REMARK 927      BINDING AFFINITY PREDICTED BY RF-SCORE:    0.00 PKD
ROOT
HETATM    1  C   UNL     1      -7.725  18.638  69.063  1.00  0.00    -0.202 C  
HETATM    2  C   UNL     1      -9.156  18.388  68.616  1.00  0.00    -0.317 C  
ENDROOT
BRANCH   2   3
HETATM    3  C   UNL     1      -9.219  17.297  67.549  1.00  0.00    -0.227 C  
BRANCH   3   4
HETATM    4  C   UNL     1     -10.070  17.735  66.358  1.00  0.00    -0.357 C  
BRANCH   4   5
HETATM    5  C   UNL     1     -10.427  16.540  65.475  1.00  0.00    -0.320 C  
BRANCH   5   6
HETATM    6  C   UNL     1     -10.398  15.236  66.270  1.00  0.00    -0.303 C  
BRANCH   6   7
HETATM    7  C   UNL     1     -10.708  14.044  65.366  1.00  0.00    -0.344 C  
BRANCH   7   8
HETATM    8  C   UNL     1     -11.860  13.214  65.928  1.00  0.00    -0.453 C  
BRANCH   8   9
HETATM    9  C   UNL     1     -11.660  12.938  67.417  1.00  0.00    -0.414 C  
BRANCH   9  10
HETATM   10  C   UNL     1     -11.497  11.443  67.672  1.00  0.00    -0.348 C  
BRANCH  10  11
HETATM   11  C   UNL     1     -10.116  10.944  67.250  1.00  0.00    -0.225 C  
BRANCH  11  12
HETATM   12  C   UNL     1      -9.876   9.544  67.805  1.00  0.00    -0.196 C  
BRANCH  12  13
HETATM   13  C   UNL     1     -10.381   8.448  66.870  1.00  0.00    -0.378 C  
BRANCH  13  14
HETATM   14  C   UNL     1      -9.575   7.185  67.060  1.00  0.00    -0.159 C  
HETATM   15  O   UNL     1      -9.114   6.798  68.125  1.00  0.00    -0.126 OA 
BRANCH  14  16
HETATM   16  O   UNL     1      -9.435   6.538  65.869  1.00  0.00    -0.029 OA 
BRANCH  16  17
HETATM   17  C   UNL     1      -8.080   6.205  65.509  1.00  0.00    -0.131 C  
HETATM   18  C   UNL     1      -7.962   4.702  65.282  1.00  0.00    -0.095 C  
HETATM   19  C   UNL     1      -7.743   6.972  64.237  1.00  0.00    -0.117 C  
ENDBRANCH  16  17
ENDBRANCH  14  16
ENDBRANCH  13  14
ENDBRANCH  12  13
ENDBRANCH  11  12
ENDBRANCH  10  11
ENDBRANCH   9  10
ENDBRANCH   8   9
ENDBRANCH   7   8
ENDBRANCH   6   7
ENDBRANCH   5   6
ENDBRANCH   4   5
ENDBRANCH   3   4
ENDBRANCH   2   3
TORSDOF 14
ENDMDL
MODEL      411
REMARK 921   NORMALIZED FREE ENERGY PREDICTED BY IDOCK:   -2.19 KCAL/MOL
REMARK 922        TOTAL FREE ENERGY PREDICTED BY IDOCK:   -5.55 KCAL/MOL
REMARK 923 INTER-LIGAND FREE ENERGY PREDICTED BY IDOCK:   -4.50 KCAL/MOL
REMARK 924 INTRA-LIGAND FREE ENERGY PREDICTED BY IDOCK:   -1.05 KCAL/MOL
REMARK 927      BINDING AFFINITY PREDICTED BY RF-SCORE:    0.00 PKD
ROOT
HETATM    1  C   UNL     1     -10.422  17.823  67.827  1.00  0.00    -0.402 C  
HETATM    2  C   UNL     1      -9.970  16.810  68.866  1.00  0.00    -0.271 C  
ENDROOT
BRANCH   2   3
HETATM    3  C   UNL     1     -10.139  15.381  68.355  1.00  0.00    -0.215 C  
BRANCH   3   4
HETATM    4  C   UNL     1      -8.912  14.529  68.677  1.00  0.00    -0.181 C  
BRANCH   4   5
HETATM    5  C   UNL     1      -8.063  14.301  67.427  1.00  0.00    -0.213 C  
BRANCH   5   6
HETATM    6  C   UNL     1      -7.631  12.841  67.310  1.00  0.00    -0.116 C  
BRANCH   6   7
HETATM    7  C   UNL     1      -8.678  11.914  67.925  1.00  0.00    -0.167 C  
BRANCH   7   8
HETATM    8  C   UNL     1      -8.027  10.883  68.844  1.00  0.00    -0.146 C  
BRANCH   8   9
HETATM    9  C   UNL     1      -7.457   9.716  68.038  1.00  0.00    -0.082 C  
BRANCH   9  10
HETATM   10  C   UNL     1      -7.199   8.513  68.940  1.00  0.00    -0.078 C  
BRANCH  10  11
HETATM   11  C   UNL     1      -7.410   8.854  70.415  1.00  0.00    -0.070 C  
BRANCH  11  12
HETATM   12  C   UNL     1      -8.467   7.934  71.017  1.00  0.00    -0.125 C  
BRANCH  12  13
HETATM   13  C   UNL     1      -9.678   8.699  71.545  1.00  0.00    -0.333 C  
BRANCH  13  14
HETATM   14  C   UNL     1     -10.240   8.012  72.766  1.00  0.00    -0.319 C  
HETATM   15  O   UNL     1      -9.615   7.258  73.499  1.00  0.00    -0.198 OA 
BRANCH  14  16
HETATM   16  O   UNL     1     -11.550   8.352  72.931  1.00  0.00    -0.294 OA 
BRANCH  16  17
HETATM   17  C   UNL     1     -12.316   8.442  71.714  1.00  0.00    -0.331 C  
HETATM   18  C   UNL     1     -13.075   7.139  71.487  1.00  0.00    -0.427 C  
HETATM   19  C   UNL     1     -13.280   9.611  71.865  1.00  0.00    -0.538 C  
ENDBRANCH  16  17
ENDBRANCH  14  16
ENDBRANCH  13  14
ENDBRANCH  12  13
ENDBRANCH  11  12
ENDBRANCH  10  11
ENDBRANCH   9  10
ENDBRANCH   8   9
ENDBRANCH   7   8
ENDBRANCH   6   7
ENDBRANCH   5   6
ENDBRANCH   4   5
ENDBRANCH   3   4
ENDBRANCH   2   3
TORSDOF 14
ENDMDL
MODEL      412
REMARK 921   NORMALIZED FREE ENERGY PREDICTED BY IDOCK:   -2.19 KCAL/MOL
REMARK 922        TOTAL FREE ENERGY PREDICTED BY IDOCK:   -5.55 KCAL/MOL
REMARK 923 INTER-LIGAND FREE ENERGY PREDICTED BY IDOCK:   -4.24 KCAL/MOL
REMARK 924 INTRA-LIGAND FREE ENERGY PREDICTED BY IDOCK:   -1.31 KCAL/MOL
REMARK 927      BINDING AFFINITY PREDICTED BY RF-SCORE:    0.00 PKD
ROOT
HETATM    1  C   UNL     1     -10.434  10.567  66.804  1.00  0.00    -0.302 C  
HETATM    2  C   UNL     1     -10.930   9.965  68.109  1.00  0.00    -0.261 C  
ENDROOT
BRANCH   2   3
HETATM    3  C   UNL     1     -11.656  11.006  68.958  1.00  0.00    -0.392 C  
BRANCH   3   4
HETATM    4  C   UNL     1     -11.354  10.818  70.444  1.00  0.00    -0.342 C  
BRANCH   4   5
HETATM    5  C   UNL     1     -12.590  11.110  71.292  1.00  0.00    -0.503 C  
BRANCH   5   6
HETATM    6  C   UNL     1     -12.954   9.914  72.170  1.00  0.00    -0.471 C  
BRANCH   6   7
HETATM    7  C   UNL     1     -13.687   8.848  71.357  1.00  0.00    -0.323 C  
BRANCH   7   8
HETATM    8  C   UNL     1     -13.253   7.445  71.773  1.00  0.00    -0.371 C  
BRANCH   8   9
HETATM    9  C   UNL     1     -12.655   6.684  70.590  1.00  0.00     0.076 C  
BRANCH   9  10
HETATM   10  C   UNL     1     -11.233   7.156  70.308  1.00  0.00    -0.309 C  
BRANCH  10  11
HETATM   11  C   UNL     1     -10.195   6.291  71.022  1.00  0.00    -0.234 C  
BRANCH  11  12
HETATM   12  C   UNL     1      -9.831   5.091  70.154  1.00  0.00    -0.303 C  
BRANCH  12  13
HETATM   13  C   UNL     1      -9.354   3.896  70.976  1.00  0.00    -0.222 C  
BRANCH  13  14
HETATM   14  C   UNL     1      -8.759   2.842  70.073  1.00  0.00    -0.069 C  
HETATM   15  O   UNL     1      -9.351   1.851  69.665  1.00  0.00    -0.107 OA 
BRANCH  14  16
HETATM   16  O   UNL     1      -7.466   3.154  69.780  1.00  0.00    -0.044 OA 
BRANCH  16  17
HETATM   17  C   UNL     1      -6.659   3.541  70.910  1.00  0.00    -0.031 C  
HETATM   18  C   UNL     1      -5.920   2.323  71.454  1.00  0.00    -0.014 C  
HETATM   19  C   UNL     1      -5.676   4.600  70.429  1.00  0.00    -0.016 C  
ENDBRANCH  16  17
ENDBRANCH  14  16
ENDBRANCH  13  14
ENDBRANCH  12  13
ENDBRANCH  11  12
ENDBRANCH  10  11
ENDBRANCH   9  10
ENDBRANCH   8   9
ENDBRANCH   7   8
ENDBRANCH   6   7
ENDBRANCH   5   6
ENDBRANCH   4   5
ENDBRANCH   3   4
ENDBRANCH   2   3
TORSDOF 14
ENDMDL
MODEL      413
REMARK 921   NORMALIZED FREE ENERGY PREDICTED BY IDOCK:   -2.19 KCAL/MOL
REMARK 922        TOTAL FREE ENERGY PREDICTED BY IDOCK:   -5.55 KCAL/MOL
REMARK 923 INTER-LIGAND FREE ENERGY PREDICTED BY IDOCK:   -3.49 KCAL/MOL
REMARK 924 INTRA-LIGAND FREE ENERGY PREDICTED BY IDOCK:   -2.05 KCAL/MOL
REMARK 927      BINDING AFFINITY PREDICTED BY RF-SCORE:    0.00 PKD
ROOT
HETATM    1  C   UNL     1      -7.844   5.798  67.580  1.00  0.00    -0.101 C  
HETATM    2  C   UNL     1      -7.812   6.271  66.135  1.00  0.00    -0.105 C  
ENDROOT
BRANCH   2   3
HETATM    3  C   UNL     1      -7.650   7.787  66.053  1.00  0.00    -0.087 C  
BRANCH   3   4
HETATM    4  C   UNL     1      -6.358   8.243  66.729  1.00  0.00    -0.056 C  
BRANCH   4   5
HETATM    5  C   UNL     1      -6.631   9.377  67.716  1.00  0.00    -0.063 C  
BRANCH   5   6
HETATM    6  C   UNL     1      -7.192  10.607  67.006  1.00  0.00    -0.101 C  
BRANCH   6   7
HETATM    7  C   UNL     1      -8.392  11.170  67.766  1.00  0.00    -0.123 C  
BRANCH   7   8
HETATM    8  C   UNL     1      -9.595  11.345  66.842  1.00  0.00    -0.203 C  
BRANCH   8   9
HETATM    9  C   UNL     1     -10.443  10.075  66.802  1.00  0.00    -0.267 C  
BRANCH   9  10
HETATM   10  C   UNL     1     -10.715   9.562  68.212  1.00  0.00    -0.241 C  
BRANCH  10  11
HETATM   11  C   UNL     1     -10.446   8.063  68.333  1.00  0.00    -0.205 C  
BRANCH  11  12
HETATM   12  C   UNL     1     -10.195   7.694  69.791  1.00  0.00    -0.210 C  
BRANCH  12  13
HETATM   13  C   UNL     1     -10.260   8.904  70.721  1.00  0.00    -0.282 C  
BRANCH  13  14
HETATM   14  C   UNL     1     -10.304   8.455  72.162  1.00  0.00    -0.327 C  
HETATM   15  O   UNL     1     -11.265   7.926  72.704  1.00  0.00    -0.344 OA 
BRANCH  14  16
HETATM   16  O   UNL     1      -9.117   8.729  72.773  1.00  0.00    -0.338 OA 
BRANCH  16  17
HETATM   17  C   UNL     1      -8.295   7.579  73.054  1.00  0.00    -0.129 C  
HETATM   18  C   UNL     1      -6.877   7.826  72.548  1.00  0.00    -0.070 C  
HETATM   19  C   UNL     1      -8.302   7.369  74.561  1.00  0.00    -0.240 C  
ENDBRANCH  16  17
ENDBRANCH  14  16
ENDBRANCH  13  14
ENDBRANCH  12  13
ENDBRANCH  11  12
ENDBRANCH  10  11
ENDBRANCH   9  10
ENDBRANCH   8   9
ENDBRANCH   7   8
ENDBRANCH   6   7
ENDBRANCH   5   6
ENDBRANCH   4   5
ENDBRANCH   3   4
ENDBRANCH   2   3
TORSDOF 14
ENDMDL
MODEL      414
REMARK 921   NORMALIZED FREE ENERGY PREDICTED BY IDOCK:   -2.18 KCAL/MOL
REMARK 922        TOTAL FREE ENERGY PREDICTED BY IDOCK:   -5.54 KCAL/MOL
REMARK 923 INTER-LIGAND FREE ENERGY PREDICTED BY IDOCK:   -3.35 KCAL/MOL
REMARK 924 INTRA-LIGAND FREE ENERGY PREDICTED BY IDOCK:   -2.19 KCAL/MOL
REMARK 927      BINDING AFFINITY PREDICTED BY RF-SCORE:    0.00 PKD
ROOT
HETATM    1  C   UNL     1      -8.811   8.188  72.848  1.00  0.00    -0.307 C  
HETATM    2  C   UNL     1      -9.953   8.743  72.012  1.00  0.00    -0.391 C  
ENDROOT
BRANCH   2   3
HETATM    3  C   UNL     1      -9.453   9.258  70.664  1.00  0.00    -0.333 C  
BRANCH   3   4
HETATM    4  C   UNL     1     -10.556   9.999  69.910  1.00  0.00    -0.324 C  
BRANCH   4   5
HETATM    5  C   UNL     1     -10.570   9.600  68.435  1.00  0.00    -0.264 C  
BRANCH   5   6
HETATM    6  C   UNL     1     -10.390   8.092  68.268  1.00  0.00    -0.241 C  
BRANCH   6   7
HETATM    7  C   UNL     1     -10.139   7.736  66.804  1.00  0.00    -0.341 C  
BRANCH   7   8
HETATM    8  C   UNL     1      -8.644   7.648  66.509  1.00  0.00    -0.142 C  
BRANCH   8   9
HETATM    9  C   UNL     1      -7.878   7.108  67.716  1.00  0.00    -0.114 C  
BRANCH   9  10
HETATM   10  C   UNL     1      -6.802   8.094  68.158  1.00  0.00    -0.076 C  
BRANCH  10  11
HETATM   11  C   UNL     1      -6.496   7.969  69.650  1.00  0.00    -0.037 C  
BRANCH  11  12
HETATM   12  C   UNL     1      -6.033   6.551  69.970  1.00  0.00    -0.022 C  
BRANCH  12  13
HETATM   13  C   UNL     1      -6.810   5.930  71.129  1.00  0.00    -0.066 C  
BRANCH  13  14
HETATM   14  C   UNL     1      -7.051   4.462  70.870  1.00  0.00    -0.037 C  
HETATM   15  O   UNL     1      -6.185   3.647  70.580  1.00  0.00    -0.018 OA 
BRANCH  14  16
HETATM   16  O   UNL     1      -8.377   4.177  71.005  1.00  0.00    -0.076 OA 
BRANCH  16  17
HETATM   17  C   UNL     1      -9.244   4.841  70.065  1.00  0.00    -0.119 C  
HETATM   18  C   UNL     1      -9.466   3.946  68.850  1.00  0.00    -0.234 C  
HETATM   19  C   UNL     1     -10.560   5.123  70.777  1.00  0.00    -0.205 C  
ENDBRANCH  16  17
ENDBRANCH  14  16
ENDBRANCH  13  14
ENDBRANCH  12  13
ENDBRANCH  11  12
ENDBRANCH  10  11
ENDBRANCH   9  10
ENDBRANCH   8   9
ENDBRANCH   7   8
ENDBRANCH   6   7
ENDBRANCH   5   6
ENDBRANCH   4   5
ENDBRANCH   3   4
ENDBRANCH   2   3
TORSDOF 14
ENDMDL
MODEL      415
REMARK 921   NORMALIZED FREE ENERGY PREDICTED BY IDOCK:   -2.18 KCAL/MOL
REMARK 922        TOTAL FREE ENERGY PREDICTED BY IDOCK:   -5.54 KCAL/MOL
REMARK 923 INTER-LIGAND FREE ENERGY PREDICTED BY IDOCK:   -4.70 KCAL/MOL
REMARK 924 INTRA-LIGAND FREE ENERGY PREDICTED BY IDOCK:   -0.83 KCAL/MOL
REMARK 927      BINDING AFFINITY PREDICTED BY RF-SCORE:    0.00 PKD
ROOT
HETATM    1  C   UNL     1      -8.723   3.479  68.789  1.00  0.00    -0.140 C  
HETATM    2  C   UNL     1      -9.423   4.021  70.024  1.00  0.00    -0.260 C  
ENDROOT
BRANCH   2   3
HETATM    3  C   UNL     1      -8.536   5.012  70.773  1.00  0.00    -0.119 C  
BRANCH   3   4
HETATM    4  C   UNL     1      -8.294   4.562  72.213  1.00  0.00    -0.110 C  
BRANCH   4   5
HETATM    5  C   UNL     1      -9.069   5.440  73.195  1.00  0.00    -0.126 C  
BRANCH   5   6
HETATM    6  C   UNL     1     -10.314   6.036  72.541  1.00  0.00    -0.222 C  
BRANCH   6   7
HETATM    7  C   UNL     1     -10.577   7.448  73.063  1.00  0.00    -0.392 C  
BRANCH   7   8
HETATM    8  C   UNL     1      -9.416   8.382  72.731  1.00  0.00    -0.312 C  
BRANCH   8   9
HETATM    9  C   UNL     1      -9.193   8.462  71.222  1.00  0.00    -0.228 C  
BRANCH   9  10
HETATM   10  C   UNL     1     -10.503   8.751  70.497  1.00  0.00    -0.246 C  
BRANCH  10  11
HETATM   11  C   UNL     1     -10.328   8.736  68.979  1.00  0.00    -0.227 C  
BRANCH  11  12
HETATM   12  C   UNL     1     -11.079   9.909  68.356  1.00  0.00    -0.193 C  
BRANCH  12  13
HETATM   13  C   UNL     1     -10.170  10.810  67.523  1.00  0.00    -0.231 C  
BRANCH  13  14
HETATM   14  C   UNL     1     -10.946  11.995  66.999  1.00  0.00    -0.274 C  
HETATM   15  O   UNL     1     -11.842  12.571  67.602  1.00  0.00    -0.362 OA 
BRANCH  14  16
HETATM   16  O   UNL     1     -10.503  12.328  65.754  1.00  0.00    -0.243 OA 
BRANCH  16  17
HETATM   17  C   UNL     1     -11.537  12.536  64.773  1.00  0.00    -0.337 C  
HETATM   18  C   UNL     1     -11.415  13.939  64.186  1.00  0.00    -0.270 C  
HETATM   19  C   UNL     1     -11.360  11.480  63.691  1.00  0.00    -0.412 C  
ENDBRANCH  16  17
ENDBRANCH  14  16
ENDBRANCH  13  14
ENDBRANCH  12  13
ENDBRANCH  11  12
ENDBRANCH  10  11
ENDBRANCH   9  10
ENDBRANCH   8   9
ENDBRANCH   7   8
ENDBRANCH   6   7
ENDBRANCH   5   6
ENDBRANCH   4   5
ENDBRANCH   3   4
ENDBRANCH   2   3
TORSDOF 14
ENDMDL
MODEL      416
REMARK 921   NORMALIZED FREE ENERGY PREDICTED BY IDOCK:   -2.16 KCAL/MOL
REMARK 922        TOTAL FREE ENERGY PREDICTED BY IDOCK:   -5.50 KCAL/MOL
REMARK 923 INTER-LIGAND FREE ENERGY PREDICTED BY IDOCK:   -4.12 KCAL/MOL
REMARK 924 INTRA-LIGAND FREE ENERGY PREDICTED BY IDOCK:   -1.38 KCAL/MOL
REMARK 927      BINDING AFFINITY PREDICTED BY RF-SCORE:    0.00 PKD
ROOT
HETATM    1  C   UNL     1     -11.964   6.660  70.734  1.00  0.00    -0.412 C  
HETATM    2  C   UNL     1     -10.705   7.020  71.507  1.00  0.00    -0.244 C  
ENDROOT
BRANCH   2   3
HETATM    3  C   UNL     1      -9.792   5.807  71.671  1.00  0.00    -0.205 C  
BRANCH   3   4
HETATM    4  C   UNL     1     -10.279   4.628  70.830  1.00  0.00    -0.213 C  
BRANCH   4   5
HETATM    5  C   UNL     1      -9.183   4.145  69.882  1.00  0.00    -0.211 C  
BRANCH   5   6
HETATM    6  C   UNL     1      -7.875   4.897  70.118  1.00  0.00    -0.066 C  
BRANCH   6   7
HETATM    7  C   UNL     1      -7.443   5.643  68.857  1.00  0.00    -0.084 C  
BRANCH   7   8
HETATM    8  C   UNL     1      -6.968   4.672  67.779  1.00  0.00    -0.060 C  
BRANCH   8   9
HETATM    9  C   UNL     1      -8.018   4.517  66.680  1.00  0.00    -0.102 C  
BRANCH   9  10
HETATM   10  C   UNL     1      -8.776   5.824  66.471  1.00  0.00    -0.123 C  
BRANCH  10  11
HETATM   11  C   UNL     1     -10.287   5.601  66.415  1.00  0.00    -0.241 C  
BRANCH  11  12
HETATM   12  C   UNL     1     -11.001   6.648  67.264  1.00  0.00    -0.456 C  
BRANCH  12  13
HETATM   13  C   UNL     1     -10.080   7.795  67.676  1.00  0.00    -0.254 C  
BRANCH  13  14
HETATM   14  C   UNL     1     -10.382   9.028  66.858  1.00  0.00    -0.254 C  
HETATM   15  O   UNL     1      -9.895   9.284  65.765  1.00  0.00    -0.296 OA 
BRANCH  14  16
HETATM   16  O   UNL     1     -11.275   9.818  67.518  1.00  0.00    -0.155 OA 
BRANCH  16  17
HETATM   17  C   UNL     1     -10.691  10.811  68.384  1.00  0.00    -0.217 C  
HETATM   18  C   UNL     1     -10.954  10.441  69.840  1.00  0.00    -0.364 C  
HETATM   19  C   UNL     1      -9.197  10.847  68.096  1.00  0.00    -0.158 C  
ENDBRANCH  16  17
ENDBRANCH  14  16
ENDBRANCH  13  14
ENDBRANCH  12  13
ENDBRANCH  11  12
ENDBRANCH  10  11
ENDBRANCH   9  10
ENDBRANCH   8   9
ENDBRANCH   7   8
ENDBRANCH   6   7
ENDBRANCH   5   6
ENDBRANCH   4   5
ENDBRANCH   3   4
ENDBRANCH   2   3
TORSDOF 14
ENDMDL
MODEL      417
REMARK 921   NORMALIZED FREE ENERGY PREDICTED BY IDOCK:   -2.15 KCAL/MOL
REMARK 922        TOTAL FREE ENERGY PREDICTED BY IDOCK:   -5.47 KCAL/MOL
REMARK 923 INTER-LIGAND FREE ENERGY PREDICTED BY IDOCK:   -4.99 KCAL/MOL
REMARK 924 INTRA-LIGAND FREE ENERGY PREDICTED BY IDOCK:   -0.48 KCAL/MOL
REMARK 927      BINDING AFFINITY PREDICTED BY RF-SCORE:    0.00 PKD
ROOT
HETATM    1  C   UNL     1     -11.694  12.007  69.278  1.00  0.00    -0.389 C  
HETATM    2  C   UNL     1     -11.994  13.362  69.897  1.00  0.00    -0.408 C  
ENDROOT
BRANCH   2   3
HETATM    3  C   UNL     1     -11.781  14.490  68.890  1.00  0.00    -0.354 C  
BRANCH   3   4
HETATM    4  C   UNL     1     -10.638  14.167  67.929  1.00  0.00    -0.244 C  
BRANCH   4   5
HETATM    5  C   UNL     1     -11.018  14.516  66.491  1.00  0.00    -0.321 C  
BRANCH   5   6
HETATM    6  C   UNL     1     -12.322  13.835  66.082  1.00  0.00    -0.496 C  
BRANCH   6   7
HETATM    7  C   UNL     1     -12.325  13.523  64.587  1.00  0.00    -0.419 C  
BRANCH   7   8
HETATM    8  C   UNL     1     -12.135  12.030  64.337  1.00  0.00    -0.375 C  
BRANCH   8   9
HETATM    9  C   UNL     1     -10.663  11.699  64.093  1.00  0.00    -0.418 C  
BRANCH   9  10
HETATM   10  C   UNL     1     -10.036  11.077  65.336  1.00  0.00    -0.326 C  
BRANCH  10  11
HETATM   11  C   UNL     1      -9.117   9.908  64.984  1.00  0.00    -0.264 C  
BRANCH  11  12
HETATM   12  C   UNL     1      -8.807   9.094  66.236  1.00  0.00    -0.176 C  
BRANCH  12  13
HETATM   13  C   UNL     1      -9.718   7.877  66.384  1.00  0.00    -0.235 C  
BRANCH  13  14
HETATM   14  C   UNL     1      -8.917   6.674  66.823  1.00  0.00    -0.133 C  
HETATM   15  O   UNL     1      -9.394   5.622  67.226  1.00  0.00    -0.113 OA 
BRANCH  14  16
HETATM   16  O   UNL     1      -7.585   6.933  66.707  1.00  0.00    -0.087 OA 
BRANCH  16  17
HETATM   17  C   UNL     1      -6.812   6.710  67.903  1.00  0.00    -0.077 C  
HETATM   18  C   UNL     1      -7.519   7.342  69.097  1.00  0.00    -0.099 C  
HETATM   19  C   UNL     1      -6.678   5.205  68.087  1.00  0.00    -0.055 C  
ENDBRANCH  16  17
ENDBRANCH  14  16
ENDBRANCH  13  14
ENDBRANCH  12  13
ENDBRANCH  11  12
ENDBRANCH  10  11
ENDBRANCH   9  10
ENDBRANCH   8   9
ENDBRANCH   7   8
ENDBRANCH   6   7
ENDBRANCH   5   6
ENDBRANCH   4   5
ENDBRANCH   3   4
ENDBRANCH   2   3
TORSDOF 14
ENDMDL
MODEL      418
REMARK 921   NORMALIZED FREE ENERGY PREDICTED BY IDOCK:   -2.13 KCAL/MOL
REMARK 922        TOTAL FREE ENERGY PREDICTED BY IDOCK:   -5.44 KCAL/MOL
REMARK 923 INTER-LIGAND FREE ENERGY PREDICTED BY IDOCK:   -3.93 KCAL/MOL
REMARK 924 INTRA-LIGAND FREE ENERGY PREDICTED BY IDOCK:   -1.51 KCAL/MOL
REMARK 927      BINDING AFFINITY PREDICTED BY RF-SCORE:    0.00 PKD
ROOT
HETATM    1  C   UNL     1      -6.513   8.342  69.013  1.00  0.00    -0.048 C  
HETATM    2  C   UNL     1      -7.857   8.985  69.318  1.00  0.00    -0.095 C  
ENDROOT
BRANCH   2   3
HETATM    3  C   UNL     1      -8.485   9.576  68.058  1.00  0.00    -0.119 C  
BRANCH   3   4
HETATM    4  C   UNL     1      -8.586  11.098  68.151  1.00  0.00    -0.140 C  
BRANCH   4   5
HETATM    5  C   UNL     1      -7.985  11.760  66.912  1.00  0.00    -0.149 C  
BRANCH   5   6
HETATM    6  C   UNL     1      -6.459  11.767  66.973  1.00  0.00    -0.147 C  
BRANCH   6   7
HETATM    7  C   UNL     1      -5.972  12.347  68.300  1.00  0.00    -0.059 C  
BRANCH   7   8
HETATM    8  C   UNL     1      -5.443  13.767  68.118  1.00  0.00    -0.116 C  
BRANCH   8   9
HETATM    9  C   UNL     1      -6.058  14.716  69.145  1.00  0.00    -0.102 C  
BRANCH   9  10
HETATM   10  C   UNL     1      -6.364  16.070  68.514  1.00  0.00    -0.115 C  
BRANCH  10  11
HETATM   11  C   UNL     1      -7.853  16.406  68.586  1.00  0.00    -0.211 C  
BRANCH  11  12
HETATM   12  C   UNL     1      -8.608  15.669  67.485  1.00  0.00    -0.185 C  
BRANCH  12  13
HETATM   13  C   UNL     1      -9.642  14.691  68.038  1.00  0.00    -0.212 C  
BRANCH  13  14
HETATM   14  C   UNL     1     -11.039  15.186  67.750  1.00  0.00    -0.313 C  
HETATM   15  O   UNL     1     -11.845  15.550  68.596  1.00  0.00    -0.362 OA 
BRANCH  14  16
HETATM   16  O   UNL     1     -11.273  15.168  66.408  1.00  0.00    -0.339 OA 
BRANCH  16  17
HETATM   17  C   UNL     1     -11.211  13.866  65.794  1.00  0.00    -0.303 C  
HETATM   18  C   UNL     1     -11.911  12.844  66.684  1.00  0.00    -0.461 C  
HETATM   19  C   UNL     1     -11.899  13.965  64.439  1.00  0.00    -0.456 C  
ENDBRANCH  16  17
ENDBRANCH  14  16
ENDBRANCH  13  14
ENDBRANCH  12  13
ENDBRANCH  11  12
ENDBRANCH  10  11
ENDBRANCH   9  10
ENDBRANCH   8   9
ENDBRANCH   7   8
ENDBRANCH   6   7
ENDBRANCH   5   6
ENDBRANCH   4   5
ENDBRANCH   3   4
ENDBRANCH   2   3
TORSDOF 14
ENDMDL
MODEL      419
REMARK 921   NORMALIZED FREE ENERGY PREDICTED BY IDOCK:   -2.11 KCAL/MOL
REMARK 922        TOTAL FREE ENERGY PREDICTED BY IDOCK:   -5.40 KCAL/MOL
REMARK 923 INTER-LIGAND FREE ENERGY PREDICTED BY IDOCK:   -4.61 KCAL/MOL
REMARK 924 INTRA-LIGAND FREE ENERGY PREDICTED BY IDOCK:   -0.79 KCAL/MOL
REMARK 927      BINDING AFFINITY PREDICTED BY RF-SCORE:    0.00 PKD
ROOT
HETATM    1  C   UNL     1     -14.326  15.523  72.226  1.00  0.00    -0.556 C  
HETATM    2  C   UNL     1     -12.828  15.381  72.441  1.00  0.00    -0.475 C  
ENDROOT
BRANCH   2   3
HETATM    3  C   UNL     1     -12.415  13.912  72.497  1.00  0.00    -0.044 C  
BRANCH   3   4
HETATM    4  C   UNL     1     -12.888  13.155  71.256  1.00  0.00    -0.384 C  
BRANCH   4   5
HETATM    5  C   UNL     1     -12.035  13.515  70.041  1.00  0.00    -0.410 C  
BRANCH   5   6
HETATM    6  C   UNL     1     -11.795  12.296  69.152  1.00  0.00    -0.355 C  
BRANCH   6   7
HETATM    7  C   UNL     1     -10.529  12.475  68.316  1.00  0.00    -0.243 C  
BRANCH   7   8
HETATM    8  C   UNL     1     -10.629  11.713  66.997  1.00  0.00    -0.272 C  
BRANCH   8   9
HETATM    9  C   UNL     1      -9.720  10.485  67.004  1.00  0.00    -0.212 C  
BRANCH   9  10
HETATM   10  C   UNL     1     -10.406   9.302  66.329  1.00  0.00    -0.192 C  
BRANCH  10  11
HETATM   11  C   UNL     1      -9.450   8.127  66.134  1.00  0.00    -0.217 C  
BRANCH  11  12
HETATM   12  C   UNL     1      -9.686   7.077  67.215  1.00  0.00    -0.189 C  
BRANCH  12  13
HETATM   13  C   UNL     1      -8.455   6.847  68.088  1.00  0.00    -0.124 C  
BRANCH  13  14
HETATM   14  C   UNL     1      -8.768   7.167  69.530  1.00  0.00    -0.134 C  
HETATM   15  O   UNL     1      -9.093   8.269  69.951  1.00  0.00    -0.145 OA 
BRANCH  14  16
HETATM   16  O   UNL     1      -8.633   6.048  70.296  1.00  0.00    -0.137 OA 
BRANCH  16  17
HETATM   17  C   UNL     1      -9.419   6.034  71.503  1.00  0.00    -0.149 C  
HETATM   18  C   UNL     1     -10.237   4.749  71.569  1.00  0.00    -0.246 C  
HETATM   19  C   UNL     1      -8.454   6.123  72.678  1.00  0.00    -0.121 C  
ENDBRANCH  16  17
ENDBRANCH  14  16
ENDBRANCH  13  14
ENDBRANCH  12  13
ENDBRANCH  11  12
ENDBRANCH  10  11
ENDBRANCH   9  10
ENDBRANCH   8   9
ENDBRANCH   7   8
ENDBRANCH   6   7
ENDBRANCH   5   6
ENDBRANCH   4   5
ENDBRANCH   3   4
ENDBRANCH   2   3
TORSDOF 14
ENDMDL
MODEL      420
REMARK 921   NORMALIZED FREE ENERGY PREDICTED BY IDOCK:   -2.10 KCAL/MOL
REMARK 922        TOTAL FREE ENERGY PREDICTED BY IDOCK:   -5.39 KCAL/MOL
REMARK 923 INTER-LIGAND FREE ENERGY PREDICTED BY IDOCK:   -3.84 KCAL/MOL
REMARK 924 INTRA-LIGAND FREE ENERGY PREDICTED BY IDOCK:   -1.55 KCAL/MOL
REMARK 927      BINDING AFFINITY PREDICTED BY RF-SCORE:    0.00 PKD
ROOT
HETATM    1  C   UNL     1      -7.828  13.857  67.920  1.00  0.00    -0.161 C  
HETATM    2  C   UNL     1      -7.173  12.506  67.683  1.00  0.00    -0.136 C  
ENDROOT
BRANCH   2   3
HETATM    3  C   UNL     1      -7.177  11.659  68.954  1.00  0.00    -0.113 C  
BRANCH   3   4
HETATM    4  C   UNL     1      -8.034  10.406  68.783  1.00  0.00    -0.122 C  
BRANCH   4   5
HETATM    5  C   UNL     1      -8.786  10.438  67.454  1.00  0.00    -0.133 C  
BRANCH   5   6
HETATM    6  C   UNL     1     -10.253  10.054  67.638  1.00  0.00    -0.249 C  
BRANCH   6   7
HETATM    7  C   UNL     1     -10.648   8.940  66.670  1.00  0.00    -0.150 C  
BRANCH   7   8
HETATM    8  C   UNL     1      -9.976   7.622  67.044  1.00  0.00    -0.310 C  
BRANCH   8   9
HETATM    9  C   UNL     1     -11.009   6.587  67.487  1.00  0.00    -0.444 C  
BRANCH   9  10
HETATM   10  C   UNL     1     -10.611   5.192  67.017  1.00  0.00    -0.201 C  
BRANCH  10  11
HETATM   11  C   UNL     1      -9.327   4.710  67.691  1.00  0.00    -0.170 C  
BRANCH  11  12
HETATM   12  C   UNL     1      -9.617   4.297  69.131  1.00  0.00    -0.249 C  
BRANCH  12  13
HETATM   13  C   UNL     1      -8.554   4.793  70.108  1.00  0.00    -0.102 C  
BRANCH  13  14
HETATM   14  C   UNL     1      -8.753   6.262  70.398  1.00  0.00    -0.146 C  
HETATM   15  O   UNL     1      -7.906   7.131  70.240  1.00  0.00    -0.100 OA 
BRANCH  14  16
HETATM   16  O   UNL     1     -10.015   6.478  70.864  1.00  0.00    -0.183 OA 
BRANCH  16  17
HETATM   17  C   UNL     1     -10.187   7.691  71.624  1.00  0.00    -0.185 C  
HETATM   18  C   UNL     1     -11.271   8.550  70.982  1.00  0.00    -0.312 C  
HETATM   19  C   UNL     1     -10.580   7.292  73.039  1.00  0.00    -0.371 C  
ENDBRANCH  16  17
ENDBRANCH  14  16
ENDBRANCH  13  14
ENDBRANCH  12  13
ENDBRANCH  11  12
ENDBRANCH  10  11
ENDBRANCH   9  10
ENDBRANCH   8   9
ENDBRANCH   7   8
ENDBRANCH   6   7
ENDBRANCH   5   6
ENDBRANCH   4   5
ENDBRANCH   3   4
ENDBRANCH   2   3
TORSDOF 14
ENDMDL
MODEL      421
REMARK 921   NORMALIZED FREE ENERGY PREDICTED BY IDOCK:   -2.10 KCAL/MOL
REMARK 922        TOTAL FREE ENERGY PREDICTED BY IDOCK:   -5.38 KCAL/MOL
REMARK 923 INTER-LIGAND FREE ENERGY PREDICTED BY IDOCK:   -3.58 KCAL/MOL
REMARK 924 INTRA-LIGAND FREE ENERGY PREDICTED BY IDOCK:   -1.79 KCAL/MOL
REMARK 927      BINDING AFFINITY PREDICTED BY RF-SCORE:    0.00 PKD
ROOT
HETATM    1  C   UNL     1      -6.470   8.123  69.023  1.00  0.00    -0.040 C  
HETATM    2  C   UNL     1      -7.879   8.692  69.073  1.00  0.00    -0.100 C  
ENDROOT
BRANCH   2   3
HETATM    3  C   UNL     1      -8.346   9.132  67.687  1.00  0.00    -0.116 C  
BRANCH   3   4
HETATM    4  C   UNL     1      -8.375  10.655  67.569  1.00  0.00    -0.115 C  
BRANCH   4   5
HETATM    5  C   UNL     1      -7.383  11.139  66.513  1.00  0.00    -0.129 C  
BRANCH   5   6
HETATM    6  C   UNL     1      -5.961  11.183  67.068  1.00  0.00    -0.091 C  
BRANCH   6   7
HETATM    7  C   UNL     1      -5.938  11.833  68.451  1.00  0.00    -0.049 C  
BRANCH   7   8
HETATM    8  C   UNL     1      -5.458  13.280  68.370  1.00  0.00    -0.086 C  
BRANCH   8   9
HETATM    9  C   UNL     1      -6.310  14.189  69.254  1.00  0.00    -0.112 C  
BRANCH   9  10
HETATM   10  C   UNL     1      -6.633  15.494  68.533  1.00  0.00    -0.109 C  
BRANCH  10  11
HETATM   11  C   UNL     1      -8.139  15.739  68.452  1.00  0.00    -0.143 C  
BRANCH  11  12
HETATM   12  C   UNL     1      -8.741  14.919  67.315  1.00  0.00    -0.224 C  
BRANCH  12  13
HETATM   13  C   UNL     1      -9.756  13.891  67.808  1.00  0.00    -0.225 C  
BRANCH  13  14
HETATM   14  C   UNL     1     -11.162  14.379  67.555  1.00  0.00    -0.315 C  
HETATM   15  O   UNL     1     -11.508  15.060  66.599  1.00  0.00    -0.336 OA 
BRANCH  14  16
HETATM   16  O   UNL     1     -11.990  13.952  68.549  1.00  0.00    -0.352 OA 
BRANCH  16  17
HETATM   17  C   UNL     1     -11.593  14.333  69.881  1.00  0.00    -0.276 C  
HETATM   18  C   UNL     1     -11.626  15.852  70.013  1.00  0.00    -0.346 C  
HETATM   19  C   UNL     1     -12.570  13.685  70.853  1.00  0.00    -0.421 C  
ENDBRANCH  16  17
ENDBRANCH  14  16
ENDBRANCH  13  14
ENDBRANCH  12  13
ENDBRANCH  11  12
ENDBRANCH  10  11
ENDBRANCH   9  10
ENDBRANCH   8   9
ENDBRANCH   7   8
ENDBRANCH   6   7
ENDBRANCH   5   6
ENDBRANCH   4   5
ENDBRANCH   3   4
ENDBRANCH   2   3
TORSDOF 14
ENDMDL
MODEL      422
REMARK 921   NORMALIZED FREE ENERGY PREDICTED BY IDOCK:   -2.09 KCAL/MOL
REMARK 922        TOTAL FREE ENERGY PREDICTED BY IDOCK:   -5.37 KCAL/MOL
REMARK 923 INTER-LIGAND FREE ENERGY PREDICTED BY IDOCK:   -4.19 KCAL/MOL
REMARK 924 INTRA-LIGAND FREE ENERGY PREDICTED BY IDOCK:   -1.18 KCAL/MOL
REMARK 927      BINDING AFFINITY PREDICTED BY RF-SCORE:    0.00 PKD
ROOT
HETATM    1  C   UNL     1     -11.832  13.835  67.634  1.00  0.00    -0.413 C  
HETATM    2  C   UNL     1     -11.050  15.122  67.837  1.00  0.00    -0.322 C  
ENDROOT
BRANCH   2   3
HETATM    3  C   UNL     1      -9.589  14.952  67.425  1.00  0.00    -0.206 C  
BRANCH   3   4
HETATM    4  C   UNL     1      -8.950  13.756  68.130  1.00  0.00    -0.190 C  
BRANCH   4   5
HETATM    5  C   UNL     1      -8.467  12.720  67.117  1.00  0.00    -0.181 C  
BRANCH   5   6
HETATM    6  C   UNL     1      -8.655  11.299  67.643  1.00  0.00    -0.124 C  
BRANCH   6   7
HETATM    7  C   UNL     1      -9.786  10.591  66.899  1.00  0.00    -0.218 C  
BRANCH   7   8
HETATM    8  C   UNL     1     -10.390   9.476  67.749  1.00  0.00    -0.291 C  
BRANCH   8   9
HETATM    9  C   UNL     1     -10.636   9.951  69.180  1.00  0.00    -0.240 C  
BRANCH   9  10
HETATM   10  C   UNL     1     -12.124  10.172  69.427  1.00  0.00     0.133 C  
BRANCH  10  11
HETATM   11  C   UNL     1     -12.502   9.915  70.885  1.00  0.00    -0.401 C  
BRANCH  11  12
HETATM   12  C   UNL     1     -12.298   8.443  71.225  1.00  0.00    -0.289 C  
BRANCH  12  13
HETATM   13  C   UNL     1     -11.352   8.240  72.407  1.00  0.00    -0.457 C  
BRANCH  13  14
HETATM   14  C   UNL     1     -10.983   6.782  72.539  1.00  0.00    -0.247 C  
HETATM   15  O   UNL     1     -11.653   5.937  73.117  1.00  0.00    -0.115 OA 
BRANCH  14  16
HETATM   16  O   UNL     1      -9.793   6.544  71.920  1.00  0.00    -0.159 OA 
BRANCH  16  17
HETATM   17  C   UNL     1      -9.875   5.758  70.715  1.00  0.00    -0.183 C  
HETATM   18  C   UNL     1      -9.685   6.660  69.500  1.00  0.00    -0.156 C  
HETATM   19  C   UNL     1      -8.781   4.702  70.782  1.00  0.00    -0.133 C  
ENDBRANCH  16  17
ENDBRANCH  14  16
ENDBRANCH  13  14
ENDBRANCH  12  13
ENDBRANCH  11  12
ENDBRANCH  10  11
ENDBRANCH   9  10
ENDBRANCH   8   9
ENDBRANCH   7   8
ENDBRANCH   6   7
ENDBRANCH   5   6
ENDBRANCH   4   5
ENDBRANCH   3   4
ENDBRANCH   2   3
TORSDOF 14
ENDMDL
MODEL      423
REMARK 921   NORMALIZED FREE ENERGY PREDICTED BY IDOCK:   -2.08 KCAL/MOL
REMARK 922        TOTAL FREE ENERGY PREDICTED BY IDOCK:   -5.35 KCAL/MOL
REMARK 923 INTER-LIGAND FREE ENERGY PREDICTED BY IDOCK:   -4.07 KCAL/MOL
REMARK 924 INTRA-LIGAND FREE ENERGY PREDICTED BY IDOCK:   -1.28 KCAL/MOL
REMARK 927      BINDING AFFINITY PREDICTED BY RF-SCORE:    0.00 PKD
ROOT
HETATM    1  C   UNL     1     -10.702  11.303  64.160  1.00  0.00    -0.436 C  
HETATM    2  C   UNL     1     -10.332  12.241  65.298  1.00  0.00    -0.311 C  
ENDROOT
BRANCH   2   3
HETATM    3  C   UNL     1     -11.396  12.228  66.393  1.00  0.00    -0.405 C  
BRANCH   3   4
HETATM    4  C   UNL     1     -10.815  11.752  67.724  1.00  0.00    -0.258 C  
BRANCH   4   5
HETATM    5  C   UNL     1     -10.992  10.243  67.887  1.00  0.00    -0.350 C  
BRANCH   5   6
HETATM    6  C   UNL     1     -10.898   9.829  69.354  1.00  0.00    -0.256 C  
BRANCH   6   7
HETATM    7  C   UNL     1     -10.622   8.332  69.479  1.00  0.00    -0.216 C  
BRANCH   7   8
HETATM    8  C   UNL     1     -11.534   7.690  70.521  1.00  0.00    -0.236 C  
BRANCH   8   9
HETATM    9  C   UNL     1     -10.717   6.964  71.589  1.00  0.00    -0.246 C  
BRANCH   9  10
HETATM   10  C   UNL     1     -11.102   5.489  71.653  1.00  0.00    -0.192 C  
BRANCH  10  11
HETATM   11  C   UNL     1     -10.185   4.625  70.789  1.00  0.00    -0.214 C  
BRANCH  11  12
HETATM   12  C   UNL     1      -8.807   5.270  70.685  1.00  0.00    -0.148 C  
BRANCH  12  13
HETATM   13  C   UNL     1      -7.881   4.522  69.729  1.00  0.00    -0.057 C  
BRANCH  13  14
HETATM   14  C   UNL     1      -7.564   5.380  68.528  1.00  0.00    -0.083 C  
HETATM   15  O   UNL     1      -6.783   6.322  68.524  1.00  0.00    -0.059 OA 
BRANCH  14  16
HETATM   16  O   UNL     1      -8.277   4.953  67.448  1.00  0.00    -0.105 OA 
BRANCH  16  17
HETATM   17  C   UNL     1      -9.043   5.974  66.778  1.00  0.00    -0.131 C  
HETATM   18  C   UNL     1      -8.794   5.900  65.275  1.00  0.00    -0.029 C  
HETATM   19  C   UNL     1     -10.511   5.728  67.097  1.00  0.00    -0.337 C  
ENDBRANCH  16  17
ENDBRANCH  14  16
ENDBRANCH  13  14
ENDBRANCH  12  13
ENDBRANCH  11  12
ENDBRANCH  10  11
ENDBRANCH   9  10
ENDBRANCH   8   9
ENDBRANCH   7   8
ENDBRANCH   6   7
ENDBRANCH   5   6
ENDBRANCH   4   5
ENDBRANCH   3   4
ENDBRANCH   2   3
TORSDOF 14
ENDMDL
MODEL      424
REMARK 921   NORMALIZED FREE ENERGY PREDICTED BY IDOCK:   -2.07 KCAL/MOL
REMARK 922        TOTAL FREE ENERGY PREDICTED BY IDOCK:   -5.33 KCAL/MOL
REMARK 923 INTER-LIGAND FREE ENERGY PREDICTED BY IDOCK:   -3.70 KCAL/MOL
REMARK 924 INTRA-LIGAND FREE ENERGY PREDICTED BY IDOCK:   -1.63 KCAL/MOL
REMARK 927      BINDING AFFINITY PREDICTED BY RF-SCORE:    0.00 PKD
ROOT
HETATM    1  C   UNL     1      -8.114  12.851  67.150  1.00  0.00    -0.122 C  
HETATM    2  C   UNL     1      -6.809  12.078  67.248  1.00  0.00    -0.150 C  
ENDROOT
BRANCH   2   3
HETATM    3  C   UNL     1      -6.187  12.216  68.635  1.00  0.00    -0.059 C  
BRANCH   3   4
HETATM    4  C   UNL     1      -6.581  11.047  69.538  1.00  0.00    -0.118 C  
BRANCH   4   5
HETATM    5  C   UNL     1      -6.248   9.711  68.875  1.00  0.00    -0.042 C  
BRANCH   5   6
HETATM    6  C   UNL     1      -7.273   8.640  69.242  1.00  0.00    -0.063 C  
BRANCH   6   7
HETATM    7  C   UNL     1      -7.001   8.085  70.639  1.00  0.00    -0.041 C  
BRANCH   7   8
HETATM    8  C   UNL     1      -8.163   8.379  71.583  1.00  0.00    -0.195 C  
BRANCH   8   9
HETATM    9  C   UNL     1      -8.405   7.208  72.535  1.00  0.00    -0.120 C  
BRANCH   9  10
HETATM   10  C   UNL     1      -9.463   7.566  73.574  1.00  0.00    -0.326 C  
BRANCH  10  11
HETATM   11  C   UNL     1     -10.802   7.913  72.924  1.00  0.00    -0.451 C  
BRANCH  11  12
HETATM   12  C   UNL     1     -11.485   6.643  72.426  1.00  0.00    -0.300 C  
BRANCH  12  13
HETATM   13  C   UNL     1     -12.155   6.833  71.067  1.00  0.00    -0.426 C  
BRANCH  13  14
HETATM   14  C   UNL     1     -11.120   6.824  69.967  1.00  0.00    -0.315 C  
HETATM   15  O   UNL     1     -10.718   7.816  69.373  1.00  0.00    -0.226 OA 
BRANCH  14  16
HETATM   16  O   UNL     1     -10.701   5.550  69.731  1.00  0.00    -0.322 OA 
BRANCH  16  17
HETATM   17  C   UNL     1      -9.459   5.438  69.009  1.00  0.00    -0.133 C  
HETATM   18  C   UNL     1      -8.468   4.605  69.816  1.00  0.00    -0.088 C  
HETATM   19  C   UNL     1      -9.764   4.773  67.674  1.00  0.00    -0.202 C  
ENDBRANCH  16  17
ENDBRANCH  14  16
ENDBRANCH  13  14
ENDBRANCH  12  13
ENDBRANCH  11  12
ENDBRANCH  10  11
ENDBRANCH   9  10
ENDBRANCH   8   9
ENDBRANCH   7   8
ENDBRANCH   6   7
ENDBRANCH   5   6
ENDBRANCH   4   5
ENDBRANCH   3   4
ENDBRANCH   2   3
TORSDOF 14
ENDMDL
MODEL      425
REMARK 921   NORMALIZED FREE ENERGY PREDICTED BY IDOCK:   -2.06 KCAL/MOL
REMARK 922        TOTAL FREE ENERGY PREDICTED BY IDOCK:   -5.31 KCAL/MOL
REMARK 923 INTER-LIGAND FREE ENERGY PREDICTED BY IDOCK:   -4.20 KCAL/MOL
REMARK 924 INTRA-LIGAND FREE ENERGY PREDICTED BY IDOCK:   -1.11 KCAL/MOL
REMARK 927      BINDING AFFINITY PREDICTED BY RF-SCORE:    0.00 PKD
ROOT
HETATM    1  C   UNL     1     -12.207  14.521  69.579  1.00  0.00    -0.306 C  
HETATM    2  C   UNL     1     -11.504  14.614  68.235  1.00  0.00    -0.337 C  
ENDROOT
BRANCH   2   3
HETATM    3  C   UNL     1     -12.386  14.074  67.112  1.00  0.00    -0.234 C  
BRANCH   3   4
HETATM    4  C   UNL     1     -11.877  14.522  65.742  1.00  0.00    -0.327 C  
BRANCH   4   5
HETATM    5  C   UNL     1     -11.187  13.369  65.014  1.00  0.00    -0.332 C  
BRANCH   5   6
HETATM    6  C   UNL     1     -11.909  13.025  63.713  1.00  0.00    -0.566 C  
BRANCH   6   7
HETATM    7  C   UNL     1     -11.407  11.697  63.150  1.00  0.00    -0.153 C  
BRANCH   7   8
HETATM    8  C   UNL     1      -9.882  11.630  63.174  1.00  0.00    -0.407 C  
BRANCH   8   9
HETATM    9  C   UNL     1      -9.396  10.184  63.101  1.00  0.00    -0.333 C  
BRANCH   9  10
HETATM   10  C   UNL     1      -9.046   9.660  64.490  1.00  0.00    -0.287 C  
BRANCH  10  11
HETATM   11  C   UNL     1      -8.241  10.680  65.294  1.00  0.00    -0.105 C  
BRANCH  11  12
HETATM   12  C   UNL     1      -7.697  10.031  66.563  1.00  0.00    -0.105 C  
BRANCH  12  13
HETATM   13  C   UNL     1      -8.794   9.721  67.578  1.00  0.00    -0.129 C  
BRANCH  13  14
HETATM   14  C   UNL     1      -8.538  10.464  68.869  1.00  0.00    -0.149 C  
HETATM   15  O   UNL     1      -8.324  11.665  68.958  1.00  0.00    -0.019 OA 
BRANCH  14  16
HETATM   16  O   UNL     1      -8.579   9.598  69.920  1.00  0.00    -0.168 OA 
BRANCH  16  17
HETATM   17  C   UNL     1      -7.437   8.727  70.040  1.00  0.00    -0.054 C  
HETATM   18  C   UNL     1      -6.436   9.323  71.023  1.00  0.00    -0.086 C  
HETATM   19  C   UNL     1      -7.942   7.377  70.532  1.00  0.00    -0.099 C  
ENDBRANCH  16  17
ENDBRANCH  14  16
ENDBRANCH  13  14
ENDBRANCH  12  13
ENDBRANCH  11  12
ENDBRANCH  10  11
ENDBRANCH   9  10
ENDBRANCH   8   9
ENDBRANCH   7   8
ENDBRANCH   6   7
ENDBRANCH   5   6
ENDBRANCH   4   5
ENDBRANCH   3   4
ENDBRANCH   2   3
TORSDOF 14
ENDMDL
MODEL      426
REMARK 921   NORMALIZED FREE ENERGY PREDICTED BY IDOCK:   -2.06 KCAL/MOL
REMARK 922        TOTAL FREE ENERGY PREDICTED BY IDOCK:   -5.31 KCAL/MOL
REMARK 923 INTER-LIGAND FREE ENERGY PREDICTED BY IDOCK:   -4.38 KCAL/MOL
REMARK 924 INTRA-LIGAND FREE ENERGY PREDICTED BY IDOCK:   -0.93 KCAL/MOL
REMARK 927      BINDING AFFINITY PREDICTED BY RF-SCORE:    0.00 PKD
ROOT
HETATM    1  C   UNL     1      -6.408  10.207  63.482  1.00  0.00    -0.138 C  
HETATM    2  C   UNL     1      -5.640   9.031  64.063  1.00  0.00    -0.069 C  
ENDROOT
BRANCH   2   3
HETATM    3  C   UNL     1      -6.567   7.851  64.345  1.00  0.00    -0.056 C  
BRANCH   3   4
HETATM    4  C   UNL     1      -6.994   7.820  65.812  1.00  0.00    -0.057 C  
BRANCH   4   5
HETATM    5  C   UNL     1      -8.417   7.280  65.954  1.00  0.00    -0.148 C  
BRANCH   5   6
HETATM    6  C   UNL     1      -9.059   7.750  67.258  1.00  0.00    -0.147 C  
BRANCH   6   7
HETATM    7  C   UNL     1     -10.488   8.232  67.015  1.00  0.00    -0.384 C  
BRANCH   7   8
HETATM    8  C   UNL     1     -10.689   9.649  67.547  1.00  0.00    -0.321 C  
BRANCH   8   9
HETATM    9  C   UNL     1     -10.380  10.687  66.469  1.00  0.00    -0.299 C  
BRANCH   9  10
HETATM   10  C   UNL     1     -11.293  11.900  66.612  1.00  0.00    -0.400 C  
BRANCH  10  11
HETATM   11  C   UNL     1     -10.756  13.108  65.846  1.00  0.00    -0.287 C  
BRANCH  11  12
HETATM   12  C   UNL     1     -10.147  14.113  66.818  1.00  0.00    -0.262 C  
BRANCH  12  13
HETATM   13  C   UNL     1     -11.006  14.316  68.064  1.00  0.00    -0.261 C  
BRANCH  13  14
HETATM   14  C   UNL     1     -10.260  15.142  69.085  1.00  0.00    -0.249 C  
HETATM   15  O   UNL     1     -10.598  15.291  70.252  1.00  0.00    -0.285 OA 
BRANCH  14  16
HETATM   16  O   UNL     1      -9.155  15.701  68.516  1.00  0.00    -0.184 OA 
BRANCH  16  17
HETATM   17  C   UNL     1      -8.977  17.107  68.775  1.00  0.00    -0.233 C  
HETATM   18  C   UNL     1      -7.540  17.510  68.462  1.00  0.00    -0.266 C  
HETATM   19  C   UNL     1      -9.957  17.863  67.889  1.00  0.00    -0.329 C  
ENDBRANCH  16  17
ENDBRANCH  14  16
ENDBRANCH  13  14
ENDBRANCH  12  13
ENDBRANCH  11  12
ENDBRANCH  10  11
ENDBRANCH   9  10
ENDBRANCH   8   9
ENDBRANCH   7   8
ENDBRANCH   6   7
ENDBRANCH   5   6
ENDBRANCH   4   5
ENDBRANCH   3   4
ENDBRANCH   2   3
TORSDOF 14
ENDMDL
MODEL      427
REMARK 921   NORMALIZED FREE ENERGY PREDICTED BY IDOCK:   -2.05 KCAL/MOL
REMARK 922        TOTAL FREE ENERGY PREDICTED BY IDOCK:   -5.29 KCAL/MOL
REMARK 923 INTER-LIGAND FREE ENERGY PREDICTED BY IDOCK:   -3.91 KCAL/MOL
REMARK 924 INTRA-LIGAND FREE ENERGY PREDICTED BY IDOCK:   -1.39 KCAL/MOL
REMARK 927      BINDING AFFINITY PREDICTED BY RF-SCORE:    0.00 PKD
ROOT
HETATM    1  C   UNL     1     -10.866   5.603  72.781  1.00  0.00    -0.303 C  
HETATM    2  C   UNL     1     -10.805   7.103  73.023  1.00  0.00    -0.367 C  
ENDROOT
BRANCH   2   3
HETATM    3  C   UNL     1      -9.754   7.450  74.076  1.00  0.00    -0.215 C  
BRANCH   3   4
HETATM    4  C   UNL     1      -8.546   8.141  73.446  1.00  0.00    -0.313 C  
BRANCH   4   5
HETATM    5  C   UNL     1      -7.459   7.126  73.095  1.00  0.00    -0.079 C  
BRANCH   5   6
HETATM    6  C   UNL     1      -6.684   7.552  71.850  1.00  0.00    -0.054 C  
BRANCH   6   7
HETATM    7  C   UNL     1      -7.494   8.549  71.022  1.00  0.00    -0.080 C  
BRANCH   7   8
HETATM    8  C   UNL     1      -7.964   7.921  69.713  1.00  0.00    -0.114 C  
BRANCH   8   9
HETATM    9  C   UNL     1      -9.131   6.965  69.953  1.00  0.00    -0.144 C  
BRANCH   9  10
HETATM   10  C   UNL     1     -10.425   7.540  69.385  1.00  0.00    -0.222 C  
BRANCH  10  11
HETATM   11  C   UNL     1     -10.481   7.417  67.863  1.00  0.00    -0.265 C  
BRANCH  11  12
HETATM   12  C   UNL     1     -10.631   8.798  67.234  1.00  0.00    -0.303 C  
BRANCH  12  13
HETATM   13  C   UNL     1      -9.743   8.982  66.005  1.00  0.00    -0.339 C  
BRANCH  13  14
HETATM   14  C   UNL     1      -9.606  10.448  65.672  1.00  0.00    -0.226 C  
HETATM   15  O   UNL     1      -9.957  11.370  66.396  1.00  0.00    -0.203 OA 
BRANCH  14  16
HETATM   16  O   UNL     1      -9.037  10.595  64.443  1.00  0.00    -0.196 OA 
BRANCH  16  17
HETATM   17  C   UNL     1      -8.281   9.460  63.979  1.00  0.00    -0.163 C  
HETATM   18  C   UNL     1      -8.746   9.069  62.580  1.00  0.00    -0.193 C  
HETATM   19  C   UNL     1      -6.812   9.861  63.969  1.00  0.00    -0.126 C  
ENDBRANCH  16  17
ENDBRANCH  14  16
ENDBRANCH  13  14
ENDBRANCH  12  13
ENDBRANCH  11  12
ENDBRANCH  10  11
ENDBRANCH   9  10
ENDBRANCH   8   9
ENDBRANCH   7   8
ENDBRANCH   6   7
ENDBRANCH   5   6
ENDBRANCH   4   5
ENDBRANCH   3   4
ENDBRANCH   2   3
TORSDOF 14
ENDMDL
MODEL      428
REMARK 921   NORMALIZED FREE ENERGY PREDICTED BY IDOCK:   -2.05 KCAL/MOL
REMARK 922        TOTAL FREE ENERGY PREDICTED BY IDOCK:   -5.29 KCAL/MOL
REMARK 923 INTER-LIGAND FREE ENERGY PREDICTED BY IDOCK:   -3.82 KCAL/MOL
REMARK 924 INTRA-LIGAND FREE ENERGY PREDICTED BY IDOCK:   -1.47 KCAL/MOL
REMARK 927      BINDING AFFINITY PREDICTED BY RF-SCORE:    0.00 PKD
ROOT
HETATM    1  C   UNL     1     -11.857  13.844  67.638  1.00  0.00    -0.422 C  
HETATM    2  C   UNL     1     -11.003  15.089  67.810  1.00  0.00    -0.298 C  
ENDROOT
BRANCH   2   3
HETATM    3  C   UNL     1      -9.558  14.830  67.391  1.00  0.00    -0.210 C  
BRANCH   3   4
HETATM    4  C   UNL     1      -8.975  13.624  68.127  1.00  0.00    -0.191 C  
BRANCH   4   5
HETATM    5  C   UNL     1      -8.643  12.498  67.149  1.00  0.00    -0.200 C  
BRANCH   5   6
HETATM    6  C   UNL     1      -8.932  11.129  67.762  1.00  0.00    -0.139 C  
BRANCH   6   7
HETATM    7  C   UNL     1     -10.241  10.558  67.219  1.00  0.00    -0.260 C  
BRANCH   7   8
HETATM    8  C   UNL     1     -10.846   9.550  68.192  1.00  0.00    -0.208 C  
BRANCH   8   9
HETATM    9  C   UNL     1     -10.697  10.026  69.636  1.00  0.00    -0.282 C  
BRANCH   9  10
HETATM   10  C   UNL     1     -11.747   9.374  70.530  1.00  0.00    -0.254 C  
BRANCH  10  11
HETATM   11  C   UNL     1     -11.221   9.141  71.946  1.00  0.00    -0.400 C  
BRANCH  11  12
HETATM   12  C   UNL     1     -10.161   8.045  71.934  1.00  0.00    -0.275 C  
BRANCH  12  13
HETATM   13  C   UNL     1      -8.838   8.503  72.542  1.00  0.00    -0.245 C  
BRANCH  13  14
HETATM   14  C   UNL     1      -7.779   7.442  72.354  1.00  0.00    -0.088 C  
HETATM   15  O   UNL     1      -7.632   6.461  73.070  1.00  0.00    -0.094 OA 
BRANCH  14  16
HETATM   16  O   UNL     1      -7.009   7.739  71.270  1.00  0.00    -0.048 OA 
BRANCH  16  17
HETATM   17  C   UNL     1      -7.120   6.815  70.169  1.00  0.00    -0.071 C  
HETATM   18  C   UNL     1      -7.895   7.466  69.028  1.00  0.00    -0.120 C  
HETATM   19  C   UNL     1      -5.708   6.456  69.729  1.00  0.00    -0.014 C  
ENDBRANCH  16  17
ENDBRANCH  14  16
ENDBRANCH  13  14
ENDBRANCH  12  13
ENDBRANCH  11  12
ENDBRANCH  10  11
ENDBRANCH   9  10
ENDBRANCH   8   9
ENDBRANCH   7   8
ENDBRANCH   6   7
ENDBRANCH   5   6
ENDBRANCH   4   5
ENDBRANCH   3   4
ENDBRANCH   2   3
TORSDOF 14
ENDMDL
MODEL      429
REMARK 921   NORMALIZED FREE ENERGY PREDICTED BY IDOCK:   -2.04 KCAL/MOL
REMARK 922        TOTAL FREE ENERGY PREDICTED BY IDOCK:   -5.27 KCAL/MOL
REMARK 923 INTER-LIGAND FREE ENERGY PREDICTED BY IDOCK:   -4.28 KCAL/MOL
REMARK 924 INTRA-LIGAND FREE ENERGY PREDICTED BY IDOCK:   -0.99 KCAL/MOL
REMARK 927      BINDING AFFINITY PREDICTED BY RF-SCORE:    0.00 PKD
ROOT
HETATM    1  C   UNL     1     -14.408  15.347  71.759  1.00  0.00    -0.639 C  
HETATM    2  C   UNL     1     -13.219  15.441  70.816  1.00  0.00    -0.440 C  
ENDROOT
BRANCH   2   3
HETATM    3  C   UNL     1     -12.316  14.216  70.942  1.00  0.00    -0.438 C  
BRANCH   3   4
HETATM    4  C   UNL     1     -12.553  13.232  69.797  1.00  0.00     0.069 C  
BRANCH   4   5
HETATM    5  C   UNL     1     -11.642  13.547  68.611  1.00  0.00    -0.365 C  
BRANCH   5   6
HETATM    6  C   UNL     1     -11.437  12.318  67.729  1.00  0.00    -0.392 C  
BRANCH   6   7
HETATM    7  C   UNL     1     -10.074  12.366  67.040  1.00  0.00    -0.223 C  
BRANCH   7   8
HETATM    8  C   UNL     1      -9.877  11.159  66.127  1.00  0.00    -0.265 C  
BRANCH   8   9
HETATM    9  C   UNL     1      -8.804  10.223  66.682  1.00  0.00    -0.148 C  
BRANCH   9  10
HETATM   10  C   UNL     1      -8.109  10.852  67.885  1.00  0.00    -0.113 C  
BRANCH  10  11
HETATM   11  C   UNL     1      -8.537  10.195  69.196  1.00  0.00    -0.167 C  
BRANCH  11  12
HETATM   12  C   UNL     1      -7.778   8.888  69.397  1.00  0.00    -0.093 C  
BRANCH  12  13
HETATM   13  C   UNL     1      -8.629   7.812  70.067  1.00  0.00    -0.140 C  
BRANCH  13  14
HETATM   14  C   UNL     1      -8.691   6.577  69.200  1.00  0.00    -0.129 C  
HETATM   15  O   UNL     1      -8.136   5.515  69.449  1.00  0.00    -0.092 OA 
BRANCH  14  16
HETATM   16  O   UNL     1      -9.455   6.819  68.098  1.00  0.00    -0.123 OA 
BRANCH  16  17
HETATM   17  C   UNL     1      -9.271   5.890  67.011  1.00  0.00    -0.119 C  
HETATM   18  C   UNL     1     -10.599   5.218  66.679  1.00  0.00    -0.334 C  
HETATM   19  C   UNL     1      -8.751   6.680  65.818  1.00  0.00    -0.126 C  
ENDBRANCH  16  17
ENDBRANCH  14  16
ENDBRANCH  13  14
ENDBRANCH  12  13
ENDBRANCH  11  12
ENDBRANCH  10  11
ENDBRANCH   9  10
ENDBRANCH   8   9
ENDBRANCH   7   8
ENDBRANCH   6   7
ENDBRANCH   5   6
ENDBRANCH   4   5
ENDBRANCH   3   4
ENDBRANCH   2   3
TORSDOF 14
ENDMDL
MODEL      430
REMARK 921   NORMALIZED FREE ENERGY PREDICTED BY IDOCK:   -2.03 KCAL/MOL
REMARK 922        TOTAL FREE ENERGY PREDICTED BY IDOCK:   -5.25 KCAL/MOL
REMARK 923 INTER-LIGAND FREE ENERGY PREDICTED BY IDOCK:   -3.56 KCAL/MOL
REMARK 924 INTRA-LIGAND FREE ENERGY PREDICTED BY IDOCK:   -1.70 KCAL/MOL
REMARK 927      BINDING AFFINITY PREDICTED BY RF-SCORE:    0.00 PKD
ROOT
HETATM    1  C   UNL     1      -5.455   8.400  69.497  1.00  0.00    -0.030 C  
HETATM    2  C   UNL     1      -6.447   9.059  68.552  1.00  0.00    -0.054 C  
ENDROOT
BRANCH   2   3
HETATM    3  C   UNL     1      -5.731   9.902  67.499  1.00  0.00    -0.042 C  
BRANCH   3   4
HETATM    4  C   UNL     1      -6.594  11.080  67.051  1.00  0.00    -0.100 C  
BRANCH   4   5
HETATM    5  C   UNL     1      -6.016  12.402  67.554  1.00  0.00    -0.144 C  
BRANCH   5   6
HETATM    6  C   UNL     1      -6.999  13.123  68.473  1.00  0.00    -0.103 C  
BRANCH   6   7
HETATM    7  C   UNL     1      -8.441  12.831  68.060  1.00  0.00    -0.177 C  
BRANCH   7   8
HETATM    8  C   UNL     1      -8.921  13.820  67.001  1.00  0.00    -0.247 C  
BRANCH   8   9
HETATM    9  C   UNL     1     -10.166  13.296  66.288  1.00  0.00    -0.296 C  
BRANCH   9  10
HETATM   10  C   UNL     1      -9.883  11.951  65.627  1.00  0.00    -0.266 C  
BRANCH  10  11
HETATM   11  C   UNL     1     -10.755  10.839  66.208  1.00  0.00    -0.205 C  
BRANCH  11  12
HETATM   12  C   UNL     1      -9.964   9.536  66.273  1.00  0.00    -0.344 C  
BRANCH  12  13
HETATM   13  C   UNL     1      -9.975   8.914  67.667  1.00  0.00    -0.248 C  
BRANCH  13  14
HETATM   14  C   UNL     1     -10.241   7.430  67.576  1.00  0.00    -0.224 C  
HETATM   15  O   UNL     1      -9.998   6.730  66.602  1.00  0.00    -0.181 OA 
BRANCH  14  16
HETATM   16  O   UNL     1     -10.795   6.984  68.738  1.00  0.00    -0.211 OA 
BRANCH  16  17
HETATM   17  C   UNL     1     -10.415   7.718  69.918  1.00  0.00    -0.232 C  
HETATM   18  C   UNL     1     -11.494   7.571  70.985  1.00  0.00    -0.299 C  
HETATM   19  C   UNL     1      -9.091   7.147  70.406  1.00  0.00    -0.156 C  
ENDBRANCH  16  17
ENDBRANCH  14  16
ENDBRANCH  13  14
ENDBRANCH  12  13
ENDBRANCH  11  12
ENDBRANCH  10  11
ENDBRANCH   9  10
ENDBRANCH   8   9
ENDBRANCH   7   8
ENDBRANCH   6   7
ENDBRANCH   5   6
ENDBRANCH   4   5
ENDBRANCH   3   4
ENDBRANCH   2   3
TORSDOF 14
ENDMDL
MODEL      431
REMARK 921   NORMALIZED FREE ENERGY PREDICTED BY IDOCK:   -2.01 KCAL/MOL
REMARK 922        TOTAL FREE ENERGY PREDICTED BY IDOCK:   -5.22 KCAL/MOL
REMARK 923 INTER-LIGAND FREE ENERGY PREDICTED BY IDOCK:   -4.47 KCAL/MOL
REMARK 924 INTRA-LIGAND FREE ENERGY PREDICTED BY IDOCK:   -0.75 KCAL/MOL
REMARK 927      BINDING AFFINITY PREDICTED BY RF-SCORE:    0.00 PKD
ROOT
HETATM    1  C   UNL     1      -8.381   4.898  64.006  1.00  0.00    -0.131 C  
HETATM    2  C   UNL     1      -7.002   4.733  64.624  1.00  0.00    -0.050 C  
ENDROOT
BRANCH   2   3
HETATM    3  C   UNL     1      -7.099   4.241  66.066  1.00  0.00    -0.067 C  
BRANCH   3   4
HETATM    4  C   UNL     1      -7.639   5.332  66.990  1.00  0.00    -0.092 C  
BRANCH   4   5
HETATM    5  C   UNL     1      -6.539   5.866  67.905  1.00  0.00    -0.052 C  
BRANCH   5   6
HETATM    6  C   UNL     1      -7.091   6.886  68.898  1.00  0.00    -0.089 C  
BRANCH   6   7
HETATM    7  C   UNL     1      -8.618   6.889  68.879  1.00  0.00    -0.131 C  
BRANCH   7   8
HETATM    8  C   UNL     1      -9.178   7.877  69.899  1.00  0.00    -0.153 C  
BRANCH   8   9
HETATM    9  C   UNL     1     -10.284   8.733  69.282  1.00  0.00    -0.215 C  
BRANCH   9  10
HETATM   10  C   UNL     1     -10.615   9.919  70.182  1.00  0.00    -0.350 C  
BRANCH  10  11
HETATM   11  C   UNL     1     -11.895  10.627  69.740  1.00  0.00    -0.377 C  
BRANCH  11  12
HETATM   12  C   UNL     1     -11.558  11.758  68.774  1.00  0.00    -0.367 C  
BRANCH  12  13
HETATM   13  C   UNL     1     -11.799  13.138  69.381  1.00  0.00    -0.383 C  
BRANCH  13  14
HETATM   14  C   UNL     1     -11.025  14.188  68.619  1.00  0.00    -0.258 C  
HETATM   15  O   UNL     1     -10.626  15.245  69.088  1.00  0.00    -0.229 OA 
BRANCH  14  16
HETATM   16  O   UNL     1     -10.837  13.785  67.331  1.00  0.00    -0.272 OA 
BRANCH  16  17
HETATM   17  C   UNL     1     -11.498  14.592  66.336  1.00  0.00    -0.360 C  
HETATM   18  C   UNL     1     -10.533  14.889  65.192  1.00  0.00    -0.442 C  
HETATM   19  C   UNL     1     -12.703  13.807  65.837  1.00  0.00    -0.452 C  
ENDBRANCH  16  17
ENDBRANCH  14  16
ENDBRANCH  13  14
ENDBRANCH  12  13
ENDBRANCH  11  12
ENDBRANCH  10  11
ENDBRANCH   9  10
ENDBRANCH   8   9
ENDBRANCH   7   8
ENDBRANCH   6   7
ENDBRANCH   5   6
ENDBRANCH   4   5
ENDBRANCH   3   4
ENDBRANCH   2   3
TORSDOF 14
ENDMDL
MODEL      432
REMARK 921   NORMALIZED FREE ENERGY PREDICTED BY IDOCK:   -2.01 KCAL/MOL
REMARK 922        TOTAL FREE ENERGY PREDICTED BY IDOCK:   -5.21 KCAL/MOL
REMARK 923 INTER-LIGAND FREE ENERGY PREDICTED BY IDOCK:   -3.23 KCAL/MOL
REMARK 924 INTRA-LIGAND FREE ENERGY PREDICTED BY IDOCK:   -1.98 KCAL/MOL
REMARK 927      BINDING AFFINITY PREDICTED BY RF-SCORE:    0.00 PKD
ROOT
HETATM    1  C   UNL     1      -5.860   5.501  69.593  1.00  0.00    -0.017 C  
HETATM    2  C   UNL     1      -5.852   6.473  70.763  1.00  0.00    -0.027 C  
ENDROOT
BRANCH   2   3
HETATM    3  C   UNL     1      -7.024   6.211  71.706  1.00  0.00    -0.077 C  
BRANCH   3   4
HETATM    4  C   UNL     1      -7.771   4.934  71.321  1.00  0.00    -0.087 C  
BRANCH   4   5
HETATM    5  C   UNL     1      -8.176   4.144  72.565  1.00  0.00    -0.099 C  
BRANCH   5   6
HETATM    6  C   UNL     1      -9.618   3.653  72.463  1.00  0.00    -0.192 C  
BRANCH   6   7
HETATM    7  C   UNL     1     -10.561   4.806  72.124  1.00  0.00    -0.204 C  
BRANCH   7   8
HETATM    8  C   UNL     1     -11.019   5.532  73.387  1.00  0.00    -0.324 C  
BRANCH   8   9
HETATM    9  C   UNL     1     -10.674   7.019  73.318  1.00  0.00    -0.373 C  
BRANCH   9  10
HETATM   10  C   UNL     1     -10.553   7.479  71.869  1.00  0.00    -0.245 C  
BRANCH  10  11
HETATM   11  C   UNL     1      -9.671   8.720  71.739  1.00  0.00    -0.380 C  
BRANCH  11  12
HETATM   12  C   UNL     1      -9.952   9.423  70.415  1.00  0.00    -0.306 C  
BRANCH  12  13
HETATM   13  C   UNL     1      -8.854   9.187  69.382  1.00  0.00    -0.146 C  
BRANCH  13  14
HETATM   14  C   UNL     1      -9.451   9.071  68.000  1.00  0.00    -0.142 C  
HETATM   15  O   UNL     1     -10.647   8.997  67.755  1.00  0.00    -0.246 OA 
BRANCH  14  16
HETATM   16  O   UNL     1      -8.461   9.059  67.064  1.00  0.00    -0.118 OA 
BRANCH  16  17
HETATM   17  C   UNL     1      -7.407   8.105  67.300  1.00  0.00    -0.089 C  
HETATM   18  C   UNL     1      -7.718   6.803  66.570  1.00  0.00    -0.102 C  
HETATM   19  C   UNL     1      -6.111   8.717  66.787  1.00  0.00    -0.058 C  
ENDBRANCH  16  17
ENDBRANCH  14  16
ENDBRANCH  13  14
ENDBRANCH  12  13
ENDBRANCH  11  12
ENDBRANCH  10  11
ENDBRANCH   9  10
ENDBRANCH   8   9
ENDBRANCH   7   8
ENDBRANCH   6   7
ENDBRANCH   5   6
ENDBRANCH   4   5
ENDBRANCH   3   4
ENDBRANCH   2   3
TORSDOF 14
ENDMDL
MODEL      433
REMARK 921   NORMALIZED FREE ENERGY PREDICTED BY IDOCK:   -2.00 KCAL/MOL
REMARK 922        TOTAL FREE ENERGY PREDICTED BY IDOCK:   -5.21 KCAL/MOL
REMARK 923 INTER-LIGAND FREE ENERGY PREDICTED BY IDOCK:   -4.23 KCAL/MOL
REMARK 924 INTRA-LIGAND FREE ENERGY PREDICTED BY IDOCK:   -0.98 KCAL/MOL
REMARK 927      BINDING AFFINITY PREDICTED BY RF-SCORE:    0.00 PKD
ROOT
HETATM    1  C   UNL     1     -11.853  14.950  69.286  1.00  0.00    -0.350 C  
HETATM    2  C   UNL     1     -11.209  15.130  67.921  1.00  0.00    -0.334 C  
ENDROOT
BRANCH   2   3
HETATM    3  C   UNL     1     -11.860  14.223  66.879  1.00  0.00    -0.458 C  
BRANCH   3   4
HETATM    4  C   UNL     1     -10.981  14.086  65.637  1.00  0.00    -0.300 C  
BRANCH   4   5
HETATM    5  C   UNL     1     -10.229  12.756  65.644  1.00  0.00    -0.292 C  
BRANCH   5   6
HETATM    6  C   UNL     1     -10.485  11.968  64.362  1.00  0.00    -0.353 C  
BRANCH   6   7
HETATM    7  C   UNL     1     -10.112  10.498  64.546  1.00  0.00    -0.402 C  
BRANCH   7   8
HETATM    8  C   UNL     1      -8.638  10.346  64.910  1.00  0.00    -0.190 C  
BRANCH   8   9
HETATM    9  C   UNL     1      -7.892   9.539  63.849  1.00  0.00    -0.133 C  
BRANCH   9  10
HETATM   10  C   UNL     1      -7.929   8.050  64.178  1.00  0.00    -0.137 C  
BRANCH  10  11
HETATM   11  C   UNL     1      -7.160   7.733  65.460  1.00  0.00    -0.063 C  
BRANCH  11  12
HETATM   12  C   UNL     1      -7.973   6.783  66.333  1.00  0.00    -0.106 C  
BRANCH  12  13
HETATM   13  C   UNL     1      -9.093   7.495  67.088  1.00  0.00    -0.144 C  
BRANCH  13  14
HETATM   14  C   UNL     1      -8.537   8.217  68.292  1.00  0.00    -0.133 C  
HETATM   15  O   UNL     1      -7.795   9.189  68.248  1.00  0.00    -0.100 OA 
BRANCH  14  16
HETATM   16  O   UNL     1      -8.981   7.626  69.437  1.00  0.00    -0.139 OA 
BRANCH  16  17
HETATM   17  C   UNL     1      -9.570   8.522  70.399  1.00  0.00    -0.172 C  
HETATM   18  C   UNL     1     -10.998   8.857  69.982  1.00  0.00    -0.217 C  
HETATM   19  C   UNL     1      -9.551   7.820  71.750  1.00  0.00    -0.204 C  
ENDBRANCH  16  17
ENDBRANCH  14  16
ENDBRANCH  13  14
ENDBRANCH  12  13
ENDBRANCH  11  12
ENDBRANCH  10  11
ENDBRANCH   9  10
ENDBRANCH   8   9
ENDBRANCH   7   8
ENDBRANCH   6   7
ENDBRANCH   5   6
ENDBRANCH   4   5
ENDBRANCH   3   4
ENDBRANCH   2   3
TORSDOF 14
ENDMDL
MODEL      434
REMARK 921   NORMALIZED FREE ENERGY PREDICTED BY IDOCK:   -1.99 KCAL/MOL
REMARK 922        TOTAL FREE ENERGY PREDICTED BY IDOCK:   -5.19 KCAL/MOL
REMARK 923 INTER-LIGAND FREE ENERGY PREDICTED BY IDOCK:   -4.62 KCAL/MOL
REMARK 924 INTRA-LIGAND FREE ENERGY PREDICTED BY IDOCK:   -0.57 KCAL/MOL
REMARK 927      BINDING AFFINITY PREDICTED BY RF-SCORE:    0.00 PKD
ROOT
HETATM    1  C   UNL     1     -12.368  14.368  70.229  1.00  0.00    -0.410 C  
HETATM    2  C   UNL     1     -11.838  12.950  70.365  1.00  0.00    -0.239 C  
ENDROOT
BRANCH   2   3
HETATM    3  C   UNL     1     -12.980  11.940  70.459  1.00  0.00     0.176 C  
BRANCH   3   4
HETATM    4  C   UNL     1     -13.056  11.317  71.853  1.00  0.00    -0.510 C  
BRANCH   4   5
HETATM    5  C   UNL     1     -12.690   9.834  71.807  1.00  0.00    -0.519 C  
BRANCH   5   6
HETATM    6  C   UNL     1     -13.938   8.958  71.730  1.00  0.00    -0.448 C  
BRANCH   6   7
HETATM    7  C   UNL     1     -13.561   7.497  71.487  1.00  0.00    -0.439 C  
BRANCH   7   8
HETATM    8  C   UNL     1     -12.162   7.195  72.017  1.00  0.00    -0.314 C  
BRANCH   8   9
HETATM    9  C   UNL     1     -11.475   6.125  71.170  1.00  0.00    -0.314 C  
BRANCH   9  10
HETATM   10  C   UNL     1     -11.033   6.700  69.829  1.00  0.00    -0.367 C  
BRANCH  10  11
HETATM   11  C   UNL     1     -10.092   7.892  70.004  1.00  0.00    -0.199 C  
BRANCH  11  12
HETATM   12  C   UNL     1      -8.643   7.417  70.000  1.00  0.00    -0.140 C  
BRANCH  12  13
HETATM   13  C   UNL     1      -7.859   7.917  71.211  1.00  0.00    -0.088 C  
BRANCH  13  14
HETATM   14  C   UNL     1      -7.404   6.753  72.058  1.00  0.00    -0.088 C  
HETATM   15  O   UNL     1      -6.287   6.628  72.541  1.00  0.00    -0.053 OA 
BRANCH  14  16
HETATM   16  O   UNL     1      -8.422   5.858  72.206  1.00  0.00    -0.121 OA 
BRANCH  16  17
HETATM   17  C   UNL     1      -9.095   5.902  73.479  1.00  0.00    -0.131 C  
HETATM   18  C   UNL     1      -8.252   5.187  74.531  1.00  0.00    -0.101 C  
HETATM   19  C   UNL     1      -9.289   7.367  73.845  1.00  0.00    -0.318 C  
ENDBRANCH  16  17
ENDBRANCH  14  16
ENDBRANCH  13  14
ENDBRANCH  12  13
ENDBRANCH  11  12
ENDBRANCH  10  11
ENDBRANCH   9  10
ENDBRANCH   8   9
ENDBRANCH   7   8
ENDBRANCH   6   7
ENDBRANCH   5   6
ENDBRANCH   4   5
ENDBRANCH   3   4
ENDBRANCH   2   3
TORSDOF 14
ENDMDL
MODEL      435
REMARK 921   NORMALIZED FREE ENERGY PREDICTED BY IDOCK:   -1.98 KCAL/MOL
REMARK 922        TOTAL FREE ENERGY PREDICTED BY IDOCK:   -5.17 KCAL/MOL
REMARK 923 INTER-LIGAND FREE ENERGY PREDICTED BY IDOCK:   -3.95 KCAL/MOL
REMARK 924 INTRA-LIGAND FREE ENERGY PREDICTED BY IDOCK:   -1.22 KCAL/MOL
REMARK 927      BINDING AFFINITY PREDICTED BY RF-SCORE:    0.00 PKD
ROOT
HETATM    1  C   UNL     1      -8.237  12.416  67.524  1.00  0.00    -0.173 C  
HETATM    2  C   UNL     1      -7.030  11.534  67.798  1.00  0.00    -0.078 C  
ENDROOT
BRANCH   2   3
HETATM    3  C   UNL     1      -6.892  11.233  69.289  1.00  0.00    -0.116 C  
BRANCH   3   4
HETATM    4  C   UNL     1      -7.554   9.903  69.648  1.00  0.00    -0.136 C  
BRANCH   4   5
HETATM    5  C   UNL     1      -6.730   8.726  69.130  1.00  0.00    -0.051 C  
BRANCH   5   6
HETATM    6  C   UNL     1      -7.627   7.621  68.578  1.00  0.00    -0.110 C  
BRANCH   6   7
HETATM    7  C   UNL     1      -7.638   6.413  69.513  1.00  0.00    -0.095 C  
BRANCH   7   8
HETATM    8  C   UNL     1      -8.831   6.463  70.463  1.00  0.00    -0.144 C  
BRANCH   8   9
HETATM    9  C   UNL     1      -9.611   5.149  70.431  1.00  0.00    -0.252 C  
BRANCH   9  10
HETATM   10  C   UNL     1     -10.240   4.862  71.791  1.00  0.00    -0.268 C  
BRANCH  10  11
HETATM   11  C   UNL     1     -10.873   6.114  72.399  1.00  0.00    -0.281 C  
BRANCH  11  12
HETATM   12  C   UNL     1     -12.070   6.552  71.562  1.00  0.00    -0.363 C  
BRANCH  12  13
HETATM   13  C   UNL     1     -12.378   8.040  71.715  1.00  0.00    -0.352 C  
BRANCH  13  14
HETATM   14  C   UNL     1     -11.302   8.868  71.053  1.00  0.00    -0.291 C  
HETATM   15  O   UNL     1     -10.286   9.270  71.603  1.00  0.00    -0.332 OA 
BRANCH  14  16
HETATM   16  O   UNL     1     -11.631   9.106  69.752  1.00  0.00     0.021 OA 
BRANCH  16  17
HETATM   17  C   UNL     1     -10.811  10.083  69.082  1.00  0.00    -0.222 C  
HETATM   18  C   UNL     1     -10.691   9.728  67.604  1.00  0.00    -0.334 C  
HETATM   19  C   UNL     1     -11.478  11.440  69.261  1.00  0.00    -0.370 C  
ENDBRANCH  16  17
ENDBRANCH  14  16
ENDBRANCH  13  14
ENDBRANCH  12  13
ENDBRANCH  11  12
ENDBRANCH  10  11
ENDBRANCH   9  10
ENDBRANCH   8   9
ENDBRANCH   7   8
ENDBRANCH   6   7
ENDBRANCH   5   6
ENDBRANCH   4   5
ENDBRANCH   3   4
ENDBRANCH   2   3
TORSDOF 14
ENDMDL
MODEL      436
REMARK 921   NORMALIZED FREE ENERGY PREDICTED BY IDOCK:   -1.96 KCAL/MOL
REMARK 922        TOTAL FREE ENERGY PREDICTED BY IDOCK:   -5.13 KCAL/MOL
REMARK 923 INTER-LIGAND FREE ENERGY PREDICTED BY IDOCK:   -3.81 KCAL/MOL
REMARK 924 INTRA-LIGAND FREE ENERGY PREDICTED BY IDOCK:   -1.32 KCAL/MOL
REMARK 927      BINDING AFFINITY PREDICTED BY RF-SCORE:    0.00 PKD
ROOT
HETATM    1  C   UNL     1      -6.829   9.773  63.731  1.00  0.00    -0.119 C  
HETATM    2  C   UNL     1      -5.691   8.902  64.235  1.00  0.00    -0.065 C  
ENDROOT
BRANCH   2   3
HETATM    3  C   UNL     1      -5.879   7.447  63.810  1.00  0.00    -0.044 C  
BRANCH   3   4
HETATM    4  C   UNL     1      -6.222   6.560  65.006  1.00  0.00    -0.038 C  
BRANCH   4   5
HETATM    5  C   UNL     1      -7.535   5.815  64.773  1.00  0.00    -0.076 C  
BRANCH   5   6
HETATM    6  C   UNL     1      -8.083   5.237  66.077  1.00  0.00    -0.110 C  
BRANCH   6   7
HETATM    7  C   UNL     1      -9.563   5.575  66.240  1.00  0.00    -0.173 C  
BRANCH   7   8
HETATM    8  C   UNL     1      -9.761   6.706  67.246  1.00  0.00    -0.166 C  
BRANCH   8   9
HETATM    9  C   UNL     1      -8.425   7.149  67.841  1.00  0.00    -0.121 C  
BRANCH   9  10
HETATM   10  C   UNL     1      -8.092   8.576  67.418  1.00  0.00    -0.106 C  
BRANCH  10  11
HETATM   11  C   UNL     1      -7.678   9.439  68.609  1.00  0.00    -0.084 C  
BRANCH  11  12
HETATM   12  C   UNL     1      -8.868  10.258  69.099  1.00  0.00    -0.182 C  
BRANCH  12  13
HETATM   13  C   UNL     1      -9.788  10.692  67.960  1.00  0.00    -0.177 C  
BRANCH  13  14
HETATM   14  C   UNL     1     -11.176  10.972  68.486  1.00  0.00    -0.268 C  
HETATM   15  O   UNL     1     -12.160  11.191  67.792  1.00  0.00    -0.606 OA 
BRANCH  14  16
HETATM   16  O   UNL     1     -11.172  10.946  69.848  1.00  0.00    -0.272 OA 
BRANCH  16  17
HETATM   17  C   UNL     1     -12.469  11.065  70.466  1.00  0.00    -0.344 C  
HETATM   18  C   UNL     1     -12.648   9.960  71.502  1.00  0.00    -0.513 C  
HETATM   19  C   UNL     1     -12.540  12.438  71.121  1.00  0.00    -0.349 C  
ENDBRANCH  16  17
ENDBRANCH  14  16
ENDBRANCH  13  14
ENDBRANCH  12  13
ENDBRANCH  11  12
ENDBRANCH  10  11
ENDBRANCH   9  10
ENDBRANCH   8   9
ENDBRANCH   7   8
ENDBRANCH   6   7
ENDBRANCH   5   6
ENDBRANCH   4   5
ENDBRANCH   3   4
ENDBRANCH   2   3
TORSDOF 14
ENDMDL
MODEL      437
REMARK 921   NORMALIZED FREE ENERGY PREDICTED BY IDOCK:   -1.95 KCAL/MOL
REMARK 922        TOTAL FREE ENERGY PREDICTED BY IDOCK:   -5.12 KCAL/MOL
REMARK 923 INTER-LIGAND FREE ENERGY PREDICTED BY IDOCK:   -3.85 KCAL/MOL
REMARK 924 INTRA-LIGAND FREE ENERGY PREDICTED BY IDOCK:   -1.27 KCAL/MOL
REMARK 927      BINDING AFFINITY PREDICTED BY RF-SCORE:    0.00 PKD
ROOT
HETATM    1  C   UNL     1     -12.700  14.013  65.111  1.00  0.00    -0.419 C  
HETATM    2  C   UNL     1     -11.641  14.422  66.122  1.00  0.00    -0.372 C  
ENDROOT
BRANCH   2   3
HETATM    3  C   UNL     1     -11.480  13.365  67.211  1.00  0.00    -0.374 C  
BRANCH   3   4
HETATM    4  C   UNL     1     -11.160  11.995  66.613  1.00  0.00    -0.358 C  
BRANCH   4   5
HETATM    5  C   UNL     1      -9.668  11.867  66.310  1.00  0.00    -0.247 C  
BRANCH   5   6
HETATM    6  C   UNL     1      -8.847  11.801  67.596  1.00  0.00    -0.162 C  
BRANCH   6   7
HETATM    7  C   UNL     1      -9.225  10.570  68.419  1.00  0.00    -0.154 C  
BRANCH   7   8
HETATM    8  C   UNL     1      -9.087   9.294  67.594  1.00  0.00    -0.136 C  
BRANCH   8   9
HETATM    9  C   UNL     1     -10.376   8.473  67.635  1.00  0.00    -0.317 C  
BRANCH   9  10
HETATM   10  C   UNL     1     -10.137   7.128  68.313  1.00  0.00    -0.187 C  
BRANCH  10  11
HETATM   11  C   UNL     1     -10.843   5.989  67.577  1.00  0.00    -0.393 C  
BRANCH  11  12
HETATM   12  C   UNL     1     -10.014   5.552  66.374  1.00  0.00    -0.203 C  
BRANCH  12  13
HETATM   13  C   UNL     1      -8.630   5.043  66.771  1.00  0.00    -0.109 C  
BRANCH  13  14
HETATM   14  C   UNL     1      -7.872   4.580  65.550  1.00  0.00    -0.094 C  
HETATM   15  O   UNL     1      -8.099   3.549  64.931  1.00  0.00    -0.089 OA 
BRANCH  14  16
HETATM   16  O   UNL     1      -6.896   5.478  65.238  1.00  0.00    -0.050 OA 
BRANCH  16  17
HETATM   17  C   UNL     1      -7.174   6.313  64.097  1.00  0.00    -0.061 C  
HETATM   18  C   UNL     1      -7.423   7.745  64.557  1.00  0.00    -0.097 C  
HETATM   19  C   UNL     1      -5.965   6.243  63.174  1.00  0.00    -0.026 C  
ENDBRANCH  16  17
ENDBRANCH  14  16
ENDBRANCH  13  14
ENDBRANCH  12  13
ENDBRANCH  11  12
ENDBRANCH  10  11
ENDBRANCH   9  10
ENDBRANCH   8   9
ENDBRANCH   7   8
ENDBRANCH   6   7
ENDBRANCH   5   6
ENDBRANCH   4   5
ENDBRANCH   3   4
ENDBRANCH   2   3
TORSDOF 14
ENDMDL
MODEL      438
REMARK 921   NORMALIZED FREE ENERGY PREDICTED BY IDOCK:   -1.95 KCAL/MOL
REMARK 922        TOTAL FREE ENERGY PREDICTED BY IDOCK:   -5.12 KCAL/MOL
REMARK 923 INTER-LIGAND FREE ENERGY PREDICTED BY IDOCK:   -4.40 KCAL/MOL
REMARK 924 INTRA-LIGAND FREE ENERGY PREDICTED BY IDOCK:   -0.72 KCAL/MOL
REMARK 927      BINDING AFFINITY PREDICTED BY RF-SCORE:    0.00 PKD
ROOT
HETATM    1  C   UNL     1      -9.999   9.655  68.338  1.00  0.00    -0.178 C  
HETATM    2  C   UNL     1      -9.282  10.881  68.879  1.00  0.00    -0.168 C  
ENDROOT
BRANCH   2   3
HETATM    3  C   UNL     1      -8.599  11.662  67.759  1.00  0.00    -0.144 C  
BRANCH   3   4
HETATM    4  C   UNL     1      -7.210  11.100  67.459  1.00  0.00    -0.101 C  
BRANCH   4   5
HETATM    5  C   UNL     1      -6.208  12.227  67.214  1.00  0.00    -0.152 C  
BRANCH   5   6
HETATM    6  C   UNL     1      -5.149  12.274  68.314  1.00  0.00    -0.056 C  
BRANCH   6   7
HETATM    7  C   UNL     1      -5.176  13.621  69.035  1.00  0.00    -0.073 C  
BRANCH   7   8
HETATM    8  C   UNL     1      -6.366  14.463  68.581  1.00  0.00    -0.087 C  
BRANCH   8   9
HETATM    9  C   UNL     1      -7.063  15.113  69.775  1.00  0.00    -0.169 C  
BRANCH   9  10
HETATM   10  C   UNL     1      -8.433  15.650  69.374  1.00  0.00    -0.244 C  
BRANCH  10  11
HETATM   11  C   UNL     1      -8.418  16.251  67.969  1.00  0.00    -0.174 C  
BRANCH  11  12
HETATM   12  C   UNL     1      -8.827  17.719  68.025  1.00  0.00    -0.259 C  
BRANCH  12  13
HETATM   13  C   UNL     1     -10.291  17.934  67.646  1.00  0.00    -0.387 C  
BRANCH  13  14
HETATM   14  C   UNL     1     -10.645  17.105  66.435  1.00  0.00    -0.172 C  
HETATM   15  O   UNL     1     -10.608  17.501  65.277  1.00  0.00    -0.664 OA 
BRANCH  14  16
HETATM   16  O   UNL     1     -11.016  15.852  66.819  1.00  0.00    -0.271 OA 
BRANCH  16  17
HETATM   17  C   UNL     1     -11.471  14.994  65.754  1.00  0.00    -0.236 C  
HETATM   18  C   UNL     1     -10.297  14.628  64.852  1.00  0.00    -0.382 C  
HETATM   19  C   UNL     1     -12.071  13.750  66.393  1.00  0.00    -0.483 C  
ENDBRANCH  16  17
ENDBRANCH  14  16
ENDBRANCH  13  14
ENDBRANCH  12  13
ENDBRANCH  11  12
ENDBRANCH  10  11
ENDBRANCH   9  10
ENDBRANCH   8   9
ENDBRANCH   7   8
ENDBRANCH   6   7
ENDBRANCH   5   6
ENDBRANCH   4   5
ENDBRANCH   3   4
ENDBRANCH   2   3
TORSDOF 14
ENDMDL
MODEL      439
REMARK 921   NORMALIZED FREE ENERGY PREDICTED BY IDOCK:   -1.95 KCAL/MOL
REMARK 922        TOTAL FREE ENERGY PREDICTED BY IDOCK:   -5.11 KCAL/MOL
REMARK 923 INTER-LIGAND FREE ENERGY PREDICTED BY IDOCK:   -3.88 KCAL/MOL
REMARK 924 INTRA-LIGAND FREE ENERGY PREDICTED BY IDOCK:   -1.22 KCAL/MOL
REMARK 927      BINDING AFFINITY PREDICTED BY RF-SCORE:    0.00 PKD
ROOT
HETATM    1  C   UNL     1     -10.249   9.598  68.619  1.00  0.00    -0.209 C  
HETATM    2  C   UNL     1     -10.405  11.110  68.618  1.00  0.00    -0.219 C  
ENDROOT
BRANCH   2   3
HETATM    3  C   UNL     1      -9.403  11.768  67.673  1.00  0.00    -0.180 C  
BRANCH   3   4
HETATM    4  C   UNL     1      -8.306  10.789  67.257  1.00  0.00    -0.124 C  
BRANCH   4   5
HETATM    5  C   UNL     1      -6.951  11.219  67.816  1.00  0.00    -0.075 C  
BRANCH   5   6
HETATM    6  C   UNL     1      -6.773  10.751  69.259  1.00  0.00    -0.081 C  
BRANCH   6   7
HETATM    7  C   UNL     1      -6.397  11.922  70.166  1.00  0.00    -0.012 C  
BRANCH   7   8
HETATM    8  C   UNL     1      -6.207  13.203  69.359  1.00  0.00    -0.111 C  
BRANCH   8   9
HETATM    9  C   UNL     1      -6.427  14.437  70.232  1.00  0.00    -0.130 C  
BRANCH   9  10
HETATM   10  C   UNL     1      -6.565  15.689  69.372  1.00  0.00    -0.166 C  
BRANCH  10  11
HETATM   11  C   UNL     1      -6.205  15.417  67.912  1.00  0.00    -0.167 C  
BRANCH  11  12
HETATM   12  C   UNL     1      -5.962  16.733  67.181  1.00  0.00    -0.208 C  
BRANCH  12  13
HETATM   13  C   UNL     1      -7.127  17.124  66.275  1.00  0.00    -0.280 C  
BRANCH  13  14
HETATM   14  C   UNL     1      -7.539  18.553  66.539  1.00  0.00    -0.246 C  
HETATM   15  O   UNL     1      -6.842  19.536  66.326  1.00  0.00    -0.203 OA 
BRANCH  14  16
HETATM   16  O   UNL     1      -8.801  18.587  67.051  1.00  0.00    -0.265 OA 
BRANCH  16  17
HETATM   17  C   UNL     1      -9.296  19.902  67.372  1.00  0.00    -0.355 C  
HETATM   18  C   UNL     1     -10.171  20.414  66.233  1.00  0.00    -0.308 C  
HETATM   19  C   UNL     1     -10.097  19.788  68.661  1.00  0.00    -0.546 C  
ENDBRANCH  16  17
ENDBRANCH  14  16
ENDBRANCH  13  14
ENDBRANCH  12  13
ENDBRANCH  11  12
ENDBRANCH  10  11
ENDBRANCH   9  10
ENDBRANCH   8   9
ENDBRANCH   7   8
ENDBRANCH   6   7
ENDBRANCH   5   6
ENDBRANCH   4   5
ENDBRANCH   3   4
ENDBRANCH   2   3
TORSDOF 14
ENDMDL
MODEL      440
REMARK 921   NORMALIZED FREE ENERGY PREDICTED BY IDOCK:   -1.94 KCAL/MOL
REMARK 922        TOTAL FREE ENERGY PREDICTED BY IDOCK:   -5.09 KCAL/MOL
REMARK 923 INTER-LIGAND FREE ENERGY PREDICTED BY IDOCK:   -4.01 KCAL/MOL
REMARK 924 INTRA-LIGAND FREE ENERGY PREDICTED BY IDOCK:   -1.08 KCAL/MOL
REMARK 927      BINDING AFFINITY PREDICTED BY RF-SCORE:    0.00 PKD
ROOT
HETATM    1  C   UNL     1      -8.257   4.337  63.604  1.00  0.00    -0.096 C  
HETATM    2  C   UNL     1      -7.971   3.452  64.806  1.00  0.00    -0.089 C  
ENDROOT
BRANCH   2   3
HETATM    3  C   UNL     1      -9.249   3.139  65.580  1.00  0.00    -0.145 C  
BRANCH   3   4
HETATM    4  C   UNL     1      -9.750   4.366  66.342  1.00  0.00    -0.227 C  
BRANCH   4   5
HETATM    5  C   UNL     1      -9.572   4.182  67.848  1.00  0.00    -0.203 C  
BRANCH   5   6
HETATM    6  C   UNL     1      -9.316   5.517  68.543  1.00  0.00    -0.143 C  
BRANCH   6   7
HETATM    7  C   UNL     1      -8.969   6.601  67.524  1.00  0.00    -0.114 C  
BRANCH   7   8
HETATM    8  C   UNL     1      -9.184   7.994  68.109  1.00  0.00    -0.134 C  
BRANCH   8   9
HETATM    9  C   UNL     1      -8.331   9.031  67.379  1.00  0.00    -0.112 C  
BRANCH   9  10
HETATM   10  C   UNL     1      -8.098  10.255  68.260  1.00  0.00    -0.107 C  
BRANCH  10  11
HETATM   11  C   UNL     1      -8.617  11.533  67.604  1.00  0.00    -0.135 C  
BRANCH  11  12
HETATM   12  C   UNL     1     -10.063  11.783  68.020  1.00  0.00    -0.198 C  
BRANCH  12  13
HETATM   13  C   UNL     1     -11.016  11.828  66.828  1.00  0.00    -0.336 C  
BRANCH  13  14
HETATM   14  C   UNL     1     -11.746  13.150  66.792  1.00  0.00    -0.385 C  
HETATM   15  O   UNL     1     -12.499  13.513  65.897  1.00  0.00    -0.444 OA 
BRANCH  14  16
HETATM   16  O   UNL     1     -11.442  13.881  67.900  1.00  0.00    -0.283 OA 
BRANCH  16  17
HETATM   17  C   UNL     1     -11.249  15.291  67.669  1.00  0.00    -0.320 C  
HETATM   18  C   UNL     1     -11.782  16.084  68.857  1.00  0.00    -0.322 C  
HETATM   19  C   UNL     1      -9.755  15.524  67.489  1.00  0.00    -0.215 C  
ENDBRANCH  16  17
ENDBRANCH  14  16
ENDBRANCH  13  14
ENDBRANCH  12  13
ENDBRANCH  11  12
ENDBRANCH  10  11
ENDBRANCH   9  10
ENDBRANCH   8   9
ENDBRANCH   7   8
ENDBRANCH   6   7
ENDBRANCH   5   6
ENDBRANCH   4   5
ENDBRANCH   3   4
ENDBRANCH   2   3
TORSDOF 14
ENDMDL
MODEL      441
REMARK 921   NORMALIZED FREE ENERGY PREDICTED BY IDOCK:   -1.91 KCAL/MOL
REMARK 922        TOTAL FREE ENERGY PREDICTED BY IDOCK:   -5.04 KCAL/MOL
REMARK 923 INTER-LIGAND FREE ENERGY PREDICTED BY IDOCK:   -3.85 KCAL/MOL
REMARK 924 INTRA-LIGAND FREE ENERGY PREDICTED BY IDOCK:   -1.19 KCAL/MOL
REMARK 927      BINDING AFFINITY PREDICTED BY RF-SCORE:    0.00 PKD
ROOT
HETATM    1  C   UNL     1      -7.795  14.105  67.899  1.00  0.00    -0.157 C  
HETATM    2  C   UNL     1      -6.963  12.841  67.753  1.00  0.00    -0.131 C  
ENDROOT
BRANCH   2   3
HETATM    3  C   UNL     1      -7.101  11.944  68.981  1.00  0.00    -0.092 C  
BRANCH   3   4
HETATM    4  C   UNL     1      -7.656  10.571  68.605  1.00  0.00    -0.099 C  
BRANCH   4   5
HETATM    5  C   UNL     1      -8.043  10.525  67.128  1.00  0.00    -0.120 C  
BRANCH   5   6
HETATM    6  C   UNL     1      -9.556  10.404  66.955  1.00  0.00    -0.207 C  
BRANCH   6   7
HETATM    7  C   UNL     1      -9.899   9.338  65.916  1.00  0.00    -0.335 C  
BRANCH   7   8
HETATM    8  C   UNL     1      -9.616   7.937  66.451  1.00  0.00    -0.251 C  
BRANCH   8   9
HETATM    9  C   UNL     1     -10.883   7.305  67.026  1.00  0.00    -0.350 C  
BRANCH   9  10
HETATM   10  C   UNL     1     -10.625   5.859  67.437  1.00  0.00    -0.356 C  
BRANCH  10  11
HETATM   11  C   UNL     1      -9.894   5.770  68.776  1.00  0.00    -0.181 C  
BRANCH  11  12
HETATM   12  C   UNL     1     -10.431   6.829  69.734  1.00  0.00    -0.240 C  
BRANCH  12  13
HETATM   13  C   UNL     1      -9.336   7.435  70.609  1.00  0.00    -0.160 C  
BRANCH  13  14
HETATM   14  C   UNL     1      -9.780   7.473  72.052  1.00  0.00    -0.159 C  
HETATM   15  O   UNL     1      -9.893   8.487  72.727  1.00  0.00    -0.258 OA 
BRANCH  14  16
HETATM   16  O   UNL     1     -10.036   6.209  72.494  1.00  0.00    -0.171 OA 
BRANCH  16  17
HETATM   17  C   UNL     1      -9.611   5.936  73.844  1.00  0.00    -0.155 C  
HETATM   18  C   UNL     1     -10.308   4.681  74.358  1.00  0.00    -0.318 C  
HETATM   19  C   UNL     1      -8.101   5.744  73.819  1.00  0.00    -0.107 C  
ENDBRANCH  16  17
ENDBRANCH  14  16
ENDBRANCH  13  14
ENDBRANCH  12  13
ENDBRANCH  11  12
ENDBRANCH  10  11
ENDBRANCH   9  10
ENDBRANCH   8   9
ENDBRANCH   7   8
ENDBRANCH   6   7
ENDBRANCH   5   6
ENDBRANCH   4   5
ENDBRANCH   3   4
ENDBRANCH   2   3
TORSDOF 14
ENDMDL
MODEL      442
REMARK 921   NORMALIZED FREE ENERGY PREDICTED BY IDOCK:   -1.91 KCAL/MOL
REMARK 922        TOTAL FREE ENERGY PREDICTED BY IDOCK:   -5.04 KCAL/MOL
REMARK 923 INTER-LIGAND FREE ENERGY PREDICTED BY IDOCK:   -4.32 KCAL/MOL
REMARK 924 INTRA-LIGAND FREE ENERGY PREDICTED BY IDOCK:   -0.72 KCAL/MOL
REMARK 927      BINDING AFFINITY PREDICTED BY RF-SCORE:    0.00 PKD
ROOT
HETATM    1  C   UNL     1      -5.995   9.732  63.905  1.00  0.00    -0.112 C  
HETATM    2  C   UNL     1      -5.409   8.980  65.089  1.00  0.00    -0.038 C  
ENDROOT
BRANCH   2   3
HETATM    3  C   UNL     1      -6.465   8.109  65.767  1.00  0.00    -0.052 C  
BRANCH   3   4
HETATM    4  C   UNL     1      -7.307   8.923  66.749  1.00  0.00    -0.082 C  
BRANCH   4   5
HETATM    5  C   UNL     1      -8.696   9.199  66.176  1.00  0.00    -0.169 C  
BRANCH   5   6
HETATM    6  C   UNL     1      -9.278  10.495  66.738  1.00  0.00    -0.175 C  
BRANCH   6   7
HETATM    7  C   UNL     1      -8.168  11.492  67.063  1.00  0.00    -0.167 C  
BRANCH   7   8
HETATM    8  C   UNL     1      -8.230  11.927  68.525  1.00  0.00    -0.126 C  
BRANCH   8   9
HETATM    9  C   UNL     1      -7.892  13.410  68.670  1.00  0.00    -0.073 C  
BRANCH   9  10
HETATM   10  C   UNL     1      -7.559  14.023  67.313  1.00  0.00    -0.094 C  
BRANCH  10  11
HETATM   11  C   UNL     1      -8.705  14.882  66.782  1.00  0.00    -0.278 C  
BRANCH  11  12
HETATM   12  C   UNL     1      -9.829  14.946  67.810  1.00  0.00    -0.217 C  
BRANCH  12  13
HETATM   13  C   UNL     1     -10.919  15.943  67.425  1.00  0.00    -0.257 C  
BRANCH  13  14
HETATM   14  C   UNL     1     -10.354  17.015  66.523  1.00  0.00    -0.298 C  
HETATM   15  O   UNL     1     -10.594  17.126  65.329  1.00  0.00    -0.662 OA 
BRANCH  14  16
HETATM   16  O   UNL     1      -9.536  17.839  67.236  1.00  0.00    -0.249 OA 
BRANCH  16  17
HETATM   17  C   UNL     1      -9.720  19.247  66.988  1.00  0.00    -0.328 C  
HETATM   18  C   UNL     1     -10.138  19.946  68.277  1.00  0.00    -0.571 C  
HETATM   19  C   UNL     1      -8.395  19.798  66.477  1.00  0.00    -0.373 C  
ENDBRANCH  16  17
ENDBRANCH  14  16
ENDBRANCH  13  14
ENDBRANCH  12  13
ENDBRANCH  11  12
ENDBRANCH  10  11
ENDBRANCH   9  10
ENDBRANCH   8   9
ENDBRANCH   7   8
ENDBRANCH   6   7
ENDBRANCH   5   6
ENDBRANCH   4   5
ENDBRANCH   3   4
ENDBRANCH   2   3
TORSDOF 14
ENDMDL
MODEL      443
REMARK 921   NORMALIZED FREE ENERGY PREDICTED BY IDOCK:   -1.90 KCAL/MOL
REMARK 922        TOTAL FREE ENERGY PREDICTED BY IDOCK:   -5.02 KCAL/MOL
REMARK 923 INTER-LIGAND FREE ENERGY PREDICTED BY IDOCK:   -3.90 KCAL/MOL
REMARK 924 INTRA-LIGAND FREE ENERGY PREDICTED BY IDOCK:   -1.12 KCAL/MOL
REMARK 927      BINDING AFFINITY PREDICTED BY RF-SCORE:    0.00 PKD
ROOT
HETATM    1  C   UNL     1      -7.559  19.280  68.967  1.00  0.00    -0.354 C  
HETATM    2  C   UNL     1      -7.069  17.883  69.309  1.00  0.00    -0.107 C  
ENDROOT
BRANCH   2   3
HETATM    3  C   UNL     1      -7.924  16.815  68.630  1.00  0.00    -0.246 C  
BRANCH   3   4
HETATM    4  C   UNL     1      -8.435  15.789  69.640  1.00  0.00    -0.019 C  
BRANCH   4   5
HETATM    5  C   UNL     1      -9.558  14.946  69.039  1.00  0.00    -0.204 C  
BRANCH   5   6
HETATM    6  C   UNL     1      -9.592  15.071  67.518  1.00  0.00    -0.203 C  
BRANCH   6   7
HETATM    7  C   UNL     1      -9.397  13.708  66.857  1.00  0.00    -0.261 C  
BRANCH   7   8
HETATM    8  C   UNL     1     -10.707  13.187  66.273  1.00  0.00    -0.295 C  
BRANCH   8   9
HETATM    9  C   UNL     1     -11.542  12.485  67.343  1.00  0.00    -0.434 C  
BRANCH   9  10
HETATM   10  C   UNL     1     -10.741  11.369  68.006  1.00  0.00    -0.240 C  
BRANCH  10  11
HETATM   11  C   UNL     1      -9.936  10.565  66.986  1.00  0.00    -0.244 C  
BRANCH  11  12
HETATM   12  C   UNL     1      -8.795   9.832  67.683  1.00  0.00    -0.127 C  
BRANCH  12  13
HETATM   13  C   UNL     1      -8.553  10.340  69.103  1.00  0.00    -0.167 C  
BRANCH  13  14
HETATM   14  C   UNL     1      -8.380   9.178  70.053  1.00  0.00    -0.150 C  
HETATM   15  O   UNL     1      -7.314   8.638  70.315  1.00  0.00    -0.049 OA 
BRANCH  14  16
HETATM   16  O   UNL     1      -9.587   8.818  70.573  1.00  0.00    -0.171 OA 
BRANCH  16  17
HETATM   17  C   UNL     1      -9.887   7.411  70.504  1.00  0.00    -0.180 C  
HETATM   18  C   UNL     1     -10.507   6.952  71.820  1.00  0.00    -0.224 C  
HETATM   19  C   UNL     1     -10.857   7.206  69.349  1.00  0.00    -0.225 C  
ENDBRANCH  16  17
ENDBRANCH  14  16
ENDBRANCH  13  14
ENDBRANCH  12  13
ENDBRANCH  11  12
ENDBRANCH  10  11
ENDBRANCH   9  10
ENDBRANCH   8   9
ENDBRANCH   7   8
ENDBRANCH   6   7
ENDBRANCH   5   6
ENDBRANCH   4   5
ENDBRANCH   3   4
ENDBRANCH   2   3
TORSDOF 14
ENDMDL
MODEL      444
REMARK 921   NORMALIZED FREE ENERGY PREDICTED BY IDOCK:   -1.89 KCAL/MOL
REMARK 922        TOTAL FREE ENERGY PREDICTED BY IDOCK:   -5.00 KCAL/MOL
REMARK 923 INTER-LIGAND FREE ENERGY PREDICTED BY IDOCK:   -4.24 KCAL/MOL
REMARK 924 INTRA-LIGAND FREE ENERGY PREDICTED BY IDOCK:   -0.76 KCAL/MOL
REMARK 927      BINDING AFFINITY PREDICTED BY RF-SCORE:    0.00 PKD
ROOT
HETATM    1  C   UNL     1     -12.604  13.737  65.201  1.00  0.00    -0.471 C  
HETATM    2  C   UNL     1     -11.519  14.055  66.217  1.00  0.00    -0.358 C  
ENDROOT
BRANCH   2   3
HETATM    3  C   UNL     1     -11.549  13.070  67.384  1.00  0.00    -0.407 C  
BRANCH   3   4
HETATM    4  C   UNL     1     -11.713  11.633  66.891  1.00  0.00    -0.133 C  
BRANCH   4   5
HETATM    5  C   UNL     1     -10.353  10.961  66.708  1.00  0.00    -0.289 C  
BRANCH   5   6
HETATM    6  C   UNL     1      -9.470  11.154  67.939  1.00  0.00    -0.178 C  
BRANCH   6   7
HETATM    7  C   UNL     1     -10.157  10.611  69.190  1.00  0.00    -0.234 C  
BRANCH   7   8
HETATM    8  C   UNL     1      -9.636   9.220  69.543  1.00  0.00    -0.178 C  
BRANCH   8   9
HETATM    9  C   UNL     1     -10.776   8.203  69.584  1.00  0.00    -0.196 C  
BRANCH   9  10
HETATM   10  C   UNL     1     -11.601   8.369  70.856  1.00  0.00    -0.288 C  
BRANCH  10  11
HETATM   11  C   UNL     1     -12.053   7.022  71.419  1.00  0.00    -0.396 C  
BRANCH  11  12
HETATM   12  C   UNL     1     -11.147   6.608  72.573  1.00  0.00    -0.296 C  
BRANCH  12  13
HETATM   13  C   UNL     1     -10.764   5.131  72.517  1.00  0.00    -0.286 C  
BRANCH  13  14
HETATM   14  C   UNL     1      -9.514   4.882  73.327  1.00  0.00    -0.123 C  
HETATM   15  O   UNL     1      -9.322   5.287  74.465  1.00  0.00    -0.120 OA 
BRANCH  14  16
HETATM   16  O   UNL     1      -8.629   4.141  72.602  1.00  0.00    -0.102 OA 
BRANCH  16  17
HETATM   17  C   UNL     1      -7.281   4.649  72.580  1.00  0.00    -0.081 C  
HETATM   18  C   UNL     1      -6.412   3.764  71.692  1.00  0.00    -0.015 C  
HETATM   19  C   UNL     1      -7.336   6.071  72.038  1.00  0.00    -0.094 C  
ENDBRANCH  16  17
ENDBRANCH  14  16
ENDBRANCH  13  14
ENDBRANCH  12  13
ENDBRANCH  11  12
ENDBRANCH  10  11
ENDBRANCH   9  10
ENDBRANCH   8   9
ENDBRANCH   7   8
ENDBRANCH   6   7
ENDBRANCH   5   6
ENDBRANCH   4   5
ENDBRANCH   3   4
ENDBRANCH   2   3
TORSDOF 14
ENDMDL
MODEL      445
REMARK 921   NORMALIZED FREE ENERGY PREDICTED BY IDOCK:   -1.89 KCAL/MOL
REMARK 922        TOTAL FREE ENERGY PREDICTED BY IDOCK:   -5.00 KCAL/MOL
REMARK 923 INTER-LIGAND FREE ENERGY PREDICTED BY IDOCK:   -3.15 KCAL/MOL
REMARK 924 INTRA-LIGAND FREE ENERGY PREDICTED BY IDOCK:   -1.85 KCAL/MOL
REMARK 927      BINDING AFFINITY PREDICTED BY RF-SCORE:    0.00 PKD
ROOT
HETATM    1  C   UNL     1     -10.523  19.953  65.823  1.00  0.00    -0.518 C  
HETATM    2  C   UNL     1      -9.556  19.472  66.893  1.00  0.00    -0.440 C  
ENDROOT
BRANCH   2   3
HETATM    3  C   UNL     1     -10.201  18.415  67.786  1.00  0.00    -0.407 C  
BRANCH   3   4
HETATM    4  C   UNL     1      -9.145  17.612  68.545  1.00  0.00    -0.279 C  
BRANCH   4   5
HETATM    5  C   UNL     1      -8.228  16.866  67.576  1.00  0.00    -0.191 C  
BRANCH   5   6
HETATM    6  C   UNL     1      -7.225  15.991  68.325  1.00  0.00    -0.132 C  
BRANCH   6   7
HETATM    7  C   UNL     1      -7.864  15.380  69.572  1.00  0.00    -0.204 C  
BRANCH   7   8
HETATM    8  C   UNL     1      -6.981  14.281  70.159  1.00  0.00     0.146 C  
BRANCH   8   9
HETATM    9  C   UNL     1      -5.734  14.065  69.302  1.00  0.00    -0.084 C  
BRANCH   9  10
HETATM   10  C   UNL     1      -5.323  12.596  69.310  1.00  0.00    -0.071 C  
BRANCH  10  11
HETATM   11  C   UNL     1      -5.980  11.829  70.456  1.00  0.00    -0.066 C  
BRANCH  11  12
HETATM   12  C   UNL     1      -6.264  10.393  70.027  1.00  0.00    -0.093 C  
BRANCH  12  13
HETATM   13  C   UNL     1      -7.731  10.168  69.667  1.00  0.00    -0.167 C  
BRANCH  13  14
HETATM   14  C   UNL     1      -7.886  10.018  68.173  1.00  0.00    -0.089 C  
HETATM   15  O   UNL     1      -7.101   9.433  67.439  1.00  0.00    -0.084 OA 
BRANCH  14  16
HETATM   16  O   UNL     1      -9.030  10.632  67.759  1.00  0.00    -0.138 OA 
BRANCH  16  17
HETATM   17  C   UNL     1      -9.026  12.069  67.866  1.00  0.00    -0.182 C  
HETATM   18  C   UNL     1      -8.312  12.672  66.661  1.00  0.00     0.074 C  
HETATM   19  C   UNL     1     -10.476  12.528  67.921  1.00  0.00    -0.226 C  
ENDBRANCH  16  17
ENDBRANCH  14  16
ENDBRANCH  13  14
ENDBRANCH  12  13
ENDBRANCH  11  12
ENDBRANCH  10  11
ENDBRANCH   9  10
ENDBRANCH   8   9
ENDBRANCH   7   8
ENDBRANCH   6   7
ENDBRANCH   5   6
ENDBRANCH   4   5
ENDBRANCH   3   4
ENDBRANCH   2   3
TORSDOF 14
ENDMDL
MODEL      446
REMARK 921   NORMALIZED FREE ENERGY PREDICTED BY IDOCK:   -1.88 KCAL/MOL
REMARK 922        TOTAL FREE ENERGY PREDICTED BY IDOCK:   -4.99 KCAL/MOL
REMARK 923 INTER-LIGAND FREE ENERGY PREDICTED BY IDOCK:   -3.68 KCAL/MOL
REMARK 924 INTRA-LIGAND FREE ENERGY PREDICTED BY IDOCK:   -1.31 KCAL/MOL
REMARK 927      BINDING AFFINITY PREDICTED BY RF-SCORE:    0.00 PKD
ROOT
HETATM    1  C   UNL     1     -11.301  15.491  68.200  1.00  0.00    -0.348 C  
HETATM    2  C   UNL     1     -10.511  16.104  67.055  1.00  0.00    -0.306 C  
ENDROOT
BRANCH   2   3
HETATM    3  C   UNL     1     -10.286  15.090  65.935  1.00  0.00    -0.335 C  
BRANCH   3   4
HETATM    4  C   UNL     1      -9.838  13.739  66.491  1.00  0.00    -0.294 C  
BRANCH   4   5
HETATM    5  C   UNL     1     -10.257  12.601  65.562  1.00  0.00    -0.298 C  
BRANCH   5   6
HETATM    6  C   UNL     1     -11.107  11.569  66.300  1.00  0.00    -0.321 C  
BRANCH   6   7
HETATM    7  C   UNL     1     -11.406  12.031  67.725  1.00  0.00    -0.370 C  
BRANCH   7   8
HETATM    8  C   UNL     1     -11.080  10.937  68.738  1.00  0.00    -0.310 C  
BRANCH   8   9
HETATM    9  C   UNL     1      -9.895  10.093  68.269  1.00  0.00    -0.162 C  
BRANCH   9  10
HETATM   10  C   UNL     1      -9.488   9.091  69.345  1.00  0.00    -0.159 C  
BRANCH  10  11
HETATM   11  C   UNL     1      -8.777   9.772  70.514  1.00  0.00    -0.020 C  
BRANCH  11  12
HETATM   12  C   UNL     1      -8.194   8.721  71.453  1.00  0.00    -0.203 C  
BRANCH  12  13
HETATM   13  C   UNL     1      -7.210   7.788  70.749  1.00  0.00    -0.057 C  
BRANCH  13  14
HETATM   14  C   UNL     1      -7.477   6.354  71.140  1.00  0.00    -0.085 C  
HETATM   15  O   UNL     1      -7.136   5.838  72.196  1.00  0.00    -0.082 OA 
BRANCH  14  16
HETATM   16  O   UNL     1      -8.152   5.717  70.143  1.00  0.00    -0.099 OA 
BRANCH  16  17
HETATM   17  C   UNL     1      -7.450   5.630  68.887  1.00  0.00    -0.084 C  
HETATM   18  C   UNL     1      -6.790   4.262  68.760  1.00  0.00    -0.047 C  
HETATM   19  C   UNL     1      -8.469   5.845  67.777  1.00  0.00    -0.107 C  
ENDBRANCH  16  17
ENDBRANCH  14  16
ENDBRANCH  13  14
ENDBRANCH  12  13
ENDBRANCH  11  12
ENDBRANCH  10  11
ENDBRANCH   9  10
ENDBRANCH   8   9
ENDBRANCH   7   8
ENDBRANCH   6   7
ENDBRANCH   5   6
ENDBRANCH   4   5
ENDBRANCH   3   4
ENDBRANCH   2   3
TORSDOF 14
ENDMDL
MODEL      447
REMARK 921   NORMALIZED FREE ENERGY PREDICTED BY IDOCK:   -1.85 KCAL/MOL
REMARK 922        TOTAL FREE ENERGY PREDICTED BY IDOCK:   -4.93 KCAL/MOL
REMARK 923 INTER-LIGAND FREE ENERGY PREDICTED BY IDOCK:   -4.25 KCAL/MOL
REMARK 924 INTRA-LIGAND FREE ENERGY PREDICTED BY IDOCK:   -0.67 KCAL/MOL
REMARK 927      BINDING AFFINITY PREDICTED BY RF-SCORE:    0.00 PKD
ROOT
HETATM    1  C   UNL     1      -8.034   1.562  63.428  1.00  0.00    -0.060 C  
HETATM    2  C   UNL     1      -8.126   2.153  64.825  1.00  0.00    -0.078 C  
ENDROOT
BRANCH   2   3
HETATM    3  C   UNL     1      -8.816   3.515  64.804  1.00  0.00    -0.120 C  
BRANCH   3   4
HETATM    4  C   UNL     1      -9.291   3.875  63.397  1.00  0.00    -0.127 C  
BRANCH   4   5
HETATM    5  C   UNL     1      -8.662   5.186  62.928  1.00  0.00    -0.068 C  
BRANCH   5   6
HETATM    6  C   UNL     1      -7.664   5.719  63.953  1.00  0.00    -0.094 C  
BRANCH   6   7
HETATM    7  C   UNL     1      -7.879   7.213  64.193  1.00  0.00    -0.113 C  
BRANCH   7   8
HETATM    8  C   UNL     1      -7.891   7.534  65.685  1.00  0.00    -0.110 C  
BRANCH   8   9
HETATM    9  C   UNL     1      -9.238   7.177  66.311  1.00  0.00    -0.169 C  
BRANCH   9  10
HETATM   10  C   UNL     1      -9.724   8.299  67.224  1.00  0.00    -0.234 C  
BRANCH  10  11
HETATM   11  C   UNL     1      -9.165   9.656  66.800  1.00  0.00    -0.181 C  
BRANCH  11  12
HETATM   12  C   UNL     1     -10.308  10.610  66.468  1.00  0.00    -0.299 C  
BRANCH  12  13
HETATM   13  C   UNL     1     -10.456  10.846  64.967  1.00  0.00    -0.331 C  
BRANCH  13  14
HETATM   14  C   UNL     1     -10.288  12.312  64.648  1.00  0.00    -0.301 C  
HETATM   15  O   UNL     1     -10.281  12.790  63.521  1.00  0.00    -0.367 OA 
BRANCH  14  16
HETATM   16  O   UNL     1     -10.145  13.026  65.799  1.00  0.00    -0.286 OA 
BRANCH  16  17
HETATM   17  C   UNL     1     -11.063  14.126  65.956  1.00  0.00    -0.314 C  
HETATM   18  C   UNL     1     -10.618  15.296  65.086  1.00  0.00    -0.453 C  
HETATM   19  C   UNL     1     -12.442  13.633  65.539  1.00  0.00    -0.544 C  
ENDBRANCH  16  17
ENDBRANCH  14  16
ENDBRANCH  13  14
ENDBRANCH  12  13
ENDBRANCH  11  12
ENDBRANCH  10  11
ENDBRANCH   9  10
ENDBRANCH   8   9
ENDBRANCH   7   8
ENDBRANCH   6   7
ENDBRANCH   5   6
ENDBRANCH   4   5
ENDBRANCH   3   4
ENDBRANCH   2   3
TORSDOF 14
ENDMDL
MODEL      448
REMARK 921   NORMALIZED FREE ENERGY PREDICTED BY IDOCK:   -1.82 KCAL/MOL
REMARK 922        TOTAL FREE ENERGY PREDICTED BY IDOCK:   -4.87 KCAL/MOL
REMARK 923 INTER-LIGAND FREE ENERGY PREDICTED BY IDOCK:   -4.34 KCAL/MOL
REMARK 924 INTRA-LIGAND FREE ENERGY PREDICTED BY IDOCK:   -0.54 KCAL/MOL
REMARK 927      BINDING AFFINITY PREDICTED BY RF-SCORE:    0.00 PKD
ROOT
HETATM    1  C   UNL     1     -12.673  13.873  65.492  1.00  0.00    -0.536 C  
HETATM    2  C   UNL     1     -11.902  14.240  66.750  1.00  0.00    -0.449 C  
ENDROOT
BRANCH   2   3
HETATM    3  C   UNL     1     -11.886  13.082  67.745  1.00  0.00    -0.395 C  
BRANCH   3   4
HETATM    4  C   UNL     1     -11.510  11.768  67.062  1.00  0.00    -0.368 C  
BRANCH   4   5
HETATM    5  C   UNL     1      -9.997  11.666  66.873  1.00  0.00    -0.225 C  
BRANCH   5   6
HETATM    6  C   UNL     1      -9.262  11.805  68.204  1.00  0.00    -0.186 C  
BRANCH   6   7
HETATM    7  C   UNL     1      -9.445  10.552  69.058  1.00  0.00    -0.211 C  
BRANCH   7   8
HETATM    8  C   UNL     1      -9.184   9.288  68.243  1.00  0.00    -0.134 C  
BRANCH   8   9
HETATM    9  C   UNL     1     -10.326   8.286  68.406  1.00  0.00    -0.237 C  
BRANCH   9  10
HETATM   10  C   UNL     1     -10.955   8.406  69.790  1.00  0.00    -0.130 C  
BRANCH  10  11
HETATM   11  C   UNL     1     -11.284   7.037  70.384  1.00  0.00    -0.339 C  
BRANCH  11  12
HETATM   12  C   UNL     1     -10.439   5.960  69.712  1.00  0.00    -0.340 C  
BRANCH  12  13
HETATM   13  C   UNL     1      -9.201   5.593  70.527  1.00  0.00    -0.175 C  
BRANCH  13  14
HETATM   14  C   UNL     1      -8.307   4.669  69.735  1.00  0.00    -0.074 C  
HETATM   15  O   UNL     1      -8.132   4.727  68.525  1.00  0.00    -0.084 OA 
BRANCH  14  16
HETATM   16  O   UNL     1      -7.725   3.759  70.565  1.00  0.00    -0.044 OA 
BRANCH  16  17
HETATM   17  C   UNL     1      -8.430   2.508  70.692  1.00  0.00    -0.050 C  
HETATM   18  C   UNL     1      -9.316   2.542  71.933  1.00  0.00    -0.175 C  
HETATM   19  C   UNL     1      -9.267   2.324  69.434  1.00  0.00    -0.187 C  
ENDBRANCH  16  17
ENDBRANCH  14  16
ENDBRANCH  13  14
ENDBRANCH  12  13
ENDBRANCH  11  12
ENDBRANCH  10  11
ENDBRANCH   9  10
ENDBRANCH   8   9
ENDBRANCH   7   8
ENDBRANCH   6   7
ENDBRANCH   5   6
ENDBRANCH   4   5
ENDBRANCH   3   4
ENDBRANCH   2   3
TORSDOF 14
ENDMDL
MODEL      449
REMARK 921   NORMALIZED FREE ENERGY PREDICTED BY IDOCK:   -1.81 KCAL/MOL
REMARK 922        TOTAL FREE ENERGY PREDICTED BY IDOCK:   -4.87 KCAL/MOL
REMARK 923 INTER-LIGAND FREE ENERGY PREDICTED BY IDOCK:   -4.16 KCAL/MOL
REMARK 924 INTRA-LIGAND FREE ENERGY PREDICTED BY IDOCK:   -0.71 KCAL/MOL
REMARK 927      BINDING AFFINITY PREDICTED BY RF-SCORE:    0.00 PKD
ROOT
HETATM    1  C   UNL     1      -9.729  12.524  68.448  1.00  0.00    -0.189 C  
HETATM    2  C   UNL     1     -10.998  12.247  67.658  1.00  0.00    -0.287 C  
ENDROOT
BRANCH   2   3
HETATM    3  C   UNL     1     -12.023  11.497  68.504  1.00  0.00    -0.293 C  
BRANCH   3   4
HETATM    4  C   UNL     1     -11.835  11.789  69.992  1.00  0.00    -0.422 C  
BRANCH   4   5
HETATM    5  C   UNL     1     -12.961  11.167  70.816  1.00  0.00    -0.223 C  
BRANCH   5   6
HETATM    6  C   UNL     1     -12.718   9.678  71.050  1.00  0.00    -0.354 C  
BRANCH   6   7
HETATM    7  C   UNL     1     -11.889   9.455  72.314  1.00  0.00    -0.013 C  
BRANCH   7   8
HETATM    8  C   UNL     1     -11.139   8.127  72.252  1.00  0.00    -0.410 C  
BRANCH   8   9
HETATM    9  C   UNL     1      -9.628   8.353  72.221  1.00  0.00    -0.374 C  
BRANCH   9  10
HETATM   10  C   UNL     1      -9.110   8.343  70.786  1.00  0.00    -0.180 C  
BRANCH  10  11
HETATM   11  C   UNL     1      -9.916   7.397  69.898  1.00  0.00    -0.188 C  
BRANCH  11  12
HETATM   12  C   UNL     1     -10.359   8.121  68.631  1.00  0.00    -0.224 C  
BRANCH  12  13
HETATM   13  C   UNL     1     -10.640   7.162  67.476  1.00  0.00    -0.348 C  
BRANCH  13  14
HETATM   14  C   UNL     1      -9.352   6.787  66.783  1.00  0.00    -0.160 C  
HETATM   15  O   UNL     1      -8.503   7.580  66.400  1.00  0.00    -0.119 OA 
BRANCH  14  16
HETATM   16  O   UNL     1      -9.275   5.433  66.644  1.00  0.00    -0.126 OA 
BRANCH  16  17
HETATM   17  C   UNL     1      -8.119   4.821  67.247  1.00  0.00    -0.102 C  
HETATM   18  C   UNL     1      -6.850   5.390  66.621  1.00  0.00    -0.063 C  
HETATM   19  C   UNL     1      -8.168   5.121  68.739  1.00  0.00    -0.085 C  
ENDBRANCH  16  17
ENDBRANCH  14  16
ENDBRANCH  13  14
ENDBRANCH  12  13
ENDBRANCH  11  12
ENDBRANCH  10  11
ENDBRANCH   9  10
ENDBRANCH   8   9
ENDBRANCH   7   8
ENDBRANCH   6   7
ENDBRANCH   5   6
ENDBRANCH   4   5
ENDBRANCH   3   4
ENDBRANCH   2   3
TORSDOF 14
ENDMDL
MODEL      450
REMARK 921   NORMALIZED FREE ENERGY PREDICTED BY IDOCK:   -1.79 KCAL/MOL
REMARK 922        TOTAL FREE ENERGY PREDICTED BY IDOCK:   -4.83 KCAL/MOL
REMARK 923 INTER-LIGAND FREE ENERGY PREDICTED BY IDOCK:   -3.55 KCAL/MOL
REMARK 924 INTRA-LIGAND FREE ENERGY PREDICTED BY IDOCK:   -1.28 KCAL/MOL
REMARK 927      BINDING AFFINITY PREDICTED BY RF-SCORE:    0.00 PKD
ROOT
HETATM    1  C   UNL     1      -7.997   1.579  63.419  1.00  0.00    -0.060 C  
HETATM    2  C   UNL     1      -7.985   2.256  64.780  1.00  0.00    -0.078 C  
ENDROOT
BRANCH   2   3
HETATM    3  C   UNL     1      -8.597   3.653  64.708  1.00  0.00    -0.105 C  
BRANCH   3   4
HETATM    4  C   UNL     1      -9.130   3.953  63.307  1.00  0.00    -0.112 C  
BRANCH   4   5
HETATM    5  C   UNL     1      -8.426   5.168  62.706  1.00  0.00    -0.113 C  
BRANCH   5   6
HETATM    6  C   UNL     1      -7.356   5.713  63.650  1.00  0.00    -0.058 C  
BRANCH   6   7
HETATM    7  C   UNL     1      -7.424   7.237  63.725  1.00  0.00    -0.097 C  
BRANCH   7   8
HETATM    8  C   UNL     1      -7.227   7.727  65.157  1.00  0.00    -0.065 C  
BRANCH   8   9
HETATM    9  C   UNL     1      -7.732   6.693  66.163  1.00  0.00    -0.095 C  
BRANCH   9  10
HETATM   10  C   UNL     1      -8.667   7.340  67.179  1.00  0.00    -0.121 C  
BRANCH  10  11
HETATM   11  C   UNL     1      -9.545   8.414  66.538  1.00  0.00    -0.304 C  
BRANCH  11  12
HETATM   12  C   UNL     1      -9.364   9.740  67.269  1.00  0.00    -0.161 C  
BRANCH  12  13
HETATM   13  C   UNL     1     -10.394   9.944  68.378  1.00  0.00    -0.226 C  
BRANCH  13  14
HETATM   14  C   UNL     1     -11.345  11.058  68.011  1.00  0.00    -0.306 C  
HETATM   15  O   UNL     1     -12.276  11.445  68.705  1.00  0.00    -0.532 OA 
BRANCH  14  16
HETATM   16  O   UNL     1     -11.015  11.570  66.792  1.00  0.00    -0.270 OA 
BRANCH  16  17
HETATM   17  C   UNL     1     -11.009  13.009  66.714  1.00  0.00    -0.276 C  
HETATM   18  C   UNL     1      -9.595  13.530  66.948  1.00  0.00    -0.258 C  
HETATM   19  C   UNL     1     -11.505  13.394  65.327  1.00  0.00    -0.318 C  
ENDBRANCH  16  17
ENDBRANCH  14  16
ENDBRANCH  13  14
ENDBRANCH  12  13
ENDBRANCH  11  12
ENDBRANCH  10  11
ENDBRANCH   9  10
ENDBRANCH   8   9
ENDBRANCH   7   8
ENDBRANCH   6   7
ENDBRANCH   5   6
ENDBRANCH   4   5
ENDBRANCH   3   4
ENDBRANCH   2   3
TORSDOF 14
ENDMDL
MODEL      451
REMARK 921   NORMALIZED FREE ENERGY PREDICTED BY IDOCK:   -1.79 KCAL/MOL
REMARK 922        TOTAL FREE ENERGY PREDICTED BY IDOCK:   -4.83 KCAL/MOL
REMARK 923 INTER-LIGAND FREE ENERGY PREDICTED BY IDOCK:   -3.67 KCAL/MOL
REMARK 924 INTRA-LIGAND FREE ENERGY PREDICTED BY IDOCK:   -1.16 KCAL/MOL
REMARK 927      BINDING AFFINITY PREDICTED BY RF-SCORE:    0.00 PKD
ROOT
HETATM    1  C   UNL     1      -7.981   2.212  64.410  1.00  0.00    -0.074 C  
HETATM    2  C   UNL     1      -8.132   2.890  65.762  1.00  0.00    -0.087 C  
ENDROOT
BRANCH   2   3
HETATM    3  C   UNL     1      -8.666   4.313  65.610  1.00  0.00    -0.120 C  
BRANCH   3   4
HETATM    4  C   UNL     1      -8.723   4.729  64.141  1.00  0.00    -0.141 C  
BRANCH   4   5
HETATM    5  C   UNL     1      -8.102   6.111  63.942  1.00  0.00    -0.068 C  
BRANCH   5   6
HETATM    6  C   UNL     1      -8.199   6.950  65.214  1.00  0.00    -0.129 C  
BRANCH   6   7
HETATM    7  C   UNL     1      -7.394   8.241  65.074  1.00  0.00    -0.086 C  
BRANCH   7   8
HETATM    8  C   UNL     1      -8.266   9.379  64.551  1.00  0.00    -0.147 C  
BRANCH   8   9
HETATM    9  C   UNL     1      -7.960  10.685  65.284  1.00  0.00    -0.060 C  
BRANCH   9  10
HETATM   10  C   UNL     1      -9.151  11.118  66.133  1.00  0.00    -0.214 C  
BRANCH  10  11
HETATM   11  C   UNL     1     -10.237  10.044  66.178  1.00  0.00    -0.283 C  
BRANCH  11  12
HETATM   12  C   UNL     1     -10.822   9.953  67.583  1.00  0.00    -0.318 C  
BRANCH  12  13
HETATM   13  C   UNL     1      -9.961   9.113  68.523  1.00  0.00    -0.192 C  
BRANCH  13  14
HETATM   14  C   UNL     1     -10.686   8.876  69.826  1.00  0.00    -0.225 C  
HETATM   15  O   UNL     1     -11.535   9.616  70.303  1.00  0.00    -0.254 OA 
BRANCH  14  16
HETATM   16  O   UNL     1     -10.253   7.716  70.396  1.00  0.00    -0.199 OA 
BRANCH  16  17
HETATM   17  C   UNL     1     -11.213   6.642  70.402  1.00  0.00    -0.344 C  
HETATM   18  C   UNL     1     -10.514   5.325  70.080  1.00  0.00    -0.351 C  
HETATM   19  C   UNL     1     -11.840   6.596  71.789  1.00  0.00    -0.380 C  
ENDBRANCH  16  17
ENDBRANCH  14  16
ENDBRANCH  13  14
ENDBRANCH  12  13
ENDBRANCH  11  12
ENDBRANCH  10  11
ENDBRANCH   9  10
ENDBRANCH   8   9
ENDBRANCH   7   8
ENDBRANCH   6   7
ENDBRANCH   5   6
ENDBRANCH   4   5
ENDBRANCH   3   4
ENDBRANCH   2   3
TORSDOF 14
ENDMDL
MODEL      452
REMARK 921   NORMALIZED FREE ENERGY PREDICTED BY IDOCK:   -1.74 KCAL/MOL
REMARK 922        TOTAL FREE ENERGY PREDICTED BY IDOCK:   -4.74 KCAL/MOL
REMARK 923 INTER-LIGAND FREE ENERGY PREDICTED BY IDOCK:   -3.65 KCAL/MOL
REMARK 924 INTRA-LIGAND FREE ENERGY PREDICTED BY IDOCK:   -1.09 KCAL/MOL
REMARK 927      BINDING AFFINITY PREDICTED BY RF-SCORE:    0.00 PKD
ROOT
HETATM    1  C   UNL     1     -10.688  12.094  64.944  1.00  0.00    -0.336 C  
HETATM    2  C   UNL     1     -10.302  13.308  65.772  1.00  0.00    -0.290 C  
ENDROOT
BRANCH   2   3
HETATM    3  C   UNL     1     -10.646  13.104  67.246  1.00  0.00    -0.250 C  
BRANCH   3   4
HETATM    4  C   UNL     1      -9.388  12.863  68.080  1.00  0.00    -0.214 C  
BRANCH   4   5
HETATM    5  C   UNL     1      -8.707  11.557  67.673  1.00  0.00    -0.142 C  
BRANCH   5   6
HETATM    6  C   UNL     1      -8.313  10.733  68.898  1.00  0.00    -0.147 C  
BRANCH   6   7
HETATM    7  C   UNL     1      -7.287   9.665  68.524  1.00  0.00    -0.078 C  
BRANCH   7   8
HETATM    8  C   UNL     1      -6.327  10.175  67.452  1.00  0.00    -0.066 C  
BRANCH   8   9
HETATM    9  C   UNL     1      -6.724   9.655  66.071  1.00  0.00    -0.084 C  
BRANCH   9  10
HETATM   10  C   UNL     1      -7.285   8.240  66.167  1.00  0.00    -0.070 C  
BRANCH  10  11
HETATM   11  C   UNL     1      -8.748   8.178  65.733  1.00  0.00    -0.183 C  
BRANCH  11  12
HETATM   12  C   UNL     1      -9.391   6.894  66.246  1.00  0.00    -0.144 C  
BRANCH  12  13
HETATM   13  C   UNL     1     -10.777   7.131  66.843  1.00  0.00    -0.363 C  
BRANCH  13  14
HETATM   14  C   UNL     1     -10.674   7.990  68.081  1.00  0.00    -0.032 C  
HETATM   15  O   UNL     1     -11.069   9.145  68.169  1.00  0.00    -0.030 OA 
BRANCH  14  16
HETATM   16  O   UNL     1     -10.075   7.291  69.085  1.00  0.00    -0.173 OA 
BRANCH  16  17
HETATM   17  C   UNL     1     -10.872   6.235  69.656  1.00  0.00    -0.339 C  
HETATM   18  C   UNL     1      -9.982   5.044  69.994  1.00  0.00    -0.324 C  
HETATM   19  C   UNL     1     -11.536   6.789  70.909  1.00  0.00    -0.384 C  
ENDBRANCH  16  17
ENDBRANCH  14  16
ENDBRANCH  13  14
ENDBRANCH  12  13
ENDBRANCH  11  12
ENDBRANCH  10  11
ENDBRANCH   9  10
ENDBRANCH   8   9
ENDBRANCH   7   8
ENDBRANCH   6   7
ENDBRANCH   5   6
ENDBRANCH   4   5
ENDBRANCH   3   4
ENDBRANCH   2   3
TORSDOF 14
ENDMDL
MODEL      453
REMARK 921   NORMALIZED FREE ENERGY PREDICTED BY IDOCK:   -1.72 KCAL/MOL
REMARK 922        TOTAL FREE ENERGY PREDICTED BY IDOCK:   -4.70 KCAL/MOL
REMARK 923 INTER-LIGAND FREE ENERGY PREDICTED BY IDOCK:   -3.27 KCAL/MOL
REMARK 924 INTRA-LIGAND FREE ENERGY PREDICTED BY IDOCK:   -1.43 KCAL/MOL
REMARK 927      BINDING AFFINITY PREDICTED BY RF-SCORE:    0.00 PKD
ROOT
HETATM    1  C   UNL     1      -7.020   9.222  63.584  1.00  0.00    -0.091 C  
HETATM    2  C   UNL     1      -6.297   7.891  63.716  1.00  0.00    -0.062 C  
ENDROOT
BRANCH   2   3
HETATM    3  C   UNL     1      -7.022   6.789  62.948  1.00  0.00    -0.049 C  
BRANCH   3   4
HETATM    4  C   UNL     1      -7.012   5.473  63.726  1.00  0.00    -0.047 C  
BRANCH   4   5
HETATM    5  C   UNL     1      -8.336   4.730  63.557  1.00  0.00    -0.117 C  
BRANCH   5   6
HETATM    6  C   UNL     1      -8.782   4.086  64.868  1.00  0.00    -0.118 C  
BRANCH   6   7
HETATM    7  C   UNL     1     -10.287   4.253  65.069  1.00  0.00    -0.203 C  
BRANCH   7   8
HETATM    8  C   UNL     1     -10.587   5.328  66.110  1.00  0.00    -0.251 C  
BRANCH   8   9
HETATM    9  C   UNL     1      -9.297   5.949  66.643  1.00  0.00    -0.156 C  
BRANCH   9  10
HETATM   10  C   UNL     1      -9.231   7.434  66.299  1.00  0.00    -0.182 C  
BRANCH  10  11
HETATM   11  C   UNL     1      -8.229   8.177  67.182  1.00  0.00    -0.120 C  
BRANCH  11  12
HETATM   12  C   UNL     1      -8.667   8.106  68.641  1.00  0.00    -0.134 C  
BRANCH  12  13
HETATM   13  C   UNL     1     -10.173   8.297  68.810  1.00  0.00    -0.226 C  
BRANCH  13  14
HETATM   14  C   UNL     1     -10.689   7.423  69.928  1.00  0.00    -0.243 C  
HETATM   15  O   UNL     1     -11.240   6.341  69.777  1.00  0.00    -0.368 OA 
BRANCH  14  16
HETATM   16  O   UNL     1     -10.456   8.018  71.131  1.00  0.00    -0.197 OA 
BRANCH  16  17
HETATM   17  C   UNL     1      -9.836   7.174  72.121  1.00  0.00    -0.153 C  
HETATM   18  C   UNL     1      -8.646   7.898  72.743  1.00  0.00    -0.225 C  
HETATM   19  C   UNL     1     -10.888   6.857  73.175  1.00  0.00    -0.328 C  
ENDBRANCH  16  17
ENDBRANCH  14  16
ENDBRANCH  13  14
ENDBRANCH  12  13
ENDBRANCH  11  12
ENDBRANCH  10  11
ENDBRANCH   9  10
ENDBRANCH   8   9
ENDBRANCH   7   8
ENDBRANCH   6   7
ENDBRANCH   5   6
ENDBRANCH   4   5
ENDBRANCH   3   4
ENDBRANCH   2   3
TORSDOF 14
ENDMDL
MODEL      454
REMARK 921   NORMALIZED FREE ENERGY PREDICTED BY IDOCK:   -1.67 KCAL/MOL
REMARK 922        TOTAL FREE ENERGY PREDICTED BY IDOCK:   -4.61 KCAL/MOL
REMARK 923 INTER-LIGAND FREE ENERGY PREDICTED BY IDOCK:   -4.08 KCAL/MOL
REMARK 924 INTRA-LIGAND FREE ENERGY PREDICTED BY IDOCK:   -0.53 KCAL/MOL
REMARK 927      BINDING AFFINITY PREDICTED BY RF-SCORE:    0.00 PKD
ROOT
HETATM    1  C   UNL     1     -12.538  13.860  65.414  1.00  0.00    -0.538 C  
HETATM    2  C   UNL     1     -11.943  14.409  66.700  1.00  0.00    -0.414 C  
ENDROOT
BRANCH   2   3
HETATM    3  C   UNL     1     -11.880  13.335  67.783  1.00  0.00    -0.394 C  
BRANCH   3   4
HETATM    4  C   UNL     1     -11.278  12.038  67.243  1.00  0.00    -0.371 C  
BRANCH   4   5
HETATM    5  C   UNL     1      -9.800  12.223  66.906  1.00  0.00    -0.216 C  
BRANCH   5   6
HETATM    6  C   UNL     1      -8.945  12.269  68.171  1.00  0.00    -0.192 C  
BRANCH   6   7
HETATM    7  C   UNL     1      -8.856  10.887  68.816  1.00  0.00    -0.162 C  
BRANCH   7   8
HETATM    8  C   UNL     1      -8.230   9.874  67.860  1.00  0.00    -0.113 C  
BRANCH   8   9
HETATM    9  C   UNL     1      -9.021   8.566  67.855  1.00  0.00    -0.139 C  
BRANCH   9  10
HETATM   10  C   UNL     1      -9.724   8.355  69.192  1.00  0.00    -0.171 C  
BRANCH  10  11
HETATM   11  C   UNL     1      -9.859   6.872  69.534  1.00  0.00    -0.163 C  
BRANCH  11  12
HETATM   12  C   UNL     1      -8.802   6.475  70.559  1.00  0.00    -0.151 C  
BRANCH  12  13
HETATM   13  C   UNL     1      -8.153   7.683  71.230  1.00  0.00    -0.095 C  
BRANCH  13  14
HETATM   14  C   UNL     1      -7.484   7.269  72.519  1.00  0.00    -0.083 C  
HETATM   15  O   UNL     1      -6.572   6.458  72.609  1.00  0.00    -0.062 OA 
BRANCH  14  16
HETATM   16  O   UNL     1      -8.046   7.931  73.569  1.00  0.00    -0.151 OA 
BRANCH  16  17
HETATM   17  C   UNL     1      -8.961   7.151  74.364  1.00  0.00    -0.194 C  
HETATM   18  C   UNL     1     -10.358   7.220  73.756  1.00  0.00    -0.360 C  
HETATM   19  C   UNL     1      -8.448   5.718  74.379  1.00  0.00    -0.108 C  
ENDBRANCH  16  17
ENDBRANCH  14  16
ENDBRANCH  13  14
ENDBRANCH  12  13
ENDBRANCH  11  12
ENDBRANCH  10  11
ENDBRANCH   9  10
ENDBRANCH   8   9
ENDBRANCH   7   8
ENDBRANCH   6   7
ENDBRANCH   5   6
ENDBRANCH   4   5
ENDBRANCH   3   4
ENDBRANCH   2   3
TORSDOF 14
ENDMDL
MODEL      455
REMARK 921   NORMALIZED FREE ENERGY PREDICTED BY IDOCK:   -1.59 KCAL/MOL
REMARK 922        TOTAL FREE ENERGY PREDICTED BY IDOCK:   -4.46 KCAL/MOL
REMARK 923 INTER-LIGAND FREE ENERGY PREDICTED BY IDOCK:   -3.07 KCAL/MOL
REMARK 924 INTRA-LIGAND FREE ENERGY PREDICTED BY IDOCK:   -1.38 KCAL/MOL
REMARK 927      BINDING AFFINITY PREDICTED BY RF-SCORE:    0.00 PKD
ROOT
HETATM    1  C   UNL     1      -7.014   9.297  63.445  1.00  0.00    -0.090 C  
HETATM    2  C   UNL     1      -6.202   8.024  63.617  1.00  0.00    -0.067 C  
ENDROOT
BRANCH   2   3
HETATM    3  C   UNL     1      -6.857   6.849  62.895  1.00  0.00    -0.051 C  
BRANCH   3   4
HETATM    4  C   UNL     1      -6.893   5.605  63.781  1.00  0.00    -0.045 C  
BRANCH   4   5
HETATM    5  C   UNL     1      -8.180   4.813  63.555  1.00  0.00    -0.107 C  
BRANCH   5   6
HETATM    6  C   UNL     1      -8.587   4.048  64.813  1.00  0.00    -0.116 C  
BRANCH   6   7
HETATM    7  C   UNL     1     -10.101   4.094  65.010  1.00  0.00    -0.220 C  
BRANCH   7   8
HETATM    8  C   UNL     1     -10.485   5.108  66.084  1.00  0.00    -0.301 C  
BRANCH   8   9
HETATM    9  C   UNL     1      -9.242   5.726  66.722  1.00  0.00    -0.135 C  
BRANCH   9  10
HETATM   10  C   UNL     1      -9.097   7.189  66.315  1.00  0.00    -0.182 C  
BRANCH  10  11
HETATM   11  C   UNL     1      -8.162   7.950  67.254  1.00  0.00    -0.122 C  
BRANCH  11  12
HETATM   12  C   UNL     1      -8.928   9.060  67.966  1.00  0.00    -0.133 C  
BRANCH  12  13
HETATM   13  C   UNL     1      -8.011  10.166  68.482  1.00  0.00    -0.104 C  
BRANCH  13  14
HETATM   14  C   UNL     1      -8.525  11.518  68.049  1.00  0.00    -0.148 C  
HETATM   15  O   UNL     1      -8.064  12.594  68.407  1.00  0.00    -0.155 OA 
BRANCH  14  16
HETATM   16  O   UNL     1      -9.582  11.366  67.202  1.00  0.00    -0.177 OA 
BRANCH  16  17
HETATM   17  C   UNL     1     -10.666  12.294  67.402  1.00  0.00    -0.230 C  
HETATM   18  C   UNL     1     -11.164  12.801  66.053  1.00  0.00    -0.335 C  
HETATM   19  C   UNL     1     -11.770  11.554  68.145  1.00  0.00    -0.357 C  
ENDBRANCH  16  17
ENDBRANCH  14  16
ENDBRANCH  13  14
ENDBRANCH  12  13
ENDBRANCH  11  12
ENDBRANCH  10  11
ENDBRANCH   9  10
ENDBRANCH   8   9
ENDBRANCH   7   8
ENDBRANCH   6   7
ENDBRANCH   5   6
ENDBRANCH   4   5
ENDBRANCH   3   4
ENDBRANCH   2   3
TORSDOF 14
ENDMDL
MODEL      456
REMARK 921   NORMALIZED FREE ENERGY PREDICTED BY IDOCK:   -1.58 KCAL/MOL
REMARK 922        TOTAL FREE ENERGY PREDICTED BY IDOCK:   -4.43 KCAL/MOL
REMARK 923 INTER-LIGAND FREE ENERGY PREDICTED BY IDOCK:   -3.90 KCAL/MOL
REMARK 924 INTRA-LIGAND FREE ENERGY PREDICTED BY IDOCK:   -0.53 KCAL/MOL
REMARK 927      BINDING AFFINITY PREDICTED BY RF-SCORE:    0.00 PKD
ROOT
HETATM    1  C   UNL     1     -12.784  13.732  65.486  1.00  0.00    -0.530 C  
HETATM    2  C   UNL     1     -11.758  14.239  66.487  1.00  0.00    -0.409 C  
ENDROOT
BRANCH   2   3
HETATM    3  C   UNL     1     -11.748  13.382  67.750  1.00  0.00    -0.394 C  
BRANCH   3   4
HETATM    4  C   UNL     1     -11.767  11.892  67.410  1.00  0.00    -0.326 C  
BRANCH   4   5
HETATM    5  C   UNL     1     -10.356  11.380  67.126  1.00  0.00    -0.247 C  
BRANCH   5   6
HETATM    6  C   UNL     1      -9.524  11.308  68.405  1.00  0.00    -0.192 C  
BRANCH   6   7
HETATM    7  C   UNL     1      -9.694   9.951  69.086  1.00  0.00    -0.204 C  
BRANCH   7   8
HETATM    8  C   UNL     1      -9.056   8.838  68.259  1.00  0.00    -0.141 C  
BRANCH   8   9
HETATM    9  C   UNL     1     -10.123   7.940  67.635  1.00  0.00    -0.262 C  
BRANCH   9  10
HETATM   10  C   UNL     1     -10.368   6.709  68.503  1.00  0.00    -0.216 C  
BRANCH  10  11
HETATM   11  C   UNL     1     -10.451   5.433  67.667  1.00  0.00    -0.217 C  
BRANCH  11  12
HETATM   12  C   UNL     1      -9.420   5.476  66.545  1.00  0.00    -0.161 C  
BRANCH  12  13
HETATM   13  C   UNL     1      -8.794   4.111  66.271  1.00  0.00    -0.118 C  
BRANCH  13  14
HETATM   14  C   UNL     1      -7.966   4.157  65.008  1.00  0.00    -0.093 C  
HETATM   15  O   UNL     1      -7.220   5.073  64.690  1.00  0.00    -0.060 OA 
BRANCH  14  16
HETATM   16  O   UNL     1      -8.174   3.029  64.273  1.00  0.00    -0.082 OA 
BRANCH  16  17
HETATM   17  C   UNL     1      -8.706   3.249  62.952  1.00  0.00    -0.089 C  
HETATM   18  C   UNL     1      -9.285   1.948  62.407  1.00  0.00    -0.079 C  
HETATM   19  C   UNL     1      -9.785   4.317  63.065  1.00  0.00    -0.084 C  
ENDBRANCH  16  17
ENDBRANCH  14  16
ENDBRANCH  13  14
ENDBRANCH  12  13
ENDBRANCH  11  12
ENDBRANCH  10  11
ENDBRANCH   9  10
ENDBRANCH   8   9
ENDBRANCH   7   8
ENDBRANCH   6   7
ENDBRANCH   5   6
ENDBRANCH   4   5
ENDBRANCH   3   4
ENDBRANCH   2   3
TORSDOF 14
ENDMDL
MODEL      457
REMARK 921   NORMALIZED FREE ENERGY PREDICTED BY IDOCK:   -1.56 KCAL/MOL
REMARK 922        TOTAL FREE ENERGY PREDICTED BY IDOCK:   -4.40 KCAL/MOL
REMARK 923 INTER-LIGAND FREE ENERGY PREDICTED BY IDOCK:   -2.87 KCAL/MOL
REMARK 924 INTRA-LIGAND FREE ENERGY PREDICTED BY IDOCK:   -1.53 KCAL/MOL
REMARK 927      BINDING AFFINITY PREDICTED BY RF-SCORE:    0.00 PKD
ROOT
HETATM    1  C   UNL     1      -7.005   9.096  63.527  1.00  0.00    -0.089 C  
HETATM    2  C   UNL     1      -6.415   7.695  63.497  1.00  0.00    -0.058 C  
ENDROOT
BRANCH   2   3
HETATM    3  C   UNL     1      -7.245   6.765  62.615  1.00  0.00    -0.054 C  
BRANCH   3   4
HETATM    4  C   UNL     1      -7.342   5.366  63.223  1.00  0.00    -0.051 C  
BRANCH   4   5
HETATM    5  C   UNL     1      -8.702   4.736  62.926  1.00  0.00    -0.126 C  
BRANCH   5   6
HETATM    6  C   UNL     1      -9.094   3.730  64.006  1.00  0.00    -0.124 C  
BRANCH   6   7
HETATM    7  C   UNL     1     -10.551   3.925  64.424  1.00  0.00    -0.224 C  
BRANCH   7   8
HETATM    8  C   UNL     1     -10.646   4.669  65.754  1.00  0.00    -0.264 C  
BRANCH   8   9
HETATM    9  C   UNL     1      -9.257   4.933  66.333  1.00  0.00    -0.138 C  
BRANCH   9  10
HETATM   10  C   UNL     1      -8.994   6.432  66.444  1.00  0.00    -0.162 C  
BRANCH  10  11
HETATM   11  C   UNL     1      -7.799   6.734  67.347  1.00  0.00    -0.110 C  
BRANCH  11  12
HETATM   12  C   UNL     1      -7.724   5.708  68.473  1.00  0.00    -0.089 C  
BRANCH  12  13
HETATM   13  C   UNL     1      -6.951   6.224  69.684  1.00  0.00    -0.071 C  
BRANCH  13  14
HETATM   14  C   UNL     1      -7.829   6.207  70.913  1.00  0.00    -0.107 C  
HETATM   15  O   UNL     1      -7.539   6.706  71.992  1.00  0.00    -0.094 OA 
BRANCH  14  16
HETATM   16  O   UNL     1      -8.994   5.551  70.644  1.00  0.00    -0.140 OA 
BRANCH  16  17
HETATM   17  C   UNL     1     -10.194   6.299  70.921  1.00  0.00    -0.193 C  
HETATM   18  C   UNL     1     -11.128   6.235  69.717  1.00  0.00    -0.473 C  
HETATM   19  C   UNL     1     -10.848   5.677  72.147  1.00  0.00    -0.300 C  
ENDBRANCH  16  17
ENDBRANCH  14  16
ENDBRANCH  13  14
ENDBRANCH  12  13
ENDBRANCH  11  12
ENDBRANCH  10  11
ENDBRANCH   9  10
ENDBRANCH   8   9
ENDBRANCH   7   8
ENDBRANCH   6   7
ENDBRANCH   5   6
ENDBRANCH   4   5
ENDBRANCH   3   4
ENDBRANCH   2   3
TORSDOF 14
ENDMDL
MODEL      458
REMARK 921   NORMALIZED FREE ENERGY PREDICTED BY IDOCK:   -1.52 KCAL/MOL
REMARK 922        TOTAL FREE ENERGY PREDICTED BY IDOCK:   -4.34 KCAL/MOL
REMARK 923 INTER-LIGAND FREE ENERGY PREDICTED BY IDOCK:   -3.29 KCAL/MOL
REMARK 924 INTRA-LIGAND FREE ENERGY PREDICTED BY IDOCK:   -1.05 KCAL/MOL
REMARK 927      BINDING AFFINITY PREDICTED BY RF-SCORE:    0.00 PKD
ROOT
HETATM    1  C   UNL     1      -6.868   9.191  63.446  1.00  0.00    -0.090 C  
HETATM    2  C   UNL     1      -6.130   7.863  63.476  1.00  0.00    -0.063 C  
ENDROOT
BRANCH   2   3
HETATM    3  C   UNL     1      -6.769   6.854  62.524  1.00  0.00    -0.047 C  
BRANCH   3   4
HETATM    4  C   UNL     1      -6.977   5.503  63.206  1.00  0.00    -0.038 C  
BRANCH   4   5
HETATM    5  C   UNL     1      -8.242   4.821  62.688  1.00  0.00    -0.087 C  
BRANCH   5   6
HETATM    6  C   UNL     1      -8.797   3.832  63.712  1.00  0.00    -0.100 C  
BRANCH   6   7
HETATM    7  C   UNL     1     -10.321   3.918  63.778  1.00  0.00    -0.204 C  
BRANCH   7   8
HETATM    8  C   UNL     1     -10.782   4.502  65.111  1.00  0.00    -0.116 C  
BRANCH   8   9
HETATM    9  C   UNL     1      -9.613   4.626  66.087  1.00  0.00    -0.187 C  
BRANCH   9  10
HETATM   10  C   UNL     1      -9.390   6.083  66.480  1.00  0.00    -0.166 C  
BRANCH  10  11
HETATM   11  C   UNL     1      -8.635   6.205  67.803  1.00  0.00    -0.114 C  
BRANCH  11  12
HETATM   12  C   UNL     1      -9.545   6.805  68.869  1.00  0.00    -0.137 C  
BRANCH  12  13
HETATM   13  C   UNL     1      -8.771   7.298  70.090  1.00  0.00    -0.140 C  
BRANCH  13  14
HETATM   14  C   UNL     1      -9.208   8.696  70.457  1.00  0.00    -0.175 C  
HETATM   15  O   UNL     1      -8.536   9.499  71.091  1.00  0.00    -0.269 OA 
BRANCH  14  16
HETATM   16  O   UNL     1     -10.463   8.933  69.981  1.00  0.00    -0.200 OA 
BRANCH  16  17
HETATM   17  C   UNL     1     -11.340   9.629  70.888  1.00  0.00    -0.360 C  
HETATM   18  C   UNL     1     -12.096  10.719  70.136  1.00  0.00    -0.427 C  
HETATM   19  C   UNL     1     -12.304   8.604  71.470  1.00  0.00    -0.370 C  
ENDBRANCH  16  17
ENDBRANCH  14  16
ENDBRANCH  13  14
ENDBRANCH  12  13
ENDBRANCH  11  12
ENDBRANCH  10  11
ENDBRANCH   9  10
ENDBRANCH   8   9
ENDBRANCH   7   8
ENDBRANCH   6   7
ENDBRANCH   5   6
ENDBRANCH   4   5
ENDBRANCH   3   4
ENDBRANCH   2   3
TORSDOF 14
ENDMDL
MODEL      459
REMARK 921   NORMALIZED FREE ENERGY PREDICTED BY IDOCK:   -1.52 KCAL/MOL
REMARK 922        TOTAL FREE ENERGY PREDICTED BY IDOCK:   -4.33 KCAL/MOL
REMARK 923 INTER-LIGAND FREE ENERGY PREDICTED BY IDOCK:   -3.11 KCAL/MOL
REMARK 924 INTRA-LIGAND FREE ENERGY PREDICTED BY IDOCK:   -1.22 KCAL/MOL
REMARK 927      BINDING AFFINITY PREDICTED BY RF-SCORE:    0.00 PKD
ROOT
HETATM    1  C   UNL     1     -12.649  15.415  70.120  1.00  0.00    -0.329 C  
HETATM    2  C   UNL     1     -12.425  14.144  70.923  1.00  0.00    -0.436 C  
ENDROOT
BRANCH   2   3
HETATM    3  C   UNL     1     -13.750  13.540  71.383  1.00  0.00    -0.064 C  
BRANCH   3   4
HETATM    4  C   UNL     1     -13.537  12.533  72.512  1.00  0.00    -0.181 C  
BRANCH   4   5
HETATM    5  C   UNL     1     -12.541  11.451  72.098  1.00  0.00     0.312 C  
BRANCH   5   6
HETATM    6  C   UNL     1     -13.136  10.526  71.039  1.00  0.00    -0.419 C  
BRANCH   6   7
HETATM    7  C   UNL     1     -12.072  10.106  70.027  1.00  0.00    -0.166 C  
BRANCH   7   8
HETATM    8  C   UNL     1     -10.818  10.967  70.157  1.00  0.00    -0.054 C  
BRANCH   8   9
HETATM    9  C   UNL     1     -10.427  11.572  68.810  1.00  0.00    -0.227 C  
BRANCH   9  10
HETATM   10  C   UNL     1     -11.656  11.765  67.928  1.00  0.00    -0.377 C  
BRANCH  10  11
HETATM   11  C   UNL     1     -11.315  12.502  66.633  1.00  0.00    -0.389 C  
BRANCH  11  12
HETATM   12  C   UNL     1     -11.157  13.994  66.909  1.00  0.00    -0.310 C  
BRANCH  12  13
HETATM   13  C   UNL     1      -9.853  14.321  67.632  1.00  0.00    -0.224 C  
BRANCH  13  14
HETATM   14  C   UNL     1      -9.301  15.640  67.145  1.00  0.00    -0.218 C  
HETATM   15  O   UNL     1      -8.521  15.774  66.212  1.00  0.00    -0.298 OA 
BRANCH  14  16
HETATM   16  O   UNL     1      -9.798  16.660  67.899  1.00  0.00    -0.240 OA 
BRANCH  16  17
HETATM   17  C   UNL     1     -10.247  17.809  67.154  1.00  0.00    -0.353 C  
HETATM   18  C   UNL     1     -11.181  17.362  66.034  1.00  0.00     0.736 C  
HETATM   19  C   UNL     1     -10.970  18.731  68.126  1.00  0.00     0.126 C  
ENDBRANCH  16  17
ENDBRANCH  14  16
ENDBRANCH  13  14
ENDBRANCH  12  13
ENDBRANCH  11  12
ENDBRANCH  10  11
ENDBRANCH   9  10
ENDBRANCH   8   9
ENDBRANCH   7   8
ENDBRANCH   6   7
ENDBRANCH   5   6
ENDBRANCH   4   5
ENDBRANCH   3   4
ENDBRANCH   2   3
TORSDOF 14
ENDMDL
MODEL      460
REMARK 921   NORMALIZED FREE ENERGY PREDICTED BY IDOCK:   -1.39 KCAL/MOL
REMARK 922        TOTAL FREE ENERGY PREDICTED BY IDOCK:   -4.09 KCAL/MOL
REMARK 923 INTER-LIGAND FREE ENERGY PREDICTED BY IDOCK:   -2.93 KCAL/MOL
REMARK 924 INTRA-LIGAND FREE ENERGY PREDICTED BY IDOCK:   -1.16 KCAL/MOL
REMARK 927      BINDING AFFINITY PREDICTED BY RF-SCORE:    0.00 PKD
ROOT
HETATM    1  C   UNL     1      -7.794  12.934  67.394  1.00  0.00    -0.170 C  
HETATM    2  C   UNL     1      -6.388  12.582  66.935  1.00  0.00     0.283 C  
ENDROOT
BRANCH   2   3
HETATM    3  C   UNL     1      -5.467  12.322  68.125  1.00  0.00    -0.060 C  
BRANCH   3   4
HETATM    4  C   UNL     1      -5.719  10.942  68.730  1.00  0.00    -0.040 C  
BRANCH   4   5
HETATM    5  C   UNL     1      -5.853   9.884  67.637  1.00  0.00    -0.046 C  
BRANCH   5   6
HETATM    6  C   UNL     1      -6.879   8.819  68.019  1.00  0.00    -0.070 C  
BRANCH   6   7
HETATM    7  C   UNL     1      -6.314   7.878  69.082  1.00  0.00    -0.036 C  
BRANCH   7   8
HETATM    8  C   UNL     1      -7.091   7.996  70.390  1.00  0.00    -0.045 C  
BRANCH   8   9
HETATM    9  C   UNL     1      -7.372   6.617  70.986  1.00  0.00    -0.079 C  
BRANCH   9  10
HETATM   10  C   UNL     1      -7.578   6.712  72.494  1.00  0.00    -0.097 C  
BRANCH  10  11
HETATM   11  C   UNL     1      -8.560   7.823  72.863  1.00  0.00    -0.210 C  
BRANCH  11  12
HETATM   12  C   UNL     1      -9.981   7.406  72.497  1.00  0.00    -0.228 C  
BRANCH  12  13
HETATM   13  C   UNL     1     -10.839   8.585  72.046  1.00  0.00    -0.405 C  
BRANCH  13  14
HETATM   14  C   UNL     1     -10.616   8.865  70.578  1.00  0.00    -0.220 C  
HETATM   15  O   UNL     1     -10.487   8.011  69.712  1.00  0.00    -0.219 OA 
BRANCH  14  16
HETATM   16  O   UNL     1     -10.576  10.210  70.361  1.00  0.00    -0.290 OA 
BRANCH  16  17
HETATM   17  C   UNL     1     -11.849  10.820  70.071  1.00  0.00    -0.344 C  
HETATM   18  C   UNL     1     -12.319  11.626  71.277  1.00  0.00    -0.286 C  
HETATM   19  C   UNL     1     -11.659  11.721  68.859  1.00  0.00    -0.370 C  
ENDBRANCH  16  17
ENDBRANCH  14  16
ENDBRANCH  13  14
ENDBRANCH  12  13
ENDBRANCH  11  12
ENDBRANCH  10  11
ENDBRANCH   9  10
ENDBRANCH   8   9
ENDBRANCH   7   8
ENDBRANCH   6   7
ENDBRANCH   5   6
ENDBRANCH   4   5
ENDBRANCH   3   4
ENDBRANCH   2   3
TORSDOF 14
ENDMDL
MODEL      461
REMARK 921   NORMALIZED FREE ENERGY PREDICTED BY IDOCK:   -1.33 KCAL/MOL
REMARK 922        TOTAL FREE ENERGY PREDICTED BY IDOCK:   -3.99 KCAL/MOL
REMARK 923 INTER-LIGAND FREE ENERGY PREDICTED BY IDOCK:   -3.56 KCAL/MOL
REMARK 924 INTRA-LIGAND FREE ENERGY PREDICTED BY IDOCK:   -0.43 KCAL/MOL
REMARK 927      BINDING AFFINITY PREDICTED BY RF-SCORE:    0.00 PKD
ROOT
HETATM    1  C   UNL     1      -8.201   1.804  63.393  1.00  0.00    -0.065 C  
HETATM    2  C   UNL     1      -8.192   2.375  64.802  1.00  0.00    -0.087 C  
ENDROOT
BRANCH   2   3
HETATM    3  C   UNL     1      -8.621   3.841  64.806  1.00  0.00    -0.109 C  
BRANCH   3   4
HETATM    4  C   UNL     1      -8.771   4.379  63.384  1.00  0.00    -0.122 C  
BRANCH   4   5
HETATM    5  C   UNL     1      -7.775   5.508  63.121  1.00  0.00    -0.083 C  
BRANCH   5   6
HETATM    6  C   UNL     1      -6.785   5.653  64.274  1.00  0.00    -0.045 C  
BRANCH   6   7
HETATM    7  C   UNL     1      -6.275   7.089  64.374  1.00  0.00    -0.037 C  
BRANCH   7   8
HETATM    8  C   UNL     1      -6.451   7.639  65.787  1.00  0.00    -0.042 C  
BRANCH   8   9
HETATM    9  C   UNL     1      -7.149   6.620  66.687  1.00  0.00    -0.068 C  
BRANCH   9  10
HETATM   10  C   UNL     1      -8.394   7.227  67.325  1.00  0.00    -0.119 C  
BRANCH  10  11
HETATM   11  C   UNL     1      -8.935   8.399  66.508  1.00  0.00    -0.190 C  
BRANCH  11  12
HETATM   12  C   UNL     1      -9.429   9.501  67.441  1.00  0.00    -0.164 C  
BRANCH  12  13
HETATM   13  C   UNL     1     -10.884   9.306  67.859  1.00  0.00    -0.181 C  
BRANCH  13  14
HETATM   14  C   UNL     1     -11.397  10.540  68.563  1.00  0.00    -0.257 C  
HETATM   15  O   UNL     1     -12.270  11.282  68.134  1.00  0.00    -0.622 OA 
BRANCH  14  16
HETATM   16  O   UNL     1     -10.742  10.707  69.746  1.00  0.00    -0.256 OA 
BRANCH  16  17
HETATM   17  C   UNL     1     -11.295   9.979  70.860  1.00  0.00    -0.361 C  
HETATM   18  C   UNL     1     -12.764  10.349  71.037  1.00  0.00    -0.490 C  
HETATM   19  C   UNL     1     -11.143   8.495  70.558  1.00  0.00    -0.265 C  
ENDBRANCH  16  17
ENDBRANCH  14  16
ENDBRANCH  13  14
ENDBRANCH  12  13
ENDBRANCH  11  12
ENDBRANCH  10  11
ENDBRANCH   9  10
ENDBRANCH   8   9
ENDBRANCH   7   8
ENDBRANCH   6   7
ENDBRANCH   5   6
ENDBRANCH   4   5
ENDBRANCH   3   4
ENDBRANCH   2   3
TORSDOF 14
ENDMDL
MODEL      462
REMARK 921   NORMALIZED FREE ENERGY PREDICTED BY IDOCK:   -1.28 KCAL/MOL
REMARK 922        TOTAL FREE ENERGY PREDICTED BY IDOCK:   -3.90 KCAL/MOL
REMARK 923 INTER-LIGAND FREE ENERGY PREDICTED BY IDOCK:   -3.96 KCAL/MOL
REMARK 924 INTRA-LIGAND FREE ENERGY PREDICTED BY IDOCK:    0.06 KCAL/MOL
REMARK 927      BINDING AFFINITY PREDICTED BY RF-SCORE:    0.00 PKD
ROOT
HETATM    1  C   UNL     1     -12.177  15.660  70.260  1.00  0.00    -0.416 C  
HETATM    2  C   UNL     1     -11.861  14.283  70.820  1.00  0.00    -0.336 C  
ENDROOT
BRANCH   2   3
HETATM    3  C   UNL     1     -13.090  13.378  70.788  1.00  0.00    -0.034 C  
BRANCH   3   4
HETATM    4  C   UNL     1     -13.300  12.682  72.132  1.00  0.00    -0.570 C  
BRANCH   4   5
HETATM    5  C   UNL     1     -12.591  11.329  72.162  1.00  0.00     0.286 C  
BRANCH   5   6
HETATM    6  C   UNL     1     -13.490  10.221  71.617  1.00  0.00    -0.360 C  
BRANCH   6   7
HETATM    7  C   UNL     1     -12.800   8.862  71.722  1.00  0.00    -0.419 C  
BRANCH   7   8
HETATM    8  C   UNL     1     -11.307   9.023  71.995  1.00  0.00    -0.395 C  
BRANCH   8   9
HETATM    9  C   UNL     1     -10.494   7.988  71.219  1.00  0.00    -0.238 C  
BRANCH   9  10
HETATM   10  C   UNL     1     -11.251   7.527  69.978  1.00  0.00    -0.173 C  
BRANCH  10  11
HETATM   11  C   UNL     1     -11.146   6.016  69.777  1.00  0.00    -0.476 C  
BRANCH  11  12
HETATM   12  C   UNL     1     -10.001   5.695  68.822  1.00  0.00    -0.221 C  
BRANCH  12  13
HETATM   13  C   UNL     1     -10.478   5.004  67.547  1.00  0.00    -0.094 C  
BRANCH  13  14
HETATM   14  C   UNL     1      -9.486   5.224  66.430  1.00  0.00    -0.153 C  
HETATM   15  O   UNL     1      -9.373   6.258  65.784  1.00  0.00    -0.050 OA 
BRANCH  14  16
HETATM   16  O   UNL     1      -8.737   4.102  66.243  1.00  0.00    -0.112 OA 
BRANCH  16  17
HETATM   17  C   UNL     1      -7.319   4.274  66.436  1.00  0.00    -0.080 C  
HETATM   18  C   UNL     1      -6.921   5.702  66.076  1.00  0.00    -0.063 C  
HETATM   19  C   UNL     1      -7.016   3.980  67.898  1.00  0.00    -0.055 C  
ENDBRANCH  16  17
ENDBRANCH  14  16
ENDBRANCH  13  14
ENDBRANCH  12  13
ENDBRANCH  11  12
ENDBRANCH  10  11
ENDBRANCH   9  10
ENDBRANCH   8   9
ENDBRANCH   7   8
ENDBRANCH   6   7
ENDBRANCH   5   6
ENDBRANCH   4   5
ENDBRANCH   3   4
ENDBRANCH   2   3
TORSDOF 14
ENDMDL
MODEL      463
REMARK 921   NORMALIZED FREE ENERGY PREDICTED BY IDOCK:   -1.21 KCAL/MOL
REMARK 922        TOTAL FREE ENERGY PREDICTED BY IDOCK:   -3.78 KCAL/MOL
REMARK 923 INTER-LIGAND FREE ENERGY PREDICTED BY IDOCK:   -3.31 KCAL/MOL
REMARK 924 INTRA-LIGAND FREE ENERGY PREDICTED BY IDOCK:   -0.47 KCAL/MOL
REMARK 927      BINDING AFFINITY PREDICTED BY RF-SCORE:    0.00 PKD
ROOT
HETATM    1  C   UNL     1      -9.106  11.712  65.169  1.00  0.00     0.085 C  
HETATM    2  C   UNL     1      -9.947  12.299  66.291  1.00  0.00    -0.249 C  
ENDROOT
BRANCH   2   3
HETATM    3  C   UNL     1     -10.868  11.245  66.900  1.00  0.00    -0.333 C  
BRANCH   3   4
HETATM    4  C   UNL     1     -10.634  11.106  68.404  1.00  0.00    -0.223 C  
BRANCH   4   5
HETATM    5  C   UNL     1      -9.733   9.910  68.707  1.00  0.00    -0.164 C  
BRANCH   5   6
HETATM    6  C   UNL     1      -8.306  10.357  69.020  1.00  0.00    -0.150 C  
BRANCH   6   7
HETATM    7  C   UNL     1      -7.473   9.186  69.538  1.00  0.00    -0.077 C  
BRANCH   7   8
HETATM    8  C   UNL     1      -6.673   9.586  70.775  1.00  0.00    -0.105 C  
BRANCH   8   9
HETATM    9  C   UNL     1      -6.882   8.583  71.909  1.00  0.00    -0.097 C  
BRANCH   9  10
HETATM   10  C   UNL     1      -8.367   8.316  72.127  1.00  0.00    -0.232 C  
BRANCH  10  11
HETATM   11  C   UNL     1      -8.712   8.203  73.611  1.00  0.00    -0.309 C  
BRANCH  11  12
HETATM   12  C   UNL     1      -9.994   7.395  73.789  1.00  0.00    -0.333 C  
BRANCH  12  13
HETATM   13  C   UNL     1      -9.730   5.896  73.904  1.00  0.00    -0.174 C  
BRANCH  13  14
HETATM   14  C   UNL     1      -9.967   5.219  72.574  1.00  0.00    -0.170 C  
HETATM   15  O   UNL     1     -10.882   5.482  71.805  1.00  0.00    -0.242 OA 
BRANCH  14  16
HETATM   16  O   UNL     1      -9.014   4.270  72.358  1.00  0.00    -0.110 OA 
BRANCH  16  17
HETATM   17  C   UNL     1      -9.495   2.912  72.342  1.00  0.00    -0.110 C  
HETATM   18  C   UNL     1      -8.365   1.962  72.721  1.00  0.00    -0.058 C  
HETATM   19  C   UNL     1     -10.639   2.820  73.342  1.00  0.00    -0.263 C  
ENDBRANCH  16  17
ENDBRANCH  14  16
ENDBRANCH  13  14
ENDBRANCH  12  13
ENDBRANCH  11  12
ENDBRANCH  10  11
ENDBRANCH   9  10
ENDBRANCH   8   9
ENDBRANCH   7   8
ENDBRANCH   6   7
ENDBRANCH   5   6
ENDBRANCH   4   5
ENDBRANCH   3   4
ENDBRANCH   2   3
TORSDOF 14
ENDMDL
MODEL      464
REMARK 921   NORMALIZED FREE ENERGY PREDICTED BY IDOCK:   -1.21 KCAL/MOL
REMARK 922        TOTAL FREE ENERGY PREDICTED BY IDOCK:   -3.77 KCAL/MOL
REMARK 923 INTER-LIGAND FREE ENERGY PREDICTED BY IDOCK:   -4.04 KCAL/MOL
REMARK 924 INTRA-LIGAND FREE ENERGY PREDICTED BY IDOCK:    0.26 KCAL/MOL
REMARK 927      BINDING AFFINITY PREDICTED BY RF-SCORE:    0.00 PKD
ROOT
HETATM    1  C   UNL     1      -5.836   9.923  63.812  1.00  0.00    -0.118 C  
HETATM    2  C   UNL     1      -5.330   9.559  65.198  1.00  0.00    -0.045 C  
ENDROOT
BRANCH   2   3
HETATM    3  C   UNL     1      -6.467   9.071  66.092  1.00  0.00    -0.065 C  
BRANCH   3   4
HETATM    4  C   UNL     1      -6.950  10.177  67.029  1.00  0.00    -0.088 C  
BRANCH   4   5
HETATM    5  C   UNL     1      -8.083  10.977  66.389  1.00  0.00    -0.166 C  
BRANCH   5   6
HETATM    6  C   UNL     1      -8.653  12.007  67.363  1.00  0.00    -0.171 C  
BRANCH   6   7
HETATM    7  C   UNL     1     -10.171  11.872  67.467  1.00  0.00    -0.212 C  
BRANCH   7   8
HETATM    8  C   UNL     1     -10.846  12.211  66.141  1.00  0.00    -0.317 C  
BRANCH   8   9
HETATM    9  C   UNL     1     -12.043  13.135  66.356  1.00  0.00    -0.447 C  
BRANCH   9  10
HETATM   10  C   UNL     1     -12.143  13.557  67.818  1.00  0.00    -0.316 C  
BRANCH  10  11
HETATM   11  C   UNL     1     -11.716  15.010  68.020  1.00  0.00    -0.320 C  
BRANCH  11  12
HETATM   12  C   UNL     1     -11.614  15.321  69.510  1.00  0.00    -0.339 C  
BRANCH  12  13
HETATM   13  C   UNL     1     -10.810  16.588  69.790  1.00  0.00    -0.302 C  
BRANCH  13  14
HETATM   14  C   UNL     1     -10.118  17.058  68.533  1.00  0.00    -0.303 C  
HETATM   15  O   UNL     1      -9.957  18.228  68.214  1.00  0.00    -0.325 OA 
BRANCH  14  16
HETATM   16  O   UNL     1      -9.700  15.986  67.803  1.00  0.00    -0.219 OA 
BRANCH  16  17
HETATM   17  C   UNL     1      -8.815  16.298  66.709  1.00  0.00    -0.232 C  
HETATM   18  C   UNL     1      -7.367  16.225  67.182  1.00  0.00    -0.244 C  
HETATM   19  C   UNL     1      -9.076  15.283  65.605  1.00  0.00     0.190 C  
ENDBRANCH  16  17
ENDBRANCH  14  16
ENDBRANCH  13  14
ENDBRANCH  12  13
ENDBRANCH  11  12
ENDBRANCH  10  11
ENDBRANCH   9  10
ENDBRANCH   8   9
ENDBRANCH   7   8
ENDBRANCH   6   7
ENDBRANCH   5   6
ENDBRANCH   4   5
ENDBRANCH   3   4
ENDBRANCH   2   3
TORSDOF 14
ENDMDL
MODEL      465
REMARK 921   NORMALIZED FREE ENERGY PREDICTED BY IDOCK:   -1.20 KCAL/MOL
REMARK 922        TOTAL FREE ENERGY PREDICTED BY IDOCK:   -3.75 KCAL/MOL
REMARK 923 INTER-LIGAND FREE ENERGY PREDICTED BY IDOCK:   -3.87 KCAL/MOL
REMARK 924 INTRA-LIGAND FREE ENERGY PREDICTED BY IDOCK:    0.13 KCAL/MOL
REMARK 927      BINDING AFFINITY PREDICTED BY RF-SCORE:    0.00 PKD
ROOT
HETATM    1  C   UNL     1     -12.177  15.660  70.260  1.00  0.00    -0.416 C  
HETATM    2  C   UNL     1     -11.860  14.288  70.831  1.00  0.00    -0.322 C  
ENDROOT
BRANCH   2   3
HETATM    3  C   UNL     1     -13.087  13.379  70.797  1.00  0.00    -0.034 C  
BRANCH   3   4
HETATM    4  C   UNL     1     -13.305  12.691  72.143  1.00  0.00    -0.570 C  
BRANCH   4   5
HETATM    5  C   UNL     1     -12.592  11.340  72.187  1.00  0.00     0.286 C  
BRANCH   5   6
HETATM    6  C   UNL     1     -13.484  10.226  71.642  1.00  0.00    -0.360 C  
BRANCH   6   7
HETATM    7  C   UNL     1     -12.790   8.870  71.761  1.00  0.00    -0.419 C  
BRANCH   7   8
HETATM    8  C   UNL     1     -11.284   9.036  71.939  1.00  0.00    -0.438 C  
BRANCH   8   9
HETATM    9  C   UNL     1     -10.519   7.968  71.158  1.00  0.00    -0.230 C  
BRANCH   9  10
HETATM   10  C   UNL     1     -10.473   8.314  69.673  1.00  0.00    -0.221 C  
BRANCH  10  11
HETATM   11  C   UNL     1     -10.721   7.087  68.797  1.00  0.00    -0.226 C  
BRANCH  11  12
HETATM   12  C   UNL     1      -9.432   6.683  68.089  1.00  0.00    -0.115 C  
BRANCH  12  13
HETATM   13  C   UNL     1      -9.546   6.773  66.569  1.00  0.00    -0.191 C  
BRANCH  13  14
HETATM   14  C   UNL     1      -8.174   6.862  65.945  1.00  0.00    -0.129 C  
HETATM   15  O   UNL     1      -7.661   5.997  65.248  1.00  0.00    -0.080 OA 
BRANCH  14  16
HETATM   16  O   UNL     1      -7.588   8.048  66.273  1.00  0.00    -0.087 OA 
BRANCH  16  17
HETATM   17  C   UNL     1      -7.256   8.896  65.157  1.00  0.00    -0.087 C  
HETATM   18  C   UNL     1      -6.946   8.039  63.934  1.00  0.00    -0.071 C  
HETATM   19  C   UNL     1      -8.453   9.799  64.896  1.00  0.00    -0.165 C  
ENDBRANCH  16  17
ENDBRANCH  14  16
ENDBRANCH  13  14
ENDBRANCH  12  13
ENDBRANCH  11  12
ENDBRANCH  10  11
ENDBRANCH   9  10
ENDBRANCH   8   9
ENDBRANCH   7   8
ENDBRANCH   6   7
ENDBRANCH   5   6
ENDBRANCH   4   5
ENDBRANCH   3   4
ENDBRANCH   2   3
TORSDOF 14
ENDMDL
MODEL      466
REMARK 921   NORMALIZED FREE ENERGY PREDICTED BY IDOCK:   -1.17 KCAL/MOL
REMARK 922        TOTAL FREE ENERGY PREDICTED BY IDOCK:   -3.69 KCAL/MOL
REMARK 923 INTER-LIGAND FREE ENERGY PREDICTED BY IDOCK:   -3.05 KCAL/MOL
REMARK 924 INTRA-LIGAND FREE ENERGY PREDICTED BY IDOCK:   -0.65 KCAL/MOL
REMARK 927      BINDING AFFINITY PREDICTED BY RF-SCORE:    0.00 PKD
ROOT
HETATM    1  C   UNL     1      -7.150   2.395  63.394  1.00  0.00    -0.037 C  
HETATM    2  C   UNL     1      -7.860   2.911  64.636  1.00  0.00    -0.078 C  
ENDROOT
BRANCH   2   3
HETATM    3  C   UNL     1      -8.358   4.340  64.434  1.00  0.00    -0.105 C  
BRANCH   3   4
HETATM    4  C   UNL     1      -7.586   5.044  63.319  1.00  0.00    -0.062 C  
BRANCH   4   5
HETATM    5  C   UNL     1      -6.525   5.979  63.896  1.00  0.00    -0.029 C  
BRANCH   5   6
HETATM    6  C   UNL     1      -6.746   6.212  65.389  1.00  0.00    -0.047 C  
BRANCH   6   7
HETATM    7  C   UNL     1      -6.656   7.700  65.725  1.00  0.00    -0.045 C  
BRANCH   7   8
HETATM    8  C   UNL     1      -7.744   8.106  66.716  1.00  0.00    -0.095 C  
BRANCH   8   9
HETATM    9  C   UNL     1      -9.131   7.747  66.184  1.00  0.00    -0.199 C  
BRANCH   9  10
HETATM   10  C   UNL     1     -10.168   8.762  66.652  1.00  0.00    -0.340 C  
BRANCH  10  11
HETATM   11  C   UNL     1      -9.519   9.949  67.363  1.00  0.00    -0.173 C  
BRANCH  11  12
HETATM   12  C   UNL     1      -9.420  11.137  66.411  1.00  0.00    -0.216 C  
BRANCH  12  13
HETATM   13  C   UNL     1      -8.432  12.195  66.896  1.00  0.00    -0.173 C  
BRANCH  13  14
HETATM   14  C   UNL     1      -9.089  13.555  66.918  1.00  0.00    -0.239 C  
HETATM   15  O   UNL     1      -8.543  14.604  66.606  1.00  0.00    -0.208 OA 
BRANCH  14  16
HETATM   16  O   UNL     1     -10.380  13.441  67.339  1.00  0.00    -0.237 OA 
BRANCH  16  17
HETATM   17  C   UNL     1     -10.856  14.532  68.152  1.00  0.00    -0.240 C  
HETATM   18  C   UNL     1     -12.155  14.129  68.843  1.00  0.00    -0.339 C  
HETATM   19  C   UNL     1      -9.773  14.846  69.175  1.00  0.00    -0.184 C  
ENDBRANCH  16  17
ENDBRANCH  14  16
ENDBRANCH  13  14
ENDBRANCH  12  13
ENDBRANCH  11  12
ENDBRANCH  10  11
ENDBRANCH   9  10
ENDBRANCH   8   9
ENDBRANCH   7   8
ENDBRANCH   6   7
ENDBRANCH   5   6
ENDBRANCH   4   5
ENDBRANCH   3   4
ENDBRANCH   2   3
TORSDOF 14
ENDMDL
MODEL      467
REMARK 921   NORMALIZED FREE ENERGY PREDICTED BY IDOCK:   -1.12 KCAL/MOL
REMARK 922        TOTAL FREE ENERGY PREDICTED BY IDOCK:   -3.61 KCAL/MOL
REMARK 923 INTER-LIGAND FREE ENERGY PREDICTED BY IDOCK:   -3.65 KCAL/MOL
REMARK 924 INTRA-LIGAND FREE ENERGY PREDICTED BY IDOCK:    0.04 KCAL/MOL
REMARK 927      BINDING AFFINITY PREDICTED BY RF-SCORE:    0.00 PKD
ROOT
HETATM    1  C   UNL     1     -12.242  15.599  70.164  1.00  0.00    -0.387 C  
HETATM    2  C   UNL     1     -12.010  14.199  70.711  1.00  0.00    -0.377 C  
ENDROOT
BRANCH   2   3
HETATM    3  C   UNL     1     -13.260  13.334  70.562  1.00  0.00     0.349 C  
BRANCH   3   4
HETATM    4  C   UNL     1     -13.656  12.698  71.894  1.00  0.00    -0.304 C  
BRANCH   4   5
HETATM    5  C   UNL     1     -12.899  11.390  72.119  1.00  0.00    -0.075 C  
BRANCH   5   6
HETATM    6  C   UNL     1     -13.656  10.203  71.525  1.00  0.00    -0.248 C  
BRANCH   6   7
HETATM    7  C   UNL     1     -12.905   8.898  71.781  1.00  0.00    -0.419 C  
BRANCH   7   8
HETATM    8  C   UNL     1     -11.444   9.165  72.134  1.00  0.00    -0.238 C  
BRANCH   8   9
HETATM    9  C   UNL     1     -10.535   8.077  71.564  1.00  0.00    -0.265 C  
BRANCH   9  10
HETATM   10  C   UNL     1     -11.207   7.374  70.388  1.00  0.00    -0.284 C  
BRANCH  10  11
HETATM   11  C   UNL     1     -10.333   6.257  69.820  1.00  0.00    -0.260 C  
BRANCH  11  12
HETATM   12  C   UNL     1     -10.061   5.210  70.895  1.00  0.00    -0.302 C  
BRANCH  12  13
HETATM   13  C   UNL     1      -8.571   5.037  71.181  1.00  0.00    -0.131 C  
BRANCH  13  14
HETATM   14  C   UNL     1      -8.365   4.463  72.562  1.00  0.00    -0.109 C  
HETATM   15  O   UNL     1      -8.376   5.109  73.601  1.00  0.00    -0.109 OA 
BRANCH  14  16
HETATM   16  O   UNL     1      -8.164   3.117  72.482  1.00  0.00    -0.069 OA 
BRANCH  16  17
HETATM   17  C   UNL     1      -9.068   2.315  73.266  1.00  0.00    -0.073 C  
HETATM   18  C   UNL     1      -9.483   3.083  74.517  1.00  0.00    -0.121 C  
HETATM   19  C   UNL     1     -10.278   2.005  72.395  1.00  0.00    -0.230 C  
ENDBRANCH  16  17
ENDBRANCH  14  16
ENDBRANCH  13  14
ENDBRANCH  12  13
ENDBRANCH  11  12
ENDBRANCH  10  11
ENDBRANCH   9  10
ENDBRANCH   8   9
ENDBRANCH   7   8
ENDBRANCH   6   7
ENDBRANCH   5   6
ENDBRANCH   4   5
ENDBRANCH   3   4
ENDBRANCH   2   3
TORSDOF 14
ENDMDL
MODEL      468
REMARK 921   NORMALIZED FREE ENERGY PREDICTED BY IDOCK:   -1.09 KCAL/MOL
REMARK 922        TOTAL FREE ENERGY PREDICTED BY IDOCK:   -3.55 KCAL/MOL
REMARK 923 INTER-LIGAND FREE ENERGY PREDICTED BY IDOCK:   -2.70 KCAL/MOL
REMARK 924 INTRA-LIGAND FREE ENERGY PREDICTED BY IDOCK:   -0.85 KCAL/MOL
REMARK 927      BINDING AFFINITY PREDICTED BY RF-SCORE:    0.00 PKD
ROOT
HETATM    1  C   UNL     1      -5.974   9.800  63.902  1.00  0.00    -0.112 C  
HETATM    2  C   UNL     1      -5.508   9.136  65.188  1.00  0.00    -0.042 C  
ENDROOT
BRANCH   2   3
HETATM    3  C   UNL     1      -6.687   8.564  65.972  1.00  0.00    -0.057 C  
BRANCH   3   4
HETATM    4  C   UNL     1      -7.314   9.621  66.879  1.00  0.00    -0.091 C  
BRANCH   4   5
HETATM    5  C   UNL     1      -8.503  10.292  66.192  1.00  0.00    -0.144 C  
BRANCH   5   6
HETATM    6  C   UNL     1      -8.829  11.637  66.838  1.00  0.00    -0.190 C  
BRANCH   6   7
HETATM    7  C   UNL     1      -7.575  12.267  67.441  1.00  0.00    -0.159 C  
BRANCH   7   8
HETATM    8  C   UNL     1      -7.695  12.387  68.958  1.00  0.00     0.170 C  
BRANCH   8   9
HETATM    9  C   UNL     1      -7.261  13.773  69.434  1.00  0.00     0.113 C  
BRANCH   9  10
HETATM   10  C   UNL     1      -6.821  14.635  68.255  1.00  0.00    -0.116 C  
BRANCH  10  11
HETATM   11  C   UNL     1      -7.855  15.710  67.921  1.00  0.00    -0.143 C  
BRANCH  11  12
HETATM   12  C   UNL     1      -7.731  16.116  66.456  1.00  0.00    -0.219 C  
BRANCH  12  13
HETATM   13  C   UNL     1      -8.941  16.906  65.963  1.00  0.00    -0.198 C  
BRANCH  13  14
HETATM   14  C   UNL     1     -10.205  16.385  66.606  1.00  0.00    -0.294 C  
HETATM   15  O   UNL     1     -10.816  16.942  67.507  1.00  0.00    -0.304 OA 
BRANCH  14  16
HETATM   16  O   UNL     1     -10.563  15.200  66.035  1.00  0.00    -0.297 OA 
BRANCH  16  17
HETATM   17  C   UNL     1     -11.960  15.078  65.704  1.00  0.00     0.031 C  
HETATM   18  C   UNL     1     -12.123  14.985  64.191  1.00  0.00    -0.244 C  
HETATM   19  C   UNL     1     -12.483  13.820  66.383  1.00  0.00    -0.404 C  
ENDBRANCH  16  17
ENDBRANCH  14  16
ENDBRANCH  13  14
ENDBRANCH  12  13
ENDBRANCH  11  12
ENDBRANCH  10  11
ENDBRANCH   9  10
ENDBRANCH   8   9
ENDBRANCH   7   8
ENDBRANCH   6   7
ENDBRANCH   5   6
ENDBRANCH   4   5
ENDBRANCH   3   4
ENDBRANCH   2   3
TORSDOF 14
ENDMDL
MODEL      469
REMARK 921   NORMALIZED FREE ENERGY PREDICTED BY IDOCK:   -1.01 KCAL/MOL
REMARK 922        TOTAL FREE ENERGY PREDICTED BY IDOCK:   -3.40 KCAL/MOL
REMARK 923 INTER-LIGAND FREE ENERGY PREDICTED BY IDOCK:   -3.37 KCAL/MOL
REMARK 924 INTRA-LIGAND FREE ENERGY PREDICTED BY IDOCK:   -0.03 KCAL/MOL
REMARK 927      BINDING AFFINITY PREDICTED BY RF-SCORE:    0.00 PKD
ROOT
HETATM    1  C   UNL     1      -8.103  11.979  66.435  1.00  0.00     0.150 C  
HETATM    2  C   UNL     1      -9.285  12.644  67.121  1.00  0.00    -0.214 C  
ENDROOT
BRANCH   2   3
HETATM    3  C   UNL     1     -10.541  12.567  66.257  1.00  0.00    -0.273 C  
BRANCH   3   4
HETATM    4  C   UNL     1     -11.409  11.370  66.645  1.00  0.00    -0.230 C  
BRANCH   4   5
HETATM    5  C   UNL     1     -10.639  10.411  67.552  1.00  0.00    -0.312 C  
BRANCH   5   6
HETATM    6  C   UNL     1     -11.346  10.230  68.894  1.00  0.00    -0.230 C  
BRANCH   6   7
HETATM    7  C   UNL     1     -10.569   9.269  69.791  1.00  0.00    -0.244 C  
BRANCH   7   8
HETATM    8  C   UNL     1     -10.489   7.878  69.168  1.00  0.00    -0.218 C  
BRANCH   8   9
HETATM    9  C   UNL     1      -9.050   7.365  69.159  1.00  0.00    -0.134 C  
BRANCH   9  10
HETATM   10  C   UNL     1      -8.794   6.453  70.355  1.00  0.00    -0.151 C  
BRANCH  10  11
HETATM   11  C   UNL     1      -7.950   7.144  71.425  1.00  0.00    -0.102 C  
BRANCH  11  12
HETATM   12  C   UNL     1      -8.528   6.861  72.808  1.00  0.00    -0.126 C  
BRANCH  12  13
HETATM   13  C   UNL     1      -8.606   5.368  73.115  1.00  0.00    -0.117 C  
BRANCH  13  14
HETATM   14  C   UNL     1     -10.004   4.993  73.546  1.00  0.00    -0.157 C  
HETATM   15  O   UNL     1     -10.584   5.448  74.522  1.00  0.00    -0.287 OA 
BRANCH  14  16
HETATM   16  O   UNL     1     -10.525   4.072  72.688  1.00  0.00    -0.177 OA 
BRANCH  16  17
HETATM   17  C   UNL     1     -10.741   2.764  73.252  1.00  0.00    -0.175 C  
HETATM   18  C   UNL     1     -10.408   1.695  72.216  1.00  0.00    -0.227 C  
HETATM   19  C   UNL     1      -9.837   2.636  74.471  1.00  0.00    -0.148 C  
ENDBRANCH  16  17
ENDBRANCH  14  16
ENDBRANCH  13  14
ENDBRANCH  12  13
ENDBRANCH  11  12
ENDBRANCH  10  11
ENDBRANCH   9  10
ENDBRANCH   8   9
ENDBRANCH   7   8
ENDBRANCH   6   7
ENDBRANCH   5   6
ENDBRANCH   4   5
ENDBRANCH   3   4
ENDBRANCH   2   3
TORSDOF 14
ENDMDL
MODEL      470
REMARK 921   NORMALIZED FREE ENERGY PREDICTED BY IDOCK:   -0.90 KCAL/MOL
REMARK 922        TOTAL FREE ENERGY PREDICTED BY IDOCK:   -3.21 KCAL/MOL
REMARK 923 INTER-LIGAND FREE ENERGY PREDICTED BY IDOCK:   -1.93 KCAL/MOL
REMARK 924 INTRA-LIGAND FREE ENERGY PREDICTED BY IDOCK:   -1.28 KCAL/MOL
REMARK 927      BINDING AFFINITY PREDICTED BY RF-SCORE:    0.00 PKD
ROOT
HETATM    1  C   UNL     1     -10.620   5.742  73.657  1.00  0.00    -0.302 C  
HETATM    2  C   UNL     1     -10.368   6.780  72.576  1.00  0.00    -0.222 C  
ENDROOT
BRANCH   2   3
HETATM    3  C   UNL     1      -9.055   7.520  72.815  1.00  0.00    -0.200 C  
BRANCH   3   4
HETATM    4  C   UNL     1      -8.460   8.032  71.504  1.00  0.00    -0.147 C  
BRANCH   4   5
HETATM    5  C   UNL     1      -7.130   7.343  71.203  1.00  0.00    -0.059 C  
BRANCH   5   6
HETATM    6  C   UNL     1      -6.927   7.164  69.700  1.00  0.00    -0.051 C  
BRANCH   6   7
HETATM    7  C   UNL     1      -8.256   6.872  69.004  1.00  0.00    -0.125 C  
BRANCH   7   8
HETATM    8  C   UNL     1      -8.378   7.658  67.701  1.00  0.00    -0.118 C  
BRANCH   8   9
HETATM    9  C   UNL     1      -7.059   8.346  67.351  1.00  0.00    -0.080 C  
BRANCH   9  10
HETATM   10  C   UNL     1      -6.444   7.727  66.100  1.00  0.00    -0.046 C  
BRANCH  10  11
HETATM   11  C   UNL     1      -7.384   7.821  64.899  1.00  0.00    -0.070 C  
BRANCH  11  12
HETATM   12  C   UNL     1      -7.007   6.772  63.858  1.00  0.00    -0.056 C  
BRANCH  12  13
HETATM   13  C   UNL     1      -7.922   5.551  63.900  1.00  0.00    -0.116 C  
BRANCH  13  14
HETATM   14  C   UNL     1      -7.157   4.309  63.508  1.00  0.00    -0.045 C  
HETATM   15  O   UNL     1      -6.453   4.202  62.513  1.00  0.00    -0.021 OA 
BRANCH  14  16
HETATM   16  O   UNL     1      -7.367   3.323  64.425  1.00  0.00    -0.064 OA 
BRANCH  16  17
HETATM   17  C   UNL     1      -8.191   3.697  65.547  1.00  0.00    -0.097 C  
HETATM   18  C   UNL     1      -9.171   2.572  65.863  1.00  0.00    -0.047 C  
HETATM   19  C   UNL     1      -7.265   3.955  66.728  1.00  0.00    -0.068 C  
ENDBRANCH  16  17
ENDBRANCH  14  16
ENDBRANCH  13  14
ENDBRANCH  12  13
ENDBRANCH  11  12
ENDBRANCH  10  11
ENDBRANCH   9  10
ENDBRANCH   8   9
ENDBRANCH   7   8
ENDBRANCH   6   7
ENDBRANCH   5   6
ENDBRANCH   4   5
ENDBRANCH   3   4
ENDBRANCH   2   3
TORSDOF 14
ENDMDL
MODEL      471
REMARK 921   NORMALIZED FREE ENERGY PREDICTED BY IDOCK:    0.11 KCAL/MOL
REMARK 922        TOTAL FREE ENERGY PREDICTED BY IDOCK:   -1.36 KCAL/MOL
REMARK 923 INTER-LIGAND FREE ENERGY PREDICTED BY IDOCK:   -1.93 KCAL/MOL
REMARK 924 INTRA-LIGAND FREE ENERGY PREDICTED BY IDOCK:    0.57 KCAL/MOL
REMARK 927      BINDING AFFINITY PREDICTED BY RF-SCORE:    0.00 PKD
ROOT
HETATM    1  C   UNL     1     -10.599   5.738  73.967  1.00  0.00    -0.234 C  
HETATM    2  C   UNL     1      -9.488   6.648  73.469  1.00  0.00    -0.175 C  
ENDROOT
BRANCH   2   3
HETATM    3  C   UNL     1      -8.275   6.598  74.396  1.00  0.00    -0.146 C  
BRANCH   3   4
HETATM    4  C   UNL     1      -7.029   7.153  73.708  1.00  0.00    -0.078 C  
BRANCH   4   5
HETATM    5  C   UNL     1      -6.111   6.022  73.247  1.00  0.00    -0.057 C  
BRANCH   5   6
HETATM    6  C   UNL     1      -6.009   5.977  71.724  1.00  0.00    -0.035 C  
BRANCH   6   7
HETATM    7  C   UNL     1      -7.247   6.598  71.079  1.00  0.00    -0.078 C  
BRANCH   7   8
HETATM    8  C   UNL     1      -6.899   7.265  69.751  1.00  0.00    -0.053 C  
BRANCH   8   9
HETATM    9  C   UNL     1      -5.520   6.825  69.262  1.00  0.00    -0.014 C  
BRANCH   9  10
HETATM   10  C   UNL     1      -5.646   5.882  68.070  1.00  0.00    -0.008 C  
BRANCH  10  11
HETATM   11  C   UNL     1      -6.187   6.600  66.834  1.00  0.00    -0.040 C  
BRANCH  11  12
HETATM   12  C   UNL     1      -7.214   5.721  66.128  1.00  0.00    -0.076 C  
BRANCH  12  13
HETATM   13  C   UNL     1      -8.635   5.960  66.632  1.00  0.00    -0.119 C  
BRANCH  13  14
HETATM   14  C   UNL     1      -8.885   5.166  67.892  1.00  0.00    -0.102 C  
HETATM   15  O   UNL     1      -8.149   4.293  68.330  1.00  0.00    -0.080 OA 
BRANCH  14  16
HETATM   16  O   UNL     1     -10.054   5.563  68.469  1.00  0.00    -0.156 OA 
BRANCH  16  17
HETATM   17  C   UNL     1     -10.152   6.975  68.743  1.00  0.00    -0.170 C  
HETATM   18  C   UNL     1     -10.218   7.749  67.430  1.00  0.00    -0.320 C  
HETATM   19  C   UNL     1     -11.415   7.195  69.565  1.00  0.00     0.012 C  
ENDBRANCH  16  17
ENDBRANCH  14  16
ENDBRANCH  13  14
ENDBRANCH  12  13
ENDBRANCH  11  12
ENDBRANCH  10  11
ENDBRANCH   9  10
ENDBRANCH   8   9
ENDBRANCH   7   8
ENDBRANCH   6   7
ENDBRANCH   5   6
ENDBRANCH   4   5
ENDBRANCH   3   4
ENDBRANCH   2   3
TORSDOF 14
ENDMDL
MODEL      472
REMARK 921   NORMALIZED FREE ENERGY PREDICTED BY IDOCK:    3.98 KCAL/MOL
REMARK 922        TOTAL FREE ENERGY PREDICTED BY IDOCK:    5.66 KCAL/MOL
REMARK 923 INTER-LIGAND FREE ENERGY PREDICTED BY IDOCK:    5.52 KCAL/MOL
REMARK 924 INTRA-LIGAND FREE ENERGY PREDICTED BY IDOCK:    0.15 KCAL/MOL
REMARK 927      BINDING AFFINITY PREDICTED BY RF-SCORE:    0.00 PKD
ROOT
HETATM    1  C   UNL     1      -9.318  21.019  72.262  1.00  0.00     3.168 C  
HETATM    2  C   UNL     1      -9.360  20.112  71.042  1.00  0.00     1.943 C  
ENDROOT
BRANCH   2   3
HETATM    3  C   UNL     1      -8.016  20.098  70.318  1.00  0.00     1.141 C  
BRANCH   3   4
HETATM    4  C   UNL     1      -7.945  18.958  69.303  1.00  0.00    -0.004 C  
BRANCH   4   5
HETATM    5  C   UNL     1      -7.263  17.732  69.908  1.00  0.00     0.807 C  
BRANCH   5   6
HETATM    6  C   UNL     1      -8.172  16.506  69.847  1.00  0.00     1.045 C  
BRANCH   6   7
HETATM    7  C   UNL     1      -9.014  16.518  68.572  1.00  0.00    -0.231 C  
BRANCH   7   8
HETATM    8  C   UNL     1      -9.744  15.191  68.383  1.00  0.00    -0.212 C  
BRANCH   8   9
HETATM    9  C   UNL     1      -8.766  14.017  68.431  1.00  0.00    -0.179 C  
BRANCH   9  10
HETATM   10  C   UNL     1      -8.763  13.264  67.104  1.00  0.00    -0.215 C  
BRANCH  10  11
HETATM   11  C   UNL     1      -9.521  11.941  67.201  1.00  0.00    -0.180 C  
BRANCH  11  12
HETATM   12  C   UNL     1      -8.690  10.918  67.970  1.00  0.00    -0.132 C  
BRANCH  12  13
HETATM   13  C   UNL     1      -9.446   9.614  68.215  1.00  0.00    -0.145 C  
BRANCH  13  14
HETATM   14  C   UNL     1     -10.666   9.868  69.068  1.00  0.00    -0.222 C  
HETATM   15  O   UNL     1     -11.600  10.595  68.761  1.00  0.00    -0.276 OA 
BRANCH  14  16
HETATM   16  O   UNL     1     -10.572   9.169  70.235  1.00  0.00    -0.200 OA 
BRANCH  16  17
HETATM   17  C   UNL     1      -9.954   7.872  70.122  1.00  0.00    -0.190 C  
HETATM   18  C   UNL     1     -10.047   7.141  71.458  1.00  0.00    -0.197 C  
HETATM   19  C   UNL     1     -10.693   7.106  69.033  1.00  0.00    -0.204 C  
ENDBRANCH  16  17
ENDBRANCH  14  16
ENDBRANCH  13  14
ENDBRANCH  12  13
ENDBRANCH  11  12
ENDBRANCH  10  11
ENDBRANCH   9  10
ENDBRANCH   8   9
ENDBRANCH   7   8
ENDBRANCH   6   7
ENDBRANCH   5   6
ENDBRANCH   4   5
ENDBRANCH   3   4
ENDBRANCH   2   3
TORSDOF 14
ENDMDL
MODEL      473
REMARK 921   NORMALIZED FREE ENERGY PREDICTED BY IDOCK:    7.77 KCAL/MOL
REMARK 922        TOTAL FREE ENERGY PREDICTED BY IDOCK:   12.56 KCAL/MOL
REMARK 923 INTER-LIGAND FREE ENERGY PREDICTED BY IDOCK:   12.31 KCAL/MOL
REMARK 924 INTRA-LIGAND FREE ENERGY PREDICTED BY IDOCK:    0.25 KCAL/MOL
REMARK 927      BINDING AFFINITY PREDICTED BY RF-SCORE:    0.00 PKD
ROOT
HETATM    1  C   UNL     1      -9.352  21.054  72.361  1.00  0.00     3.356 C  
HETATM    2  C   UNL     1      -9.221  20.149  71.147  1.00  0.00     2.087 C  
ENDROOT
BRANCH   2   3
HETATM    3  C   UNL     1      -7.806  20.195  70.574  1.00  0.00     1.244 C  
BRANCH   3   4
HETATM    4  C   UNL     1      -7.591  19.091  69.540  1.00  0.00     0.090 C  
BRANCH   4   5
HETATM    5  C   UNL     1      -6.971  17.853  70.186  1.00  0.00     1.026 C  
BRANCH   5   6
HETATM    6  C   UNL     1      -7.750  16.590  69.825  1.00  0.00     0.563 C  
BRANCH   6   7
HETATM    7  C   UNL     1      -8.367  16.713  68.433  1.00  0.00    -0.208 C  
BRANCH   7   8
HETATM    8  C   UNL     1      -8.766  15.346  67.885  1.00  0.00    -0.160 C  
BRANCH   8   9
HETATM    9  C   UNL     1      -7.560  14.408  67.824  1.00  0.00    -0.175 C  
BRANCH   9  10
HETATM   10  C   UNL     1      -7.225  14.054  66.379  1.00  0.00     2.598 C  
BRANCH  10  11
HETATM   11  C   UNL     1      -7.645  12.627  66.032  1.00  0.00     1.908 C  
BRANCH  11  12
HETATM   12  C   UNL     1      -6.426  11.709  66.037  1.00  0.00     0.551 C  
BRANCH  12  13
HETATM   13  C   UNL     1      -6.796  10.243  65.826  1.00  0.00    -0.128 C  
BRANCH  13  14
HETATM   14  C   UNL     1      -7.681   9.759  66.950  1.00  0.00    -0.098 C  
HETATM   15  O   UNL     1      -8.782  10.216  67.224  1.00  0.00    -0.128 OA 
BRANCH  14  16
HETATM   16  O   UNL     1      -7.071   8.739  67.617  1.00  0.00    -0.077 OA 
BRANCH  16  17
HETATM   17  C   UNL     1      -6.279   7.859  66.796  1.00  0.00    -0.053 C  
HETATM   18  C   UNL     1      -5.801   6.673  67.627  1.00  0.00    -0.020 C  
HETATM   19  C   UNL     1      -7.158   7.393  65.643  1.00  0.00    -0.065 C  
ENDBRANCH  16  17
ENDBRANCH  14  16
ENDBRANCH  13  14
ENDBRANCH  12  13
ENDBRANCH  11  12
ENDBRANCH  10  11
ENDBRANCH   9  10
ENDBRANCH   8   9
ENDBRANCH   7   8
ENDBRANCH   6   7
ENDBRANCH   5   6
ENDBRANCH   4   5
ENDBRANCH   3   4
ENDBRANCH   2   3
TORSDOF 14
ENDMDL
