MODEL        1
REMARK 921   NORMALIZED FREE ENERGY PREDICTED BY IDOCK:   -6.41 KCAL/MOL
REMARK 922        TOTAL FREE ENERGY PREDICTED BY IDOCK:   -8.20 KCAL/MOL
REMARK 923 INTER-LIGAND FREE ENERGY PREDICTED BY IDOCK:   -7.91 KCAL/MOL
REMARK 924 INTRA-LIGAND FREE ENERGY PREDICTED BY IDOCK:   -0.29 KCAL/MOL
REMARK 927      BINDING AFFINITY PREDICTED BY RF-SCORE:    0.00 PKD
ROOT
HETATM    1  C   UNL     1     -13.837  14.238  72.068  1.00  0.00    -0.564 C  
HETATM    2  C   UNL     1     -13.161  15.370  71.290  1.00  0.00    -0.493 C  
HETATM    3  C   UNL     1     -11.909  15.825  72.044  1.00  0.00    -0.582 C  
ENDROOT
BRANCH   2   4
HETATM    4  N   UNL     1     -12.850  14.880  69.942  1.00  0.00    -0.606 NA 
HETATM    5  H   UNL     1     -13.701  14.804  69.383  1.00  0.00     0.000 HD 
BRANCH   4   6
HETATM    6  C   UNL     1     -11.838  15.680  69.235  1.00  0.00    -0.363 C  
BRANCH   6   7
HETATM    7  C   UNL     1     -10.868  14.777  68.429  1.00  0.00    -0.245 C  
HETATM    8  H   UNL     1     -10.135  12.936  68.552  1.00  0.00     0.000 HD 
HETATM    9  O   UNL     1     -10.729  13.490  69.045  1.00  0.00    -0.228 OA 
BRANCH   7  10
HETATM   10  C   UNL     1     -11.323  14.613  66.992  1.00  0.00    -0.362 A  
HETATM   11  C   UNL     1     -11.145  15.627  66.036  1.00  0.00    -0.136 A  
HETATM   12  C   UNL     1     -11.573  15.428  64.727  1.00  0.00    -0.286 A  
HETATM   13  O   UNL     1     -11.435  16.392  63.766  1.00  0.00    -1.590 OA 
HETATM   14  C   UNL     1     -12.167  14.225  64.353  1.00  0.00    -0.447 A  
HETATM   15  H   UNL     1     -11.727  16.256  62.873  1.00  0.00     0.000 HD 
HETATM   16  C   UNL     1     -12.339  13.206  65.274  1.00  0.00    -0.532 A  
HETATM   17  O   UNL     1     -12.594  14.046  63.069  1.00  0.00    -1.027 OA 
HETATM   18  C   UNL     1     -11.917  13.399  66.591  1.00  0.00    -0.452 A  
HETATM   19  H   UNL     1     -13.000  13.226  62.815  1.00  0.00     0.000 HD 
ENDBRANCH   7  10
ENDBRANCH   6   7
ENDBRANCH   4   6
ENDBRANCH   2   4
TORSDOF 4
ENDMDL
MODEL        2
REMARK 921   NORMALIZED FREE ENERGY PREDICTED BY IDOCK:   -6.22 KCAL/MOL
REMARK 922        TOTAL FREE ENERGY PREDICTED BY IDOCK:   -7.96 KCAL/MOL
REMARK 923 INTER-LIGAND FREE ENERGY PREDICTED BY IDOCK:   -7.74 KCAL/MOL
REMARK 924 INTRA-LIGAND FREE ENERGY PREDICTED BY IDOCK:   -0.21 KCAL/MOL
REMARK 927      BINDING AFFINITY PREDICTED BY RF-SCORE:    0.00 PKD
ROOT
HETATM    1  C   UNL     1     -11.917  10.040  71.189  1.00  0.00    -0.484 C  
HETATM    2  C   UNL     1     -12.484  11.399  70.766  1.00  0.00    -0.365 C  
HETATM    3  C   UNL     1     -13.133  12.075  71.977  1.00  0.00    -0.456 C  
ENDROOT
BRANCH   2   4
HETATM    4  N   UNL     1     -11.391  12.199  70.202  1.00  0.00    -0.479 NA 
HETATM    5  H   UNL     1     -10.613  11.599  69.926  1.00  0.00     0.000 HD 
BRANCH   4   6
HETATM    6  C   UNL     1     -11.801  13.062  69.082  1.00  0.00    -0.310 C  
BRANCH   6   7
HETATM    7  C   UNL     1     -11.270  12.519  67.730  1.00  0.00    -0.269 C  
HETATM    8  H   UNL     1     -11.660  11.011  66.499  1.00  0.00     0.000 HD 
HETATM    9  O   UNL     1     -11.985  11.344  67.328  1.00  0.00    -0.580 OA 
BRANCH   7  10
HETATM   10  C   UNL     1     -11.349  13.569  66.639  1.00  0.00    -0.344 A  
HETATM   11  C   UNL     1     -12.057  13.349  65.445  1.00  0.00    -0.457 A  
HETATM   12  C   UNL     1     -12.108  14.347  64.476  1.00  0.00    -0.481 A  
HETATM   13  O   UNL     1     -12.772  14.171  63.292  1.00  0.00    -0.952 OA 
HETATM   14  C   UNL     1     -11.472  15.567  64.685  1.00  0.00    -0.324 A  
HETATM   15  H   UNL     1     -12.807  14.852  62.631  1.00  0.00     0.000 HD 
HETATM   16  C   UNL     1     -10.781  15.813  65.859  1.00  0.00    -0.320 A  
HETATM   17  O   UNL     1     -11.519  16.533  63.722  1.00  0.00    -1.615 OA 
HETATM   18  C   UNL     1     -10.721  14.815  66.836  1.00  0.00    -0.308 A  
HETATM   19  H   UNL     1     -11.084  17.365  63.864  1.00  0.00     0.000 HD 
ENDBRANCH   7  10
ENDBRANCH   6   7
ENDBRANCH   4   6
ENDBRANCH   2   4
TORSDOF 4
ENDMDL
MODEL        3
REMARK 921   NORMALIZED FREE ENERGY PREDICTED BY IDOCK:   -6.17 KCAL/MOL
REMARK 922        TOTAL FREE ENERGY PREDICTED BY IDOCK:   -7.90 KCAL/MOL
REMARK 923 INTER-LIGAND FREE ENERGY PREDICTED BY IDOCK:   -7.59 KCAL/MOL
REMARK 924 INTRA-LIGAND FREE ENERGY PREDICTED BY IDOCK:   -0.31 KCAL/MOL
REMARK 927      BINDING AFFINITY PREDICTED BY RF-SCORE:    0.00 PKD
ROOT
HETATM    1  C   UNL     1     -11.452  16.170  71.204  1.00  0.00    -0.433 C  
HETATM    2  C   UNL     1     -12.002  14.755  71.402  1.00  0.00    -0.345 C  
HETATM    3  C   UNL     1     -13.526  14.777  71.250  1.00  0.00    -0.478 C  
ENDROOT
BRANCH   2   4
HETATM    4  N   UNL     1     -11.359  13.869  70.424  1.00  0.00    -0.495 NA 
HETATM    5  H   UNL     1     -10.922  13.075  70.893  1.00  0.00     0.000 HD 
BRANCH   4   6
HETATM    6  C   UNL     1     -12.257  13.408  69.354  1.00  0.00    -0.195 C  
BRANCH   6   7
HETATM    7  C   UNL     1     -11.458  12.827  68.159  1.00  0.00    -0.314 C  
HETATM    8  H   UNL     1     -11.498  11.202  67.020  1.00  0.00     0.000 HD 
HETATM    9  O   UNL     1     -11.987  11.559  67.752  1.00  0.00    -0.623 OA 
BRANCH   7  10
HETATM   10  C   UNL     1     -11.445  13.781  66.982  1.00  0.00    -0.368 A  
HETATM   11  C   UNL     1     -12.038  13.453  65.750  1.00  0.00    -0.481 A  
HETATM   12  C   UNL     1     -12.007  14.365  64.701  1.00  0.00    -0.464 A  
HETATM   13  O   UNL     1     -12.556  14.082  63.480  1.00  0.00    -0.989 OA 
HETATM   14  C   UNL     1     -11.401  15.608  64.863  1.00  0.00    -0.315 A  
HETATM   15  H   UNL     1     -12.536  14.705  62.764  1.00  0.00     0.000 HD 
HETATM   16  C   UNL     1     -10.825  15.961  66.071  1.00  0.00    -0.226 A  
HETATM   17  O   UNL     1     -11.367  16.490  63.823  1.00  0.00    -1.553 OA 
HETATM   18  C   UNL     1     -10.847  15.050  67.130  1.00  0.00    -0.314 A  
HETATM   19  H   UNL     1     -10.954  17.338  63.934  1.00  0.00     0.000 HD 
ENDBRANCH   7  10
ENDBRANCH   6   7
ENDBRANCH   4   6
ENDBRANCH   2   4
TORSDOF 4
ENDMDL
MODEL        4
REMARK 921   NORMALIZED FREE ENERGY PREDICTED BY IDOCK:   -6.01 KCAL/MOL
REMARK 922        TOTAL FREE ENERGY PREDICTED BY IDOCK:   -7.71 KCAL/MOL
REMARK 923 INTER-LIGAND FREE ENERGY PREDICTED BY IDOCK:   -7.42 KCAL/MOL
REMARK 924 INTRA-LIGAND FREE ENERGY PREDICTED BY IDOCK:   -0.29 KCAL/MOL
REMARK 927      BINDING AFFINITY PREDICTED BY RF-SCORE:    0.00 PKD
ROOT
HETATM    1  C   UNL     1     -12.800  10.578  71.119  1.00  0.00    -0.513 C  
HETATM    2  C   UNL     1     -11.707  10.817  70.074  1.00  0.00    -0.336 C  
HETATM    3  C   UNL     1     -10.713   9.653  70.106  1.00  0.00    -0.321 C  
ENDROOT
BRANCH   2   4
HETATM    4  N   UNL     1     -12.348  10.966  68.762  1.00  0.00    -0.772 NA 
HETATM    5  H   UNL     1     -13.125  11.624  68.816  1.00  0.00     0.000 HD 
BRANCH   4   6
HETATM    6  C   UNL     1     -11.421  11.346  67.685  1.00  0.00    -0.273 C  
BRANCH   6   7
HETATM    7  C   UNL     1     -10.746  12.711  67.978  1.00  0.00    -0.226 C  
HETATM    8  H   UNL     1      -8.930  13.388  68.406  1.00  0.00     0.000 HD 
HETATM    9  O   UNL     1      -9.344  12.551  68.227  1.00  0.00    -0.205 OA 
BRANCH   7  10
HETATM   10  C   UNL     1     -10.960  13.692  66.843  1.00  0.00    -0.296 A  
HETATM   11  C   UNL     1     -11.663  13.341  65.678  1.00  0.00    -0.389 A  
HETATM   12  C   UNL     1     -11.840  14.279  64.666  1.00  0.00    -0.448 A  
HETATM   13  O   UNL     1     -12.503  13.977  63.507  1.00  0.00    -1.043 OA 
HETATM   14  C   UNL     1     -11.334  15.569  64.802  1.00  0.00    -0.357 A  
HETATM   15  H   UNL     1     -12.625  14.617  62.817  1.00  0.00     0.000 HD 
HETATM   16  C   UNL     1     -10.652  15.944  65.946  1.00  0.00    -0.348 A  
HETATM   17  O   UNL     1     -11.504  16.477  63.797  1.00  0.00    -1.615 OA 
HETATM   18  C   UNL     1     -10.465  15.007  66.966  1.00  0.00    -0.278 A  
HETATM   19  H   UNL     1     -11.158  17.357  63.890  1.00  0.00     0.000 HD 
ENDBRANCH   7  10
ENDBRANCH   6   7
ENDBRANCH   4   6
ENDBRANCH   2   4
TORSDOF 4
ENDMDL
MODEL        5
REMARK 921   NORMALIZED FREE ENERGY PREDICTED BY IDOCK:   -5.99 KCAL/MOL
REMARK 922        TOTAL FREE ENERGY PREDICTED BY IDOCK:   -7.68 KCAL/MOL
REMARK 923 INTER-LIGAND FREE ENERGY PREDICTED BY IDOCK:   -7.48 KCAL/MOL
REMARK 924 INTRA-LIGAND FREE ENERGY PREDICTED BY IDOCK:   -0.21 KCAL/MOL
REMARK 927      BINDING AFFINITY PREDICTED BY RF-SCORE:    0.00 PKD
ROOT
HETATM    1  C   UNL     1     -11.589   9.992  71.065  1.00  0.00    -0.476 C  
HETATM    2  C   UNL     1     -12.308  11.252  70.575  1.00  0.00    -0.356 C  
HETATM    3  C   UNL     1     -12.956  11.961  71.767  1.00  0.00    -0.455 C  
ENDROOT
BRANCH   2   4
HETATM    4  N   UNL     1     -11.330  12.102  69.886  1.00  0.00    -0.506 NA 
HETATM    5  H   UNL     1     -10.830  11.569  69.175  1.00  0.00     0.000 HD 
BRANCH   4   6
HETATM    6  C   UNL     1     -11.907  13.325  69.306  1.00  0.00    -0.331 C  
BRANCH   6   7
HETATM    7  C   UNL     1     -10.878  14.061  68.408  1.00  0.00    -0.249 C  
HETATM    8  H   UNL     1      -8.948  13.919  67.968  1.00  0.00     0.000 HD 
HETATM    9  O   UNL     1      -9.578  13.469  68.519  1.00  0.00    -0.214 OA 
BRANCH   7  10
HETATM   10  C   UNL     1     -11.317  14.074  66.957  1.00  0.00    -0.346 A  
HETATM   11  C   UNL     1     -11.180  15.216  66.148  1.00  0.00    -0.271 A  
HETATM   12  C   UNL     1     -11.590  15.177  64.819  1.00  0.00    -0.364 A  
HETATM   13  O   UNL     1     -11.491  16.268  64.000  1.00  0.00    -1.371 OA 
HETATM   14  C   UNL     1     -12.125  14.011  64.279  1.00  0.00    -0.445 A  
HETATM   15  H   UNL     1     -11.770  16.242  63.093  1.00  0.00     0.000 HD 
HETATM   16  C   UNL     1     -12.254  12.869  65.050  1.00  0.00    -0.515 A  
HETATM   17  O   UNL     1     -12.534  13.988  62.977  1.00  0.00    -1.101 OA 
HETATM   18  C   UNL     1     -11.850  12.900  66.387  1.00  0.00    -0.478 A  
HETATM   19  H   UNL     1     -12.899  13.193  62.609  1.00  0.00     0.000 HD 
ENDBRANCH   7  10
ENDBRANCH   6   7
ENDBRANCH   4   6
ENDBRANCH   2   4
TORSDOF 4
ENDMDL
MODEL        6
REMARK 921   NORMALIZED FREE ENERGY PREDICTED BY IDOCK:   -5.67 KCAL/MOL
REMARK 922        TOTAL FREE ENERGY PREDICTED BY IDOCK:   -7.29 KCAL/MOL
REMARK 923 INTER-LIGAND FREE ENERGY PREDICTED BY IDOCK:   -6.97 KCAL/MOL
REMARK 924 INTRA-LIGAND FREE ENERGY PREDICTED BY IDOCK:   -0.31 KCAL/MOL
REMARK 927      BINDING AFFINITY PREDICTED BY RF-SCORE:    0.00 PKD
ROOT
HETATM    1  C   UNL     1     -12.642  11.374  70.957  1.00  0.00    -0.487 C  
HETATM    2  C   UNL     1     -11.564  11.038  69.922  1.00  0.00    -0.337 C  
HETATM    3  C   UNL     1     -10.828   9.766  70.352  1.00  0.00    -0.370 C  
ENDROOT
BRANCH   2   4
HETATM    4  N   UNL     1     -12.212  10.890  68.614  1.00  0.00    -0.810 NA 
HETATM    5  H   UNL     1     -13.080  11.423  68.581  1.00  0.00     0.000 HD 
BRANCH   4   6
HETATM    6  C   UNL     1     -11.346  11.241  67.476  1.00  0.00    -0.288 C  
BRANCH   6   7
HETATM    7  C   UNL     1     -10.550  12.542  67.756  1.00  0.00    -0.219 C  
HETATM    8  H   UNL     1      -8.655  13.077  68.009  1.00  0.00     0.000 HD 
HETATM    9  O   UNL     1      -9.144  12.280  67.838  1.00  0.00    -0.175 OA 
BRANCH   7  10
HETATM   10  C   UNL     1     -10.817  13.595  66.698  1.00  0.00    -0.283 A  
HETATM   11  C   UNL     1     -10.056  14.774  66.613  1.00  0.00    -0.269 A  
HETATM   12  C   UNL     1     -10.334  15.708  65.620  1.00  0.00    -0.385 A  
HETATM   13  O   UNL     1      -9.630  16.876  65.509  1.00  0.00    -0.519 OA 
HETATM   14  C   UNL     1     -11.354  15.479  64.701  1.00  0.00    -0.357 A  
HETATM   15  H   UNL     1      -9.819  17.514  64.831  1.00  0.00     0.000 HD 
HETATM   16  C   UNL     1     -12.107  14.319  64.754  1.00  0.00    -0.457 A  
HETATM   17  O   UNL     1     -11.624  16.408  63.739  1.00  0.00    -1.605 OA 
HETATM   18  C   UNL     1     -11.838  13.377  65.751  1.00  0.00    -0.412 A  
HETATM   19  H   UNL     1     -12.321  16.252  63.112  1.00  0.00     0.000 HD 
ENDBRANCH   7  10
ENDBRANCH   6   7
ENDBRANCH   4   6
ENDBRANCH   2   4
TORSDOF 4
ENDMDL
MODEL        7
REMARK 921   NORMALIZED FREE ENERGY PREDICTED BY IDOCK:   -5.64 KCAL/MOL
REMARK 922        TOTAL FREE ENERGY PREDICTED BY IDOCK:   -7.24 KCAL/MOL
REMARK 923 INTER-LIGAND FREE ENERGY PREDICTED BY IDOCK:   -7.01 KCAL/MOL
REMARK 924 INTRA-LIGAND FREE ENERGY PREDICTED BY IDOCK:   -0.23 KCAL/MOL
REMARK 927      BINDING AFFINITY PREDICTED BY RF-SCORE:    0.00 PKD
ROOT
HETATM    1  C   UNL     1     -12.285  11.988  63.331  1.00  0.00    -0.627 C  
HETATM    2  C   UNL     1     -12.539  12.648  64.689  1.00  0.00    -0.440 C  
HETATM    3  C   UNL     1     -11.572  12.066  65.724  1.00  0.00    -0.353 C  
ENDROOT
BRANCH   2   4
HETATM    4  N   UNL     1     -12.380  14.099  64.533  1.00  0.00    -0.607 NA 
HETATM    5  H   UNL     1     -13.290  14.560  64.519  1.00  0.00     0.000 HD 
BRANCH   4   6
HETATM    6  C   UNL     1     -11.504  14.715  65.543  1.00  0.00    -0.341 C  
BRANCH   6   7
HETATM    7  C   UNL     1     -10.853  16.016  65.005  1.00  0.00    -0.404 C  
HETATM    8  H   UNL     1     -11.243  17.390  63.626  1.00  0.00     0.000 HD 
HETATM    9  O   UNL     1     -11.641  16.593  63.956  1.00  0.00    -1.197 OA 
BRANCH   7  10
HETATM   10  C   UNL     1     -10.645  17.032  66.110  1.00  0.00    -0.194 A  
HETATM   11  C   UNL     1     -10.416  18.392  65.838  1.00  0.00    -0.346 A  
HETATM   12  C   UNL     1     -10.238  19.288  66.887  1.00  0.00    -0.400 A  
HETATM   13  O   UNL     1      -9.996  20.617  66.669  1.00  0.00    -0.579 OA 
HETATM   14  C   UNL     1     -10.296  18.851  68.207  1.00  0.00    -0.335 A  
HETATM   15  H   UNL     1      -9.875  21.229  67.384  1.00  0.00     0.000 HD 
HETATM   16  C   UNL     1     -10.536  17.520  68.501  1.00  0.00    -0.361 A  
HETATM   17  O   UNL     1     -10.108  19.738  69.227  1.00  0.00    -0.574 OA 
HETATM   18  C   UNL     1     -10.711  16.611  67.454  1.00  0.00    -0.253 A  
HETATM   19  H   UNL     1     -10.146  19.439  70.128  1.00  0.00     0.000 HD 
ENDBRANCH   7  10
ENDBRANCH   6   7
ENDBRANCH   4   6
ENDBRANCH   2   4
TORSDOF 4
ENDMDL
MODEL        8
REMARK 921   NORMALIZED FREE ENERGY PREDICTED BY IDOCK:   -5.59 KCAL/MOL
REMARK 922        TOTAL FREE ENERGY PREDICTED BY IDOCK:   -7.19 KCAL/MOL
REMARK 923 INTER-LIGAND FREE ENERGY PREDICTED BY IDOCK:   -6.89 KCAL/MOL
REMARK 924 INTRA-LIGAND FREE ENERGY PREDICTED BY IDOCK:   -0.31 KCAL/MOL
REMARK 927      BINDING AFFINITY PREDICTED BY RF-SCORE:    0.00 PKD
ROOT
HETATM    1  C   UNL     1     -10.867  19.654  65.956  1.00  0.00    -0.425 C  
HETATM    2  C   UNL     1      -9.930  18.588  66.530  1.00  0.00    -0.380 C  
HETATM    3  C   UNL     1     -10.393  18.214  67.941  1.00  0.00    -0.410 C  
ENDROOT
BRANCH   2   4
HETATM    4  N   UNL     1      -9.930  17.436  65.622  1.00  0.00    -0.569 NA 
HETATM    5  H   UNL     1      -8.975  17.173  65.375  1.00  0.00     0.000 HD 
BRANCH   4   6
HETATM    6  C   UNL     1     -10.670  16.272  66.134  1.00  0.00    -0.197 C  
BRANCH   6   7
HETATM    7  C   UNL     1     -11.651  15.715  65.069  1.00  0.00    -0.079 C  
HETATM    8  H   UNL     1     -12.185  16.136  63.204  1.00  0.00     0.000 HD 
HETATM    9  O   UNL     1     -11.585  16.477  63.857  1.00  0.00    -1.175 OA 
BRANCH   7  10
HETATM   10  C   UNL     1     -11.381  14.253  64.774  1.00  0.00    -0.382 A  
HETATM   11  C   UNL     1     -12.167  13.519  63.869  1.00  0.00    -0.458 A  
HETATM   12  C   UNL     1     -11.875  12.181  63.625  1.00  0.00    -0.516 A  
HETATM   13  O   UNL     1     -12.623  11.423  62.765  1.00  0.00    -0.952 OA 
HETATM   14  C   UNL     1     -10.802  11.564  64.262  1.00  0.00    -0.359 A  
HETATM   15  H   UNL     1     -12.424  10.510  62.598  1.00  0.00     0.000 HD 
HETATM   16  C   UNL     1     -10.004  12.270  65.145  1.00  0.00    -0.236 A  
HETATM   17  O   UNL     1     -10.534  10.247  64.023  1.00  0.00    -0.403 OA 
HETATM   18  C   UNL     1     -10.292  13.613  65.400  1.00  0.00    -0.345 A  
HETATM   19  H   UNL     1      -9.802   9.827  64.459  1.00  0.00     0.000 HD 
ENDBRANCH   7  10
ENDBRANCH   6   7
ENDBRANCH   4   6
ENDBRANCH   2   4
TORSDOF 4
ENDMDL
MODEL        9
REMARK 921   NORMALIZED FREE ENERGY PREDICTED BY IDOCK:   -5.59 KCAL/MOL
REMARK 922        TOTAL FREE ENERGY PREDICTED BY IDOCK:   -7.19 KCAL/MOL
REMARK 923 INTER-LIGAND FREE ENERGY PREDICTED BY IDOCK:   -6.93 KCAL/MOL
REMARK 924 INTRA-LIGAND FREE ENERGY PREDICTED BY IDOCK:   -0.26 KCAL/MOL
REMARK 927      BINDING AFFINITY PREDICTED BY RF-SCORE:    0.00 PKD
ROOT
HETATM    1  C   UNL     1     -10.391  10.919  64.249  1.00  0.00    -0.436 C  
HETATM    2  C   UNL     1     -10.919  12.130  63.474  1.00  0.00    -0.453 C  
HETATM    3  C   UNL     1     -12.450  12.114  63.492  1.00  0.00    -0.666 C  
ENDROOT
BRANCH   2   4
HETATM    4  N   UNL     1     -10.368  13.344  64.085  1.00  0.00    -0.690 NA 
HETATM    5  H   UNL     1      -9.768  13.838  63.423  1.00  0.00     0.000 HD 
BRANCH   4   6
HETATM    6  C   UNL     1     -11.387  14.251  64.636  1.00  0.00    -0.373 C  
BRANCH   6   7
HETATM    7  C   UNL     1     -10.753  15.574  65.137  1.00  0.00    -0.440 C  
HETATM    8  H   UNL     1     -10.886  17.512  64.729  1.00  0.00     0.000 HD 
HETATM    9  O   UNL     1     -11.275  16.701  64.422  1.00  0.00    -1.033 OA 
BRANCH   7  10
HETATM   10  C   UNL     1     -10.966  15.765  66.626  1.00  0.00    -0.179 A  
HETATM   11  C   UNL     1     -11.661  14.823  67.405  1.00  0.00    -0.377 A  
HETATM   12  C   UNL     1     -11.825  15.038  68.769  1.00  0.00    -0.301 A  
HETATM   13  O   UNL     1     -12.507  14.157  69.563  1.00  0.00    -0.467 OA 
HETATM   14  C   UNL     1     -11.297  16.176  69.373  1.00  0.00    -0.323 A  
HETATM   15  H   UNL     1     -12.619  14.304  70.495  1.00  0.00     0.000 HD 
HETATM   16  C   UNL     1     -10.596  17.110  68.630  1.00  0.00    -0.352 A  
HETATM   17  O   UNL     1     -11.475  16.382  70.711  1.00  0.00    -0.537 OA 
HETATM   18  C   UNL     1     -10.430  16.905  67.259  1.00  0.00    -0.301 A  
HETATM   19  H   UNL     1     -11.115  17.159  71.122  1.00  0.00     0.000 HD 
ENDBRANCH   7  10
ENDBRANCH   6   7
ENDBRANCH   4   6
ENDBRANCH   2   4
TORSDOF 4
ENDMDL
MODEL       10
REMARK 921   NORMALIZED FREE ENERGY PREDICTED BY IDOCK:   -5.58 KCAL/MOL
REMARK 922        TOTAL FREE ENERGY PREDICTED BY IDOCK:   -7.18 KCAL/MOL
REMARK 923 INTER-LIGAND FREE ENERGY PREDICTED BY IDOCK:   -6.90 KCAL/MOL
REMARK 924 INTRA-LIGAND FREE ENERGY PREDICTED BY IDOCK:   -0.28 KCAL/MOL
REMARK 927      BINDING AFFINITY PREDICTED BY RF-SCORE:    0.00 PKD
ROOT
HETATM    1  C   UNL     1     -11.728  15.917  71.616  1.00  0.00    -0.563 C  
HETATM    2  C   UNL     1     -11.928  15.679  70.116  1.00  0.00    -0.367 C  
HETATM    3  C   UNL     1     -10.561  15.555  69.437  1.00  0.00    -0.250 C  
ENDROOT
BRANCH   2   4
HETATM    4  N   UNL     1     -12.745  14.472  69.946  1.00  0.00    -0.547 NA 
HETATM    5  H   UNL     1     -12.808  14.218  68.960  1.00  0.00     0.000 HD 
BRANCH   4   6
HETATM    6  C   UNL     1     -12.290  13.325  70.748  1.00  0.00    -0.344 C  
BRANCH   6   7
HETATM    7  C   UNL     1     -12.126  12.056  69.872  1.00  0.00    -0.263 C  
HETATM    8  H   UNL     1     -10.850  11.361  68.520  1.00  0.00     0.000 HD 
HETATM    9  O   UNL     1     -10.951  12.138  69.056  1.00  0.00    -0.230 OA 
BRANCH   7  10
HETATM   10  C   UNL     1     -12.078  10.799  70.718  1.00  0.00    -0.473 A  
HETATM   11  C   UNL     1     -13.124  10.448  71.590  1.00  0.00    -0.553 A  
HETATM   12  C   UNL     1     -13.038   9.280  72.340  1.00  0.00    -0.406 A  
HETATM   13  O   UNL     1     -14.024   8.907  73.213  1.00  0.00    -1.203 OA 
HETATM   14  C   UNL     1     -11.928   8.448  72.227  1.00  0.00    -0.389 A  
HETATM   15  H   UNL     1     -13.966   8.110  73.725  1.00  0.00     0.000 HD 
HETATM   16  C   UNL     1     -10.892   8.764  71.364  1.00  0.00    -0.359 A  
HETATM   17  O   UNL     1     -11.850   7.311  72.978  1.00  0.00    -0.548 OA 
HETATM   18  C   UNL     1     -10.968   9.937  70.610  1.00  0.00    -0.405 A  
HETATM   19  H   UNL     1     -11.092   6.743  72.901  1.00  0.00     0.000 HD 
ENDBRANCH   7  10
ENDBRANCH   6   7
ENDBRANCH   4   6
ENDBRANCH   2   4
TORSDOF 4
ENDMDL
MODEL       11
REMARK 921   NORMALIZED FREE ENERGY PREDICTED BY IDOCK:   -5.58 KCAL/MOL
REMARK 922        TOTAL FREE ENERGY PREDICTED BY IDOCK:   -7.18 KCAL/MOL
REMARK 923 INTER-LIGAND FREE ENERGY PREDICTED BY IDOCK:   -6.91 KCAL/MOL
REMARK 924 INTRA-LIGAND FREE ENERGY PREDICTED BY IDOCK:   -0.27 KCAL/MOL
REMARK 927      BINDING AFFINITY PREDICTED BY RF-SCORE:    0.00 PKD
ROOT
HETATM    1  C   UNL     1     -13.356   9.964  71.780  1.00  0.00    -0.501 C  
HETATM    2  C   UNL     1     -12.104  10.340  70.983  1.00  0.00    -0.386 C  
HETATM    3  C   UNL     1     -11.002   9.313  71.257  1.00  0.00    -0.421 C  
ENDROOT
BRANCH   2   4
HETATM    4  N   UNL     1     -12.464  10.404  69.562  1.00  0.00    -0.637 NA 
HETATM    5  H   UNL     1     -13.466  10.259  69.440  1.00  0.00     0.000 HD 
BRANCH   4   6
HETATM    6  C   UNL     1     -12.035  11.642  68.893  1.00  0.00    -0.292 C  
BRANCH   6   7
HETATM    7  C   UNL     1     -10.961  11.355  67.812  1.00  0.00    -0.247 C  
HETATM    8  H   UNL     1     -10.126   9.769  66.958  1.00  0.00     0.000 HD 
HETATM    9  O   UNL     1     -10.784   9.946  67.621  1.00  0.00    -0.254 OA 
BRANCH   7  10
HETATM   10  C   UNL     1     -11.310  12.014  66.492  1.00  0.00    -0.413 A  
HETATM   11  C   UNL     1     -10.901  11.475  65.260  1.00  0.00    -0.319 A  
HETATM   12  C   UNL     1     -11.253  12.112  64.074  1.00  0.00    -0.390 A  
HETATM   13  O   UNL     1     -10.864  11.632  62.853  1.00  0.00    -0.643 OA 
HETATM   14  C   UNL     1     -12.017  13.275  64.097  1.00  0.00    -0.447 A  
HETATM   15  H   UNL     1     -11.104  12.066  62.043  1.00  0.00     0.000 HD 
HETATM   16  C   UNL     1     -12.445  13.817  65.297  1.00  0.00    -0.512 A  
HETATM   17  O   UNL     1     -12.346  13.897  62.927  1.00  0.00    -1.023 OA 
HETATM   18  C   UNL     1     -12.093  13.186  66.493  1.00  0.00    -0.423 A  
HETATM   19  H   UNL     1     -12.867  14.691  62.943  1.00  0.00     0.000 HD 
ENDBRANCH   7  10
ENDBRANCH   6   7
ENDBRANCH   4   6
ENDBRANCH   2   4
TORSDOF 4
ENDMDL
MODEL       12
REMARK 921   NORMALIZED FREE ENERGY PREDICTED BY IDOCK:   -5.56 KCAL/MOL
REMARK 922        TOTAL FREE ENERGY PREDICTED BY IDOCK:   -7.15 KCAL/MOL
REMARK 923 INTER-LIGAND FREE ENERGY PREDICTED BY IDOCK:   -6.89 KCAL/MOL
REMARK 924 INTRA-LIGAND FREE ENERGY PREDICTED BY IDOCK:   -0.26 KCAL/MOL
REMARK 927      BINDING AFFINITY PREDICTED BY RF-SCORE:    0.00 PKD
ROOT
HETATM    1  C   UNL     1      -9.153   9.570  67.585  1.00  0.00    -0.131 C  
HETATM    2  C   UNL     1     -10.411   9.036  68.276  1.00  0.00    -0.209 C  
HETATM    3  C   UNL     1     -10.083   8.693  69.731  1.00  0.00    -0.199 C  
ENDROOT
BRANCH   2   4
HETATM    4  N   UNL     1     -11.462  10.054  68.167  1.00  0.00    -0.607 NA 
HETATM    5  H   UNL     1     -11.683  10.441  69.085  1.00  0.00     0.000 HD 
BRANCH   4   6
HETATM    6  C   UNL     1     -11.154  11.131  67.213  1.00  0.00    -0.302 C  
BRANCH   6   7
HETATM    7  C   UNL     1     -11.668  12.502  67.726  1.00  0.00    -0.359 C  
HETATM    8  H   UNL     1     -11.238  13.778  69.184  1.00  0.00     0.000 HD 
HETATM    9  O   UNL     1     -10.924  12.938  68.870  1.00  0.00    -0.243 OA 
BRANCH   7  10
HETATM   10  C   UNL     1     -11.612  13.559  66.640  1.00  0.00    -0.396 A  
HETATM   11  C   UNL     1     -12.144  13.338  65.358  1.00  0.00    -0.464 A  
HETATM   12  C   UNL     1     -12.075  14.342  64.397  1.00  0.00    -0.468 A  
HETATM   13  O   UNL     1     -12.564  14.165  63.132  1.00  0.00    -1.058 OA 
HETATM   14  C   UNL     1     -11.492  15.569  64.699  1.00  0.00    -0.324 A  
HETATM   15  H   UNL     1     -12.518  14.850  62.476  1.00  0.00     0.000 HD 
HETATM   16  C   UNL     1     -10.976  15.816  65.959  1.00  0.00    -0.177 A  
HETATM   17  O   UNL     1     -11.420  16.542  63.744  1.00  0.00    -1.615 OA 
HETATM   18  C   UNL     1     -11.036  14.813  66.929  1.00  0.00    -0.339 A  
HETATM   19  H   UNL     1     -11.022  17.379  63.950  1.00  0.00     0.000 HD 
ENDBRANCH   7  10
ENDBRANCH   6   7
ENDBRANCH   4   6
ENDBRANCH   2   4
TORSDOF 4
ENDMDL
MODEL       13
REMARK 921   NORMALIZED FREE ENERGY PREDICTED BY IDOCK:   -5.53 KCAL/MOL
REMARK 922        TOTAL FREE ENERGY PREDICTED BY IDOCK:   -7.11 KCAL/MOL
REMARK 923 INTER-LIGAND FREE ENERGY PREDICTED BY IDOCK:   -6.76 KCAL/MOL
REMARK 924 INTRA-LIGAND FREE ENERGY PREDICTED BY IDOCK:   -0.34 KCAL/MOL
REMARK 927      BINDING AFFINITY PREDICTED BY RF-SCORE:    0.00 PKD
ROOT
HETATM    1  C   UNL     1     -10.825  11.444  65.373  1.00  0.00    -0.292 C  
HETATM    2  C   UNL     1     -10.812  12.003  63.947  1.00  0.00    -0.399 C  
HETATM    3  C   UNL     1     -12.210  11.871  63.338  1.00  0.00    -0.561 C  
ENDROOT
BRANCH   2   4
HETATM    4  N   UNL     1     -10.360  13.398  64.004  1.00  0.00    -0.706 NA 
HETATM    5  H   UNL     1     -10.069  13.719  63.080  1.00  0.00     0.000 HD 
BRANCH   4   6
HETATM    6  C   UNL     1     -11.347  14.322  64.585  1.00  0.00    -0.373 C  
BRANCH   6   7
HETATM    7  C   UNL     1     -10.685  15.659  65.011  1.00  0.00    -0.436 C  
HETATM    8  H   UNL     1     -10.826  17.582  64.540  1.00  0.00     0.000 HD 
HETATM    9  O   UNL     1     -11.232  16.763  64.279  1.00  0.00    -1.163 OA 
BRANCH   7  10
HETATM   10  C   UNL     1     -10.835  15.903  66.500  1.00  0.00    -0.198 A  
HETATM   11  C   UNL     1     -10.467  17.123  67.094  1.00  0.00    -0.291 A  
HETATM   12  C   UNL     1     -10.631  17.303  68.464  1.00  0.00    -0.350 A  
HETATM   13  O   UNL     1     -10.272  18.467  69.088  1.00  0.00    -0.458 OA 
HETATM   14  C   UNL     1     -11.166  16.287  69.251  1.00  0.00    -0.312 A  
HETATM   15  H   UNL     1     -10.383  18.590  70.023  1.00  0.00     0.000 HD 
HETATM   16  C   UNL     1     -11.550  15.083  68.686  1.00  0.00    -0.347 A  
HETATM   17  O   UNL     1     -11.310  16.472  70.595  1.00  0.00    -0.520 OA 
HETATM   18  C   UNL     1     -11.386  14.892  67.312  1.00  0.00    -0.355 A  
HETATM   19  H   UNL     1     -11.675  15.779  71.132  1.00  0.00     0.000 HD 
ENDBRANCH   7  10
ENDBRANCH   6   7
ENDBRANCH   4   6
ENDBRANCH   2   4
TORSDOF 4
ENDMDL
MODEL       14
REMARK 921   NORMALIZED FREE ENERGY PREDICTED BY IDOCK:   -5.50 KCAL/MOL
REMARK 922        TOTAL FREE ENERGY PREDICTED BY IDOCK:   -7.07 KCAL/MOL
REMARK 923 INTER-LIGAND FREE ENERGY PREDICTED BY IDOCK:   -6.85 KCAL/MOL
REMARK 924 INTRA-LIGAND FREE ENERGY PREDICTED BY IDOCK:   -0.22 KCAL/MOL
REMARK 927      BINDING AFFINITY PREDICTED BY RF-SCORE:    0.00 PKD
ROOT
HETATM    1  C   UNL     1     -11.674  15.687  71.627  1.00  0.00    -0.521 C  
HETATM    2  C   UNL     1     -12.815  14.742  71.241  1.00  0.00    -0.338 C  
HETATM    3  C   UNL     1     -14.116  15.229  71.885  1.00  0.00    -0.656 C  
ENDROOT
BRANCH   2   4
HETATM    4  N   UNL     1     -12.902  14.698  69.777  1.00  0.00    -0.545 NA 
HETATM    5  H   UNL     1     -13.495  15.453  69.430  1.00  0.00     0.000 HD 
BRANCH   4   6
HETATM    6  C   UNL     1     -11.595  14.715  69.101  1.00  0.00    -0.301 C  
BRANCH   6   7
HETATM    7  C   UNL     1     -11.271  13.337  68.467  1.00  0.00    -0.271 C  
HETATM    8  H   UNL     1     -11.862  11.453  68.671  1.00  0.00     0.000 HD 
HETATM    9  O   UNL     1     -12.060  12.298  69.059  1.00  0.00    -0.265 OA 
BRANCH   7  10
HETATM   10  C   UNL     1     -11.482  13.352  66.966  1.00  0.00    -0.372 A  
HETATM   11  C   UNL     1     -11.680  14.547  66.254  1.00  0.00    -0.364 A  
HETATM   12  C   UNL     1     -11.861  14.511  64.875  1.00  0.00    -0.416 A  
HETATM   13  O   UNL     1     -12.074  15.648  64.143  1.00  0.00    -0.790 OA 
HETATM   14  C   UNL     1     -11.837  13.298  64.191  1.00  0.00    -0.443 A  
HETATM   15  H   UNL     1     -12.197  15.623  63.202  1.00  0.00     0.000 HD 
HETATM   16  C   UNL     1     -11.628  12.109  64.868  1.00  0.00    -0.371 A  
HETATM   17  O   UNL     1     -12.028  13.275  62.840  1.00  0.00    -0.767 OA 
HETATM   18  C   UNL     1     -11.450  12.136  66.253  1.00  0.00    -0.433 A  
HETATM   19  H   UNL     1     -12.013  12.447  62.374  1.00  0.00     0.000 HD 
ENDBRANCH   7  10
ENDBRANCH   6   7
ENDBRANCH   4   6
ENDBRANCH   2   4
TORSDOF 4
ENDMDL
MODEL       15
REMARK 921   NORMALIZED FREE ENERGY PREDICTED BY IDOCK:   -5.45 KCAL/MOL
REMARK 922        TOTAL FREE ENERGY PREDICTED BY IDOCK:   -7.02 KCAL/MOL
REMARK 923 INTER-LIGAND FREE ENERGY PREDICTED BY IDOCK:   -6.63 KCAL/MOL
REMARK 924 INTRA-LIGAND FREE ENERGY PREDICTED BY IDOCK:   -0.38 KCAL/MOL
REMARK 927      BINDING AFFINITY PREDICTED BY RF-SCORE:    0.00 PKD
ROOT
HETATM    1  C   UNL     1     -13.164  15.451  71.323  1.00  0.00    -0.585 C  
HETATM    2  C   UNL     1     -12.402  14.985  70.079  1.00  0.00    -0.309 C  
HETATM    3  C   UNL     1     -11.430  16.084  69.640  1.00  0.00    -0.326 C  
ENDROOT
BRANCH   2   4
HETATM    4  N   UNL     1     -11.712  13.731  70.404  1.00  0.00    -0.504 NA 
HETATM    5  H   UNL     1     -12.063  13.346  71.281  1.00  0.00     0.000 HD 
BRANCH   4   6
HETATM    6  C   UNL     1     -11.775  12.722  69.335  1.00  0.00    -0.319 C  
BRANCH   6   7
HETATM    7  C   UNL     1     -10.559  12.837  68.379  1.00  0.00    -0.248 C  
HETATM    8  H   UNL     1      -9.014  11.718  67.829  1.00  0.00     0.000 HD 
HETATM    9  O   UNL     1      -9.760  11.648  68.415  1.00  0.00    -0.191 OA 
BRANCH   7  10
HETATM   10  C   UNL     1     -10.995  13.122  66.956  1.00  0.00    -0.289 A  
HETATM   11  C   UNL     1     -10.205  12.764  65.850  1.00  0.00    -0.300 A  
HETATM   12  C   UNL     1     -10.652  13.039  64.561  1.00  0.00    -0.393 A  
HETATM   13  O   UNL     1      -9.909  12.724  63.456  1.00  0.00    -0.682 OA 
HETATM   14  C   UNL     1     -11.882  13.658  64.357  1.00  0.00    -0.424 A  
HETATM   15  H   UNL     1     -10.214  12.912  62.576  1.00  0.00     0.000 HD 
HETATM   16  C   UNL     1     -12.686  14.005  65.430  1.00  0.00    -0.499 A  
HETATM   17  O   UNL     1     -12.304  13.933  63.088  1.00  0.00    -1.122 OA 
HETATM   18  C   UNL     1     -12.243  13.737  66.727  1.00  0.00    -0.440 A  
HETATM   19  H   UNL     1     -13.143  14.356  62.950  1.00  0.00     0.000 HD 
ENDBRANCH   7  10
ENDBRANCH   6   7
ENDBRANCH   4   6
ENDBRANCH   2   4
TORSDOF 4
ENDMDL
MODEL       16
REMARK 921   NORMALIZED FREE ENERGY PREDICTED BY IDOCK:   -5.45 KCAL/MOL
REMARK 922        TOTAL FREE ENERGY PREDICTED BY IDOCK:   -7.01 KCAL/MOL
REMARK 923 INTER-LIGAND FREE ENERGY PREDICTED BY IDOCK:   -6.69 KCAL/MOL
REMARK 924 INTRA-LIGAND FREE ENERGY PREDICTED BY IDOCK:   -0.32 KCAL/MOL
REMARK 927      BINDING AFFINITY PREDICTED BY RF-SCORE:    0.00 PKD
ROOT
HETATM    1  C   UNL     1     -13.973  13.732  72.243  1.00  0.00    -0.672 C  
HETATM    2  C   UNL     1     -14.116  15.253  72.133  1.00  0.00    -0.560 C  
HETATM    3  C   UNL     1     -13.286  15.920  73.233  1.00  0.00    -0.698 C  
ENDROOT
BRANCH   2   4
HETATM    4  N   UNL     1     -13.690  15.660  70.789  1.00  0.00    -0.799 NA 
HETATM    5  H   UNL     1     -14.071  16.577  70.555  1.00  0.00     0.000 HD 
BRANCH   4   6
HETATM    6  C   UNL     1     -12.232  15.640  70.594  1.00  0.00    -0.405 C  
BRANCH   6   7
HETATM    7  C   UNL     1     -11.866  15.594  69.088  1.00  0.00    -0.362 C  
HETATM    8  H   UNL     1     -10.396  16.230  67.915  1.00  0.00     0.000 HD 
HETATM    9  O   UNL     1     -10.621  16.258  68.838  1.00  0.00    -0.246 OA 
BRANCH   7  10
HETATM   10  C   UNL     1     -11.801  14.169  68.574  1.00  0.00    -0.390 A  
HETATM   11  C   UNL     1     -11.723  13.875  67.202  1.00  0.00    -0.419 A  
HETATM   12  C   UNL     1     -11.658  12.551  66.780  1.00  0.00    -0.382 A  
HETATM   13  O   UNL     1     -11.598  12.218  65.454  1.00  0.00    -0.348 OA 
HETATM   14  C   UNL     1     -11.658  11.513  67.707  1.00  0.00    -0.267 A  
HETATM   15  H   UNL     1     -11.553  11.314  65.165  1.00  0.00     0.000 HD 
HETATM   16  C   UNL     1     -11.718  11.778  69.064  1.00  0.00    -0.390 A  
HETATM   17  O   UNL     1     -11.606  10.218  67.279  1.00  0.00    -0.368 OA 
HETATM   18  C   UNL     1     -11.789  13.104  69.498  1.00  0.00    -0.383 A  
HETATM   19  H   UNL     1     -11.607   9.510  67.912  1.00  0.00     0.000 HD 
ENDBRANCH   7  10
ENDBRANCH   6   7
ENDBRANCH   4   6
ENDBRANCH   2   4
TORSDOF 4
ENDMDL
MODEL       17
REMARK 921   NORMALIZED FREE ENERGY PREDICTED BY IDOCK:   -5.43 KCAL/MOL
REMARK 922        TOTAL FREE ENERGY PREDICTED BY IDOCK:   -6.98 KCAL/MOL
REMARK 923 INTER-LIGAND FREE ENERGY PREDICTED BY IDOCK:   -6.69 KCAL/MOL
REMARK 924 INTRA-LIGAND FREE ENERGY PREDICTED BY IDOCK:   -0.30 KCAL/MOL
REMARK 927      BINDING AFFINITY PREDICTED BY RF-SCORE:    0.00 PKD
ROOT
HETATM    1  C   UNL     1     -13.587  14.180  72.703  1.00  0.00    -0.618 C  
HETATM    2  C   UNL     1     -13.267  15.641  73.034  1.00  0.00    -0.562 C  
HETATM    3  C   UNL     1     -12.526  15.707  74.372  1.00  0.00    -0.790 C  
ENDROOT
BRANCH   2   4
HETATM    4  N   UNL     1     -12.476  16.201  71.932  1.00  0.00    -0.558 NA 
HETATM    5  H   UNL     1     -11.478  16.130  72.135  1.00  0.00     0.000 HD 
BRANCH   4   6
HETATM    6  C   UNL     1     -12.780  15.610  70.619  1.00  0.00    -0.394 C  
BRANCH   6   7
HETATM    7  C   UNL     1     -11.578  15.745  69.649  1.00  0.00    -0.358 C  
HETATM    8  H   UNL     1      -9.596  15.742  69.759  1.00  0.00     0.000 HD 
HETATM    9  O   UNL     1     -10.333  15.659  70.353  1.00  0.00    -0.279 OA 
BRANCH   7  10
HETATM   10  C   UNL     1     -11.624  14.696  68.555  1.00  0.00    -0.346 A  
HETATM   11  C   UNL     1     -11.823  13.334  68.839  1.00  0.00    -0.367 A  
HETATM   12  C   UNL     1     -11.866  12.409  67.801  1.00  0.00    -0.298 A  
HETATM   13  O   UNL     1     -12.041  11.071  68.031  1.00  0.00    -0.744 OA 
HETATM   14  C   UNL     1     -11.725  12.824  66.479  1.00  0.00    -0.400 A  
HETATM   15  H   UNL     1     -12.071  10.440  67.322  1.00  0.00     0.000 HD 
HETATM   16  C   UNL     1     -11.545  14.162  66.173  1.00  0.00    -0.377 A  
HETATM   17  O   UNL     1     -11.758  11.905  65.470  1.00  0.00    -0.311 OA 
HETATM   18  C   UNL     1     -11.496  15.097  67.210  1.00  0.00    -0.284 A  
HETATM   19  H   UNL     1     -11.661  12.188  64.569  1.00  0.00     0.000 HD 
ENDBRANCH   7  10
ENDBRANCH   6   7
ENDBRANCH   4   6
ENDBRANCH   2   4
TORSDOF 4
ENDMDL
MODEL       18
REMARK 921   NORMALIZED FREE ENERGY PREDICTED BY IDOCK:   -5.41 KCAL/MOL
REMARK 922        TOTAL FREE ENERGY PREDICTED BY IDOCK:   -6.97 KCAL/MOL
REMARK 923 INTER-LIGAND FREE ENERGY PREDICTED BY IDOCK:   -6.72 KCAL/MOL
REMARK 924 INTRA-LIGAND FREE ENERGY PREDICTED BY IDOCK:   -0.25 KCAL/MOL
REMARK 927      BINDING AFFINITY PREDICTED BY RF-SCORE:    0.00 PKD
ROOT
HETATM    1  C   UNL     1      -9.802  10.241  69.364  1.00  0.00    -0.247 C  
HETATM    2  C   UNL     1     -11.317  10.015  69.399  1.00  0.00    -0.141 C  
HETATM    3  C   UNL     1     -11.873  10.521  70.733  1.00  0.00    -0.465 C  
ENDROOT
BRANCH   2   4
HETATM    4  N   UNL     1     -11.912  10.707  68.250  1.00  0.00    -0.814 NA 
HETATM    5  H   UNL     1     -12.928  10.741  68.339  1.00  0.00     0.000 HD 
BRANCH   4   6
HETATM    6  C   UNL     1     -11.368  12.054  68.017  1.00  0.00    -0.296 C  
BRANCH   6   7
HETATM    7  C   UNL     1     -11.128  12.311  66.506  1.00  0.00    -0.299 C  
HETATM    8  H   UNL     1     -12.094  12.018  64.797  1.00  0.00     0.000 HD 
HETATM    9  O   UNL     1     -12.240  11.861  65.722  1.00  0.00    -0.422 OA 
BRANCH   7  10
HETATM   10  C   UNL     1     -10.861  13.777  66.227  1.00  0.00    -0.283 A  
HETATM   11  C   UNL     1     -11.404  14.432  65.108  1.00  0.00    -0.359 A  
HETATM   12  C   UNL     1     -11.136  15.781  64.898  1.00  0.00    -0.399 A  
HETATM   13  O   UNL     1     -11.629  16.456  63.814  1.00  0.00    -1.605 OA 
HETATM   14  C   UNL     1     -10.343  16.492  65.794  1.00  0.00    -0.341 A  
HETATM   15  H   UNL     1     -11.447  17.377  63.670  1.00  0.00     0.000 HD 
HETATM   16  C   UNL     1      -9.811  15.873  66.912  1.00  0.00    -0.251 A  
HETATM   17  O   UNL     1     -10.078  17.812  65.570  1.00  0.00    -0.548 OA 
HETATM   18  C   UNL     1     -10.070  14.517  67.128  1.00  0.00    -0.252 A  
HETATM   19  H   UNL     1      -9.536  18.297  66.182  1.00  0.00     0.000 HD 
ENDBRANCH   7  10
ENDBRANCH   6   7
ENDBRANCH   4   6
ENDBRANCH   2   4
TORSDOF 4
ENDMDL
MODEL       19
REMARK 921   NORMALIZED FREE ENERGY PREDICTED BY IDOCK:   -5.41 KCAL/MOL
REMARK 922        TOTAL FREE ENERGY PREDICTED BY IDOCK:   -6.96 KCAL/MOL
REMARK 923 INTER-LIGAND FREE ENERGY PREDICTED BY IDOCK:   -6.69 KCAL/MOL
REMARK 924 INTRA-LIGAND FREE ENERGY PREDICTED BY IDOCK:   -0.27 KCAL/MOL
REMARK 927      BINDING AFFINITY PREDICTED BY RF-SCORE:    0.00 PKD
ROOT
HETATM    1  C   UNL     1      -8.467  19.651  67.663  1.00  0.00    -0.358 C  
HETATM    2  C   UNL     1      -9.883  19.344  68.158  1.00  0.00    -0.393 C  
HETATM    3  C   UNL     1     -10.881  19.595  67.024  1.00  0.00    -0.518 C  
ENDROOT
BRANCH   2   4
HETATM    4  N   UNL     1      -9.916  17.956  68.631  1.00  0.00    -0.371 NA 
HETATM    5  H   UNL     1     -10.189  17.918  69.613  1.00  0.00     0.000 HD 
BRANCH   4   6
HETATM    6  C   UNL     1     -10.769  17.070  67.823  1.00  0.00    -0.318 C  
BRANCH   6   7
HETATM    7  C   UNL     1      -9.926  16.006  67.073  1.00  0.00    -0.257 C  
HETATM    8  H   UNL     1      -8.512  14.683  67.506  1.00  0.00     0.000 HD 
HETATM    9  O   UNL     1      -9.029  15.334  67.965  1.00  0.00    -0.168 OA 
BRANCH   7  10
HETATM   10  C   UNL     1     -10.807  14.993  66.369  1.00  0.00    -0.326 A  
HETATM   11  C   UNL     1     -11.205  15.155  65.031  1.00  0.00    -0.414 A  
HETATM   12  C   UNL     1     -12.008  14.194  64.425  1.00  0.00    -0.457 A  
HETATM   13  O   UNL     1     -12.433  14.318  63.131  1.00  0.00    -1.102 OA 
HETATM   14  C   UNL     1     -12.412  13.065  65.132  1.00  0.00    -0.496 A  
HETATM   15  H   UNL     1     -12.981  13.662  62.717  1.00  0.00     0.000 HD 
HETATM   16  C   UNL     1     -12.020  12.875  66.446  1.00  0.00    -0.462 A  
HETATM   17  O   UNL     1     -13.210  12.134  64.530  1.00  0.00    -0.724 OA 
HETATM   18  C   UNL     1     -11.218  13.837  67.063  1.00  0.00    -0.326 A  
HETATM   19  H   UNL     1     -13.486  11.364  65.013  1.00  0.00     0.000 HD 
ENDBRANCH   7  10
ENDBRANCH   6   7
ENDBRANCH   4   6
ENDBRANCH   2   4
TORSDOF 4
ENDMDL
MODEL       20
REMARK 921   NORMALIZED FREE ENERGY PREDICTED BY IDOCK:   -5.41 KCAL/MOL
REMARK 922        TOTAL FREE ENERGY PREDICTED BY IDOCK:   -6.96 KCAL/MOL
REMARK 923 INTER-LIGAND FREE ENERGY PREDICTED BY IDOCK:   -6.64 KCAL/MOL
REMARK 924 INTRA-LIGAND FREE ENERGY PREDICTED BY IDOCK:   -0.32 KCAL/MOL
REMARK 927      BINDING AFFINITY PREDICTED BY RF-SCORE:    0.00 PKD
ROOT
HETATM    1  C   UNL     1     -11.701  14.686  64.587  1.00  0.00    -0.431 C  
HETATM    2  C   UNL     1     -12.437  13.687  65.484  1.00  0.00    -0.503 C  
HETATM    3  C   UNL     1     -11.745  12.323  65.396  1.00  0.00    -0.424 C  
ENDROOT
BRANCH   2   4
HETATM    4  N   UNL     1     -12.449  14.217  66.852  1.00  0.00    -0.543 NA 
HETATM    5  H   UNL     1     -13.369  14.594  67.082  1.00  0.00     0.000 HD 
BRANCH   4   6
HETATM    6  C   UNL     1     -12.017  13.249  67.871  1.00  0.00    -0.309 C  
BRANCH   6   7
HETATM    7  C   UNL     1     -10.986  13.878  68.844  1.00  0.00    -0.263 C  
HETATM    8  H   UNL     1      -9.646  15.343  68.816  1.00  0.00     0.000 HD 
HETATM    9  O   UNL     1     -10.278  14.957  68.221  1.00  0.00    -0.218 OA 
BRANCH   7  10
HETATM   10  C   UNL     1     -11.648  14.365  70.118  1.00  0.00    -0.327 A  
HETATM   11  C   UNL     1     -12.609  13.597  70.797  1.00  0.00    -0.397 A  
HETATM   12  C   UNL     1     -13.184  14.084  71.967  1.00  0.00    -0.412 A  
HETATM   13  O   UNL     1     -14.135  13.379  72.653  1.00  0.00    -0.767 OA 
HETATM   14  C   UNL     1     -12.806  15.322  72.478  1.00  0.00    -0.374 A  
HETATM   15  H   UNL     1     -14.527  13.710  73.452  1.00  0.00     0.000 HD 
HETATM   16  C   UNL     1     -11.849  16.090  71.836  1.00  0.00    -0.619 A  
HETATM   17  O   UNL     1     -13.385  15.794  73.620  1.00  0.00    -0.673 OA 
HETATM   18  C   UNL     1     -11.270  15.611  70.658  1.00  0.00    -0.382 A  
HETATM   19  H   UNL     1     -13.127  16.639  73.968  1.00  0.00     0.000 HD 
ENDBRANCH   7  10
ENDBRANCH   6   7
ENDBRANCH   4   6
ENDBRANCH   2   4
TORSDOF 4
ENDMDL
MODEL       21
REMARK 921   NORMALIZED FREE ENERGY PREDICTED BY IDOCK:   -5.41 KCAL/MOL
REMARK 922        TOTAL FREE ENERGY PREDICTED BY IDOCK:   -6.96 KCAL/MOL
REMARK 923 INTER-LIGAND FREE ENERGY PREDICTED BY IDOCK:   -6.74 KCAL/MOL
REMARK 924 INTRA-LIGAND FREE ENERGY PREDICTED BY IDOCK:   -0.22 KCAL/MOL
REMARK 927      BINDING AFFINITY PREDICTED BY RF-SCORE:    0.00 PKD
ROOT
HETATM    1  C   UNL     1     -12.420  12.523  65.037  1.00  0.00    -0.494 C  
HETATM    2  C   UNL     1     -11.566  12.768  66.284  1.00  0.00    -0.379 C  
HETATM    3  C   UNL     1     -12.002  14.078  66.946  1.00  0.00    -0.479 C  
ENDROOT
BRANCH   2   4
HETATM    4  N   UNL     1     -11.717  11.615  67.179  1.00  0.00    -0.598 NA 
HETATM    5  H   UNL     1     -11.435  10.756  66.707  1.00  0.00     0.000 HD 
BRANCH   4   6
HETATM    6  C   UNL     1     -11.007  11.758  68.460  1.00  0.00    -0.227 C  
BRANCH   6   7
HETATM    7  C   UNL     1     -10.617  10.375  69.045  1.00  0.00    -0.221 C  
HETATM    8  H   UNL     1      -9.007   9.511  69.820  1.00  0.00     0.000 HD 
HETATM    9  O   UNL     1      -9.246  10.358  69.461  1.00  0.00    -0.194 OA 
BRANCH   7  10
HETATM   10  C   UNL     1     -11.512   9.990  70.207  1.00  0.00    -0.372 A  
HETATM   11  C   UNL     1     -11.553   8.680  70.712  1.00  0.00    -0.273 A  
HETATM   12  C   UNL     1     -12.386   8.376  71.785  1.00  0.00    -0.331 A  
HETATM   13  O   UNL     1     -12.470   7.111  72.299  1.00  0.00    -0.494 OA 
HETATM   14  C   UNL     1     -13.172   9.365  72.371  1.00  0.00    -0.403 A  
HETATM   15  H   UNL     1     -13.038   6.904  73.031  1.00  0.00     0.000 HD 
HETATM   16  C   UNL     1     -13.137  10.667  71.901  1.00  0.00    -0.563 A  
HETATM   17  O   UNL     1     -13.993   9.052  73.415  1.00  0.00    -1.220 OA 
HETATM   18  C   UNL     1     -12.307  10.979  70.821  1.00  0.00    -0.496 A  
HETATM   19  H   UNL     1     -14.529   9.727  73.814  1.00  0.00     0.000 HD 
ENDBRANCH   7  10
ENDBRANCH   6   7
ENDBRANCH   4   6
ENDBRANCH   2   4
TORSDOF 4
ENDMDL
MODEL       22
REMARK 921   NORMALIZED FREE ENERGY PREDICTED BY IDOCK:   -5.40 KCAL/MOL
REMARK 922        TOTAL FREE ENERGY PREDICTED BY IDOCK:   -6.95 KCAL/MOL
REMARK 923 INTER-LIGAND FREE ENERGY PREDICTED BY IDOCK:   -6.76 KCAL/MOL
REMARK 924 INTRA-LIGAND FREE ENERGY PREDICTED BY IDOCK:   -0.18 KCAL/MOL
REMARK 927      BINDING AFFINITY PREDICTED BY RF-SCORE:    0.00 PKD
ROOT
HETATM    1  C   UNL     1     -12.772  10.653  71.245  1.00  0.00    -0.537 C  
HETATM    2  C   UNL     1     -11.583  10.392  70.317  1.00  0.00    -0.327 C  
HETATM    3  C   UNL     1     -10.981   9.021  70.638  1.00  0.00    -0.308 C  
ENDROOT
BRANCH   2   4
HETATM    4  N   UNL     1     -12.052  10.482  68.929  1.00  0.00    -0.747 NA 
HETATM    5  H   UNL     1     -12.356  11.432  68.714  1.00  0.00     0.000 HD 
BRANCH   4   6
HETATM    6  C   UNL     1     -11.073  10.015  67.936  1.00  0.00    -0.195 C  
BRANCH   6   7
HETATM    7  C   UNL     1     -10.184  11.181  67.429  1.00  0.00    -0.190 C  
HETATM    8  H   UNL     1      -8.337  11.429  66.746  1.00  0.00     0.000 HD 
HETATM    9  O   UNL     1      -8.882  10.715  67.057  1.00  0.00    -0.136 OA 
BRANCH   7  10
HETATM   10  C   UNL     1     -10.827  11.903  66.261  1.00  0.00    -0.323 A  
HETATM   11  C   UNL     1     -11.882  12.815  66.439  1.00  0.00    -0.472 A  
HETATM   12  C   UNL     1     -12.434  13.459  65.336  1.00  0.00    -0.494 A  
HETATM   13  O   UNL     1     -13.473  14.341  65.460  1.00  0.00    -0.683 OA 
HETATM   14  C   UNL     1     -11.942  13.216  64.057  1.00  0.00    -0.460 A  
HETATM   15  H   UNL     1     -13.849  14.781  64.707  1.00  0.00     0.000 HD 
HETATM   16  C   UNL     1     -10.894  12.334  63.858  1.00  0.00    -0.464 A  
HETATM   17  O   UNL     1     -12.500  13.845  62.982  1.00  0.00    -1.099 OA 
HETATM   18  C   UNL     1     -10.336  11.680  64.959  1.00  0.00    -0.329 A  
HETATM   19  H   UNL     1     -12.165  13.678  62.109  1.00  0.00     0.000 HD 
ENDBRANCH   7  10
ENDBRANCH   6   7
ENDBRANCH   4   6
ENDBRANCH   2   4
TORSDOF 4
ENDMDL
MODEL       23
REMARK 921   NORMALIZED FREE ENERGY PREDICTED BY IDOCK:   -5.39 KCAL/MOL
REMARK 922        TOTAL FREE ENERGY PREDICTED BY IDOCK:   -6.94 KCAL/MOL
REMARK 923 INTER-LIGAND FREE ENERGY PREDICTED BY IDOCK:   -6.78 KCAL/MOL
REMARK 924 INTRA-LIGAND FREE ENERGY PREDICTED BY IDOCK:   -0.16 KCAL/MOL
REMARK 927      BINDING AFFINITY PREDICTED BY RF-SCORE:    0.00 PKD
ROOT
HETATM    1  C   UNL     1      -8.764  19.466  68.790  1.00  0.00    -0.377 C  
HETATM    2  C   UNL     1     -10.049  19.243  67.988  1.00  0.00    -0.400 C  
HETATM    3  C   UNL     1      -9.719  19.237  66.493  1.00  0.00    -0.432 C  
ENDROOT
BRANCH   2   4
HETATM    4  N   UNL     1     -10.653  17.980  68.429  1.00  0.00    -0.315 NA 
HETATM    5  H   UNL     1     -11.538  17.818  67.947  1.00  0.00     0.000 HD 
BRANCH   4   6
HETATM    6  C   UNL     1      -9.767  16.814  68.289  1.00  0.00    -0.252 C  
BRANCH   6   7
HETATM    7  C   UNL     1     -10.564  15.486  68.379  1.00  0.00    -0.252 C  
HETATM    8  H   UNL     1     -12.101  14.765  69.408  1.00  0.00     0.000 HD 
HETATM    9  O   UNL     1     -11.612  15.578  69.352  1.00  0.00    -0.308 OA 
BRANCH   7  10
HETATM   10  C   UNL     1     -11.143  15.093  67.035  1.00  0.00    -0.328 A  
HETATM   11  C   UNL     1     -11.123  15.964  65.932  1.00  0.00    -0.053 A  
HETATM   12  C   UNL     1     -11.660  15.554  64.715  1.00  0.00    -0.256 A  
HETATM   13  O   UNL     1     -11.677  16.374  63.620  1.00  0.00    -1.520 OA 
HETATM   14  C   UNL     1     -12.208  14.282  64.578  1.00  0.00    -0.455 A  
HETATM   15  H   UNL     1     -12.043  16.095  62.790  1.00  0.00     0.000 HD 
HETATM   16  C   UNL     1     -12.225  13.400  65.645  1.00  0.00    -0.510 A  
HETATM   17  O   UNL     1     -12.742  13.896  63.383  1.00  0.00    -0.899 OA 
HETATM   18  C   UNL     1     -11.692  13.804  66.871  1.00  0.00    -0.424 A  
HETATM   19  H   UNL     1     -13.116  13.028  63.289  1.00  0.00     0.000 HD 
ENDBRANCH   7  10
ENDBRANCH   6   7
ENDBRANCH   4   6
ENDBRANCH   2   4
TORSDOF 4
ENDMDL
MODEL       24
REMARK 921   NORMALIZED FREE ENERGY PREDICTED BY IDOCK:   -5.37 KCAL/MOL
REMARK 922        TOTAL FREE ENERGY PREDICTED BY IDOCK:   -6.92 KCAL/MOL
REMARK 923 INTER-LIGAND FREE ENERGY PREDICTED BY IDOCK:   -6.66 KCAL/MOL
REMARK 924 INTRA-LIGAND FREE ENERGY PREDICTED BY IDOCK:   -0.26 KCAL/MOL
REMARK 927      BINDING AFFINITY PREDICTED BY RF-SCORE:    0.00 PKD
ROOT
HETATM    1  C   UNL     1      -8.964  19.888  66.603  1.00  0.00    -0.452 C  
HETATM    2  C   UNL     1      -8.967  18.441  67.106  1.00  0.00    -0.268 C  
HETATM    3  C   UNL     1     -10.097  18.261  68.123  1.00  0.00    -0.397 C  
ENDROOT
BRANCH   2   4
HETATM    4  N   UNL     1      -9.113  17.551  65.949  1.00  0.00    -0.516 NA 
HETATM    5  H   UNL     1      -8.217  17.428  65.476  1.00  0.00     0.000 HD 
BRANCH   4   6
HETATM    6  C   UNL     1      -9.710  16.246  66.272  1.00  0.00    -0.304 C  
BRANCH   6   7
HETATM    7  C   UNL     1     -10.999  15.996  65.445  1.00  0.00    -0.253 C  
HETATM    8  H   UNL     1     -11.961  16.852  63.935  1.00  0.00     0.000 HD 
HETATM    9  O   UNL     1     -11.172  17.005  64.441  1.00  0.00    -1.167 OA 
BRANCH   7  10
HETATM   10  C   UNL     1     -10.989  14.625  64.800  1.00  0.00    -0.399 A  
HETATM   11  C   UNL     1      -9.951  13.704  65.025  1.00  0.00    -0.205 A  
HETATM   12  C   UNL     1      -9.990  12.453  64.416  1.00  0.00    -0.194 A  
HETATM   13  O   UNL     1      -8.994  11.532  64.593  1.00  0.00    -0.402 OA 
HETATM   14  C   UNL     1     -11.057  12.101  63.594  1.00  0.00    -0.457 A  
HETATM   15  H   UNL     1      -9.021  10.678  64.178  1.00  0.00     0.000 HD 
HETATM   16  C   UNL     1     -12.099  12.985  63.370  1.00  0.00    -0.591 A  
HETATM   17  O   UNL     1     -11.078  10.876  62.993  1.00  0.00    -0.706 OA 
HETATM   18  C   UNL     1     -12.066  14.244  63.973  1.00  0.00    -0.350 A  
HETATM   19  H   UNL     1     -11.805  10.636  62.431  1.00  0.00     0.000 HD 
ENDBRANCH   7  10
ENDBRANCH   6   7
ENDBRANCH   4   6
ENDBRANCH   2   4
TORSDOF 4
ENDMDL
MODEL       25
REMARK 921   NORMALIZED FREE ENERGY PREDICTED BY IDOCK:   -5.36 KCAL/MOL
REMARK 922        TOTAL FREE ENERGY PREDICTED BY IDOCK:   -6.91 KCAL/MOL
REMARK 923 INTER-LIGAND FREE ENERGY PREDICTED BY IDOCK:   -6.62 KCAL/MOL
REMARK 924 INTRA-LIGAND FREE ENERGY PREDICTED BY IDOCK:   -0.28 KCAL/MOL
REMARK 927      BINDING AFFINITY PREDICTED BY RF-SCORE:    0.00 PKD
ROOT
HETATM    1  C   UNL     1     -10.169  10.994  64.189  1.00  0.00    -0.419 C  
HETATM    2  C   UNL     1     -10.578  12.407  63.764  1.00  0.00    -0.452 C  
HETATM    3  C   UNL     1     -12.098  12.464  63.592  1.00  0.00    -0.648 C  
ENDROOT
BRANCH   2   4
HETATM    4  N   UNL     1     -10.098  13.350  64.781  1.00  0.00    -0.596 NA 
HETATM    5  H   UNL     1      -9.271  13.847  64.447  1.00  0.00     0.000 HD 
BRANCH   4   6
HETATM    6  C   UNL     1     -11.121  14.302  65.242  1.00  0.00    -0.335 C  
BRANCH   6   7
HETATM    7  C   UNL     1     -10.757  15.756  64.847  1.00  0.00    -0.361 C  
HETATM    8  H   UNL     1     -11.493  17.190  63.688  1.00  0.00     0.000 HD 
HETATM    9  O   UNL     1     -11.716  16.299  63.930  1.00  0.00    -0.986 OA 
BRANCH   7  10
HETATM   10  C   UNL     1     -10.644  16.652  66.064  1.00  0.00    -0.238 A  
HETATM   11  C   UNL     1     -10.656  16.136  67.372  1.00  0.00    -0.311 A  
HETATM   12  C   UNL     1     -10.542  16.998  68.458  1.00  0.00    -0.370 A  
HETATM   13  O   UNL     1     -10.564  16.542  69.748  1.00  0.00    -0.311 OA 
HETATM   14  C   UNL     1     -10.405  18.369  68.260  1.00  0.00    -0.355 A  
HETATM   15  H   UNL     1     -10.486  17.130  70.490  1.00  0.00     0.000 HD 
HETATM   16  C   UNL     1     -10.375  18.900  66.982  1.00  0.00    -0.469 A  
HETATM   17  O   UNL     1     -10.306  19.206  69.334  1.00  0.00    -0.504 OA 
HETATM   18  C   UNL     1     -10.494  18.043  65.885  1.00  0.00    -0.268 A  
HETATM   19  H   UNL     1     -10.214  20.141  69.199  1.00  0.00     0.000 HD 
ENDBRANCH   7  10
ENDBRANCH   6   7
ENDBRANCH   4   6
ENDBRANCH   2   4
TORSDOF 4
ENDMDL
MODEL       26
REMARK 921   NORMALIZED FREE ENERGY PREDICTED BY IDOCK:   -5.34 KCAL/MOL
REMARK 922        TOTAL FREE ENERGY PREDICTED BY IDOCK:   -6.88 KCAL/MOL
REMARK 923 INTER-LIGAND FREE ENERGY PREDICTED BY IDOCK:   -6.64 KCAL/MOL
REMARK 924 INTRA-LIGAND FREE ENERGY PREDICTED BY IDOCK:   -0.24 KCAL/MOL
REMARK 927      BINDING AFFINITY PREDICTED BY RF-SCORE:    0.00 PKD
ROOT
HETATM    1  C   UNL     1     -13.009  11.847  71.618  1.00  0.00    -0.447 C  
HETATM    2  C   UNL     1     -12.576  10.485  71.067  1.00  0.00    -0.400 C  
HETATM    3  C   UNL     1     -13.416   9.385  71.722  1.00  0.00    -0.485 C  
ENDROOT
BRANCH   2   4
HETATM    4  N   UNL     1     -12.730  10.508  69.608  1.00  0.00    -0.616 NA 
HETATM    5  H   UNL     1     -13.493  11.131  69.338  1.00  0.00     0.000 HD 
BRANCH   4   6
HETATM    6  C   UNL     1     -11.498  10.855  68.883  1.00  0.00    -0.300 C  
BRANCH   6   7
HETATM    7  C   UNL     1     -11.692  12.130  68.021  1.00  0.00    -0.344 C  
HETATM    8  H   UNL     1     -11.004  13.992  67.979  1.00  0.00     0.000 HD 
HETATM    9  O   UNL     1     -10.886  13.211  68.507  1.00  0.00    -0.246 OA 
BRANCH   7  10
HETATM   10  C   UNL     1     -11.375  11.867  66.562  1.00  0.00    -0.403 A  
HETATM   11  C   UNL     1     -11.845  12.705  65.536  1.00  0.00    -0.479 A  
HETATM   12  C   UNL     1     -11.521  12.428  64.211  1.00  0.00    -0.363 A  
HETATM   13  O   UNL     1     -11.970  13.206  63.179  1.00  0.00    -0.796 OA 
HETATM   14  C   UNL     1     -10.725  11.331  63.894  1.00  0.00    -0.384 A  
HETATM   15  H   UNL     1     -11.749  13.017  62.275  1.00  0.00     0.000 HD 
HETATM   16  C   UNL     1     -10.236  10.500  64.888  1.00  0.00    -0.371 A  
HETATM   17  O   UNL     1     -10.424  11.062  62.590  1.00  0.00    -0.748 OA 
HETATM   18  C   UNL     1     -10.560  10.769  66.220  1.00  0.00    -0.257 A  
HETATM   19  H   UNL     1      -9.881  10.314  62.374  1.00  0.00     0.000 HD 
ENDBRANCH   7  10
ENDBRANCH   6   7
ENDBRANCH   4   6
ENDBRANCH   2   4
TORSDOF 4
ENDMDL
MODEL       27
REMARK 921   NORMALIZED FREE ENERGY PREDICTED BY IDOCK:   -5.34 KCAL/MOL
REMARK 922        TOTAL FREE ENERGY PREDICTED BY IDOCK:   -6.88 KCAL/MOL
REMARK 923 INTER-LIGAND FREE ENERGY PREDICTED BY IDOCK:   -6.41 KCAL/MOL
REMARK 924 INTRA-LIGAND FREE ENERGY PREDICTED BY IDOCK:   -0.47 KCAL/MOL
REMARK 927      BINDING AFFINITY PREDICTED BY RF-SCORE:    0.00 PKD
ROOT
HETATM    1  C   UNL     1     -12.094  11.972  70.010  1.00  0.00    -0.355 C  
HETATM    2  C   UNL     1     -12.134  13.502  70.042  1.00  0.00    -0.341 C  
HETATM    3  C   UNL     1     -12.812  13.964  71.335  1.00  0.00    -0.439 C  
ENDROOT
BRANCH   2   4
HETATM    4  N   UNL     1     -10.760  14.002  69.925  1.00  0.00    -0.406 NA 
HETATM    5  H   UNL     1     -10.123  13.433  70.484  1.00  0.00     0.000 HD 
BRANCH   4   6
HETATM    6  C   UNL     1     -10.279  14.107  68.539  1.00  0.00    -0.247 C  
BRANCH   6   7
HETATM    7  C   UNL     1     -11.404  14.591  67.587  1.00  0.00    -0.337 C  
HETATM    8  H   UNL     1     -11.912  16.264  66.648  1.00  0.00     0.000 HD 
HETATM    9  O   UNL     1     -11.223  15.967  67.231  1.00  0.00    -0.234 OA 
BRANCH   7  10
HETATM   10  C   UNL     1     -11.478  13.740  66.335  1.00  0.00    -0.351 A  
HETATM   11  C   UNL     1     -12.051  14.217  65.144  1.00  0.00    -0.410 A  
HETATM   12  C   UNL     1     -12.089  13.401  64.017  1.00  0.00    -0.449 A  
HETATM   13  O   UNL     1     -12.652  13.818  62.841  1.00  0.00    -0.944 OA 
HETATM   14  C   UNL     1     -11.552  12.117  64.057  1.00  0.00    -0.423 A  
HETATM   15  H   UNL     1     -12.677  13.261  62.072  1.00  0.00     0.000 HD 
HETATM   16  C   UNL     1     -10.968  11.631  65.214  1.00  0.00    -0.327 A  
HETATM   17  O   UNL     1     -11.606  11.323  62.949  1.00  0.00    -0.834 OA 
HETATM   18  C   UNL     1     -10.930  12.441  66.351  1.00  0.00    -0.315 A  
HETATM   19  H   UNL     1     -11.240  10.446  62.976  1.00  0.00     0.000 HD 
ENDBRANCH   7  10
ENDBRANCH   6   7
ENDBRANCH   4   6
ENDBRANCH   2   4
TORSDOF 4
ENDMDL
MODEL       28
REMARK 921   NORMALIZED FREE ENERGY PREDICTED BY IDOCK:   -5.33 KCAL/MOL
REMARK 922        TOTAL FREE ENERGY PREDICTED BY IDOCK:   -6.87 KCAL/MOL
REMARK 923 INTER-LIGAND FREE ENERGY PREDICTED BY IDOCK:   -6.48 KCAL/MOL
REMARK 924 INTRA-LIGAND FREE ENERGY PREDICTED BY IDOCK:   -0.40 KCAL/MOL
REMARK 927      BINDING AFFINITY PREDICTED BY RF-SCORE:    0.00 PKD
ROOT
HETATM    1  C   UNL     1      -8.880  16.590  66.133  1.00  0.00    -0.342 C  
HETATM    2  C   UNL     1     -10.365  16.940  66.005  1.00  0.00    -0.325 C  
HETATM    3  C   UNL     1     -10.525  18.462  65.959  1.00  0.00    -0.400 C  
ENDROOT
BRANCH   2   4
HETATM    4  N   UNL     1     -10.889  16.289  64.798  1.00  0.00    -0.783 NA 
HETATM    5  H   UNL     1     -10.390  16.614  63.970  1.00  0.00     0.000 HD 
BRANCH   4   6
HETATM    6  C   UNL     1     -10.882  14.819  64.862  1.00  0.00    -0.416 C  
BRANCH   6   7
HETATM    7  C   UNL     1     -12.182  14.277  65.511  1.00  0.00    -0.402 C  
HETATM    8  H   UNL     1     -13.705  13.113  64.994  1.00  0.00     0.000 HD 
HETATM    9  O   UNL     1     -12.908  13.446  64.597  1.00  0.00    -0.668 OA 
BRANCH   7  10
HETATM   10  C   UNL     1     -11.890  13.508  66.785  1.00  0.00    -0.450 A  
HETATM   11  C   UNL     1     -11.804  14.145  68.035  1.00  0.00    -0.400 A  
HETATM   12  C   UNL     1     -11.541  13.395  69.177  1.00  0.00    -0.315 A  
HETATM   13  O   UNL     1     -11.432  13.974  70.412  1.00  0.00    -0.479 OA 
HETATM   14  C   UNL     1     -11.373  12.016  69.094  1.00  0.00    -0.281 A  
HETATM   15  H   UNL     1     -11.253  13.463  71.192  1.00  0.00     0.000 HD 
HETATM   16  C   UNL     1     -11.468  11.364  67.876  1.00  0.00    -0.361 A  
HETATM   17  O   UNL     1     -11.103  11.294  70.220  1.00  0.00    -0.477 OA 
HETATM   18  C   UNL     1     -11.728  12.109  66.723  1.00  0.00    -0.377 A  
HETATM   19  H   UNL     1     -10.988  10.352  70.163  1.00  0.00     0.000 HD 
ENDBRANCH   7  10
ENDBRANCH   6   7
ENDBRANCH   4   6
ENDBRANCH   2   4
TORSDOF 4
ENDMDL
MODEL       29
REMARK 921   NORMALIZED FREE ENERGY PREDICTED BY IDOCK:   -5.30 KCAL/MOL
REMARK 922        TOTAL FREE ENERGY PREDICTED BY IDOCK:   -6.83 KCAL/MOL
REMARK 923 INTER-LIGAND FREE ENERGY PREDICTED BY IDOCK:   -6.58 KCAL/MOL
REMARK 924 INTRA-LIGAND FREE ENERGY PREDICTED BY IDOCK:   -0.25 KCAL/MOL
REMARK 927      BINDING AFFINITY PREDICTED BY RF-SCORE:    0.00 PKD
ROOT
HETATM    1  C   UNL     1     -13.995  13.643  72.063  1.00  0.00    -0.518 C  
HETATM    2  C   UNL     1     -14.198  15.159  71.983  1.00  0.00    -0.577 C  
HETATM    3  C   UNL     1     -13.410  15.836  73.108  1.00  0.00    -0.685 C  
ENDROOT
BRANCH   2   4
HETATM    4  N   UNL     1     -13.770  15.611  70.654  1.00  0.00    -0.777 NA 
HETATM    5  H   UNL     1     -13.714  16.629  70.623  1.00  0.00     0.000 HD 
BRANCH   4   6
HETATM    6  C   UNL     1     -12.507  15.010  70.197  1.00  0.00    -0.311 C  
BRANCH   6   7
HETATM    7  C   UNL     1     -11.758  15.949  69.216  1.00  0.00    -0.353 C  
HETATM    8  H   UNL     1     -10.138  17.096  69.233  1.00  0.00     0.000 HD 
HETATM    9  O   UNL     1     -10.598  16.520  69.833  1.00  0.00    -0.294 OA 
BRANCH   7  10
HETATM   10  C   UNL     1     -11.362  15.225  67.945  1.00  0.00    -0.339 A  
HETATM   11  C   UNL     1     -12.222  14.313  67.310  1.00  0.00    -0.287 A  
HETATM   12  C   UNL     1     -11.817  13.679  66.139  1.00  0.00    -0.392 A  
HETATM   13  O   UNL     1     -12.614  12.771  65.496  1.00  0.00    -0.611 OA 
HETATM   14  C   UNL     1     -10.569  13.949  65.585  1.00  0.00    -0.301 A  
HETATM   15  H   UNL     1     -12.338  12.339  64.697  1.00  0.00     0.000 HD 
HETATM   16  C   UNL     1      -9.711  14.855  66.184  1.00  0.00    -0.333 A  
HETATM   17  O   UNL     1     -10.179  13.311  64.444  1.00  0.00    -0.553 OA 
HETATM   18  C   UNL     1     -10.107  15.493  67.361  1.00  0.00    -0.246 A  
HETATM   19  H   UNL     1      -9.327  13.495  64.066  1.00  0.00     0.000 HD 
ENDBRANCH   7  10
ENDBRANCH   6   7
ENDBRANCH   4   6
ENDBRANCH   2   4
TORSDOF 4
ENDMDL
MODEL       30
REMARK 921   NORMALIZED FREE ENERGY PREDICTED BY IDOCK:   -5.26 KCAL/MOL
REMARK 922        TOTAL FREE ENERGY PREDICTED BY IDOCK:   -6.78 KCAL/MOL
REMARK 923 INTER-LIGAND FREE ENERGY PREDICTED BY IDOCK:   -6.53 KCAL/MOL
REMARK 924 INTRA-LIGAND FREE ENERGY PREDICTED BY IDOCK:   -0.24 KCAL/MOL
REMARK 927      BINDING AFFINITY PREDICTED BY RF-SCORE:    0.00 PKD
ROOT
HETATM    1  C   UNL     1     -11.563  14.953  64.824  1.00  0.00    -0.410 C  
HETATM    2  C   UNL     1     -12.653  14.007  65.336  1.00  0.00    -0.505 C  
HETATM    3  C   UNL     1     -12.419  12.606  64.763  1.00  0.00    -0.555 C  
ENDROOT
BRANCH   2   4
HETATM    4  N   UNL     1     -12.622  14.020  66.803  1.00  0.00    -0.490 NA 
HETATM    5  H   UNL     1     -13.561  13.896  67.182  1.00  0.00     0.000 HD 
BRANCH   4   6
HETATM    6  C   UNL     1     -11.695  13.039  67.389  1.00  0.00    -0.374 C  
BRANCH   6   7
HETATM    7  C   UNL     1     -11.258  13.461  68.816  1.00  0.00    -0.275 C  
HETATM    8  H   UNL     1     -11.315  15.092  69.947  1.00  0.00     0.000 HD 
HETATM    9  O   UNL     1     -11.583  14.833  69.072  1.00  0.00    -0.268 OA 
BRANCH   7  10
HETATM   10  C   UNL     1     -11.887  12.576  69.874  1.00  0.00    -0.373 A  
HETATM   11  C   UNL     1     -12.627  13.108  70.945  1.00  0.00    -0.377 A  
HETATM   12  C   UNL     1     -13.193  12.255  71.887  1.00  0.00    -0.376 A  
HETATM   13  O   UNL     1     -13.907  12.728  72.954  1.00  0.00    -0.658 OA 
HETATM   14  C   UNL     1     -13.040  10.876  71.773  1.00  0.00    -0.459 A  
HETATM   15  H   UNL     1     -14.293  12.147  73.597  1.00  0.00     0.000 HD 
HETATM   16  C   UNL     1     -12.329  10.328  70.720  1.00  0.00    -0.445 A  
HETATM   17  O   UNL     1     -13.590  10.051  72.711  1.00  0.00    -0.549 OA 
HETATM   18  C   UNL     1     -11.754  11.177  69.771  1.00  0.00    -0.419 A  
HETATM   19  H   UNL     1     -13.485   9.110  72.633  1.00  0.00     0.000 HD 
ENDBRANCH   7  10
ENDBRANCH   6   7
ENDBRANCH   4   6
ENDBRANCH   2   4
TORSDOF 4
ENDMDL
MODEL       31
REMARK 921   NORMALIZED FREE ENERGY PREDICTED BY IDOCK:   -5.24 KCAL/MOL
REMARK 922        TOTAL FREE ENERGY PREDICTED BY IDOCK:   -6.76 KCAL/MOL
REMARK 923 INTER-LIGAND FREE ENERGY PREDICTED BY IDOCK:   -6.25 KCAL/MOL
REMARK 924 INTRA-LIGAND FREE ENERGY PREDICTED BY IDOCK:   -0.51 KCAL/MOL
REMARK 927      BINDING AFFINITY PREDICTED BY RF-SCORE:    0.00 PKD
ROOT
HETATM    1  C   UNL     1     -10.197  17.056  67.486  1.00  0.00    -0.323 C  
HETATM    2  C   UNL     1      -9.478  16.556  66.230  1.00  0.00    -0.310 C  
HETATM    3  C   UNL     1      -8.591  15.363  66.595  1.00  0.00    -0.318 C  
ENDROOT
BRANCH   2   4
HETATM    4  N   UNL     1     -10.491  16.210  65.226  1.00  0.00    -0.572 NA 
HETATM    5  H   UNL     1     -10.220  16.560  64.307  1.00  0.00     0.000 HD 
BRANCH   4   6
HETATM    6  C   UNL     1     -10.800  14.773  65.162  1.00  0.00    -0.404 C  
BRANCH   6   7
HETATM    7  C   UNL     1     -12.174  14.463  65.812  1.00  0.00    -0.343 C  
HETATM    8  H   UNL     1     -13.883  13.599  65.288  1.00  0.00     0.000 HD 
HETATM    9  O   UNL     1     -13.041  13.790  64.891  1.00  0.00    -0.716 OA 
BRANCH   7  10
HETATM   10  C   UNL     1     -12.019  13.634  67.072  1.00  0.00    -0.448 A  
HETATM   11  C   UNL     1     -11.910  12.233  67.033  1.00  0.00    -0.329 A  
HETATM   12  C   UNL     1     -11.760  11.517  68.216  1.00  0.00    -0.301 A  
HETATM   13  O   UNL     1     -11.667  10.151  68.227  1.00  0.00    -0.673 OA 
HETATM   14  C   UNL     1     -11.707  12.177  69.440  1.00  0.00    -0.329 A  
HETATM   15  H   UNL     1     -11.565   9.662  69.034  1.00  0.00     0.000 HD 
HETATM   16  C   UNL     1     -11.797  13.557  69.503  1.00  0.00    -0.392 A  
HETATM   17  O   UNL     1     -11.573  11.462  70.594  1.00  0.00    -0.448 OA 
HETATM   18  C   UNL     1     -11.951  14.285  68.320  1.00  0.00    -0.346 A  
HETATM   19  H   UNL     1     -11.537  11.913  71.430  1.00  0.00     0.000 HD 
ENDBRANCH   7  10
ENDBRANCH   6   7
ENDBRANCH   4   6
ENDBRANCH   2   4
TORSDOF 4
ENDMDL
MODEL       32
REMARK 921   NORMALIZED FREE ENERGY PREDICTED BY IDOCK:   -5.23 KCAL/MOL
REMARK 922        TOTAL FREE ENERGY PREDICTED BY IDOCK:   -6.74 KCAL/MOL
REMARK 923 INTER-LIGAND FREE ENERGY PREDICTED BY IDOCK:   -6.44 KCAL/MOL
REMARK 924 INTRA-LIGAND FREE ENERGY PREDICTED BY IDOCK:   -0.30 KCAL/MOL
REMARK 927      BINDING AFFINITY PREDICTED BY RF-SCORE:    0.00 PKD
ROOT
HETATM    1  C   UNL     1     -11.833   6.666  71.969  1.00  0.00    -0.365 C  
HETATM    2  C   UNL     1     -12.615   7.526  70.971  1.00  0.00    -0.189 C  
HETATM    3  C   UNL     1     -13.916   8.001  71.623  1.00  0.00    -0.474 C  
ENDROOT
BRANCH   2   4
HETATM    4  N   UNL     1     -11.759   8.644  70.558  1.00  0.00    -0.457 NA 
HETATM    5  H   UNL     1     -11.781   8.757  69.544  1.00  0.00     0.000 HD 
BRANCH   4   6
HETATM    6  C   UNL     1     -12.076   9.917  71.226  1.00  0.00    -0.394 C  
BRANCH   6   7
HETATM    7  C   UNL     1     -11.842  11.123  70.279  1.00  0.00    -0.366 C  
HETATM    8  H   UNL     1     -12.196  11.590  68.383  1.00  0.00     0.000 HD 
HETATM    9  O   UNL     1     -12.339  10.851  68.963  1.00  0.00    -0.464 OA 
BRANCH   7  10
HETATM   10  C   UNL     1     -12.481  12.387  70.820  1.00  0.00    -0.356 A  
HETATM   11  C   UNL     1     -12.322  13.631  70.187  1.00  0.00    -0.372 A  
HETATM   12  C   UNL     1     -12.935  14.762  70.717  1.00  0.00    -0.352 A  
HETATM   13  O   UNL     1     -12.795  15.996  70.144  1.00  0.00    -0.617 OA 
HETATM   14  C   UNL     1     -13.716  14.669  71.866  1.00  0.00    -0.419 A  
HETATM   15  H   UNL     1     -13.213  16.768  70.505  1.00  0.00     0.000 HD 
HETATM   16  C   UNL     1     -13.900  13.452  72.499  1.00  0.00    -0.595 A  
HETATM   17  O   UNL     1     -14.302  15.788  72.383  1.00  0.00    -0.514 OA 
HETATM   18  C   UNL     1     -13.285  12.312  71.976  1.00  0.00    -0.508 A  
HETATM   19  H   UNL     1     -14.834  15.724  73.168  1.00  0.00     0.000 HD 
ENDBRANCH   7  10
ENDBRANCH   6   7
ENDBRANCH   4   6
ENDBRANCH   2   4
TORSDOF 4
ENDMDL
MODEL       33
REMARK 921   NORMALIZED FREE ENERGY PREDICTED BY IDOCK:   -5.23 KCAL/MOL
REMARK 922        TOTAL FREE ENERGY PREDICTED BY IDOCK:   -6.74 KCAL/MOL
REMARK 923 INTER-LIGAND FREE ENERGY PREDICTED BY IDOCK:   -6.33 KCAL/MOL
REMARK 924 INTRA-LIGAND FREE ENERGY PREDICTED BY IDOCK:   -0.41 KCAL/MOL
REMARK 927      BINDING AFFINITY PREDICTED BY RF-SCORE:    0.00 PKD
ROOT
HETATM    1  C   UNL     1      -8.267  18.389  68.110  1.00  0.00    -0.303 C  
HETATM    2  C   UNL     1      -9.696  18.390  68.661  1.00  0.00    -0.361 C  
HETATM    3  C   UNL     1     -10.670  18.765  67.541  1.00  0.00    -0.474 C  
ENDROOT
BRANCH   2   4
HETATM    4  N   UNL     1      -9.976  17.063  69.220  1.00  0.00    -0.216 NA 
HETATM    5  H   UNL     1      -9.919  17.084  70.239  1.00  0.00     0.000 HD 
BRANCH   4   6
HETATM    6  C   UNL     1     -11.259  16.490  68.785  1.00  0.00    -0.277 C  
BRANCH   6   7
HETATM    7  C   UNL     1     -11.115  14.986  68.436  1.00  0.00    -0.278 C  
HETATM    8  H   UNL     1     -11.849  13.255  69.073  1.00  0.00     0.000 HD 
HETATM    9  O   UNL     1     -11.937  14.177  69.287  1.00  0.00    -0.309 OA 
BRANCH   7  10
HETATM   10  C   UNL     1     -11.456  14.716  66.983  1.00  0.00    -0.379 A  
HETATM   11  C   UNL     1     -12.231  13.611  66.594  1.00  0.00    -0.437 A  
HETATM   12  C   UNL     1     -12.525  13.410  65.249  1.00  0.00    -0.483 A  
HETATM   13  O   UNL     1     -13.262  12.339  64.822  1.00  0.00    -0.697 OA 
HETATM   14  C   UNL     1     -12.065  14.302  64.284  1.00  0.00    -0.441 A  
HETATM   15  H   UNL     1     -13.462  12.201  63.904  1.00  0.00     0.000 HD 
HETATM   16  C   UNL     1     -11.312  15.407  64.645  1.00  0.00    -0.361 A  
HETATM   17  O   UNL     1     -12.349  14.087  62.967  1.00  0.00    -1.101 OA 
HETATM   18  C   UNL     1     -11.009  15.614  65.993  1.00  0.00    -0.213 A  
HETATM   19  H   UNL     1     -12.034  14.696  62.309  1.00  0.00     0.000 HD 
ENDBRANCH   7  10
ENDBRANCH   6   7
ENDBRANCH   4   6
ENDBRANCH   2   4
TORSDOF 4
ENDMDL
MODEL       34
REMARK 921   NORMALIZED FREE ENERGY PREDICTED BY IDOCK:   -5.20 KCAL/MOL
REMARK 922        TOTAL FREE ENERGY PREDICTED BY IDOCK:   -6.71 KCAL/MOL
REMARK 923 INTER-LIGAND FREE ENERGY PREDICTED BY IDOCK:   -6.34 KCAL/MOL
REMARK 924 INTRA-LIGAND FREE ENERGY PREDICTED BY IDOCK:   -0.37 KCAL/MOL
REMARK 927      BINDING AFFINITY PREDICTED BY RF-SCORE:    0.00 PKD
ROOT
HETATM    1  C   UNL     1      -8.820  11.386  68.287  1.00  0.00    -0.167 C  
HETATM    2  C   UNL     1     -10.199  10.985  68.818  1.00  0.00    -0.198 C  
HETATM    3  C   UNL     1     -10.044   9.818  69.797  1.00  0.00    -0.268 C  
ENDROOT
BRANCH   2   4
HETATM    4  N   UNL     1     -10.810  12.161  69.447  1.00  0.00    -0.453 NA 
HETATM    5  H   UNL     1     -10.619  12.172  70.449  1.00  0.00     0.000 HD 
BRANCH   4   6
HETATM    6  C   UNL     1     -10.417  13.438  68.832  1.00  0.00    -0.113 C  
BRANCH   6   7
HETATM    7  C   UNL     1     -11.659  14.249  68.376  1.00  0.00    -0.320 C  
HETATM    8  H   UNL     1     -12.322  16.115  68.510  1.00  0.00     0.000 HD 
HETATM    9  O   UNL     1     -11.562  15.618  68.789  1.00  0.00    -0.350 OA 
BRANCH   7  10
HETATM   10  C   UNL     1     -11.849  14.177  66.874  1.00  0.00    -0.458 A  
HETATM   11  C   UNL     1     -11.622  15.286  66.041  1.00  0.00     0.006 A  
HETATM   12  C   UNL     1     -11.803  15.169  64.666  1.00  0.00    -0.332 A  
HETATM   13  O   UNL     1     -11.610  16.226  63.819  1.00  0.00    -1.539 OA 
HETATM   14  C   UNL     1     -12.198  13.957  64.107  1.00  0.00    -0.393 A  
HETATM   15  H   UNL     1     -11.733  16.146  62.881  1.00  0.00     0.000 HD 
HETATM   16  C   UNL     1     -12.413  12.846  64.905  1.00  0.00    -0.540 A  
HETATM   17  O   UNL     1     -12.384  13.858  62.758  1.00  0.00    -0.876 OA 
HETATM   18  C   UNL     1     -12.237  12.956  66.286  1.00  0.00    -0.340 A  
HETATM   19  H   UNL     1     -12.654  13.031  62.377  1.00  0.00     0.000 HD 
ENDBRANCH   7  10
ENDBRANCH   6   7
ENDBRANCH   4   6
ENDBRANCH   2   4
TORSDOF 4
ENDMDL
MODEL       35
REMARK 921   NORMALIZED FREE ENERGY PREDICTED BY IDOCK:   -5.20 KCAL/MOL
REMARK 922        TOTAL FREE ENERGY PREDICTED BY IDOCK:   -6.71 KCAL/MOL
REMARK 923 INTER-LIGAND FREE ENERGY PREDICTED BY IDOCK:   -6.24 KCAL/MOL
REMARK 924 INTRA-LIGAND FREE ENERGY PREDICTED BY IDOCK:   -0.47 KCAL/MOL
REMARK 927      BINDING AFFINITY PREDICTED BY RF-SCORE:    0.00 PKD
ROOT
HETATM    1  C   UNL     1      -9.981  10.094  64.564  1.00  0.00    -0.275 C  
HETATM    2  C   UNL     1      -9.921  11.243  63.553  1.00  0.00    -0.376 C  
HETATM    3  C   UNL     1      -8.851  10.937  62.502  1.00  0.00    -0.352 C  
ENDROOT
BRANCH   2   4
HETATM    4  N   UNL     1     -11.254  11.403  62.959  1.00  0.00    -0.844 NA 
HETATM    5  H   UNL     1     -11.591  10.514  62.591  1.00  0.00     0.000 HD 
BRANCH   4   6
HETATM    6  C   UNL     1     -12.246  11.995  63.870  1.00  0.00    -0.453 C  
BRANCH   6   7
HETATM    7  C   UNL     1     -11.842  13.435  64.284  1.00  0.00    -0.423 C  
HETATM    8  H   UNL     1     -12.535  15.279  64.045  1.00  0.00     0.000 HD 
HETATM    9  O   UNL     1     -12.782  14.397  63.791  1.00  0.00    -0.785 OA 
BRANCH   7  10
HETATM   10  C   UNL     1     -11.711  13.565  65.789  1.00  0.00    -0.371 A  
HETATM   11  C   UNL     1     -11.332  14.772  66.401  1.00  0.00    -0.339 A  
HETATM   12  C   UNL     1     -11.234  14.845  67.787  1.00  0.00    -0.321 A  
HETATM   13  O   UNL     1     -10.852  15.994  68.425  1.00  0.00    -0.279 OA 
HETATM   14  C   UNL     1     -11.519  13.734  68.575  1.00  0.00    -0.307 A  
HETATM   15  H   UNL     1     -10.785  16.044  69.371  1.00  0.00     0.000 HD 
HETATM   16  C   UNL     1     -11.911  12.539  67.996  1.00  0.00    -0.382 A  
HETATM   17  O   UNL     1     -11.408  13.815  69.932  1.00  0.00    -0.434 OA 
HETATM   18  C   UNL     1     -12.008  12.455  66.605  1.00  0.00    -0.300 A  
HETATM   19  H   UNL     1     -11.602  13.056  70.470  1.00  0.00     0.000 HD 
ENDBRANCH   7  10
ENDBRANCH   6   7
ENDBRANCH   4   6
ENDBRANCH   2   4
TORSDOF 4
ENDMDL
MODEL       36
REMARK 921   NORMALIZED FREE ENERGY PREDICTED BY IDOCK:   -5.20 KCAL/MOL
REMARK 922        TOTAL FREE ENERGY PREDICTED BY IDOCK:   -6.70 KCAL/MOL
REMARK 923 INTER-LIGAND FREE ENERGY PREDICTED BY IDOCK:   -6.34 KCAL/MOL
REMARK 924 INTRA-LIGAND FREE ENERGY PREDICTED BY IDOCK:   -0.36 KCAL/MOL
REMARK 927      BINDING AFFINITY PREDICTED BY RF-SCORE:    0.00 PKD
ROOT
HETATM    1  C   UNL     1      -8.576  10.874  62.337  1.00  0.00    -0.344 C  
HETATM    2  C   UNL     1      -9.905  10.938  63.096  1.00  0.00    -0.351 C  
HETATM    3  C   UNL     1      -9.758  10.213  64.436  1.00  0.00    -0.345 C  
ENDROOT
BRANCH   2   4
HETATM    4  N   UNL     1     -10.273  12.348  63.263  1.00  0.00    -0.500 NA 
HETATM    5  H   UNL     1     -10.248  12.834  62.366  1.00  0.00     0.000 HD 
BRANCH   4   6
HETATM    6  C   UNL     1     -11.571  12.552  63.926  1.00  0.00    -0.442 C  
BRANCH   6   7
HETATM    7  C   UNL     1     -11.584  13.868  64.746  1.00  0.00    -0.374 C  
HETATM    8  H   UNL     1     -12.659  15.535  64.828  1.00  0.00     0.000 HD 
HETATM    9  O   UNL     1     -12.650  14.728  64.326  1.00  0.00    -0.706 OA 
BRANCH   7  10
HETATM   10  C   UNL     1     -11.697  13.596  66.233  1.00  0.00    -0.396 A  
HETATM   11  C   UNL     1     -11.785  12.291  66.746  1.00  0.00    -0.411 A  
HETATM   12  C   UNL     1     -11.880  12.091  68.120  1.00  0.00    -0.286 A  
HETATM   13  O   UNL     1     -11.984  10.839  68.663  1.00  0.00    -0.672 OA 
HETATM   14  C   UNL     1     -11.877  13.175  68.993  1.00  0.00    -0.313 A  
HETATM   15  H   UNL     1     -12.048  10.703  69.600  1.00  0.00     0.000 HD 
HETATM   16  C   UNL     1     -11.776  14.470  68.513  1.00  0.00    -0.353 A  
HETATM   17  O   UNL     1     -11.983  12.967  70.338  1.00  0.00    -0.457 OA 
HETATM   18  C   UNL     1     -11.685  14.680  67.135  1.00  0.00    -0.392 A  
HETATM   19  H   UNL     1     -11.982  13.707  70.933  1.00  0.00     0.000 HD 
ENDBRANCH   7  10
ENDBRANCH   6   7
ENDBRANCH   4   6
ENDBRANCH   2   4
TORSDOF 4
ENDMDL
MODEL       37
REMARK 921   NORMALIZED FREE ENERGY PREDICTED BY IDOCK:   -5.20 KCAL/MOL
REMARK 922        TOTAL FREE ENERGY PREDICTED BY IDOCK:   -6.70 KCAL/MOL
REMARK 923 INTER-LIGAND FREE ENERGY PREDICTED BY IDOCK:   -6.28 KCAL/MOL
REMARK 924 INTRA-LIGAND FREE ENERGY PREDICTED BY IDOCK:   -0.43 KCAL/MOL
REMARK 927      BINDING AFFINITY PREDICTED BY RF-SCORE:    0.00 PKD
ROOT
HETATM    1  C   UNL     1     -12.830  11.657  63.459  1.00  0.00    -0.189 C  
HETATM    2  C   UNL     1     -11.829  12.693  63.979  1.00  0.00    -0.431 C  
HETATM    3  C   UNL     1     -10.422  12.320  63.506  1.00  0.00    -0.459 C  
ENDROOT
BRANCH   2   4
HETATM    4  N   UNL     1     -12.245  14.016  63.500  1.00  0.00    -1.079 NA 
HETATM    5  H   UNL     1     -13.118  13.949  62.976  1.00  0.00     0.000 HD 
BRANCH   4   6
HETATM    6  C   UNL     1     -12.356  15.028  64.562  1.00  0.00    -0.262 C  
BRANCH   6   7
HETATM    7  C   UNL     1     -11.036  15.827  64.719  1.00  0.00    -0.393 C  
HETATM    8  H   UNL     1     -10.447  17.720  64.624  1.00  0.00     0.000 HD 
HETATM    9  O   UNL     1     -11.255  17.230  64.528  1.00  0.00    -1.083 OA 
BRANCH   7  10
HETATM   10  C   UNL     1     -10.396  15.585  66.071  1.00  0.00    -0.342 A  
HETATM   11  C   UNL     1     -10.931  14.670  66.995  1.00  0.00    -0.317 A  
HETATM   12  C   UNL     1     -10.303  14.476  68.221  1.00  0.00    -0.236 A  
HETATM   13  O   UNL     1     -10.797  13.608  69.157  1.00  0.00    -0.341 OA 
HETATM   14  C   UNL     1      -9.141  15.174  68.538  1.00  0.00    -0.191 A  
HETATM   15  H   UNL     1     -10.368  13.476  69.994  1.00  0.00     0.000 HD 
HETATM   16  C   UNL     1      -8.586  16.068  67.639  1.00  0.00    -0.175 A  
HETATM   17  O   UNL     1      -8.541  14.984  69.749  1.00  0.00    -0.447 OA 
HETATM   18  C   UNL     1      -9.212  16.273  66.406  1.00  0.00    -0.332 A  
HETATM   19  H   UNL     1      -7.748  15.461  69.965  1.00  0.00     0.000 HD 
ENDBRANCH   7  10
ENDBRANCH   6   7
ENDBRANCH   4   6
ENDBRANCH   2   4
TORSDOF 4
ENDMDL
MODEL       38
REMARK 921   NORMALIZED FREE ENERGY PREDICTED BY IDOCK:   -5.19 KCAL/MOL
REMARK 922        TOTAL FREE ENERGY PREDICTED BY IDOCK:   -6.70 KCAL/MOL
REMARK 923 INTER-LIGAND FREE ENERGY PREDICTED BY IDOCK:   -6.38 KCAL/MOL
REMARK 924 INTRA-LIGAND FREE ENERGY PREDICTED BY IDOCK:   -0.32 KCAL/MOL
REMARK 927      BINDING AFFINITY PREDICTED BY RF-SCORE:    0.00 PKD
ROOT
HETATM    1  C   UNL     1     -12.545  13.089  65.421  1.00  0.00    -0.481 C  
HETATM    2  C   UNL     1     -11.749  12.460  66.568  1.00  0.00    -0.379 C  
HETATM    3  C   UNL     1     -10.721  11.482  65.994  1.00  0.00    -0.332 C  
ENDROOT
BRANCH   2   4
HETATM    4  N   UNL     1     -11.121  13.539  67.339  1.00  0.00    -0.275 NA 
HETATM    5  H   UNL     1     -11.740  14.348  67.393  1.00  0.00     0.000 HD 
BRANCH   4   6
HETATM    6  C   UNL     1     -10.682  13.134  68.684  1.00  0.00    -0.250 C  
BRANCH   6   7
HETATM    7  C   UNL     1     -11.857  12.544  69.506  1.00  0.00    -0.310 C  
HETATM    8  H   UNL     1     -12.228  10.910  70.571  1.00  0.00     0.000 HD 
HETATM    9  O   UNL     1     -11.508  11.272  70.066  1.00  0.00    -0.293 OA 
BRANCH   7  10
HETATM   10  C   UNL     1     -12.294  13.489  70.608  1.00  0.00    -0.432 A  
HETATM   11  C   UNL     1     -11.787  14.796  70.712  1.00  0.00    -0.370 A  
HETATM   12  C   UNL     1     -12.225  15.629  71.736  1.00  0.00    -0.421 A  
HETATM   13  O   UNL     1     -11.747  16.903  71.886  1.00  0.00    -0.534 OA 
HETATM   14  C   UNL     1     -13.171  15.183  72.655  1.00  0.00    -0.437 A  
HETATM   15  H   UNL     1     -12.046  17.472  72.585  1.00  0.00     0.000 HD 
HETATM   16  C   UNL     1     -13.697  13.906  72.564  1.00  0.00    -0.665 A  
HETATM   17  O   UNL     1     -13.584  16.006  73.662  1.00  0.00    -0.841 OA 
HETATM   18  C   UNL     1     -13.260  13.060  71.541  1.00  0.00    -0.360 A  
HETATM   19  H   UNL     1     -14.229  15.701  74.289  1.00  0.00     0.000 HD 
ENDBRANCH   7  10
ENDBRANCH   6   7
ENDBRANCH   4   6
ENDBRANCH   2   4
TORSDOF 4
ENDMDL
MODEL       39
REMARK 921   NORMALIZED FREE ENERGY PREDICTED BY IDOCK:   -5.19 KCAL/MOL
REMARK 922        TOTAL FREE ENERGY PREDICTED BY IDOCK:   -6.69 KCAL/MOL
REMARK 923 INTER-LIGAND FREE ENERGY PREDICTED BY IDOCK:   -6.42 KCAL/MOL
REMARK 924 INTRA-LIGAND FREE ENERGY PREDICTED BY IDOCK:   -0.28 KCAL/MOL
REMARK 927      BINDING AFFINITY PREDICTED BY RF-SCORE:    0.00 PKD
ROOT
HETATM    1  C   UNL     1     -12.213  14.335  65.144  1.00  0.00    -0.422 C  
HETATM    2  C   UNL     1     -12.483  12.832  65.033  1.00  0.00    -0.506 C  
HETATM    3  C   UNL     1     -11.556  12.229  63.974  1.00  0.00    -0.495 C  
ENDROOT
BRANCH   2   4
HETATM    4  N   UNL     1     -12.283  12.229  66.355  1.00  0.00    -0.536 NA 
HETATM    5  H   UNL     1     -12.193  11.215  66.277  1.00  0.00     0.000 HD 
BRANCH   4   6
HETATM    6  C   UNL     1     -11.148  12.792  67.103  1.00  0.00    -0.277 C  
BRANCH   6   7
HETATM    7  C   UNL     1     -10.808  11.929  68.346  1.00  0.00    -0.228 C  
HETATM    8  H   UNL     1      -9.211  11.507  69.446  1.00  0.00     0.000 HD 
HETATM    9  O   UNL     1      -9.420  12.036  68.685  1.00  0.00    -0.163 OA 
BRANCH   7  10
HETATM   10  C   UNL     1     -11.661  12.311  69.539  1.00  0.00    -0.398 A  
HETATM   11  C   UNL     1     -12.126  11.355  70.459  1.00  0.00    -0.487 A  
HETATM   12  C   UNL     1     -12.899  11.755  71.543  1.00  0.00    -0.345 A  
HETATM   13  O   UNL     1     -13.387  10.858  72.454  1.00  0.00    -0.600 OA 
HETATM   14  C   UNL     1     -13.209  13.099  71.733  1.00  0.00    -0.403 A  
HETATM   15  H   UNL     1     -13.915  11.130  73.195  1.00  0.00     0.000 HD 
HETATM   16  C   UNL     1     -12.750  14.061  70.850  1.00  0.00    -0.420 A  
HETATM   17  O   UNL     1     -13.979  13.478  72.794  1.00  0.00    -0.733 OA 
HETATM   18  C   UNL     1     -11.976  13.668  69.755  1.00  0.00    -0.404 A  
HETATM   19  H   UNL     1     -14.190  14.395  72.922  1.00  0.00     0.000 HD 
ENDBRANCH   7  10
ENDBRANCH   6   7
ENDBRANCH   4   6
ENDBRANCH   2   4
TORSDOF 4
ENDMDL
MODEL       40
REMARK 921   NORMALIZED FREE ENERGY PREDICTED BY IDOCK:   -5.17 KCAL/MOL
REMARK 922        TOTAL FREE ENERGY PREDICTED BY IDOCK:   -6.67 KCAL/MOL
REMARK 923 INTER-LIGAND FREE ENERGY PREDICTED BY IDOCK:   -6.30 KCAL/MOL
REMARK 924 INTRA-LIGAND FREE ENERGY PREDICTED BY IDOCK:   -0.37 KCAL/MOL
REMARK 927      BINDING AFFINITY PREDICTED BY RF-SCORE:    0.00 PKD
ROOT
HETATM    1  C   UNL     1     -11.699  14.375  64.622  1.00  0.00    -0.438 C  
HETATM    2  C   UNL     1     -12.307  13.536  65.750  1.00  0.00    -0.468 C  
HETATM    3  C   UNL     1     -11.468  12.270  65.947  1.00  0.00    -0.428 C  
ENDROOT
BRANCH   2   4
HETATM    4  N   UNL     1     -12.359  14.362  66.962  1.00  0.00    -0.561 NA 
HETATM    5  H   UNL     1     -13.209  14.167  67.492  1.00  0.00     0.000 HD 
BRANCH   4   6
HETATM    6  C   UNL     1     -11.173  14.235  67.823  1.00  0.00    -0.291 C  
BRANCH   6   7
HETATM    7  C   UNL     1     -11.488  14.657  69.282  1.00  0.00    -0.291 C  
HETATM    8  H   UNL     1     -12.577  16.033  70.208  1.00  0.00     0.000 HD 
HETATM    9  O   UNL     1     -12.384  15.775  69.315  1.00  0.00    -0.227 OA 
BRANCH   7  10
HETATM   10  C   UNL     1     -12.070  13.507  70.080  1.00  0.00    -0.425 A  
HETATM   11  C   UNL     1     -11.825  12.165  69.740  1.00  0.00    -0.397 A  
HETATM   12  C   UNL     1     -12.375  11.144  70.508  1.00  0.00    -0.364 A  
HETATM   13  O   UNL     1     -12.176   9.824  70.205  1.00  0.00    -0.470 OA 
HETATM   14  C   UNL     1     -13.159  11.440  71.619  1.00  0.00    -0.393 A  
HETATM   15  H   UNL     1     -12.551   9.127  70.729  1.00  0.00     0.000 HD 
HETATM   16  C   UNL     1     -13.402  12.753  71.984  1.00  0.00    -0.565 A  
HETATM   17  O   UNL     1     -13.703  10.429  72.358  1.00  0.00    -0.545 OA 
HETATM   18  C   UNL     1     -12.857  13.785  71.216  1.00  0.00    -0.434 A  
HETATM   19  H   UNL     1     -14.238  10.631  73.116  1.00  0.00     0.000 HD 
ENDBRANCH   7  10
ENDBRANCH   6   7
ENDBRANCH   4   6
ENDBRANCH   2   4
TORSDOF 4
ENDMDL
MODEL       41
REMARK 921   NORMALIZED FREE ENERGY PREDICTED BY IDOCK:   -5.17 KCAL/MOL
REMARK 922        TOTAL FREE ENERGY PREDICTED BY IDOCK:   -6.67 KCAL/MOL
REMARK 923 INTER-LIGAND FREE ENERGY PREDICTED BY IDOCK:   -6.17 KCAL/MOL
REMARK 924 INTRA-LIGAND FREE ENERGY PREDICTED BY IDOCK:   -0.49 KCAL/MOL
REMARK 927      BINDING AFFINITY PREDICTED BY RF-SCORE:    0.00 PKD
ROOT
HETATM    1  C   UNL     1     -10.453  10.803  64.331  1.00  0.00    -0.344 C  
HETATM    2  C   UNL     1     -10.938  11.962  63.456  1.00  0.00    -0.432 C  
HETATM    3  C   UNL     1     -12.460  12.081  63.570  1.00  0.00    -0.654 C  
ENDROOT
BRANCH   2   4
HETATM    4  N   UNL     1     -10.250  13.184  63.888  1.00  0.00    -0.744 NA 
HETATM    5  H   UNL     1      -9.929  13.720  63.081  1.00  0.00     0.000 HD 
BRANCH   4   6
HETATM    6  C   UNL     1     -11.049  14.033  64.786  1.00  0.00    -0.387 C  
BRANCH   6   7
HETATM    7  C   UNL     1     -10.234  14.453  66.037  1.00  0.00    -0.315 C  
HETATM    8  H   UNL     1      -9.616  16.137  66.888  1.00  0.00     0.000 HD 
HETATM    9  O   UNL     1     -10.116  15.879  66.121  1.00  0.00    -0.275 OA 
BRANCH   7  10
HETATM   10  C   UNL     1     -10.852  13.912  67.311  1.00  0.00    -0.292 A  
HETATM   11  C   UNL     1     -11.285  12.579  67.420  1.00  0.00    -0.344 A  
HETATM   12  C   UNL     1     -11.839  12.126  68.614  1.00  0.00    -0.306 A  
HETATM   13  O   UNL     1     -12.289  10.842  68.760  1.00  0.00    -0.812 OA 
HETATM   14  C   UNL     1     -11.958  12.980  69.706  1.00  0.00    -0.308 A  
HETATM   15  H   UNL     1     -12.667  10.532  69.574  1.00  0.00     0.000 HD 
HETATM   16  C   UNL     1     -11.525  14.293  69.628  1.00  0.00    -0.334 A  
HETATM   17  O   UNL     1     -12.514  12.527  70.867  1.00  0.00    -0.365 OA 
HETATM   18  C   UNL     1     -10.971  14.757  68.433  1.00  0.00    -0.259 A  
HETATM   19  H   UNL     1     -12.596  13.111  71.613  1.00  0.00     0.000 HD 
ENDBRANCH   7  10
ENDBRANCH   6   7
ENDBRANCH   4   6
ENDBRANCH   2   4
TORSDOF 4
ENDMDL
MODEL       42
REMARK 921   NORMALIZED FREE ENERGY PREDICTED BY IDOCK:   -5.11 KCAL/MOL
REMARK 922        TOTAL FREE ENERGY PREDICTED BY IDOCK:   -6.60 KCAL/MOL
REMARK 923 INTER-LIGAND FREE ENERGY PREDICTED BY IDOCK:   -6.05 KCAL/MOL
REMARK 924 INTRA-LIGAND FREE ENERGY PREDICTED BY IDOCK:   -0.55 KCAL/MOL
REMARK 927      BINDING AFFINITY PREDICTED BY RF-SCORE:    0.00 PKD
ROOT
HETATM    1  C   UNL     1     -10.141  10.468  64.949  1.00  0.00    -0.403 C  
HETATM    2  C   UNL     1      -9.395  10.113  66.238  1.00  0.00    -0.172 C  
HETATM    3  C   UNL     1      -8.100  10.926  66.315  1.00  0.00    -0.165 C  
ENDROOT
BRANCH   2   4
HETATM    4  N   UNL     1     -10.286  10.378  67.373  1.00  0.00    -0.214 NA 
HETATM    5  H   UNL     1     -10.124   9.703  68.122  1.00  0.00     0.000 HD 
BRANCH   4   6
HETATM    6  C   UNL     1     -10.202  11.753  67.890  1.00  0.00    -0.191 C  
BRANCH   6   7
HETATM    7  C   UNL     1     -11.563  12.486  67.765  1.00  0.00    -0.343 C  
HETATM    8  H   UNL     1     -12.785  13.521  68.938  1.00  0.00     0.000 HD 
HETATM    9  O   UNL     1     -11.951  13.071  69.014  1.00  0.00    -0.303 OA 
BRANCH   7  10
HETATM   10  C   UNL     1     -11.525  13.551  66.687  1.00  0.00    -0.366 A  
HETATM   11  C   UNL     1     -10.683  14.672  66.778  1.00  0.00    -0.301 A  
HETATM   12  C   UNL     1     -10.677  15.619  65.759  1.00  0.00    -0.341 A  
HETATM   13  O   UNL     1      -9.886  16.734  65.813  1.00  0.00    -0.505 OA 
HETATM   14  C   UNL     1     -11.492  15.460  64.642  1.00  0.00    -0.337 A  
HETATM   15  H   UNL     1      -9.881  17.381  65.117  1.00  0.00     0.000 HD 
HETATM   16  C   UNL     1     -12.319  14.356  64.522  1.00  0.00    -0.440 A  
HETATM   17  O   UNL     1     -11.487  16.402  63.655  1.00  0.00    -1.446 OA 
HETATM   18  C   UNL     1     -12.335  13.402  65.542  1.00  0.00    -0.528 A  
HETATM   19  H   UNL     1     -12.044  16.293  62.893  1.00  0.00     0.000 HD 
ENDBRANCH   7  10
ENDBRANCH   6   7
ENDBRANCH   4   6
ENDBRANCH   2   4
TORSDOF 4
ENDMDL
MODEL       43
REMARK 921   NORMALIZED FREE ENERGY PREDICTED BY IDOCK:   -5.11 KCAL/MOL
REMARK 922        TOTAL FREE ENERGY PREDICTED BY IDOCK:   -6.59 KCAL/MOL
REMARK 923 INTER-LIGAND FREE ENERGY PREDICTED BY IDOCK:   -6.33 KCAL/MOL
REMARK 924 INTRA-LIGAND FREE ENERGY PREDICTED BY IDOCK:   -0.26 KCAL/MOL
REMARK 927      BINDING AFFINITY PREDICTED BY RF-SCORE:    0.00 PKD
ROOT
HETATM    1  C   UNL     1     -12.099  14.285  64.392  1.00  0.00    -0.490 C  
HETATM    2  C   UNL     1     -12.241  12.803  64.753  1.00  0.00    -0.459 C  
HETATM    3  C   UNL     1     -12.239  11.967  63.470  1.00  0.00    -0.653 C  
ENDROOT
BRANCH   2   4
HETATM    4  N   UNL     1     -11.141  12.441  65.654  1.00  0.00    -0.295 NA 
HETATM    5  H   UNL     1     -10.461  13.200  65.713  1.00  0.00     0.000 HD 
BRANCH   4   6
HETATM    6  C   UNL     1     -11.580  12.034  66.998  1.00  0.00    -0.317 C  
BRANCH   6   7
HETATM    7  C   UNL     1     -10.799  12.797  68.101  1.00  0.00    -0.228 C  
HETATM    8  H   UNL     1      -9.820  14.514  68.284  1.00  0.00     0.000 HD 
HETATM    9  O   UNL     1     -10.298  14.046  67.609  1.00  0.00    -0.239 OA 
BRANCH   7  10
HETATM   10  C   UNL     1     -11.656  13.033  69.328  1.00  0.00    -0.367 A  
HETATM   11  C   UNL     1     -12.226  14.287  69.608  1.00  0.00    -0.371 A  
HETATM   12  C   UNL     1     -13.013  14.452  70.744  1.00  0.00    -0.326 A  
HETATM   13  O   UNL     1     -13.574  15.658  71.065  1.00  0.00    -0.708 OA 
HETATM   14  C   UNL     1     -13.250  13.381  71.601  1.00  0.00    -0.364 A  
HETATM   15  H   UNL     1     -14.111  15.772  71.840  1.00  0.00     0.000 HD 
HETATM   16  C   UNL     1     -12.713  12.133  71.338  1.00  0.00    -0.368 A  
HETATM   17  O   UNL     1     -14.014  13.560  72.718  1.00  0.00    -0.733 OA 
HETATM   18  C   UNL     1     -11.918  11.958  70.203  1.00  0.00    -0.413 A  
HETATM   19  H   UNL     1     -14.175  12.829  73.303  1.00  0.00     0.000 HD 
ENDBRANCH   7  10
ENDBRANCH   6   7
ENDBRANCH   4   6
ENDBRANCH   2   4
TORSDOF 4
ENDMDL
MODEL       44
REMARK 921   NORMALIZED FREE ENERGY PREDICTED BY IDOCK:   -5.06 KCAL/MOL
REMARK 922        TOTAL FREE ENERGY PREDICTED BY IDOCK:   -6.54 KCAL/MOL
REMARK 923 INTER-LIGAND FREE ENERGY PREDICTED BY IDOCK:   -6.28 KCAL/MOL
REMARK 924 INTRA-LIGAND FREE ENERGY PREDICTED BY IDOCK:   -0.26 KCAL/MOL
REMARK 927      BINDING AFFINITY PREDICTED BY RF-SCORE:    0.00 PKD
ROOT
HETATM    1  C   UNL     1      -8.651  17.268  68.629  1.00  0.00    -0.265 C  
HETATM    2  C   UNL     1     -10.118  17.689  68.763  1.00  0.00    -0.377 C  
HETATM    3  C   UNL     1     -10.493  18.597  67.589  1.00  0.00    -0.468 C  
ENDROOT
BRANCH   2   4
HETATM    4  N   UNL     1     -10.942  16.476  68.814  1.00  0.00    -0.333 NA 
HETATM    5  H   UNL     1     -11.862  16.685  69.203  1.00  0.00     0.000 HD 
BRANCH   4   6
HETATM    6  C   UNL     1     -11.072  15.788  67.520  1.00  0.00    -0.258 C  
BRANCH   6   7
HETATM    7  C   UNL     1     -10.688  14.290  67.638  1.00  0.00    -0.258 C  
HETATM    8  H   UNL     1     -11.144  12.746  68.799  1.00  0.00     0.000 HD 
HETATM    9  O   UNL     1     -11.379  13.664  68.726  1.00  0.00    -0.253 OA 
BRANCH   7  10
HETATM   10  C   UNL     1     -10.969  13.541  66.350  1.00  0.00    -0.297 A  
HETATM   11  C   UNL     1     -11.577  14.161  65.246  1.00  0.00    -0.341 A  
HETATM   12  C   UNL     1     -11.807  13.434  64.082  1.00  0.00    -0.442 A  
HETATM   13  O   UNL     1     -12.411  13.992  62.988  1.00  0.00    -1.101 OA 
HETATM   14  C   UNL     1     -11.429  12.097  63.999  1.00  0.00    -0.411 A  
HETATM   15  H   UNL     1     -12.568  13.496  62.194  1.00  0.00     0.000 HD 
HETATM   16  C   UNL     1     -10.814  11.468  65.068  1.00  0.00    -0.336 A  
HETATM   17  O   UNL     1     -11.671  11.391  62.856  1.00  0.00    -0.856 OA 
HETATM   18  C   UNL     1     -10.583  12.189  66.242  1.00  0.00    -0.285 A  
HETATM   19  H   UNL     1     -11.413  10.478  62.800  1.00  0.00     0.000 HD 
ENDBRANCH   7  10
ENDBRANCH   6   7
ENDBRANCH   4   6
ENDBRANCH   2   4
TORSDOF 4
ENDMDL
MODEL       45
REMARK 921   NORMALIZED FREE ENERGY PREDICTED BY IDOCK:   -5.06 KCAL/MOL
REMARK 922        TOTAL FREE ENERGY PREDICTED BY IDOCK:   -6.54 KCAL/MOL
REMARK 923 INTER-LIGAND FREE ENERGY PREDICTED BY IDOCK:   -6.32 KCAL/MOL
REMARK 924 INTRA-LIGAND FREE ENERGY PREDICTED BY IDOCK:   -0.22 KCAL/MOL
REMARK 927      BINDING AFFINITY PREDICTED BY RF-SCORE:    0.00 PKD
ROOT
HETATM    1  C   UNL     1     -10.525   8.592  69.159  1.00  0.00    -0.223 C  
HETATM    2  C   UNL     1     -11.153   9.458  70.254  1.00  0.00    -0.257 C  
HETATM    3  C   UNL     1     -10.607   9.026  71.617  1.00  0.00    -0.434 C  
ENDROOT
BRANCH   2   4
HETATM    4  N   UNL     1     -10.857  10.864  69.956  1.00  0.00    -0.465 NA 
HETATM    5  H   UNL     1     -10.020  11.168  70.454  1.00  0.00     0.000 HD 
BRANCH   4   6
HETATM    6  C   UNL     1     -10.739  11.158  68.519  1.00  0.00    -0.201 C  
BRANCH   6   7
HETATM    7  C   UNL     1     -10.463  12.664  68.273  1.00  0.00    -0.239 C  
HETATM    8  H   UNL     1      -8.897  13.883  68.245  1.00  0.00     0.000 HD 
HETATM    9  O   UNL     1      -9.066  12.961  68.396  1.00  0.00    -0.190 OA 
BRANCH   7  10
HETATM   10  C   UNL     1     -10.965  13.106  66.912  1.00  0.00    -0.295 A  
HETATM   11  C   UNL     1     -10.562  14.320  66.329  1.00  0.00    -0.291 A  
HETATM   12  C   UNL     1     -11.044  14.679  65.074  1.00  0.00    -0.394 A  
HETATM   13  O   UNL     1     -10.693  15.858  64.475  1.00  0.00    -0.794 OA 
HETATM   14  C   UNL     1     -11.915  13.839  64.385  1.00  0.00    -0.445 A  
HETATM   15  H   UNL     1     -11.021  16.103  63.618  1.00  0.00     0.000 HD 
HETATM   16  C   UNL     1     -12.313  12.632  64.932  1.00  0.00    -0.563 A  
HETATM   17  O   UNL     1     -12.390  14.209  63.160  1.00  0.00    -1.125 OA 
HETATM   18  C   UNL     1     -11.838  12.265  66.193  1.00  0.00    -0.398 A  
HETATM   19  H   UNL     1     -12.985  13.636  62.691  1.00  0.00     0.000 HD 
ENDBRANCH   7  10
ENDBRANCH   6   7
ENDBRANCH   4   6
ENDBRANCH   2   4
TORSDOF 4
ENDMDL
MODEL       46
REMARK 921   NORMALIZED FREE ENERGY PREDICTED BY IDOCK:   -5.06 KCAL/MOL
REMARK 922        TOTAL FREE ENERGY PREDICTED BY IDOCK:   -6.53 KCAL/MOL
REMARK 923 INTER-LIGAND FREE ENERGY PREDICTED BY IDOCK:   -6.05 KCAL/MOL
REMARK 924 INTRA-LIGAND FREE ENERGY PREDICTED BY IDOCK:   -0.47 KCAL/MOL
REMARK 927      BINDING AFFINITY PREDICTED BY RF-SCORE:    0.00 PKD
ROOT
HETATM    1  C   UNL     1      -8.759   9.951  63.625  1.00  0.00    -0.225 C  
HETATM    2  C   UNL     1      -9.859  10.368  64.605  1.00  0.00    -0.338 C  
HETATM    3  C   UNL     1      -9.271  11.319  65.652  1.00  0.00    -0.231 C  
ENDROOT
BRANCH   2   4
HETATM    4  N   UNL     1     -10.947  10.986  63.840  1.00  0.00    -0.477 NA 
HETATM    5  H   UNL     1     -11.834  10.891  64.337  1.00  0.00     0.000 HD 
BRANCH   4   6
HETATM    6  C   UNL     1     -10.703  12.393  63.486  1.00  0.00    -0.430 C  
BRANCH   6   7
HETATM    7  C   UNL     1     -11.898  13.293  63.894  1.00  0.00    -0.465 C  
HETATM    8  H   UNL     1     -13.807  13.063  64.385  1.00  0.00     0.000 HD 
HETATM    9  O   UNL     1     -13.075  12.512  64.135  1.00  0.00    -0.751 OA 
BRANCH   7  10
HETATM   10  C   UNL     1     -11.574  14.127  65.118  1.00  0.00    -0.344 A  
HETATM   11  C   UNL     1     -12.196  13.901  66.358  1.00  0.00    -0.487 A  
HETATM   12  C   UNL     1     -11.859  14.688  67.455  1.00  0.00    -0.347 A  
HETATM   13  O   UNL     1     -12.450  14.515  68.677  1.00  0.00    -0.584 OA 
HETATM   14  C   UNL     1     -10.902  15.692  67.338  1.00  0.00    -0.315 A  
HETATM   15  H   UNL     1     -12.221  15.051  69.426  1.00  0.00     0.000 HD 
HETATM   16  C   UNL     1     -10.264  15.923  66.131  1.00  0.00    -0.340 A  
HETATM   17  O   UNL     1     -10.589  16.464  68.418  1.00  0.00    -0.278 OA 
HETATM   18  C   UNL     1     -10.599  15.141  65.023  1.00  0.00    -0.439 A  
HETATM   19  H   UNL     1      -9.937  17.150  68.338  1.00  0.00     0.000 HD 
ENDBRANCH   7  10
ENDBRANCH   6   7
ENDBRANCH   4   6
ENDBRANCH   2   4
TORSDOF 4
ENDMDL
MODEL       47
REMARK 921   NORMALIZED FREE ENERGY PREDICTED BY IDOCK:   -5.04 KCAL/MOL
REMARK 922        TOTAL FREE ENERGY PREDICTED BY IDOCK:   -6.51 KCAL/MOL
REMARK 923 INTER-LIGAND FREE ENERGY PREDICTED BY IDOCK:   -6.26 KCAL/MOL
REMARK 924 INTRA-LIGAND FREE ENERGY PREDICTED BY IDOCK:   -0.25 KCAL/MOL
REMARK 927      BINDING AFFINITY PREDICTED BY RF-SCORE:    0.00 PKD
ROOT
HETATM    1  C   UNL     1     -12.455  12.593  64.988  1.00  0.00    -0.556 C  
HETATM    2  C   UNL     1     -11.650  12.815  66.272  1.00  0.00    -0.379 C  
HETATM    3  C   UNL     1     -11.608  14.312  66.590  1.00  0.00    -0.397 C  
ENDROOT
BRANCH   2   4
HETATM    4  N   UNL     1     -12.274  12.035  67.347  1.00  0.00    -0.379 NA 
HETATM    5  H   UNL     1     -13.125  11.582  67.014  1.00  0.00     0.000 HD 
BRANCH   4   6
HETATM    6  C   UNL     1     -11.374  11.051  67.970  1.00  0.00    -0.306 C  
BRANCH   6   7
HETATM    7  C   UNL     1     -11.223  11.310  69.492  1.00  0.00    -0.272 C  
HETATM    8  H   UNL     1     -11.893  12.612  70.832  1.00  0.00     0.000 HD 
HETATM    9  O   UNL     1     -11.985  12.453  69.900  1.00  0.00    -0.322 OA 
BRANCH   7  10
HETATM   10  C   UNL     1     -11.636  10.099  70.305  1.00  0.00    -0.379 A  
HETATM   11  C   UNL     1     -12.633  10.171  71.292  1.00  0.00    -0.508 A  
HETATM   12  C   UNL     1     -12.984   9.030  72.008  1.00  0.00    -0.407 A  
HETATM   13  O   UNL     1     -13.937   9.056  72.989  1.00  0.00    -1.039 OA 
HETATM   14  C   UNL     1     -12.361   7.813  71.746  1.00  0.00    -0.317 A  
HETATM   15  H   UNL     1     -14.177   8.278  73.477  1.00  0.00     0.000 HD 
HETATM   16  C   UNL     1     -11.386   7.714  70.767  1.00  0.00    -0.296 A  
HETATM   17  O   UNL     1     -12.705   6.704  72.463  1.00  0.00    -0.489 OA 
HETATM   18  C   UNL     1     -11.025   8.855  70.047  1.00  0.00    -0.217 A  
HETATM   19  H   UNL     1     -12.279   5.874  72.284  1.00  0.00     0.000 HD 
ENDBRANCH   7  10
ENDBRANCH   6   7
ENDBRANCH   4   6
ENDBRANCH   2   4
TORSDOF 4
ENDMDL
MODEL       48
REMARK 921   NORMALIZED FREE ENERGY PREDICTED BY IDOCK:   -5.04 KCAL/MOL
REMARK 922        TOTAL FREE ENERGY PREDICTED BY IDOCK:   -6.51 KCAL/MOL
REMARK 923 INTER-LIGAND FREE ENERGY PREDICTED BY IDOCK:   -6.28 KCAL/MOL
REMARK 924 INTRA-LIGAND FREE ENERGY PREDICTED BY IDOCK:   -0.23 KCAL/MOL
REMARK 927      BINDING AFFINITY PREDICTED BY RF-SCORE:    0.00 PKD
ROOT
HETATM    1  C   UNL     1     -12.304  12.171  63.517  1.00  0.00    -0.682 C  
HETATM    2  C   UNL     1     -12.614  12.768  64.892  1.00  0.00    -0.470 C  
HETATM    3  C   UNL     1     -11.636  12.199  65.924  1.00  0.00    -0.425 C  
ENDROOT
BRANCH   2   4
HETATM    4  N   UNL     1     -12.526  14.230  64.790  1.00  0.00    -0.608 NA 
HETATM    5  H   UNL     1     -13.444  14.654  64.925  1.00  0.00     0.000 HD 
BRANCH   4   6
HETATM    6  C   UNL     1     -11.539  14.833  65.700  1.00  0.00    -0.290 C  
BRANCH   6   7
HETATM    7  C   UNL     1     -10.680  15.900  64.971  1.00  0.00    -0.404 C  
HETATM    8  H   UNL     1     -10.944  17.303  63.592  1.00  0.00     0.000 HD 
HETATM    9  O   UNL     1     -11.470  16.649  64.039  1.00  0.00    -1.192 OA 
BRANCH   7  10
HETATM   10  C   UNL     1     -10.012  16.841  65.953  1.00  0.00    -0.299 A  
HETATM   11  C   UNL     1      -8.639  16.760  66.244  1.00  0.00    -0.340 A  
HETATM   12  C   UNL     1      -8.069  17.652  67.147  1.00  0.00    -0.215 A  
HETATM   13  O   UNL     1      -6.741  17.601  67.473  1.00  0.00    -0.158 OA 
HETATM   14  C   UNL     1      -8.846  18.633  67.758  1.00  0.00    -0.275 A  
HETATM   15  H   UNL     1      -6.351  18.209  68.089  1.00  0.00     0.000 HD 
HETATM   16  C   UNL     1     -10.196  18.742  67.476  1.00  0.00    -0.444 A  
HETATM   17  O   UNL     1      -8.277  19.494  68.651  1.00  0.00    -0.354 OA 
HETATM   18  C   UNL     1     -10.779  17.848  66.573  1.00  0.00    -0.122 A  
HETATM   19  H   UNL     1      -8.808  20.162  69.068  1.00  0.00     0.000 HD 
ENDBRANCH   7  10
ENDBRANCH   6   7
ENDBRANCH   4   6
ENDBRANCH   2   4
TORSDOF 4
ENDMDL
MODEL       49
REMARK 921   NORMALIZED FREE ENERGY PREDICTED BY IDOCK:   -5.03 KCAL/MOL
REMARK 922        TOTAL FREE ENERGY PREDICTED BY IDOCK:   -6.50 KCAL/MOL
REMARK 923 INTER-LIGAND FREE ENERGY PREDICTED BY IDOCK:   -6.16 KCAL/MOL
REMARK 924 INTRA-LIGAND FREE ENERGY PREDICTED BY IDOCK:   -0.34 KCAL/MOL
REMARK 927      BINDING AFFINITY PREDICTED BY RF-SCORE:    0.00 PKD
ROOT
HETATM    1  C   UNL     1     -10.181  19.813  67.783  1.00  0.00    -0.571 C  
HETATM    2  C   UNL     1      -8.848  19.715  67.037  1.00  0.00    -0.317 C  
HETATM    3  C   UNL     1      -7.735  19.369  68.030  1.00  0.00    -0.331 C  
ENDROOT
BRANCH   2   4
HETATM    4  N   UNL     1      -8.984  18.706  65.980  1.00  0.00    -0.481 NA 
HETATM    5  H   UNL     1      -8.088  18.255  65.797  1.00  0.00     0.000 HD 
BRANCH   4   6
HETATM    6  C   UNL     1     -10.024  17.699  66.248  1.00  0.00    -0.318 C  
BRANCH   6   7
HETATM    7  C   UNL     1      -9.416  16.275  66.345  1.00  0.00    -0.294 C  
HETATM    8  H   UNL     1      -8.569  15.132  67.729  1.00  0.00     0.000 HD 
HETATM    9  O   UNL     1      -8.941  16.004  67.670  1.00  0.00    -0.188 OA 
BRANCH   7  10
HETATM   10  C   UNL     1     -10.417  15.214  65.930  1.00  0.00    -0.350 A  
HETATM   11  C   UNL     1     -10.739  14.129  66.762  1.00  0.00    -0.286 A  
HETATM   12  C   UNL     1     -11.669  13.184  66.341  1.00  0.00    -0.379 A  
HETATM   13  O   UNL     1     -12.001  12.103  67.111  1.00  0.00    -0.580 OA 
HETATM   14  C   UNL     1     -12.294  13.312  65.103  1.00  0.00    -0.466 A  
HETATM   15  H   UNL     1     -12.637  11.458  66.824  1.00  0.00     0.000 HD 
HETATM   16  C   UNL     1     -12.006  14.381  64.273  1.00  0.00    -0.433 A  
HETATM   17  O   UNL     1     -13.196  12.372  64.696  1.00  0.00    -0.822 OA 
HETATM   18  C   UNL     1     -11.069  15.331  64.686  1.00  0.00    -0.346 A  
HETATM   19  H   UNL     1     -13.622  12.459  63.851  1.00  0.00     0.000 HD 
ENDBRANCH   7  10
ENDBRANCH   6   7
ENDBRANCH   4   6
ENDBRANCH   2   4
TORSDOF 4
ENDMDL
MODEL       50
REMARK 921   NORMALIZED FREE ENERGY PREDICTED BY IDOCK:   -5.03 KCAL/MOL
REMARK 922        TOTAL FREE ENERGY PREDICTED BY IDOCK:   -6.49 KCAL/MOL
REMARK 923 INTER-LIGAND FREE ENERGY PREDICTED BY IDOCK:   -6.27 KCAL/MOL
REMARK 924 INTRA-LIGAND FREE ENERGY PREDICTED BY IDOCK:   -0.23 KCAL/MOL
REMARK 927      BINDING AFFINITY PREDICTED BY RF-SCORE:    0.00 PKD
ROOT
HETATM    1  C   UNL     1     -10.597   8.170  69.700  1.00  0.00    -0.223 C  
HETATM    2  C   UNL     1      -9.970   9.140  68.694  1.00  0.00    -0.170 C  
HETATM    3  C   UNL     1      -8.764   8.471  68.029  1.00  0.00    -0.142 C  
ENDROOT
BRANCH   2   4
HETATM    4  N   UNL     1     -11.000   9.523  67.721  1.00  0.00    -0.495 NA 
HETATM    5  H   UNL     1     -11.917   9.188  68.018  1.00  0.00     0.000 HD 
BRANCH   4   6
HETATM    6  C   UNL     1     -11.044  10.966  67.435  1.00  0.00    -0.307 C  
BRANCH   6   7
HETATM    7  C   UNL     1     -10.106  11.336  66.256  1.00  0.00    -0.230 C  
HETATM    8  H   UNL     1      -9.503  10.520  64.550  1.00  0.00     0.000 HD 
HETATM    9  O   UNL     1     -10.077  10.294  65.273  1.00  0.00    -0.303 OA 
BRANCH   7  10
HETATM   10  C   UNL     1     -10.516  12.644  65.609  1.00  0.00    -0.298 A  
HETATM   11  C   UNL     1     -11.471  12.698  64.579  1.00  0.00    -0.389 A  
HETATM   12  C   UNL     1     -11.821  13.923  64.022  1.00  0.00    -0.337 A  
HETATM   13  O   UNL     1     -12.733  14.022  63.006  1.00  0.00    -0.891 OA 
HETATM   14  C   UNL     1     -11.239  15.101  64.483  1.00  0.00    -0.272 A  
HETATM   15  H   UNL     1     -12.972  14.858  62.626  1.00  0.00     0.000 HD 
HETATM   16  C   UNL     1     -10.307  15.075  65.507  1.00  0.00    -0.397 A  
HETATM   17  O   UNL     1     -11.581  16.296  63.919  1.00  0.00    -1.489 OA 
HETATM   18  C   UNL     1      -9.947  13.849  66.070  1.00  0.00    -0.325 A  
HETATM   19  H   UNL     1     -11.183  17.099  64.234  1.00  0.00     0.000 HD 
ENDBRANCH   7  10
ENDBRANCH   6   7
ENDBRANCH   4   6
ENDBRANCH   2   4
TORSDOF 4
ENDMDL
MODEL       51
REMARK 921   NORMALIZED FREE ENERGY PREDICTED BY IDOCK:   -5.00 KCAL/MOL
REMARK 922        TOTAL FREE ENERGY PREDICTED BY IDOCK:   -6.46 KCAL/MOL
REMARK 923 INTER-LIGAND FREE ENERGY PREDICTED BY IDOCK:   -6.18 KCAL/MOL
REMARK 924 INTRA-LIGAND FREE ENERGY PREDICTED BY IDOCK:   -0.29 KCAL/MOL
REMARK 927      BINDING AFFINITY PREDICTED BY RF-SCORE:    0.00 PKD
ROOT
HETATM    1  C   UNL     1     -10.357  13.218  64.951  1.00  0.00    -0.368 C  
HETATM    2  C   UNL     1     -11.888  13.207  64.948  1.00  0.00    -0.358 C  
HETATM    3  C   UNL     1     -12.386  12.339  63.789  1.00  0.00    -0.637 C  
ENDROOT
BRANCH   2   4
HETATM    4  N   UNL     1     -12.348  12.712  66.251  1.00  0.00    -0.501 NA 
HETATM    5  H   UNL     1     -13.055  11.986  66.129  1.00  0.00     0.000 HD 
BRANCH   4   6
HETATM    6  C   UNL     1     -11.264  12.238  67.125  1.00  0.00    -0.307 C  
BRANCH   6   7
HETATM    7  C   UNL     1     -11.287  12.965  68.495  1.00  0.00    -0.289 C  
HETATM    8  H   UNL     1     -12.053  14.628  69.261  1.00  0.00     0.000 HD 
HETATM    9  O   UNL     1     -12.038  14.183  68.422  1.00  0.00    -0.344 OA 
BRANCH   7  10
HETATM   10  C   UNL     1     -11.850  12.077  69.587  1.00  0.00    -0.401 A  
HETATM   11  C   UNL     1     -11.705  10.679  69.558  1.00  0.00    -0.356 A  
HETATM   12  C   UNL     1     -12.233   9.906  70.588  1.00  0.00    -0.238 A  
HETATM   13  O   UNL     1     -12.131   8.542  70.593  1.00  0.00    -0.485 OA 
HETATM   14  C   UNL     1     -12.896  10.508  71.654  1.00  0.00    -0.475 A  
HETATM   15  H   UNL     1     -12.491   8.014  71.296  1.00  0.00     0.000 HD 
HETATM   16  C   UNL     1     -13.037  11.884  71.713  1.00  0.00    -0.465 A  
HETATM   17  O   UNL     1     -13.420   9.738  72.652  1.00  0.00    -0.626 OA 
HETATM   18  C   UNL     1     -12.514  12.667  70.682  1.00  0.00    -0.323 A  
HETATM   19  H   UNL     1     -13.872  10.149  73.379  1.00  0.00     0.000 HD 
ENDBRANCH   7  10
ENDBRANCH   6   7
ENDBRANCH   4   6
ENDBRANCH   2   4
TORSDOF 4
ENDMDL
MODEL       52
REMARK 921   NORMALIZED FREE ENERGY PREDICTED BY IDOCK:   -4.97 KCAL/MOL
REMARK 922        TOTAL FREE ENERGY PREDICTED BY IDOCK:   -6.41 KCAL/MOL
REMARK 923 INTER-LIGAND FREE ENERGY PREDICTED BY IDOCK:   -6.08 KCAL/MOL
REMARK 924 INTRA-LIGAND FREE ENERGY PREDICTED BY IDOCK:   -0.34 KCAL/MOL
REMARK 927      BINDING AFFINITY PREDICTED BY RF-SCORE:    0.00 PKD
ROOT
HETATM    1  C   UNL     1     -10.733   8.682  72.221  1.00  0.00    -0.383 C  
HETATM    2  C   UNL     1     -11.998   8.427  71.396  1.00  0.00    -0.297 C  
HETATM    3  C   UNL     1     -13.226   8.847  72.208  1.00  0.00    -0.498 C  
ENDROOT
BRANCH   2   4
HETATM    4  N   UNL     1     -11.883   9.170  70.136  1.00  0.00    -0.460 NA 
HETATM    5  H   UNL     1     -12.795   9.521  69.843  1.00  0.00     0.000 HD 
BRANCH   4   6
HETATM    6  C   UNL     1     -10.896  10.261  70.174  1.00  0.00    -0.302 C  
BRANCH   6   7
HETATM    7  C   UNL     1     -11.330  11.444  69.270  1.00  0.00    -0.289 C  
HETATM    8  H   UNL     1     -12.468  11.727  67.668  1.00  0.00     0.000 HD 
HETATM    9  O   UNL     1     -12.202  11.002  68.222  1.00  0.00    -0.582 OA 
BRANCH   7  10
HETATM   10  C   UNL     1     -12.004  12.539  70.073  1.00  0.00    -0.372 A  
HETATM   11  C   UNL     1     -12.897  12.252  71.120  1.00  0.00    -0.302 A  
HETATM   12  C   UNL     1     -13.485  13.292  71.834  1.00  0.00    -0.438 A  
HETATM   13  O   UNL     1     -14.372  13.060  72.850  1.00  0.00    -0.545 OA 
HETATM   14  C   UNL     1     -13.188  14.617  71.526  1.00  0.00    -0.355 A  
HETATM   15  H   UNL     1     -14.773  13.770  73.337  1.00  0.00     0.000 HD 
HETATM   16  C   UNL     1     -12.300  14.924  70.510  1.00  0.00    -0.400 A  
HETATM   17  O   UNL     1     -13.780  15.628  72.225  1.00  0.00    -0.482 OA 
HETATM   18  C   UNL     1     -11.708  13.887  69.785  1.00  0.00    -0.372 A  
HETATM   19  H   UNL     1     -13.578  16.532  72.015  1.00  0.00     0.000 HD 
ENDBRANCH   7  10
ENDBRANCH   6   7
ENDBRANCH   4   6
ENDBRANCH   2   4
TORSDOF 4
ENDMDL
MODEL       53
REMARK 921   NORMALIZED FREE ENERGY PREDICTED BY IDOCK:   -4.96 KCAL/MOL
REMARK 922        TOTAL FREE ENERGY PREDICTED BY IDOCK:   -6.41 KCAL/MOL
REMARK 923 INTER-LIGAND FREE ENERGY PREDICTED BY IDOCK:   -6.08 KCAL/MOL
REMARK 924 INTRA-LIGAND FREE ENERGY PREDICTED BY IDOCK:   -0.33 KCAL/MOL
REMARK 927      BINDING AFFINITY PREDICTED BY RF-SCORE:    0.00 PKD
ROOT
HETATM    1  C   UNL     1      -8.735   8.927  65.461  1.00  0.00    -0.215 C  
HETATM    2  C   UNL     1      -8.341   9.957  64.399  1.00  0.00    -0.168 C  
HETATM    3  C   UNL     1      -8.708   9.421  63.012  1.00  0.00    -0.225 C  
ENDROOT
BRANCH   2   4
HETATM    4  N   UNL     1      -9.023  11.220  64.705  1.00  0.00    -0.387 NA 
HETATM    5  H   UNL     1      -8.592  11.992  64.197  1.00  0.00     0.000 HD 
BRANCH   4   6
HETATM    6  C   UNL     1     -10.474  11.187  64.465  1.00  0.00    -0.350 C  
BRANCH   6   7
HETATM    7  C   UNL     1     -11.249  11.902  65.603  1.00  0.00    -0.306 C  
HETATM    8  H   UNL     1     -11.424  11.758  67.575  1.00  0.00     0.000 HD 
HETATM    9  O   UNL     1     -10.950  11.320  66.878  1.00  0.00    -0.277 OA 
BRANCH   7  10
HETATM   10  C   UNL     1     -10.949  13.388  65.632  1.00  0.00    -0.292 A  
HETATM   11  C   UNL     1     -11.429  14.264  64.643  1.00  0.00    -0.389 A  
HETATM   12  C   UNL     1     -11.133  15.621  64.717  1.00  0.00    -0.412 A  
HETATM   13  O   UNL     1     -11.565  16.508  63.768  1.00  0.00    -1.617 OA 
HETATM   14  C   UNL     1     -10.374  16.122  65.771  1.00  0.00    -0.378 A  
HETATM   15  H   UNL     1     -11.364  17.434  63.819  1.00  0.00     0.000 HD 
HETATM   16  C   UNL     1      -9.904  15.282  66.766  1.00  0.00    -0.246 A  
HETATM   17  O   UNL     1     -10.081  17.454  65.826  1.00  0.00    -0.544 OA 
HETATM   18  C   UNL     1     -10.192  13.917  66.697  1.00  0.00    -0.276 A  
HETATM   19  H   UNL     1      -9.563  17.796  66.545  1.00  0.00     0.000 HD 
ENDBRANCH   7  10
ENDBRANCH   6   7
ENDBRANCH   4   6
ENDBRANCH   2   4
TORSDOF 4
ENDMDL
MODEL       54
REMARK 921   NORMALIZED FREE ENERGY PREDICTED BY IDOCK:   -4.94 KCAL/MOL
REMARK 922        TOTAL FREE ENERGY PREDICTED BY IDOCK:   -6.38 KCAL/MOL
REMARK 923 INTER-LIGAND FREE ENERGY PREDICTED BY IDOCK:   -6.12 KCAL/MOL
REMARK 924 INTRA-LIGAND FREE ENERGY PREDICTED BY IDOCK:   -0.26 KCAL/MOL
REMARK 927      BINDING AFFINITY PREDICTED BY RF-SCORE:    0.00 PKD
ROOT
HETATM    1  C   UNL     1     -10.658   6.155  70.842  1.00  0.00    -0.298 C  
HETATM    2  C   UNL     1     -11.427   7.325  71.463  1.00  0.00    -0.263 C  
HETATM    3  C   UNL     1     -10.625   7.891  72.637  1.00  0.00    -0.394 C  
ENDROOT
BRANCH   2   4
HETATM    4  N   UNL     1     -11.665   8.327  70.417  1.00  0.00    -0.473 NA 
HETATM    5  H   UNL     1     -12.569   8.171  69.970  1.00  0.00     0.000 HD 
BRANCH   4   6
HETATM    6  C   UNL     1     -11.553   9.717  70.886  1.00  0.00    -0.344 C  
BRANCH   6   7
HETATM    7  C   UNL     1     -12.952  10.363  71.069  1.00  0.00    -0.399 C  
HETATM    8  H   UNL     1     -14.451  10.274  72.367  1.00  0.00     0.000 HD 
HETATM    9  O   UNL     1     -13.594   9.879  72.254  1.00  0.00    -0.402 OA 
BRANCH   7  10
HETATM   10  C   UNL     1     -12.864  11.876  71.113  1.00  0.00    -0.346 A  
HETATM   11  C   UNL     1     -13.447  12.626  72.149  1.00  0.00    -0.561 A  
HETATM   12  C   UNL     1     -13.332  14.012  72.150  1.00  0.00    -0.453 A  
HETATM   13  O   UNL     1     -13.897  14.784  73.128  1.00  0.00    -0.514 OA 
HETATM   14  C   UNL     1     -12.635  14.664  71.137  1.00  0.00    -0.334 A  
HETATM   15  H   UNL     1     -13.819  15.730  73.130  1.00  0.00     0.000 HD 
HETATM   16  C   UNL     1     -12.038  13.947  70.114  1.00  0.00    -0.418 A  
HETATM   17  O   UNL     1     -12.540  16.026  71.142  1.00  0.00    -0.553 OA 
HETATM   18  C   UNL     1     -12.151  12.554  70.102  1.00  0.00    -0.368 A  
HETATM   19  H   UNL     1     -12.064  16.470  70.451  1.00  0.00     0.000 HD 
ENDBRANCH   7  10
ENDBRANCH   6   7
ENDBRANCH   4   6
ENDBRANCH   2   4
TORSDOF 4
ENDMDL
MODEL       55
REMARK 921   NORMALIZED FREE ENERGY PREDICTED BY IDOCK:   -4.92 KCAL/MOL
REMARK 922        TOTAL FREE ENERGY PREDICTED BY IDOCK:   -6.36 KCAL/MOL
REMARK 923 INTER-LIGAND FREE ENERGY PREDICTED BY IDOCK:   -6.03 KCAL/MOL
REMARK 924 INTRA-LIGAND FREE ENERGY PREDICTED BY IDOCK:   -0.33 KCAL/MOL
REMARK 927      BINDING AFFINITY PREDICTED BY RF-SCORE:    0.00 PKD
ROOT
HETATM    1  C   UNL     1     -10.224  15.667  67.792  1.00  0.00    -0.252 C  
HETATM    2  C   UNL     1     -10.204  16.880  68.727  1.00  0.00    -0.311 C  
HETATM    3  C   UNL     1     -10.655  18.122  67.954  1.00  0.00    -0.389 C  
ENDROOT
BRANCH   2   4
HETATM    4  N   UNL     1     -11.074  16.592  69.874  1.00  0.00    -0.420 NA 
HETATM    5  H   UNL     1     -11.591  17.427  70.150  1.00  0.00     0.000 HD 
BRANCH   4   6
HETATM    6  C   UNL     1     -11.992  15.463  69.657  1.00  0.00    -0.343 C  
BRANCH   6   7
HETATM    7  C   UNL     1     -12.411  14.812  71.001  1.00  0.00    -0.330 C  
HETATM    8  H   UNL     1     -13.940  14.908  72.264  1.00  0.00     0.000 HD 
HETATM    9  O   UNL     1     -13.683  15.307  71.440  1.00  0.00    -0.462 OA 
BRANCH   7  10
HETATM   10  C   UNL     1     -12.453  13.301  70.899  1.00  0.00    -0.424 A  
HETATM   11  C   UNL     1     -13.074  12.505  71.877  1.00  0.00    -0.473 A  
HETATM   12  C   UNL     1     -13.095  11.122  71.735  1.00  0.00    -0.431 A  
HETATM   13  O   UNL     1     -13.673  10.307  72.670  1.00  0.00    -0.536 OA 
HETATM   14  C   UNL     1     -12.513  10.517  70.624  1.00  0.00    -0.366 A  
HETATM   15  H   UNL     1     -13.687   9.363  72.573  1.00  0.00     0.000 HD 
HETATM   16  C   UNL     1     -11.910  11.280  69.639  1.00  0.00    -0.430 A  
HETATM   17  O   UNL     1     -12.529   9.158  70.502  1.00  0.00    -0.487 OA 
HETATM   18  C   UNL     1     -11.881  12.670  69.775  1.00  0.00    -0.379 A  
HETATM   19  H   UNL     1     -12.132   8.746  69.743  1.00  0.00     0.000 HD 
ENDBRANCH   7  10
ENDBRANCH   6   7
ENDBRANCH   4   6
ENDBRANCH   2   4
TORSDOF 4
ENDMDL
MODEL       56
REMARK 921   NORMALIZED FREE ENERGY PREDICTED BY IDOCK:   -4.88 KCAL/MOL
REMARK 922        TOTAL FREE ENERGY PREDICTED BY IDOCK:   -6.31 KCAL/MOL
REMARK 923 INTER-LIGAND FREE ENERGY PREDICTED BY IDOCK:   -6.06 KCAL/MOL
REMARK 924 INTRA-LIGAND FREE ENERGY PREDICTED BY IDOCK:   -0.25 KCAL/MOL
REMARK 927      BINDING AFFINITY PREDICTED BY RF-SCORE:    0.00 PKD
ROOT
HETATM    1  C   UNL     1     -10.573   5.899  67.371  1.00  0.00    -0.356 C  
HETATM    2  C   UNL     1      -9.935   7.203  67.859  1.00  0.00    -0.154 C  
HETATM    3  C   UNL     1      -8.555   7.363  67.215  1.00  0.00    -0.118 C  
ENDROOT
BRANCH   2   4
HETATM    4  N   UNL     1     -10.837   8.311  67.525  1.00  0.00    -0.503 NA 
HETATM    5  H   UNL     1     -11.086   8.836  68.364  1.00  0.00     0.000 HD 
BRANCH   4   6
HETATM    6  C   UNL     1     -10.315   9.213  66.486  1.00  0.00    -0.199 C  
BRANCH   6   7
HETATM    7  C   UNL     1     -10.286  10.683  66.980  1.00  0.00    -0.231 C  
HETATM    8  H   UNL     1      -8.929  12.007  67.569  1.00  0.00     0.000 HD 
HETATM    9  O   UNL     1      -8.947  11.106  67.266  1.00  0.00    -0.145 OA 
BRANCH   7  10
HETATM   10  C   UNL     1     -10.918  11.621  65.970  1.00  0.00    -0.338 A  
HETATM   11  C   UNL     1     -11.895  12.562  66.339  1.00  0.00    -0.445 A  
HETATM   12  C   UNL     1     -12.440  13.407  65.377  1.00  0.00    -0.494 A  
HETATM   13  O   UNL     1     -13.405  14.327  65.687  1.00  0.00    -0.659 OA 
HETATM   14  C   UNL     1     -12.017  13.336  64.053  1.00  0.00    -0.465 A  
HETATM   15  H   UNL     1     -13.777  14.904  65.031  1.00  0.00     0.000 HD 
HETATM   16  C   UNL     1     -11.044  12.429  63.669  1.00  0.00    -0.535 A  
HETATM   17  O   UNL     1     -12.568  14.163  63.117  1.00  0.00    -1.058 OA 
HETATM   18  C   UNL     1     -10.495  11.573  64.626  1.00  0.00    -0.356 A  
HETATM   19  H   UNL     1     -12.279  14.114  62.213  1.00  0.00     0.000 HD 
ENDBRANCH   7  10
ENDBRANCH   6   7
ENDBRANCH   4   6
ENDBRANCH   2   4
TORSDOF 4
ENDMDL
MODEL       57
REMARK 921   NORMALIZED FREE ENERGY PREDICTED BY IDOCK:   -4.83 KCAL/MOL
REMARK 922        TOTAL FREE ENERGY PREDICTED BY IDOCK:   -6.25 KCAL/MOL
REMARK 923 INTER-LIGAND FREE ENERGY PREDICTED BY IDOCK:   -5.89 KCAL/MOL
REMARK 924 INTRA-LIGAND FREE ENERGY PREDICTED BY IDOCK:   -0.35 KCAL/MOL
REMARK 927      BINDING AFFINITY PREDICTED BY RF-SCORE:    0.00 PKD
ROOT
HETATM    1  C   UNL     1      -9.850   8.485  71.778  1.00  0.00    -0.339 C  
HETATM    2  C   UNL     1     -10.700   7.668  70.801  1.00  0.00    -0.226 C  
HETATM    3  C   UNL     1     -11.539   6.655  71.585  1.00  0.00    -0.350 C  
ENDROOT
BRANCH   2   4
HETATM    4  N   UNL     1     -11.531   8.596  70.026  1.00  0.00    -0.459 NA 
HETATM    5  H   UNL     1     -12.502   8.283  70.013  1.00  0.00     0.000 HD 
BRANCH   4   6
HETATM    6  C   UNL     1     -11.445   9.994  70.477  1.00  0.00    -0.330 C  
BRANCH   6   7
HETATM    7  C   UNL     1     -12.819  10.509  70.981  1.00  0.00    -0.407 C  
HETATM    8  H   UNL     1     -14.039  10.177  72.511  1.00  0.00     0.000 HD 
HETATM    9  O   UNL     1     -13.197   9.862  72.202  1.00  0.00    -0.438 OA 
BRANCH   7  10
HETATM   10  C   UNL     1     -12.812  12.012  71.175  1.00  0.00    -0.331 A  
HETATM   11  C   UNL     1     -12.154  12.875  70.281  1.00  0.00    -0.377 A  
HETATM   12  C   UNL     1     -12.183  14.249  70.497  1.00  0.00    -0.356 A  
HETATM   13  O   UNL     1     -11.542  15.125  69.663  1.00  0.00    -0.272 OA 
HETATM   14  C   UNL     1     -12.868  14.779  71.587  1.00  0.00    -0.332 A  
HETATM   15  H   UNL     1     -11.562  16.063  69.810  1.00  0.00     0.000 HD 
HETATM   16  C   UNL     1     -13.537  13.951  72.471  1.00  0.00    -0.680 A  
HETATM   17  O   UNL     1     -12.879  16.128  71.794  1.00  0.00    -0.507 OA 
HETATM   18  C   UNL     1     -13.511  12.570  72.265  1.00  0.00    -0.490 A  
HETATM   19  H   UNL     1     -13.346  16.489  72.538  1.00  0.00     0.000 HD 
ENDBRANCH   7  10
ENDBRANCH   6   7
ENDBRANCH   4   6
ENDBRANCH   2   4
TORSDOF 4
ENDMDL
MODEL       58
REMARK 921   NORMALIZED FREE ENERGY PREDICTED BY IDOCK:   -4.82 KCAL/MOL
REMARK 922        TOTAL FREE ENERGY PREDICTED BY IDOCK:   -6.24 KCAL/MOL
REMARK 923 INTER-LIGAND FREE ENERGY PREDICTED BY IDOCK:   -6.00 KCAL/MOL
REMARK 924 INTRA-LIGAND FREE ENERGY PREDICTED BY IDOCK:   -0.24 KCAL/MOL
REMARK 927      BINDING AFFINITY PREDICTED BY RF-SCORE:    0.00 PKD
ROOT
HETATM    1  C   UNL     1     -11.243   9.553  70.526  1.00  0.00    -0.345 C  
HETATM    2  C   UNL     1     -12.590  10.265  70.378  1.00  0.00    -0.204 C  
HETATM    3  C   UNL     1     -12.740  11.303  71.494  1.00  0.00    -0.481 C  
ENDROOT
BRANCH   2   4
HETATM    4  N   UNL     1     -12.645  10.873  69.043  1.00  0.00    -0.618 NA 
HETATM    5  H   UNL     1     -13.564  11.282  68.873  1.00  0.00     0.000 HD 
BRANCH   4   6
HETATM    6  C   UNL     1     -11.584  11.861  68.793  1.00  0.00    -0.309 C  
BRANCH   6   7
HETATM    7  C   UNL     1     -11.965  12.814  67.630  1.00  0.00    -0.273 C  
HETATM    8  H   UNL     1     -11.638  14.703  67.113  1.00  0.00     0.000 HD 
HETATM    9  O   UNL     1     -11.405  14.118  67.826  1.00  0.00    -0.278 OA 
BRANCH   7  10
HETATM   10  C   UNL     1     -11.523  12.260  66.289  1.00  0.00    -0.435 A  
HETATM   11  C   UNL     1     -10.603  11.202  66.188  1.00  0.00    -0.305 A  
HETATM   12  C   UNL     1     -10.234  10.722  64.936  1.00  0.00    -0.320 A  
HETATM   13  O   UNL     1      -9.331   9.705  64.788  1.00  0.00    -0.272 OA 
HETATM   14  C   UNL     1     -10.777  11.276  63.779  1.00  0.00    -0.379 A  
HETATM   15  H   UNL     1      -9.078   9.378  63.934  1.00  0.00     0.000 HD 
HETATM   16  C   UNL     1     -11.696  12.308  63.854  1.00  0.00    -0.536 A  
HETATM   17  O   UNL     1     -10.397  10.805  62.556  1.00  0.00    -0.748 OA 
HETATM   18  C   UNL     1     -12.070  12.799  65.107  1.00  0.00    -0.498 A  
HETATM   19  H   UNL     1     -10.768  11.183  61.767  1.00  0.00     0.000 HD 
ENDBRANCH   7  10
ENDBRANCH   6   7
ENDBRANCH   4   6
ENDBRANCH   2   4
TORSDOF 4
ENDMDL
MODEL       59
REMARK 921   NORMALIZED FREE ENERGY PREDICTED BY IDOCK:   -4.82 KCAL/MOL
REMARK 922        TOTAL FREE ENERGY PREDICTED BY IDOCK:   -6.23 KCAL/MOL
REMARK 923 INTER-LIGAND FREE ENERGY PREDICTED BY IDOCK:   -6.03 KCAL/MOL
REMARK 924 INTRA-LIGAND FREE ENERGY PREDICTED BY IDOCK:   -0.20 KCAL/MOL
REMARK 927      BINDING AFFINITY PREDICTED BY RF-SCORE:    0.00 PKD
ROOT
HETATM    1  C   UNL     1     -11.280  14.907  65.034  1.00  0.00    -0.408 C  
HETATM    2  C   UNL     1     -12.295  13.995  65.729  1.00  0.00    -0.480 C  
HETATM    3  C   UNL     1     -12.161  12.574  65.174  1.00  0.00    -0.503 C  
ENDROOT
BRANCH   2   4
HETATM    4  N   UNL     1     -12.053  14.053  67.175  1.00  0.00    -0.481 NA 
HETATM    5  H   UNL     1     -12.831  14.512  67.650  1.00  0.00     0.000 HD 
BRANCH   4   6
HETATM    6  C   UNL     1     -11.773  12.744  67.786  1.00  0.00    -0.359 C  
BRANCH   6   7
HETATM    7  C   UNL     1     -11.503  12.880  69.307  1.00  0.00    -0.282 C  
HETATM    8  H   UNL     1     -12.164  13.977  70.823  1.00  0.00     0.000 HD 
HETATM    9  O   UNL     1     -12.329  13.894  69.891  1.00  0.00    -0.332 OA 
BRANCH   7  10
HETATM   10  C   UNL     1     -11.714  11.564  70.029  1.00  0.00    -0.414 A  
HETATM   11  C   UNL     1     -12.741  11.390  70.974  1.00  0.00    -0.447 A  
HETATM   12  C   UNL     1     -12.901  10.160  71.605  1.00  0.00    -0.454 A  
HETATM   13  O   UNL     1     -13.875   9.950  72.542  1.00  0.00    -0.621 OA 
HETATM   14  C   UNL     1     -12.058   9.095  71.300  1.00  0.00    -0.323 A  
HETATM   15  H   UNL     1     -13.985   9.111  72.973  1.00  0.00     0.000 HD 
HETATM   16  C   UNL     1     -11.050   9.237  70.362  1.00  0.00    -0.300 A  
HETATM   17  O   UNL     1     -12.217   7.898  71.935  1.00  0.00    -0.292 OA 
HETATM   18  C   UNL     1     -10.879  10.469  69.726  1.00  0.00    -0.335 A  
HETATM   19  H   UNL     1     -11.641   7.171  71.727  1.00  0.00     0.000 HD 
ENDBRANCH   7  10
ENDBRANCH   6   7
ENDBRANCH   4   6
ENDBRANCH   2   4
TORSDOF 4
ENDMDL
MODEL       60
REMARK 921   NORMALIZED FREE ENERGY PREDICTED BY IDOCK:   -4.81 KCAL/MOL
REMARK 922        TOTAL FREE ENERGY PREDICTED BY IDOCK:   -6.22 KCAL/MOL
REMARK 923 INTER-LIGAND FREE ENERGY PREDICTED BY IDOCK:   -6.01 KCAL/MOL
REMARK 924 INTRA-LIGAND FREE ENERGY PREDICTED BY IDOCK:   -0.21 KCAL/MOL
REMARK 927      BINDING AFFINITY PREDICTED BY RF-SCORE:    0.00 PKD
ROOT
HETATM    1  C   UNL     1      -9.941  11.532  63.203  1.00  0.00    -0.404 C  
HETATM    2  C   UNL     1     -10.917  12.374  64.029  1.00  0.00    -0.391 C  
HETATM    3  C   UNL     1     -12.333  12.201  63.472  1.00  0.00    -0.682 C  
ENDROOT
BRANCH   2   4
HETATM    4  N   UNL     1     -10.816  11.955  65.432  1.00  0.00    -0.287 NA 
HETATM    5  H   UNL     1      -9.978  11.391  65.578  1.00  0.00     0.000 HD 
BRANCH   4   6
HETATM    6  C   UNL     1     -10.864  13.068  66.393  1.00  0.00    -0.278 C  
BRANCH   6   7
HETATM    7  C   UNL     1     -12.028  12.890  67.402  1.00  0.00    -0.300 C  
HETATM    8  H   UNL     1     -12.801  11.434  68.509  1.00  0.00     0.000 HD 
HETATM    9  O   UNL     1     -12.088  11.544  67.890  1.00  0.00    -0.630 OA 
BRANCH   7  10
HETATM   10  C   UNL     1     -11.908  13.854  68.566  1.00  0.00    -0.401 A  
HETATM   11  C   UNL     1     -11.458  15.175  68.394  1.00  0.00    -0.347 A  
HETATM   12  C   UNL     1     -11.372  16.026  69.491  1.00  0.00    -0.344 A  
HETATM   13  O   UNL     1     -10.924  17.313  69.374  1.00  0.00    -0.302 OA 
HETATM   14  C   UNL     1     -11.739  15.583  70.759  1.00  0.00    -0.362 A  
HETATM   15  H   UNL     1     -10.865  17.895  70.123  1.00  0.00     0.000 HD 
HETATM   16  C   UNL     1     -12.200  14.292  70.951  1.00  0.00    -0.425 A  
HETATM   17  O   UNL     1     -11.639  16.424  71.829  1.00  0.00    -0.520 OA 
HETATM   18  C   UNL     1     -12.286  13.429  69.856  1.00  0.00    -0.337 A  
HETATM   19  H   UNL     1     -11.889  16.121  72.695  1.00  0.00     0.000 HD 
ENDBRANCH   7  10
ENDBRANCH   6   7
ENDBRANCH   4   6
ENDBRANCH   2   4
TORSDOF 4
ENDMDL
MODEL       61
REMARK 921   NORMALIZED FREE ENERGY PREDICTED BY IDOCK:   -4.79 KCAL/MOL
REMARK 922        TOTAL FREE ENERGY PREDICTED BY IDOCK:   -6.20 KCAL/MOL
REMARK 923 INTER-LIGAND FREE ENERGY PREDICTED BY IDOCK:   -5.96 KCAL/MOL
REMARK 924 INTRA-LIGAND FREE ENERGY PREDICTED BY IDOCK:   -0.24 KCAL/MOL
REMARK 927      BINDING AFFINITY PREDICTED BY RF-SCORE:    0.00 PKD
ROOT
HETATM    1  C   UNL     1     -10.681  19.108  67.663  1.00  0.00    -0.514 C  
HETATM    2  C   UNL     1     -10.125  19.068  66.237  1.00  0.00    -0.422 C  
HETATM    3  C   UNL     1      -8.639  19.437  66.263  1.00  0.00    -0.360 C  
ENDROOT
BRANCH   2   4
HETATM    4  N   UNL     1     -10.354  17.725  65.691  1.00  0.00    -0.635 NA 
HETATM    5  H   UNL     1      -9.657  17.504  64.979  1.00  0.00     0.000 HD 
BRANCH   4   6
HETATM    6  C   UNL     1     -10.406  16.666  66.711  1.00  0.00    -0.295 C  
BRANCH   6   7
HETATM    7  C   UNL     1      -9.746  15.359  66.200  1.00  0.00    -0.318 C  
HETATM    8  H   UNL     1      -7.933  14.552  66.156  1.00  0.00     0.000 HD 
HETATM    9  O   UNL     1      -8.338  15.353  66.468  1.00  0.00    -0.258 OA 
BRANCH   7  10
HETATM   10  C   UNL     1     -10.393  14.133  66.813  1.00  0.00    -0.274 A  
HETATM   11  C   UNL     1     -10.635  14.031  68.194  1.00  0.00    -0.252 A  
HETATM   12  C   UNL     1     -11.239  12.888  68.708  1.00  0.00    -0.279 A  
HETATM   13  O   UNL     1     -11.480  12.738  70.047  1.00  0.00    -0.508 OA 
HETATM   14  C   UNL     1     -11.615  11.847  67.864  1.00  0.00    -0.323 A  
HETATM   15  H   UNL     1     -11.892  11.958  70.399  1.00  0.00     0.000 HD 
HETATM   16  C   UNL     1     -11.401  11.930  66.499  1.00  0.00    -0.403 A  
HETATM   17  O   UNL     1     -12.196  10.726  68.383  1.00  0.00    -0.832 OA 
HETATM   18  C   UNL     1     -10.792  13.072  65.974  1.00  0.00    -0.290 A  
HETATM   19  H   UNL     1     -12.452  10.015  67.807  1.00  0.00     0.000 HD 
ENDBRANCH   7  10
ENDBRANCH   6   7
ENDBRANCH   4   6
ENDBRANCH   2   4
TORSDOF 4
ENDMDL
MODEL       62
REMARK 921   NORMALIZED FREE ENERGY PREDICTED BY IDOCK:   -4.78 KCAL/MOL
REMARK 922        TOTAL FREE ENERGY PREDICTED BY IDOCK:   -6.18 KCAL/MOL
REMARK 923 INTER-LIGAND FREE ENERGY PREDICTED BY IDOCK:   -5.87 KCAL/MOL
REMARK 924 INTRA-LIGAND FREE ENERGY PREDICTED BY IDOCK:   -0.31 KCAL/MOL
REMARK 927      BINDING AFFINITY PREDICTED BY RF-SCORE:    0.00 PKD
ROOT
HETATM    1  C   UNL     1     -11.339  14.447  68.718  1.00  0.00    -0.299 C  
HETATM    2  C   UNL     1     -11.814  13.226  67.924  1.00  0.00    -0.349 C  
HETATM    3  C   UNL     1     -12.250  13.671  66.525  1.00  0.00    -0.454 C  
ENDROOT
BRANCH   2   4
HETATM    4  N   UNL     1     -10.719  12.251  67.881  1.00  0.00    -0.209 NA 
HETATM    5  H   UNL     1     -10.078  12.396  68.662  1.00  0.00     0.000 HD 
BRANCH   4   6
HETATM    6  C   UNL     1     -11.169  10.850  67.835  1.00  0.00    -0.321 C  
BRANCH   6   7
HETATM    7  C   UNL     1     -10.486  10.003  68.941  1.00  0.00    -0.210 C  
HETATM    8  H   UNL     1      -8.873  10.119  70.092  1.00  0.00     0.000 HD 
HETATM    9  O   UNL     1      -9.291  10.637  69.414  1.00  0.00    -0.163 OA 
BRANCH   7  10
HETATM   10  C   UNL     1     -11.426   9.743  70.102  1.00  0.00    -0.272 A  
HETATM   11  C   UNL     1     -12.177  10.771  70.696  1.00  0.00    -0.474 A  
HETATM   12  C   UNL     1     -13.032  10.481  71.755  1.00  0.00    -0.476 A  
HETATM   13  O   UNL     1     -13.770  11.452  72.375  1.00  0.00    -0.452 OA 
HETATM   14  C   UNL     1     -13.158   9.176  72.224  1.00  0.00    -0.438 A  
HETATM   15  H   UNL     1     -14.354  11.255  73.097  1.00  0.00     0.000 HD 
HETATM   16  C   UNL     1     -12.441   8.144  71.644  1.00  0.00    -0.349 A  
HETATM   17  O   UNL     1     -13.992   8.907  73.271  1.00  0.00    -1.203 OA 
HETATM   18  C   UNL     1     -11.577   8.426  70.584  1.00  0.00    -0.205 A  
HETATM   19  H   UNL     1     -14.077   8.016  73.591  1.00  0.00     0.000 HD 
ENDBRANCH   7  10
ENDBRANCH   6   7
ENDBRANCH   4   6
ENDBRANCH   2   4
TORSDOF 4
ENDMDL
MODEL       63
REMARK 921   NORMALIZED FREE ENERGY PREDICTED BY IDOCK:   -4.78 KCAL/MOL
REMARK 922        TOTAL FREE ENERGY PREDICTED BY IDOCK:   -6.18 KCAL/MOL
REMARK 923 INTER-LIGAND FREE ENERGY PREDICTED BY IDOCK:   -5.98 KCAL/MOL
REMARK 924 INTRA-LIGAND FREE ENERGY PREDICTED BY IDOCK:   -0.20 KCAL/MOL
REMARK 927      BINDING AFFINITY PREDICTED BY RF-SCORE:    0.00 PKD
ROOT
HETATM    1  C   UNL     1     -10.581  19.617  65.813  1.00  0.00    -0.537 C  
HETATM    2  C   UNL     1     -10.090  18.221  66.208  1.00  0.00    -0.380 C  
HETATM    3  C   UNL     1     -10.490  17.935  67.658  1.00  0.00    -0.406 C  
ENDROOT
BRANCH   2   4
HETATM    4  N   UNL     1     -10.663  17.249  65.270  1.00  0.00    -0.617 NA 
HETATM    5  H   UNL     1     -10.401  17.478  64.311  1.00  0.00     0.000 HD 
BRANCH   4   6
HETATM    6  C   UNL     1     -10.325  15.851  65.580  1.00  0.00    -0.400 C  
BRANCH   6   7
HETATM    7  C   UNL     1     -11.521  14.906  65.294  1.00  0.00    -0.336 C  
HETATM    8  H   UNL     1     -12.889  14.657  63.877  1.00  0.00     0.000 HD 
HETATM    9  O   UNL     1     -12.156  15.236  64.052  1.00  0.00    -0.565 OA 
BRANCH   7  10
HETATM   10  C   UNL     1     -11.092  13.452  65.282  1.00  0.00    -0.305 A  
HETATM   11  C   UNL     1     -11.179  12.641  66.426  1.00  0.00    -0.350 A  
HETATM   12  C   UNL     1     -10.780  11.310  66.364  1.00  0.00    -0.267 A  
HETATM   13  O   UNL     1     -10.832  10.487  67.456  1.00  0.00    -0.262 OA 
HETATM   14  C   UNL     1     -10.302  10.770  65.173  1.00  0.00    -0.271 A  
HETATM   15  H   UNL     1     -10.560   9.578  67.414  1.00  0.00     0.000 HD 
HETATM   16  C   UNL     1     -10.221  11.545  64.028  1.00  0.00    -0.394 A  
HETATM   17  O   UNL     1      -9.902   9.466  65.127  1.00  0.00    -0.447 OA 
HETATM   18  C   UNL     1     -10.616  12.884  64.082  1.00  0.00    -0.442 A  
HETATM   19  H   UNL     1      -9.576   9.099  64.314  1.00  0.00     0.000 HD 
ENDBRANCH   7  10
ENDBRANCH   6   7
ENDBRANCH   4   6
ENDBRANCH   2   4
TORSDOF 4
ENDMDL
MODEL       64
REMARK 921   NORMALIZED FREE ENERGY PREDICTED BY IDOCK:   -4.76 KCAL/MOL
REMARK 922        TOTAL FREE ENERGY PREDICTED BY IDOCK:   -6.17 KCAL/MOL
REMARK 923 INTER-LIGAND FREE ENERGY PREDICTED BY IDOCK:   -5.94 KCAL/MOL
REMARK 924 INTRA-LIGAND FREE ENERGY PREDICTED BY IDOCK:   -0.22 KCAL/MOL
REMARK 927      BINDING AFFINITY PREDICTED BY RF-SCORE:    0.00 PKD
ROOT
HETATM    1  C   UNL     1      -8.639   7.273  67.089  1.00  0.00    -0.121 C  
HETATM    2  C   UNL     1      -8.143   7.149  65.646  1.00  0.00    -0.133 C  
HETATM    3  C   UNL     1      -8.316   5.703  65.174  1.00  0.00    -0.146 C  
ENDROOT
BRANCH   2   4
HETATM    4  N   UNL     1      -8.894   8.099  64.817  1.00  0.00    -0.389 NA 
HETATM    5  H   UNL     1      -9.764   7.678  64.488  1.00  0.00     0.000 HD 
BRANCH   4   6
HETATM    6  C   UNL     1      -9.161   9.386  65.478  1.00  0.00    -0.232 C  
BRANCH   6   7
HETATM    7  C   UNL     1      -9.183  10.551  64.453  1.00  0.00    -0.245 C  
HETATM    8  H   UNL     1      -9.316  10.771  62.485  1.00  0.00     0.000 HD 
HETATM    9  O   UNL     1      -9.303  10.058  63.113  1.00  0.00    -0.285 OA 
BRANCH   7  10
HETATM   10  C   UNL     1     -10.304  11.528  64.746  1.00  0.00    -0.341 A  
HETATM   11  C   UNL     1     -10.890  12.312  63.737  1.00  0.00    -0.495 A  
HETATM   12  C   UNL     1     -11.922  13.189  64.052  1.00  0.00    -0.460 A  
HETATM   13  O   UNL     1     -12.511  13.983  63.106  1.00  0.00    -1.137 OA 
HETATM   14  C   UNL     1     -12.388  13.291  65.360  1.00  0.00    -0.479 A  
HETATM   15  H   UNL     1     -13.216  14.582  63.321  1.00  0.00     0.000 HD 
HETATM   16  C   UNL     1     -11.838  12.518  66.369  1.00  0.00    -0.445 A  
HETATM   17  O   UNL     1     -13.393  14.164  65.660  1.00  0.00    -0.697 OA 
HETATM   18  C   UNL     1     -10.798  11.637  66.062  1.00  0.00    -0.339 A  
HETATM   19  H   UNL     1     -13.710  14.233  66.553  1.00  0.00     0.000 HD 
ENDBRANCH   7  10
ENDBRANCH   6   7
ENDBRANCH   4   6
ENDBRANCH   2   4
TORSDOF 4
ENDMDL
MODEL       65
REMARK 921   NORMALIZED FREE ENERGY PREDICTED BY IDOCK:   -4.74 KCAL/MOL
REMARK 922        TOTAL FREE ENERGY PREDICTED BY IDOCK:   -6.14 KCAL/MOL
REMARK 923 INTER-LIGAND FREE ENERGY PREDICTED BY IDOCK:   -5.91 KCAL/MOL
REMARK 924 INTRA-LIGAND FREE ENERGY PREDICTED BY IDOCK:   -0.23 KCAL/MOL
REMARK 927      BINDING AFFINITY PREDICTED BY RF-SCORE:    0.00 PKD
ROOT
HETATM    1  C   UNL     1     -13.779  14.827  71.428  1.00  0.00    -0.504 C  
HETATM    2  C   UNL     1     -12.484  15.633  71.297  1.00  0.00    -0.444 C  
HETATM    3  C   UNL     1     -12.033  16.096  72.685  1.00  0.00    -0.653 C  
ENDROOT
BRANCH   2   4
HETATM    4  N   UNL     1     -11.480  14.789  70.640  1.00  0.00    -0.399 NA 
HETATM    5  H   UNL     1     -11.922  14.172  69.958  1.00  0.00     0.000 HD 
BRANCH   4   6
HETATM    6  C   UNL     1     -10.380  15.544  70.018  1.00  0.00    -0.302 C  
BRANCH   6   7
HETATM    7  C   UNL     1     -10.406  15.406  68.473  1.00  0.00    -0.226 C  
HETATM    8  H   UNL     1     -11.716  14.914  67.065  1.00  0.00     0.000 HD 
HETATM    9  O   UNL     1     -11.700  14.998  68.012  1.00  0.00    -0.332 OA 
BRANCH   7  10
HETATM   10  C   UNL     1     -10.001  16.699  67.792  1.00  0.00    -0.262 A  
HETATM   11  C   UNL     1      -8.882  16.775  66.945  1.00  0.00    -0.241 A  
HETATM   12  C   UNL     1      -8.555  17.982  66.336  1.00  0.00    -0.228 A  
HETATM   13  O   UNL     1      -7.466  18.107  65.517  1.00  0.00    -0.540 OA 
HETATM   14  C   UNL     1      -9.334  19.116  66.552  1.00  0.00    -0.348 A  
HETATM   15  H   UNL     1      -7.242  18.931  65.101  1.00  0.00     0.000 HD 
HETATM   16  C   UNL     1     -10.449  19.062  67.370  1.00  0.00    -0.539 A  
HETATM   17  O   UNL     1      -8.995  20.298  65.959  1.00  0.00    -0.587 OA 
HETATM   18  C   UNL     1     -10.783  17.855  67.988  1.00  0.00    -0.307 A  
HETATM   19  H   UNL     1      -9.526  21.071  66.106  1.00  0.00     0.000 HD 
ENDBRANCH   7  10
ENDBRANCH   6   7
ENDBRANCH   4   6
ENDBRANCH   2   4
TORSDOF 4
ENDMDL
MODEL       66
REMARK 921   NORMALIZED FREE ENERGY PREDICTED BY IDOCK:   -4.74 KCAL/MOL
REMARK 922        TOTAL FREE ENERGY PREDICTED BY IDOCK:   -6.14 KCAL/MOL
REMARK 923 INTER-LIGAND FREE ENERGY PREDICTED BY IDOCK:   -5.84 KCAL/MOL
REMARK 924 INTRA-LIGAND FREE ENERGY PREDICTED BY IDOCK:   -0.29 KCAL/MOL
REMARK 927      BINDING AFFINITY PREDICTED BY RF-SCORE:    0.00 PKD
ROOT
HETATM    1  C   UNL     1     -10.075  19.936  66.064  1.00  0.00    -0.589 C  
HETATM    2  C   UNL     1      -8.963  19.193  66.810  1.00  0.00    -0.311 C  
HETATM    3  C   UNL     1      -9.346  19.059  68.287  1.00  0.00    -0.393 C  
ENDROOT
BRANCH   2   4
HETATM    4  N   UNL     1      -8.767  17.889  66.166  1.00  0.00    -0.489 NA 
HETATM    5  H   UNL     1      -7.776  17.719  65.995  1.00  0.00     0.000 HD 
BRANCH   4   6
HETATM    6  C   UNL     1      -9.365  16.764  66.902  1.00  0.00    -0.236 C  
BRANCH   6   7
HETATM    7  C   UNL     1     -10.706  16.321  66.261  1.00  0.00    -0.185 C  
HETATM    8  H   UNL     1     -11.477  16.156  64.439  1.00  0.00     0.000 HD 
HETATM    9  O   UNL     1     -10.656  16.428  64.832  1.00  0.00    -0.677 OA 
BRANCH   7  10
HETATM   10  C   UNL     1     -11.072  14.904  66.658  1.00  0.00    -0.329 A  
HETATM   11  C   UNL     1     -11.052  13.844  65.736  1.00  0.00    -0.294 A  
HETATM   12  C   UNL     1     -11.388  12.559  66.151  1.00  0.00    -0.343 A  
HETATM   13  O   UNL     1     -11.399  11.500  65.284  1.00  0.00    -0.207 OA 
HETATM   14  C   UNL     1     -11.734  12.312  67.476  1.00  0.00    -0.332 A  
HETATM   15  H   UNL     1     -11.628  10.623  65.567  1.00  0.00     0.000 HD 
HETATM   16  C   UNL     1     -11.745  13.337  68.407  1.00  0.00    -0.389 A  
HETATM   17  O   UNL     1     -12.073  11.050  67.868  1.00  0.00    -0.721 OA 
HETATM   18  C   UNL     1     -11.413  14.631  67.999  1.00  0.00    -0.346 A  
HETATM   19  H   UNL     1     -12.310  10.882  68.773  1.00  0.00     0.000 HD 
ENDBRANCH   7  10
ENDBRANCH   6   7
ENDBRANCH   4   6
ENDBRANCH   2   4
TORSDOF 4
ENDMDL
MODEL       67
REMARK 921   NORMALIZED FREE ENERGY PREDICTED BY IDOCK:   -4.74 KCAL/MOL
REMARK 922        TOTAL FREE ENERGY PREDICTED BY IDOCK:   -6.13 KCAL/MOL
REMARK 923 INTER-LIGAND FREE ENERGY PREDICTED BY IDOCK:   -5.92 KCAL/MOL
REMARK 924 INTRA-LIGAND FREE ENERGY PREDICTED BY IDOCK:   -0.21 KCAL/MOL
REMARK 927      BINDING AFFINITY PREDICTED BY RF-SCORE:    0.00 PKD
ROOT
HETATM    1  C   UNL     1      -7.369  19.054  68.809  1.00  0.00    -0.366 C  
HETATM    2  C   UNL     1      -7.448  18.490  67.388  1.00  0.00    -0.218 C  
HETATM    3  C   UNL     1      -6.051  18.501  66.761  1.00  0.00    -0.176 C  
ENDROOT
BRANCH   2   4
HETATM    4  N   UNL     1      -8.014  17.138  67.459  1.00  0.00    -0.174 NA 
HETATM    5  H   UNL     1      -8.685  17.070  68.225  1.00  0.00     0.000 HD 
BRANCH   4   6
HETATM    6  C   UNL     1      -8.620  16.677  66.200  1.00  0.00    -0.289 C  
BRANCH   6   7
HETATM    7  C   UNL     1     -10.162  16.847  66.221  1.00  0.00    -0.329 C  
HETATM    8  H   UNL     1     -11.521  18.013  65.365  1.00  0.00     0.000 HD 
HETATM    9  O   UNL     1     -10.577  17.909  65.352  1.00  0.00    -0.656 OA 
BRANCH   7  10
HETATM   10  C   UNL     1     -10.868  15.562  65.838  1.00  0.00    -0.317 A  
HETATM   11  C   UNL     1     -11.366  15.344  64.542  1.00  0.00    -0.321 A  
HETATM   12  C   UNL     1     -12.001  14.145  64.236  1.00  0.00    -0.435 A  
HETATM   13  O   UNL     1     -12.515  13.896  62.992  1.00  0.00    -1.099 OA 
HETATM   14  C   UNL     1     -12.138  13.152  65.202  1.00  0.00    -0.421 A  
HETATM   15  H   UNL     1     -12.948  13.077  62.783  1.00  0.00     0.000 HD 
HETATM   16  C   UNL     1     -11.642  13.336  66.481  1.00  0.00    -0.392 A  
HETATM   17  O   UNL     1     -12.773  11.984  64.892  1.00  0.00    -0.413 OA 
HETATM   18  C   UNL     1     -11.007  14.539  66.798  1.00  0.00    -0.316 A  
HETATM   19  H   UNL     1     -12.867  11.307  65.552  1.00  0.00     0.000 HD 
ENDBRANCH   7  10
ENDBRANCH   6   7
ENDBRANCH   4   6
ENDBRANCH   2   4
TORSDOF 4
ENDMDL
MODEL       68
REMARK 921   NORMALIZED FREE ENERGY PREDICTED BY IDOCK:   -4.71 KCAL/MOL
REMARK 922        TOTAL FREE ENERGY PREDICTED BY IDOCK:   -6.10 KCAL/MOL
REMARK 923 INTER-LIGAND FREE ENERGY PREDICTED BY IDOCK:   -5.86 KCAL/MOL
REMARK 924 INTRA-LIGAND FREE ENERGY PREDICTED BY IDOCK:   -0.24 KCAL/MOL
REMARK 927      BINDING AFFINITY PREDICTED BY RF-SCORE:    0.00 PKD
ROOT
HETATM    1  C   UNL     1     -10.639   8.106  69.793  1.00  0.00    -0.231 C  
HETATM    2  C   UNL     1     -10.011   9.049  68.763  1.00  0.00    -0.182 C  
HETATM    3  C   UNL     1      -8.805   8.362  68.117  1.00  0.00    -0.142 C  
ENDROOT
BRANCH   2   4
HETATM    4  N   UNL     1     -11.039   9.408  67.780  1.00  0.00    -0.487 NA 
HETATM    5  H   UNL     1     -11.948   9.042  68.062  1.00  0.00     0.000 HD 
BRANCH   4   6
HETATM    6  C   UNL     1     -11.125  10.851  67.506  1.00  0.00    -0.310 C  
BRANCH   6   7
HETATM    7  C   UNL     1     -10.180  11.261  66.346  1.00  0.00    -0.230 C  
HETATM    8  H   UNL     1      -9.490  10.464  64.664  1.00  0.00     0.000 HD 
HETATM    9  O   UNL     1     -10.069  10.213  65.375  1.00  0.00    -0.303 OA 
BRANCH   7  10
HETATM   10  C   UNL     1     -10.645  12.538  65.675  1.00  0.00    -0.298 A  
HETATM   11  C   UNL     1      -9.972  13.760  65.851  1.00  0.00    -0.308 A  
HETATM   12  C   UNL     1     -10.432  14.904  65.208  1.00  0.00    -0.404 A  
HETATM   13  O   UNL     1      -9.819  16.117  65.363  1.00  0.00    -0.474 OA 
HETATM   14  C   UNL     1     -11.550  14.847  64.380  1.00  0.00    -0.288 A  
HETATM   15  H   UNL     1     -10.132  16.898  64.924  1.00  0.00     0.000 HD 
HETATM   16  C   UNL     1     -12.220  13.653  64.178  1.00  0.00    -0.450 A  
HETATM   17  O   UNL     1     -11.999  15.979  63.764  1.00  0.00    -1.339 OA 
HETATM   18  C   UNL     1     -11.768  12.500  64.823  1.00  0.00    -0.411 A  
HETATM   19  H   UNL     1     -12.762  15.940  63.199  1.00  0.00     0.000 HD 
ENDBRANCH   7  10
ENDBRANCH   6   7
ENDBRANCH   4   6
ENDBRANCH   2   4
TORSDOF 4
ENDMDL
MODEL       69
REMARK 921   NORMALIZED FREE ENERGY PREDICTED BY IDOCK:   -4.71 KCAL/MOL
REMARK 922        TOTAL FREE ENERGY PREDICTED BY IDOCK:   -6.10 KCAL/MOL
REMARK 923 INTER-LIGAND FREE ENERGY PREDICTED BY IDOCK:   -5.88 KCAL/MOL
REMARK 924 INTRA-LIGAND FREE ENERGY PREDICTED BY IDOCK:   -0.22 KCAL/MOL
REMARK 927      BINDING AFFINITY PREDICTED BY RF-SCORE:    0.00 PKD
ROOT
HETATM    1  C   UNL     1     -10.411  19.687  66.401  1.00  0.00    -0.609 C  
HETATM    2  C   UNL     1      -9.834  18.587  67.297  1.00  0.00    -0.313 C  
HETATM    3  C   UNL     1      -9.095  19.229  68.474  1.00  0.00    -0.425 C  
ENDROOT
BRANCH   2   4
HETATM    4  N   UNL     1     -10.937  17.726  67.737  1.00  0.00    -0.217 NA 
HETATM    5  H   UNL     1     -11.329  17.213  66.946  1.00  0.00     0.000 HD 
BRANCH   4   6
HETATM    6  C   UNL     1     -10.577  16.802  68.824  1.00  0.00    -0.348 C  
BRANCH   6   7
HETATM    7  C   UNL     1     -10.973  15.343  68.479  1.00  0.00    -0.278 C  
HETATM    8  H   UNL     1     -10.058  13.655  67.972  1.00  0.00     0.000 HD 
HETATM    9  O   UNL     1      -9.816  14.550  68.184  1.00  0.00    -0.213 OA 
BRANCH   7  10
HETATM   10  C   UNL     1     -11.765  14.701  69.600  1.00  0.00    -0.358 A  
HETATM   11  C   UNL     1     -11.784  13.310  69.796  1.00  0.00    -0.354 A  
HETATM   12  C   UNL     1     -12.521  12.768  70.845  1.00  0.00    -0.283 A  
HETATM   13  O   UNL     1     -12.581  11.418  71.064  1.00  0.00    -0.389 OA 
HETATM   14  C   UNL     1     -13.232  13.595  71.710  1.00  0.00    -0.394 A  
HETATM   15  H   UNL     1     -13.084  11.048  71.780  1.00  0.00     0.000 HD 
HETATM   16  C   UNL     1     -13.216  14.969  71.547  1.00  0.00    -0.484 A  
HETATM   17  O   UNL     1     -13.960  13.050  72.728  1.00  0.00    -0.745 OA 
HETATM   18  C   UNL     1     -12.483  15.522  70.494  1.00  0.00    -0.472 A  
HETATM   19  H   UNL     1     -14.446  13.614  73.318  1.00  0.00     0.000 HD 
ENDBRANCH   7  10
ENDBRANCH   6   7
ENDBRANCH   4   6
ENDBRANCH   2   4
TORSDOF 4
ENDMDL
MODEL       70
REMARK 921   NORMALIZED FREE ENERGY PREDICTED BY IDOCK:   -4.70 KCAL/MOL
REMARK 922        TOTAL FREE ENERGY PREDICTED BY IDOCK:   -6.09 KCAL/MOL
REMARK 923 INTER-LIGAND FREE ENERGY PREDICTED BY IDOCK:   -5.91 KCAL/MOL
REMARK 924 INTRA-LIGAND FREE ENERGY PREDICTED BY IDOCK:   -0.17 KCAL/MOL
REMARK 927      BINDING AFFINITY PREDICTED BY RF-SCORE:    0.00 PKD
ROOT
HETATM    1  C   UNL     1     -11.784  12.098  67.316  1.00  0.00    -0.369 C  
HETATM    2  C   UNL     1     -11.653  13.257  66.324  1.00  0.00    -0.346 C  
HETATM    3  C   UNL     1     -12.601  13.023  65.144  1.00  0.00    -0.530 C  
ENDROOT
BRANCH   2   4
HETATM    4  N   UNL     1     -11.948  14.507  67.034  1.00  0.00    -0.448 NA 
HETATM    5  H   UNL     1     -12.307  14.312  67.969  1.00  0.00     0.000 HD 
BRANCH   4   6
HETATM    6  C   UNL     1     -10.810  15.437  67.101  1.00  0.00    -0.321 C  
BRANCH   6   7
HETATM    7  C   UNL     1     -11.047  16.541  68.164  1.00  0.00    -0.303 C  
HETATM    8  H   UNL     1     -10.854  16.752  70.129  1.00  0.00     0.000 HD 
HETATM    9  O   UNL     1     -10.709  16.076  69.477  1.00  0.00    -0.250 OA 
BRANCH   7  10
HETATM   10  C   UNL     1     -10.263  17.799  67.845  1.00  0.00    -0.362 A  
HETATM   11  C   UNL     1     -10.612  18.643  66.778  1.00  0.00    -0.422 A  
HETATM   12  C   UNL     1      -9.866  19.791  66.529  1.00  0.00    -0.436 A  
HETATM   13  O   UNL     1     -10.159  20.633  65.491  1.00  0.00    -0.445 OA 
HETATM   14  C   UNL     1      -8.780  20.116  67.337  1.00  0.00    -0.344 A  
HETATM   15  H   UNL     1      -9.650  21.417  65.321  1.00  0.00     0.000 HD 
HETATM   16  C   UNL     1      -8.426  19.309  68.404  1.00  0.00    -0.386 A  
HETATM   17  O   UNL     1      -8.049  21.239  67.076  1.00  0.00    -0.657 OA 
HETATM   18  C   UNL     1      -9.167  18.152  68.659  1.00  0.00    -0.295 A  
HETATM   19  H   UNL     1      -7.308  21.460  67.627  1.00  0.00     0.000 HD 
ENDBRANCH   7  10
ENDBRANCH   6   7
ENDBRANCH   4   6
ENDBRANCH   2   4
TORSDOF 4
ENDMDL
MODEL       71
REMARK 921   NORMALIZED FREE ENERGY PREDICTED BY IDOCK:   -4.66 KCAL/MOL
REMARK 922        TOTAL FREE ENERGY PREDICTED BY IDOCK:   -6.03 KCAL/MOL
REMARK 923 INTER-LIGAND FREE ENERGY PREDICTED BY IDOCK:   -5.79 KCAL/MOL
REMARK 924 INTRA-LIGAND FREE ENERGY PREDICTED BY IDOCK:   -0.24 KCAL/MOL
REMARK 927      BINDING AFFINITY PREDICTED BY RF-SCORE:    0.00 PKD
ROOT
HETATM    1  C   UNL     1     -11.198  12.407  66.630  1.00  0.00    -0.366 C  
HETATM    2  C   UNL     1     -10.303  12.795  65.450  1.00  0.00    -0.293 C  
HETATM    3  C   UNL     1     -11.128  12.773  64.160  1.00  0.00    -0.432 C  
ENDROOT
BRANCH   2   4
HETATM    4  N   UNL     1      -9.730  14.118  65.721  1.00  0.00    -0.498 NA 
HETATM    5  H   UNL     1      -9.035  14.360  65.015  1.00  0.00     0.000 HD 
BRANCH   4   6
HETATM    6  C   UNL     1     -10.733  15.188  65.848  1.00  0.00    -0.334 C  
BRANCH   6   7
HETATM    7  C   UNL     1     -10.212  16.522  65.252  1.00  0.00    -0.031 C  
HETATM    8  H   UNL     1     -10.949  18.069  64.251  1.00  0.00     0.000 HD 
HETATM    9  O   UNL     1     -11.268  17.251  64.616  1.00  0.00    -1.014 OA 
BRANCH   7  10
HETATM   10  C   UNL     1      -9.555  17.384  66.311  1.00  0.00    -0.260 A  
HETATM   11  C   UNL     1     -10.307  18.124  67.241  1.00  0.00    -0.399 A  
HETATM   12  C   UNL     1      -9.658  18.895  68.200  1.00  0.00    -0.338 A  
HETATM   13  O   UNL     1     -10.349  19.644  69.114  1.00  0.00    -0.617 OA 
HETATM   14  C   UNL     1      -8.268  18.933  68.253  1.00  0.00    -0.329 A  
HETATM   15  H   UNL     1      -9.907  20.170  69.768  1.00  0.00     0.000 HD 
HETATM   16  C   UNL     1      -7.505  18.202  67.359  1.00  0.00    -0.219 A  
HETATM   17  O   UNL     1      -7.643  19.704  69.191  1.00  0.00    -0.350 OA 
HETATM   18  C   UNL     1      -8.148  17.427  66.390  1.00  0.00    -0.315 A  
HETATM   19  H   UNL     1      -6.694  19.730  69.227  1.00  0.00     0.000 HD 
ENDBRANCH   7  10
ENDBRANCH   6   7
ENDBRANCH   4   6
ENDBRANCH   2   4
TORSDOF 4
ENDMDL
MODEL       72
REMARK 921   NORMALIZED FREE ENERGY PREDICTED BY IDOCK:   -4.65 KCAL/MOL
REMARK 922        TOTAL FREE ENERGY PREDICTED BY IDOCK:   -6.03 KCAL/MOL
REMARK 923 INTER-LIGAND FREE ENERGY PREDICTED BY IDOCK:   -5.75 KCAL/MOL
REMARK 924 INTRA-LIGAND FREE ENERGY PREDICTED BY IDOCK:   -0.28 KCAL/MOL
REMARK 927      BINDING AFFINITY PREDICTED BY RF-SCORE:    0.00 PKD
ROOT
HETATM    1  C   UNL     1     -10.698  12.900  66.196  1.00  0.00    -0.290 C  
HETATM    2  C   UNL     1     -10.659  13.895  65.033  1.00  0.00    -0.404 C  
HETATM    3  C   UNL     1     -12.078  14.104  64.497  1.00  0.00    -0.489 C  
ENDROOT
BRANCH   2   4
HETATM    4  N   UNL     1     -10.056  15.143  65.514  1.00  0.00    -0.357 NA 
HETATM    5  H   UNL     1     -10.547  15.950  65.128  1.00  0.00     0.000 HD 
BRANCH   4   6
HETATM    6  C   UNL     1      -9.975  15.240  66.980  1.00  0.00    -0.234 C  
BRANCH   6   7
HETATM    7  C   UNL     1     -10.766  16.465  67.508  1.00  0.00    -0.298 C  
HETATM    8  H   UNL     1     -11.713  16.994  69.170  1.00  0.00     0.000 HD 
HETATM    9  O   UNL     1     -11.229  16.244  68.846  1.00  0.00    -0.331 OA 
BRANCH   7  10
HETATM   10  C   UNL     1      -9.933  17.731  67.454  1.00  0.00    -0.323 A  
HETATM   11  C   UNL     1      -8.906  17.986  68.378  1.00  0.00    -0.300 A  
HETATM   12  C   UNL     1      -8.164  19.159  68.283  1.00  0.00    -0.334 A  
HETATM   13  O   UNL     1      -7.166  19.457  69.171  1.00  0.00    -0.350 OA 
HETATM   14  C   UNL     1      -8.423  20.079  67.271  1.00  0.00    -0.334 A  
HETATM   15  H   UNL     1      -6.659  20.257  69.106  1.00  0.00     0.000 HD 
HETATM   16  C   UNL     1      -9.419  19.842  66.339  1.00  0.00    -0.513 A  
HETATM   17  O   UNL     1      -7.696  21.231  67.195  1.00  0.00    -0.732 OA 
HETATM   18  C   UNL     1     -10.172  18.670  66.429  1.00  0.00    -0.461 A  
HETATM   19  H   UNL     1      -7.873  21.859  66.504  1.00  0.00     0.000 HD 
ENDBRANCH   7  10
ENDBRANCH   6   7
ENDBRANCH   4   6
ENDBRANCH   2   4
TORSDOF 4
ENDMDL
MODEL       73
REMARK 921   NORMALIZED FREE ENERGY PREDICTED BY IDOCK:   -4.65 KCAL/MOL
REMARK 922        TOTAL FREE ENERGY PREDICTED BY IDOCK:   -6.02 KCAL/MOL
REMARK 923 INTER-LIGAND FREE ENERGY PREDICTED BY IDOCK:   -5.67 KCAL/MOL
REMARK 924 INTRA-LIGAND FREE ENERGY PREDICTED BY IDOCK:   -0.35 KCAL/MOL
REMARK 927      BINDING AFFINITY PREDICTED BY RF-SCORE:    0.00 PKD
ROOT
HETATM    1  C   UNL     1      -9.035   9.147  68.065  1.00  0.00    -0.129 C  
HETATM    2  C   UNL     1      -8.832   9.753  69.456  1.00  0.00    -0.193 C  
HETATM    3  C   UNL     1      -7.430  10.364  69.542  1.00  0.00    -0.148 C  
ENDROOT
BRANCH   2   4
HETATM    4  N   UNL     1      -9.886  10.748  69.683  1.00  0.00    -0.438 NA 
HETATM    5  H   UNL     1      -9.513  11.560  70.176  1.00  0.00     0.000 HD 
BRANCH   4   6
HETATM    6  C   UNL     1     -10.589  11.164  68.459  1.00  0.00    -0.191 C  
BRANCH   6   7
HETATM    7  C   UNL     1     -10.467  12.693  68.232  1.00  0.00    -0.239 C  
HETATM    8  H   UNL     1      -9.032  14.065  68.220  1.00  0.00     0.000 HD 
HETATM    9  O   UNL     1      -9.107  13.128  68.359  1.00  0.00    -0.192 OA 
BRANCH   7  10
HETATM   10  C   UNL     1     -11.013  13.099  66.877  1.00  0.00    -0.295 A  
HETATM   11  C   UNL     1     -12.029  12.371  66.236  1.00  0.00    -0.369 A  
HETATM   12  C   UNL     1     -12.503  12.788  64.996  1.00  0.00    -0.506 A  
HETATM   13  O   UNL     1     -13.480  12.101  64.327  1.00  0.00    -0.708 OA 
HETATM   14  C   UNL     1     -11.986  13.929  64.389  1.00  0.00    -0.450 A  
HETATM   15  H   UNL     1     -13.804  12.385  63.481  1.00  0.00     0.000 HD 
HETATM   16  C   UNL     1     -10.996  14.672  65.009  1.00  0.00    -0.415 A  
HETATM   17  O   UNL     1     -12.452  14.321  63.167  1.00  0.00    -1.102 OA 
HETATM   18  C   UNL     1     -10.511  14.259  66.252  1.00  0.00    -0.291 A  
HETATM   19  H   UNL     1     -12.098  15.100  62.754  1.00  0.00     0.000 HD 
ENDBRANCH   7  10
ENDBRANCH   6   7
ENDBRANCH   4   6
ENDBRANCH   2   4
TORSDOF 4
ENDMDL
MODEL       74
REMARK 921   NORMALIZED FREE ENERGY PREDICTED BY IDOCK:   -4.62 KCAL/MOL
REMARK 922        TOTAL FREE ENERGY PREDICTED BY IDOCK:   -5.99 KCAL/MOL
REMARK 923 INTER-LIGAND FREE ENERGY PREDICTED BY IDOCK:   -5.58 KCAL/MOL
REMARK 924 INTRA-LIGAND FREE ENERGY PREDICTED BY IDOCK:   -0.42 KCAL/MOL
REMARK 927      BINDING AFFINITY PREDICTED BY RF-SCORE:    0.00 PKD
ROOT
HETATM    1  C   UNL     1      -9.196  16.168  66.657  1.00  0.00    -0.273 C  
HETATM    2  C   UNL     1     -10.304  15.186  66.267  1.00  0.00    -0.294 C  
HETATM    3  C   UNL     1     -10.893  15.599  64.915  1.00  0.00    -0.438 C  
ENDROOT
BRANCH   2   4
HETATM    4  N   UNL     1      -9.732  13.835  66.235  1.00  0.00    -0.324 NA 
HETATM    5  H   UNL     1      -8.726  13.875  66.068  1.00  0.00     0.000 HD 
BRANCH   4   6
HETATM    6  C   UNL     1     -10.025  13.035  67.434  1.00  0.00    -0.228 C  
BRANCH   6   7
HETATM    7  C   UNL     1     -11.553  12.913  67.670  1.00  0.00    -0.355 C  
HETATM    8  H   UNL     1     -12.950  11.508  67.542  1.00  0.00     0.000 HD 
HETATM    9  O   UNL     1     -12.014  11.583  67.398  1.00  0.00    -0.623 OA 
BRANCH   7  10
HETATM   10  C   UNL     1     -11.931  13.309  69.084  1.00  0.00    -0.343 A  
HETATM   11  C   UNL     1     -11.972  14.653  69.494  1.00  0.00    -0.361 A  
HETATM   12  C   UNL     1     -12.333  14.968  70.800  1.00  0.00    -0.343 A  
HETATM   13  O   UNL     1     -12.370  16.261  71.248  1.00  0.00    -0.563 OA 
HETATM   14  C   UNL     1     -12.664  13.962  71.703  1.00  0.00    -0.330 A  
HETATM   15  H   UNL     1     -12.617  16.476  72.139  1.00  0.00     0.000 HD 
HETATM   16  C   UNL     1     -12.647  12.632  71.319  1.00  0.00    -0.339 A  
HETATM   17  O   UNL     1     -13.005  14.283  72.985  1.00  0.00    -0.494 OA 
HETATM   18  C   UNL     1     -12.282  12.306  70.010  1.00  0.00    -0.267 A  
HETATM   19  H   UNL     1     -13.231  13.597  73.602  1.00  0.00     0.000 HD 
ENDBRANCH   7  10
ENDBRANCH   6   7
ENDBRANCH   4   6
ENDBRANCH   2   4
TORSDOF 4
ENDMDL
MODEL       75
REMARK 921   NORMALIZED FREE ENERGY PREDICTED BY IDOCK:   -4.61 KCAL/MOL
REMARK 922        TOTAL FREE ENERGY PREDICTED BY IDOCK:   -5.98 KCAL/MOL
REMARK 923 INTER-LIGAND FREE ENERGY PREDICTED BY IDOCK:   -5.41 KCAL/MOL
REMARK 924 INTRA-LIGAND FREE ENERGY PREDICTED BY IDOCK:   -0.56 KCAL/MOL
REMARK 927      BINDING AFFINITY PREDICTED BY RF-SCORE:    0.00 PKD
ROOT
HETATM    1  C   UNL     1     -10.658  19.477  65.885  1.00  0.00    -0.572 C  
HETATM    2  C   UNL     1      -9.568  19.896  66.875  1.00  0.00    -0.394 C  
HETATM    3  C   UNL     1     -10.161  19.960  68.285  1.00  0.00    -0.562 C  
ENDROOT
BRANCH   2   4
HETATM    4  N   UNL     1      -8.464  18.935  66.779  1.00  0.00    -0.287 NA 
HETATM    5  H   UNL     1      -7.882  18.972  67.617  1.00  0.00     0.000 HD 
BRANCH   4   6
HETATM    6  C   UNL     1      -8.896  17.554  66.511  1.00  0.00    -0.266 C  
BRANCH   6   7
HETATM    7  C   UNL     1      -8.536  16.612  67.689  1.00  0.00    -0.200 C  
HETATM    8  H   UNL     1      -7.457  16.691  69.353  1.00  0.00     0.000 HD 
HETATM    9  O   UNL     1      -7.678  17.267  68.631  1.00  0.00    -0.246 OA 
BRANCH   7  10
HETATM   10  C   UNL     1      -9.778  16.101  68.392  1.00  0.00    -0.219 A  
HETATM   11  C   UNL     1     -10.174  16.586  69.651  1.00  0.00    -0.156 A  
HETATM   12  C   UNL     1     -11.326  16.092  70.253  1.00  0.00    -0.382 A  
HETATM   13  O   UNL     1     -11.741  16.523  71.484  1.00  0.00    -0.658 OA 
HETATM   14  C   UNL     1     -12.099  15.126  69.614  1.00  0.00    -0.304 A  
HETATM   15  H   UNL     1     -12.527  16.186  71.895  1.00  0.00     0.000 HD 
HETATM   16  C   UNL     1     -11.738  14.644  68.367  1.00  0.00    -0.352 A  
HETATM   17  O   UNL     1     -13.221  14.640  70.220  1.00  0.00    -0.552 OA 
HETATM   18  C   UNL     1     -10.580  15.131  67.756  1.00  0.00    -0.264 A  
HETATM   19  H   UNL     1     -13.747  13.981  69.784  1.00  0.00     0.000 HD 
ENDBRANCH   7  10
ENDBRANCH   6   7
ENDBRANCH   4   6
ENDBRANCH   2   4
TORSDOF 4
ENDMDL
MODEL       76
REMARK 921   NORMALIZED FREE ENERGY PREDICTED BY IDOCK:   -4.58 KCAL/MOL
REMARK 922        TOTAL FREE ENERGY PREDICTED BY IDOCK:   -5.94 KCAL/MOL
REMARK 923 INTER-LIGAND FREE ENERGY PREDICTED BY IDOCK:   -5.54 KCAL/MOL
REMARK 924 INTRA-LIGAND FREE ENERGY PREDICTED BY IDOCK:   -0.40 KCAL/MOL
REMARK 927      BINDING AFFINITY PREDICTED BY RF-SCORE:    0.00 PKD
ROOT
HETATM    1  C   UNL     1     -12.263  13.775  63.588  1.00  0.00    -0.311 C  
HETATM    2  C   UNL     1     -12.284  12.384  64.227  1.00  0.00    -0.452 C  
HETATM    3  C   UNL     1     -11.041  11.605  63.786  1.00  0.00    -0.499 C  
ENDROOT
BRANCH   2   4
HETATM    4  N   UNL     1     -12.351  12.546  65.684  1.00  0.00    -0.638 NA 
HETATM    5  H   UNL     1     -11.513  12.167  66.125  1.00  0.00     0.000 HD 
BRANCH   4   6
HETATM    6  C   UNL     1     -12.582  13.933  66.119  1.00  0.00    -0.380 C  
BRANCH   6   7
HETATM    7  C   UNL     1     -11.870  14.226  67.466  1.00  0.00    -0.395 C  
HETATM    8  H   UNL     1     -10.677  13.272  68.733  1.00  0.00     0.000 HD 
HETATM    9  O   UNL     1     -11.113  13.093  67.908  1.00  0.00    -0.245 OA 
BRANCH   7  10
HETATM   10  C   UNL     1     -10.968  15.440  67.365  1.00  0.00    -0.312 A  
HETATM   11  C   UNL     1     -11.084  16.529  68.247  1.00  0.00    -0.321 A  
HETATM   12  C   UNL     1     -10.228  17.618  68.120  1.00  0.00    -0.371 A  
HETATM   13  O   UNL     1     -10.315  18.706  68.946  1.00  0.00    -0.463 OA 
HETATM   14  C   UNL     1      -9.248  17.634  67.131  1.00  0.00    -0.245 A  
HETATM   15  H   UNL     1      -9.730  19.449  68.859  1.00  0.00     0.000 HD 
HETATM   16  C   UNL     1      -9.104  16.568  66.261  1.00  0.00    -0.348 A  
HETATM   17  O   UNL     1      -8.422  18.714  67.009  1.00  0.00    -0.259 OA 
HETATM   18  C   UNL     1      -9.962  15.472  66.378  1.00  0.00    -0.300 A  
HETATM   19  H   UNL     1      -7.754  18.725  66.334  1.00  0.00     0.000 HD 
ENDBRANCH   7  10
ENDBRANCH   6   7
ENDBRANCH   4   6
ENDBRANCH   2   4
TORSDOF 4
ENDMDL
MODEL       77
REMARK 921   NORMALIZED FREE ENERGY PREDICTED BY IDOCK:   -4.52 KCAL/MOL
REMARK 922        TOTAL FREE ENERGY PREDICTED BY IDOCK:   -5.86 KCAL/MOL
REMARK 923 INTER-LIGAND FREE ENERGY PREDICTED BY IDOCK:   -5.47 KCAL/MOL
REMARK 924 INTRA-LIGAND FREE ENERGY PREDICTED BY IDOCK:   -0.40 KCAL/MOL
REMARK 927      BINDING AFFINITY PREDICTED BY RF-SCORE:    0.00 PKD
ROOT
HETATM    1  C   UNL     1     -10.715  11.061  66.855  1.00  0.00    -0.325 C  
HETATM    2  C   UNL     1      -9.779  11.734  65.847  1.00  0.00    -0.237 C  
HETATM    3  C   UNL     1      -9.919  11.044  64.487  1.00  0.00    -0.366 C  
ENDROOT
BRANCH   2   4
HETATM    4  N   UNL     1     -10.119  13.160  65.785  1.00  0.00    -0.289 NA 
HETATM    5  H   UNL     1     -11.052  13.290  65.394  1.00  0.00     0.000 HD 
BRANCH   4   6
HETATM    6  C   UNL     1      -9.996  13.860  67.073  1.00  0.00    -0.258 C  
BRANCH   6   7
HETATM    7  C   UNL     1     -11.261  14.704  67.378  1.00  0.00    -0.342 C  
HETATM    8  H   UNL     1     -13.138  14.818  66.741  1.00  0.00     0.000 HD 
HETATM    9  O   UNL     1     -12.362  14.301  66.555  1.00  0.00    -0.445 OA 
BRANCH   7  10
HETATM   10  C   UNL     1     -11.651  14.613  68.840  1.00  0.00    -0.340 A  
HETATM   11  C   UNL     1     -11.678  15.744  69.675  1.00  0.00    -0.363 A  
HETATM   12  C   UNL     1     -12.051  15.612  71.009  1.00  0.00    -0.400 A  
HETATM   13  O   UNL     1     -12.076  16.681  71.862  1.00  0.00    -0.580 OA 
HETATM   14  C   UNL     1     -12.409  14.368  71.522  1.00  0.00    -0.353 A  
HETATM   15  H   UNL     1     -12.331  16.592  72.772  1.00  0.00     0.000 HD 
HETATM   16  C   UNL     1     -12.405  13.243  70.716  1.00  0.00    -0.425 A  
HETATM   17  O   UNL     1     -12.761  14.250  72.836  1.00  0.00    -0.375 OA 
HETATM   18  C   UNL     1     -12.028  13.365  69.377  1.00  0.00    -0.369 A  
HETATM   19  H   UNL     1     -13.004  13.401  73.186  1.00  0.00     0.000 HD 
ENDBRANCH   7  10
ENDBRANCH   6   7
ENDBRANCH   4   6
ENDBRANCH   2   4
TORSDOF 4
ENDMDL
MODEL       78
REMARK 921   NORMALIZED FREE ENERGY PREDICTED BY IDOCK:   -4.50 KCAL/MOL
REMARK 922        TOTAL FREE ENERGY PREDICTED BY IDOCK:   -5.84 KCAL/MOL
REMARK 923 INTER-LIGAND FREE ENERGY PREDICTED BY IDOCK:   -5.79 KCAL/MOL
REMARK 924 INTRA-LIGAND FREE ENERGY PREDICTED BY IDOCK:   -0.06 KCAL/MOL
REMARK 927      BINDING AFFINITY PREDICTED BY RF-SCORE:    0.00 PKD
ROOT
HETATM    1  C   UNL     1      -6.372  17.358  69.532  1.00  0.00    -0.233 C  
HETATM    2  C   UNL     1      -6.547  16.553  68.241  1.00  0.00    -0.136 C  
HETATM    3  C   UNL     1      -5.186  16.392  67.557  1.00  0.00    -0.156 C  
ENDROOT
BRANCH   2   4
HETATM    4  N   UNL     1      -7.154  15.262  68.582  1.00  0.00    -0.111 NA 
HETATM    5  H   UNL     1      -7.659  15.326  69.466  1.00  0.00     0.000 HD 
BRANCH   4   6
HETATM    6  C   UNL     1      -8.022  14.714  67.528  1.00  0.00    -0.190 C  
BRANCH   6   7
HETATM    7  C   UNL     1      -9.516  15.024  67.812  1.00  0.00    -0.195 C  
HETATM    8  H   UNL     1     -10.605  16.572  68.407  1.00  0.00     0.000 HD 
HETATM    9  O   UNL     1      -9.691  16.382  68.234  1.00  0.00    -0.217 OA 
BRANCH   7  10
HETATM   10  C   UNL     1     -10.382  14.745  66.599  1.00  0.00    -0.273 A  
HETATM   11  C   UNL     1     -10.654  15.733  65.637  1.00  0.00    -0.393 A  
HETATM   12  C   UNL     1     -11.448  15.427  64.536  1.00  0.00    -0.311 A  
HETATM   13  O   UNL     1     -11.753  16.360  63.583  1.00  0.00    -1.520 OA 
HETATM   14  C   UNL     1     -11.968  14.146  64.374  1.00  0.00    -0.457 A  
HETATM   15  H   UNL     1     -12.294  16.152  62.831  1.00  0.00     0.000 HD 
HETATM   16  C   UNL     1     -11.701  13.152  65.300  1.00  0.00    -0.375 A  
HETATM   17  O   UNL     1     -12.755  13.862  63.296  1.00  0.00    -0.926 OA 
HETATM   18  C   UNL     1     -10.908  13.451  66.411  1.00  0.00    -0.294 A  
HETATM   19  H   UNL     1     -13.111  12.988  63.186  1.00  0.00     0.000 HD 
ENDBRANCH   7  10
ENDBRANCH   6   7
ENDBRANCH   4   6
ENDBRANCH   2   4
TORSDOF 4
ENDMDL
MODEL       79
REMARK 921   NORMALIZED FREE ENERGY PREDICTED BY IDOCK:   -4.48 KCAL/MOL
REMARK 922        TOTAL FREE ENERGY PREDICTED BY IDOCK:   -5.82 KCAL/MOL
REMARK 923 INTER-LIGAND FREE ENERGY PREDICTED BY IDOCK:   -5.58 KCAL/MOL
REMARK 924 INTRA-LIGAND FREE ENERGY PREDICTED BY IDOCK:   -0.24 KCAL/MOL
REMARK 927      BINDING AFFINITY PREDICTED BY RF-SCORE:    0.00 PKD
ROOT
HETATM    1  C   UNL     1      -8.211   9.531  66.376  1.00  0.00    -0.115 C  
HETATM    2  C   UNL     1      -9.041  10.779  66.064  1.00  0.00    -0.185 C  
HETATM    3  C   UNL     1      -9.411  10.784  64.578  1.00  0.00    -0.273 C  
ENDROOT
BRANCH   2   4
HETATM    4  N   UNL     1     -10.225  10.774  66.931  1.00  0.00    -0.218 NA 
HETATM    5  H   UNL     1     -10.730   9.892  66.844  1.00  0.00     0.000 HD 
BRANCH   4   6
HETATM    6  C   UNL     1      -9.931  11.065  68.344  1.00  0.00    -0.186 C  
BRANCH   6   7
HETATM    7  C   UNL     1     -11.234  11.287  69.156  1.00  0.00    -0.273 C  
HETATM    8  H   UNL     1     -13.187  11.349  68.808  1.00  0.00     0.000 HD 
HETATM    9  O   UNL     1     -12.389  11.213  68.311  1.00  0.00    -0.532 OA 
BRANCH   7  10
HETATM   10  C   UNL     1     -11.360  10.287  70.288  1.00  0.00    -0.398 A  
HETATM   11  C   UNL     1     -12.539  10.163  71.044  1.00  0.00    -0.478 A  
HETATM   12  C   UNL     1     -12.610   9.225  72.068  1.00  0.00    -0.390 A  
HETATM   13  O   UNL     1     -13.731   9.080  72.840  1.00  0.00    -0.864 OA 
HETATM   14  C   UNL     1     -11.524   8.399  72.346  1.00  0.00    -0.380 A  
HETATM   15  H   UNL     1     -13.780   8.440  73.539  1.00  0.00     0.000 HD 
HETATM   16  C   UNL     1     -10.358   8.491  71.606  1.00  0.00    -0.333 A  
HETATM   17  O   UNL     1     -11.602   7.491  73.362  1.00  0.00    -0.621 OA 
HETATM   18  C   UNL     1     -10.276   9.433  70.578  1.00  0.00    -0.332 A  
HETATM   19  H   UNL     1     -10.861   6.927  73.552  1.00  0.00     0.000 HD 
ENDBRANCH   7  10
ENDBRANCH   6   7
ENDBRANCH   4   6
ENDBRANCH   2   4
TORSDOF 4
ENDMDL
MODEL       80
REMARK 921   NORMALIZED FREE ENERGY PREDICTED BY IDOCK:   -4.47 KCAL/MOL
REMARK 922        TOTAL FREE ENERGY PREDICTED BY IDOCK:   -5.81 KCAL/MOL
REMARK 923 INTER-LIGAND FREE ENERGY PREDICTED BY IDOCK:   -5.56 KCAL/MOL
REMARK 924 INTRA-LIGAND FREE ENERGY PREDICTED BY IDOCK:   -0.24 KCAL/MOL
REMARK 927      BINDING AFFINITY PREDICTED BY RF-SCORE:    0.00 PKD
ROOT
HETATM    1  C   UNL     1     -11.738   9.683  71.361  1.00  0.00    -0.478 C  
HETATM    2  C   UNL     1     -10.716   9.418  70.251  1.00  0.00    -0.253 C  
HETATM    3  C   UNL     1      -9.880   8.188  70.616  1.00  0.00    -0.196 C  
ENDROOT
BRANCH   2   4
HETATM    4  N   UNL     1     -11.443   9.242  68.989  1.00  0.00    -0.283 NA 
HETATM    5  H   UNL     1     -12.399   9.590  69.074  1.00  0.00     0.000 HD 
BRANCH   4   6
HETATM    6  C   UNL     1     -10.774   9.846  67.826  1.00  0.00    -0.277 C  
BRANCH   6   7
HETATM    7  C   UNL     1     -10.480  11.350  68.064  1.00  0.00    -0.188 C  
HETATM    8  H   UNL     1      -8.891  12.510  68.330  1.00  0.00     0.000 HD 
HETATM    9  O   UNL     1      -9.072  11.589  68.184  1.00  0.00    -0.167 OA 
BRANCH   7  10
HETATM   10  C   UNL     1     -11.056  12.212  66.958  1.00  0.00    -0.347 A  
HETATM   11  C   UNL     1     -10.965  11.844  65.605  1.00  0.00    -0.353 A  
HETATM   12  C   UNL     1     -11.516  12.664  64.625  1.00  0.00    -0.330 A  
HETATM   13  O   UNL     1     -11.437  12.355  63.295  1.00  0.00    -0.639 OA 
HETATM   14  C   UNL     1     -12.168  13.843  64.976  1.00  0.00    -0.425 A  
HETATM   15  H   UNL     1     -11.814  12.914  62.626  1.00  0.00     0.000 HD 
HETATM   16  C   UNL     1     -12.284  14.219  66.304  1.00  0.00    -0.433 A  
HETATM   17  O   UNL     1     -12.694  14.645  64.005  1.00  0.00    -0.772 OA 
HETATM   18  C   UNL     1     -11.730  13.404  67.293  1.00  0.00    -0.424 A  
HETATM   19  H   UNL     1     -13.138  15.450  64.245  1.00  0.00     0.000 HD 
ENDBRANCH   7  10
ENDBRANCH   6   7
ENDBRANCH   4   6
ENDBRANCH   2   4
TORSDOF 4
ENDMDL
MODEL       81
REMARK 921   NORMALIZED FREE ENERGY PREDICTED BY IDOCK:   -4.45 KCAL/MOL
REMARK 922        TOTAL FREE ENERGY PREDICTED BY IDOCK:   -5.78 KCAL/MOL
REMARK 923 INTER-LIGAND FREE ENERGY PREDICTED BY IDOCK:   -5.51 KCAL/MOL
REMARK 924 INTRA-LIGAND FREE ENERGY PREDICTED BY IDOCK:   -0.27 KCAL/MOL
REMARK 927      BINDING AFFINITY PREDICTED BY RF-SCORE:    0.00 PKD
ROOT
HETATM    1  C   UNL     1      -5.794  12.633  67.896  1.00  0.00    -0.111 C  
HETATM    2  C   UNL     1      -6.182  11.645  66.792  1.00  0.00    -0.123 C  
HETATM    3  C   UNL     1      -5.781  10.229  67.216  1.00  0.00    -0.045 C  
ENDROOT
BRANCH   2   4
HETATM    4  N   UNL     1      -7.624  11.766  66.551  1.00  0.00    -0.366 NA 
HETATM    5  H   UNL     1      -8.039  10.847  66.391  1.00  0.00     0.000 HD 
BRANCH   4   6
HETATM    6  C   UNL     1      -8.349  12.483  67.612  1.00  0.00    -0.172 C  
BRANCH   6   7
HETATM    7  C   UNL     1      -9.884  12.340  67.442  1.00  0.00    -0.198 C  
HETATM    8  H   UNL     1     -11.498  12.387  68.596  1.00  0.00     0.000 HD 
HETATM    9  O   UNL     1     -10.558  12.474  68.700  1.00  0.00    -0.228 OA 
BRANCH   7  10
HETATM   10  C   UNL     1     -10.430  13.352  66.455  1.00  0.00    -0.286 A  
HETATM   11  C   UNL     1     -11.073  12.961  65.267  1.00  0.00    -0.313 A  
HETATM   12  C   UNL     1     -11.565  13.927  64.395  1.00  0.00    -0.382 A  
HETATM   13  O   UNL     1     -12.183  13.593  63.221  1.00  0.00    -0.959 OA 
HETATM   14  C   UNL     1     -11.436  15.280  64.695  1.00  0.00    -0.354 A  
HETATM   15  H   UNL     1     -12.519  14.252  62.626  1.00  0.00     0.000 HD 
HETATM   16  C   UNL     1     -10.821  15.690  65.865  1.00  0.00    -0.297 A  
HETATM   17  O   UNL     1     -11.913  16.218  63.825  1.00  0.00    -1.409 OA 
HETATM   18  C   UNL     1     -10.320  14.727  66.745  1.00  0.00    -0.268 A  
HETATM   19  H   UNL     1     -11.824  17.142  64.030  1.00  0.00     0.000 HD 
ENDBRANCH   7  10
ENDBRANCH   6   7
ENDBRANCH   4   6
ENDBRANCH   2   4
TORSDOF 4
ENDMDL
MODEL       82
REMARK 921   NORMALIZED FREE ENERGY PREDICTED BY IDOCK:   -4.44 KCAL/MOL
REMARK 922        TOTAL FREE ENERGY PREDICTED BY IDOCK:   -5.77 KCAL/MOL
REMARK 923 INTER-LIGAND FREE ENERGY PREDICTED BY IDOCK:   -5.17 KCAL/MOL
REMARK 924 INTRA-LIGAND FREE ENERGY PREDICTED BY IDOCK:   -0.60 KCAL/MOL
REMARK 927      BINDING AFFINITY PREDICTED BY RF-SCORE:    0.00 PKD
ROOT
HETATM    1  C   UNL     1     -12.025  14.827  64.953  1.00  0.00    -0.359 C  
HETATM    2  C   UNL     1     -10.508  14.763  64.760  1.00  0.00    -0.286 C  
HETATM    3  C   UNL     1      -9.819  15.501  65.911  1.00  0.00    -0.385 C  
ENDROOT
BRANCH   2   4
HETATM    4  N   UNL     1     -10.112  13.352  64.688  1.00  0.00    -0.622 NA 
HETATM    5  H   UNL     1      -9.144  13.235  64.990  1.00  0.00     0.000 HD 
BRANCH   4   6
HETATM    6  C   UNL     1     -10.999  12.445  65.434  1.00  0.00    -0.299 C  
BRANCH   6   7
HETATM    7  C   UNL     1     -10.247  11.756  66.603  1.00  0.00    -0.210 C  
HETATM    8  H   UNL     1      -8.443  11.824  67.429  1.00  0.00     0.000 HD 
HETATM    9  O   UNL     1      -8.904  12.245  66.713  1.00  0.00    -0.202 OA 
BRANCH   7  10
HETATM   10  C   UNL     1     -10.973  11.944  67.920  1.00  0.00    -0.270 A  
HETATM   11  C   UNL     1     -11.516  10.861  68.632  1.00  0.00    -0.380 A  
HETATM   12  C   UNL     1     -12.168  11.083  69.841  1.00  0.00    -0.336 A  
HETATM   13  O   UNL     1     -12.725  10.061  70.560  1.00  0.00    -0.492 OA 
HETATM   14  C   UNL     1     -12.277  12.371  70.358  1.00  0.00    -0.287 A  
HETATM   15  H   UNL     1     -13.170  10.212  71.385  1.00  0.00     0.000 HD 
HETATM   16  C   UNL     1     -11.737  13.452  69.683  1.00  0.00    -0.375 A  
HETATM   17  O   UNL     1     -12.929  12.577  71.539  1.00  0.00    -0.376 OA 
HETATM   18  C   UNL     1     -11.085  13.239  68.466  1.00  0.00    -0.294 A  
HETATM   19  H   UNL     1     -13.004  13.456  71.892  1.00  0.00     0.000 HD 
ENDBRANCH   7  10
ENDBRANCH   6   7
ENDBRANCH   4   6
ENDBRANCH   2   4
TORSDOF 4
ENDMDL
MODEL       83
REMARK 921   NORMALIZED FREE ENERGY PREDICTED BY IDOCK:   -4.44 KCAL/MOL
REMARK 922        TOTAL FREE ENERGY PREDICTED BY IDOCK:   -5.77 KCAL/MOL
REMARK 923 INTER-LIGAND FREE ENERGY PREDICTED BY IDOCK:   -5.51 KCAL/MOL
REMARK 924 INTRA-LIGAND FREE ENERGY PREDICTED BY IDOCK:   -0.26 KCAL/MOL
REMARK 927      BINDING AFFINITY PREDICTED BY RF-SCORE:    0.00 PKD
ROOT
HETATM    1  C   UNL     1     -10.063  10.398  64.945  1.00  0.00    -0.382 C  
HETATM    2  C   UNL     1     -10.106   9.373  66.081  1.00  0.00    -0.254 C  
HETATM    3  C   UNL     1      -8.875   8.467  65.993  1.00  0.00    -0.208 C  
ENDROOT
BRANCH   2   4
HETATM    4  N   UNL     1     -10.172  10.099  67.355  1.00  0.00    -0.205 NA 
HETATM    5  H   UNL     1      -9.273  10.531  67.568  1.00  0.00     0.000 HD 
BRANCH   4   6
HETATM    6  C   UNL     1     -11.253  11.096  67.418  1.00  0.00    -0.294 C  
BRANCH   6   7
HETATM    7  C   UNL     1     -10.797  12.374  68.168  1.00  0.00    -0.221 C  
HETATM    8  H   UNL     1     -10.522  14.297  67.758  1.00  0.00     0.000 HD 
HETATM    9  O   UNL     1     -10.801  13.513  67.299  1.00  0.00    -0.271 OA 
BRANCH   7  10
HETATM   10  C   UNL     1     -11.666  12.648  69.380  1.00  0.00    -0.387 A  
HETATM   11  C   UNL     1     -12.037  11.629  70.275  1.00  0.00    -0.443 A  
HETATM   12  C   UNL     1     -12.830  11.931  71.377  1.00  0.00    -0.307 A  
HETATM   13  O   UNL     1     -13.229  10.970  72.265  1.00  0.00    -0.612 OA 
HETATM   14  C   UNL     1     -13.251  13.238  71.608  1.00  0.00    -0.359 A  
HETATM   15  H   UNL     1     -13.770  11.175  73.018  1.00  0.00     0.000 HD 
HETATM   16  C   UNL     1     -12.885  14.261  70.750  1.00  0.00    -0.404 A  
HETATM   17  O   UNL     1     -14.038  13.519  72.687  1.00  0.00    -0.762 OA 
HETATM   18  C   UNL     1     -12.093  13.966  69.638  1.00  0.00    -0.404 A  
HETATM   19  H   UNL     1     -14.326  14.411  72.844  1.00  0.00     0.000 HD 
ENDBRANCH   7  10
ENDBRANCH   6   7
ENDBRANCH   4   6
ENDBRANCH   2   4
TORSDOF 4
ENDMDL
MODEL       84
REMARK 921   NORMALIZED FREE ENERGY PREDICTED BY IDOCK:   -4.44 KCAL/MOL
REMARK 922        TOTAL FREE ENERGY PREDICTED BY IDOCK:   -5.77 KCAL/MOL
REMARK 923 INTER-LIGAND FREE ENERGY PREDICTED BY IDOCK:   -5.56 KCAL/MOL
REMARK 924 INTRA-LIGAND FREE ENERGY PREDICTED BY IDOCK:   -0.21 KCAL/MOL
REMARK 927      BINDING AFFINITY PREDICTED BY RF-SCORE:    0.00 PKD
ROOT
HETATM    1  C   UNL     1      -8.303   6.942  68.323  1.00  0.00    -0.123 C  
HETATM    2  C   UNL     1      -9.275   7.576  67.323  1.00  0.00    -0.131 C  
HETATM    3  C   UNL     1     -10.569   6.758  67.287  1.00  0.00    -0.390 C  
ENDROOT
BRANCH   2   4
HETATM    4  N   UNL     1      -9.508   8.967  67.726  1.00  0.00    -0.140 NA 
HETATM    5  H   UNL     1      -8.629   9.420  67.979  1.00  0.00     0.000 HD 
BRANCH   4   6
HETATM    6  C   UNL     1     -10.231   9.766  66.724  1.00  0.00    -0.233 C  
BRANCH   6   7
HETATM    7  C   UNL     1     -11.152  10.816  67.398  1.00  0.00    -0.296 C  
HETATM    8  H   UNL     1     -11.148  11.933  69.038  1.00  0.00     0.000 HD 
HETATM    9  O   UNL     1     -10.584  11.290  68.625  1.00  0.00    -0.184 OA 
BRANCH   7  10
HETATM   10  C   UNL     1     -11.431  11.986  66.474  1.00  0.00    -0.413 A  
HETATM   11  C   UNL     1     -11.361  11.863  65.076  1.00  0.00    -0.333 A  
HETATM   12  C   UNL     1     -11.633  12.963  64.269  1.00  0.00    -0.378 A  
HETATM   13  O   UNL     1     -11.561  12.895  62.904  1.00  0.00    -0.747 OA 
HETATM   14  C   UNL     1     -11.986  14.185  64.836  1.00  0.00    -0.417 A  
HETATM   15  H   UNL     1     -11.747  13.645  62.354  1.00  0.00     0.000 HD 
HETATM   16  C   UNL     1     -12.077  14.326  66.210  1.00  0.00    -0.433 A  
HETATM   17  O   UNL     1     -12.239  15.260  64.034  1.00  0.00    -0.900 OA 
HETATM   18  C   UNL     1     -11.801  13.228  67.028  1.00  0.00    -0.442 A  
HETATM   19  H   UNL     1     -12.479  16.093  64.422  1.00  0.00     0.000 HD 
ENDBRANCH   7  10
ENDBRANCH   6   7
ENDBRANCH   4   6
ENDBRANCH   2   4
TORSDOF 4
ENDMDL
MODEL       85
REMARK 921   NORMALIZED FREE ENERGY PREDICTED BY IDOCK:   -4.43 KCAL/MOL
REMARK 922        TOTAL FREE ENERGY PREDICTED BY IDOCK:   -5.75 KCAL/MOL
REMARK 923 INTER-LIGAND FREE ENERGY PREDICTED BY IDOCK:   -5.50 KCAL/MOL
REMARK 924 INTRA-LIGAND FREE ENERGY PREDICTED BY IDOCK:   -0.26 KCAL/MOL
REMARK 927      BINDING AFFINITY PREDICTED BY RF-SCORE:    0.00 PKD
ROOT
HETATM    1  C   UNL     1     -12.260  13.671  65.818  1.00  0.00    -0.503 C  
HETATM    2  C   UNL     1     -10.756  13.439  65.982  1.00  0.00    -0.278 C  
HETATM    3  C   UNL     1     -10.037  14.790  66.031  1.00  0.00    -0.327 C  
ENDROOT
BRANCH   2   4
HETATM    4  N   UNL     1     -10.542  12.651  67.202  1.00  0.00    -0.234 NA 
HETATM    5  H   UNL     1      -9.827  13.084  67.787  1.00  0.00     0.000 HD 
BRANCH   4   6
HETATM    6  C   UNL     1     -11.768  12.407  67.977  1.00  0.00    -0.356 C  
BRANCH   6   7
HETATM    7  C   UNL     1     -11.540  12.669  69.489  1.00  0.00    -0.281 C  
HETATM    8  H   UNL     1     -12.213  13.916  70.880  1.00  0.00     0.000 HD 
HETATM    9  O   UNL     1     -12.352  13.755  69.954  1.00  0.00    -0.322 OA 
BRANCH   7  10
HETATM   10  C   UNL     1     -11.815  11.429  70.317  1.00  0.00    -0.438 A  
HETATM   11  C   UNL     1     -10.953  10.319  70.302  1.00  0.00    -0.375 A  
HETATM   12  C   UNL     1     -11.244   9.206  71.085  1.00  0.00    -0.325 A  
HETATM   13  O   UNL     1     -10.443   8.097  71.089  1.00  0.00    -0.197 OA 
HETATM   14  C   UNL     1     -12.377   9.187  71.893  1.00  0.00    -0.385 A  
HETATM   15  H   UNL     1     -10.640   7.337  71.624  1.00  0.00     0.000 HD 
HETATM   16  C   UNL     1     -13.232  10.275  71.937  1.00  0.00    -0.550 A  
HETATM   17  O   UNL     1     -12.657   8.085  72.647  1.00  0.00    -0.575 OA 
HETATM   18  C   UNL     1     -12.951  11.395  71.150  1.00  0.00    -0.349 A  
HETATM   19  H   UNL     1     -13.431   8.072  73.198  1.00  0.00     0.000 HD 
ENDBRANCH   7  10
ENDBRANCH   6   7
ENDBRANCH   4   6
ENDBRANCH   2   4
TORSDOF 4
ENDMDL
MODEL       86
REMARK 921   NORMALIZED FREE ENERGY PREDICTED BY IDOCK:   -4.41 KCAL/MOL
REMARK 922        TOTAL FREE ENERGY PREDICTED BY IDOCK:   -5.73 KCAL/MOL
REMARK 923 INTER-LIGAND FREE ENERGY PREDICTED BY IDOCK:   -5.34 KCAL/MOL
REMARK 924 INTRA-LIGAND FREE ENERGY PREDICTED BY IDOCK:   -0.38 KCAL/MOL
REMARK 927      BINDING AFFINITY PREDICTED BY RF-SCORE:    0.00 PKD
ROOT
HETATM    1  C   UNL     1     -10.221  10.882  68.453  1.00  0.00    -0.193 C  
HETATM    2  C   UNL     1      -9.451  12.118  67.977  1.00  0.00    -0.201 C  
HETATM    3  C   UNL     1      -8.166  11.674  67.274  1.00  0.00    -0.159 C  
ENDROOT
BRANCH   2   4
HETATM    4  N   UNL     1     -10.328  12.896  67.095  1.00  0.00    -0.237 NA 
HETATM    5  H   UNL     1     -10.664  12.318  66.323  1.00  0.00     0.000 HD 
BRANCH   4   6
HETATM    6  C   UNL     1     -11.456  13.537  67.789  1.00  0.00    -0.315 C  
BRANCH   6   7
HETATM    7  C   UNL     1     -10.995  14.801  68.562  1.00  0.00    -0.258 C  
HETATM    8  H   UNL     1     -11.044  16.770  68.316  1.00  0.00     0.000 HD 
HETATM    9  O   UNL     1     -11.326  15.996  67.843  1.00  0.00    -0.314 OA 
BRANCH   7  10
HETATM   10  C   UNL     1     -11.598  14.853  69.952  1.00  0.00    -0.328 A  
HETATM   11  C   UNL     1     -12.348  13.788  70.478  1.00  0.00    -0.429 A  
HETATM   12  C   UNL     1     -12.875  13.879  71.763  1.00  0.00    -0.335 A  
HETATM   13  O   UNL     1     -13.625  12.873  72.310  1.00  0.00    -0.560 OA 
HETATM   14  C   UNL     1     -12.655  15.015  72.537  1.00  0.00    -0.357 A  
HETATM   15  H   UNL     1     -13.984  12.935  73.186  1.00  0.00     0.000 HD 
HETATM   16  C   UNL     1     -11.907  16.071  72.046  1.00  0.00    -0.623 A  
HETATM   17  O   UNL     1     -13.187  15.097  73.791  1.00  0.00    -0.609 OA 
HETATM   18  C   UNL     1     -11.378  15.990  70.756  1.00  0.00    -0.427 A  
HETATM   19  H   UNL     1     -13.038  15.873  74.319  1.00  0.00     0.000 HD 
ENDBRANCH   7  10
ENDBRANCH   6   7
ENDBRANCH   4   6
ENDBRANCH   2   4
TORSDOF 4
ENDMDL
MODEL       87
REMARK 921   NORMALIZED FREE ENERGY PREDICTED BY IDOCK:   -4.39 KCAL/MOL
REMARK 922        TOTAL FREE ENERGY PREDICTED BY IDOCK:   -5.71 KCAL/MOL
REMARK 923 INTER-LIGAND FREE ENERGY PREDICTED BY IDOCK:   -5.44 KCAL/MOL
REMARK 924 INTRA-LIGAND FREE ENERGY PREDICTED BY IDOCK:   -0.27 KCAL/MOL
REMARK 927      BINDING AFFINITY PREDICTED BY RF-SCORE:    0.00 PKD
ROOT
HETATM    1  C   UNL     1      -9.905  11.309  64.194  1.00  0.00    -0.323 C  
HETATM    2  C   UNL     1     -10.378  10.639  65.487  1.00  0.00    -0.227 C  
HETATM    3  C   UNL     1      -9.544   9.380  65.740  1.00  0.00    -0.340 C  
ENDROOT
BRANCH   2   4
HETATM    4  N   UNL     1     -10.262  11.612  66.579  1.00  0.00    -0.209 NA 
HETATM    5  H   UNL     1      -9.925  12.508  66.227  1.00  0.00     0.000 HD 
BRANCH   4   6
HETATM    6  C   UNL     1     -11.500  11.793  67.353  1.00  0.00    -0.305 C  
BRANCH   6   7
HETATM    7  C   UNL     1     -11.394  11.129  68.751  1.00  0.00    -0.277 C  
HETATM    8  H   UNL     1      -9.963  10.437  69.940  1.00  0.00     0.000 HD 
HETATM    9  O   UNL     1     -10.029  10.843  69.084  1.00  0.00    -0.210 OA 
BRANCH   7  10
HETATM   10  C   UNL     1     -12.015  11.997  69.827  1.00  0.00    -0.370 A  
HETATM   11  C   UNL     1     -12.048  13.398  69.726  1.00  0.00    -0.374 A  
HETATM   12  C   UNL     1     -12.637  14.152  70.737  1.00  0.00    -0.362 A  
HETATM   13  O   UNL     1     -12.678  15.519  70.689  1.00  0.00    -0.439 OA 
HETATM   14  C   UNL     1     -13.206  13.527  71.844  1.00  0.00    -0.422 A  
HETATM   15  H   UNL     1     -13.080  16.033  71.379  1.00  0.00     0.000 HD 
HETATM   16  C   UNL     1     -13.200  12.148  71.958  1.00  0.00    -0.496 A  
HETATM   17  O   UNL     1     -13.770  14.278  72.834  1.00  0.00    -0.629 OA 
HETATM   18  C   UNL     1     -12.607  11.383  70.950  1.00  0.00    -0.453 A  
HETATM   19  H   UNL     1     -14.157  13.852  73.590  1.00  0.00     0.000 HD 
ENDBRANCH   7  10
ENDBRANCH   6   7
ENDBRANCH   4   6
ENDBRANCH   2   4
TORSDOF 4
ENDMDL
MODEL       88
REMARK 921   NORMALIZED FREE ENERGY PREDICTED BY IDOCK:   -4.37 KCAL/MOL
REMARK 922        TOTAL FREE ENERGY PREDICTED BY IDOCK:   -5.68 KCAL/MOL
REMARK 923 INTER-LIGAND FREE ENERGY PREDICTED BY IDOCK:   -5.48 KCAL/MOL
REMARK 924 INTRA-LIGAND FREE ENERGY PREDICTED BY IDOCK:   -0.20 KCAL/MOL
REMARK 927      BINDING AFFINITY PREDICTED BY RF-SCORE:    0.00 PKD
ROOT
HETATM    1  C   UNL     1      -6.854  20.482  66.909  1.00  0.00    -0.332 C  
HETATM    2  C   UNL     1      -7.103  19.513  68.068  1.00  0.00    -0.263 C  
HETATM    3  C   UNL     1      -6.497  20.090  69.350  1.00  0.00    -0.365 C  
ENDROOT
BRANCH   2   4
HETATM    4  N   UNL     1      -8.549  19.296  68.186  1.00  0.00    -0.316 NA 
HETATM    5  H   UNL     1      -9.055  19.881  67.520  1.00  0.00     0.000 HD 
BRANCH   4   6
HETATM    6  C   UNL     1      -8.955  17.888  68.049  1.00  0.00    -0.267 C  
BRANCH   6   7
HETATM    7  C   UNL     1      -9.441  17.579  66.609  1.00  0.00    -0.275 C  
HETATM    8  H   UNL     1      -8.637  17.328  64.812  1.00  0.00     0.000 HD 
HETATM    9  O   UNL     1      -8.340  17.517  65.694  1.00  0.00    -0.479 OA 
BRANCH   7  10
HETATM   10  C   UNL     1     -10.230  16.285  66.554  1.00  0.00    -0.307 A  
HETATM   11  C   UNL     1     -11.006  15.841  67.637  1.00  0.00    -0.302 A  
HETATM   12  C   UNL     1     -11.719  14.650  67.536  1.00  0.00    -0.379 A  
HETATM   13  O   UNL     1     -12.475  14.170  68.571  1.00  0.00    -0.533 OA 
HETATM   14  C   UNL     1     -11.678  13.900  66.365  1.00  0.00    -0.383 A  
HETATM   15  H   UNL     1     -12.962  13.358  68.502  1.00  0.00     0.000 HD 
HETATM   16  C   UNL     1     -10.933  14.325  65.278  1.00  0.00    -0.347 A  
HETATM   17  O   UNL     1     -12.373  12.728  66.282  1.00  0.00    -0.521 OA 
HETATM   18  C   UNL     1     -10.211  15.517  65.372  1.00  0.00    -0.409 A  
HETATM   19  H   UNL     1     -12.344  12.215  65.482  1.00  0.00     0.000 HD 
ENDBRANCH   7  10
ENDBRANCH   6   7
ENDBRANCH   4   6
ENDBRANCH   2   4
TORSDOF 4
ENDMDL
MODEL       89
REMARK 921   NORMALIZED FREE ENERGY PREDICTED BY IDOCK:   -4.34 KCAL/MOL
REMARK 922        TOTAL FREE ENERGY PREDICTED BY IDOCK:   -5.65 KCAL/MOL
REMARK 923 INTER-LIGAND FREE ENERGY PREDICTED BY IDOCK:   -5.18 KCAL/MOL
REMARK 924 INTRA-LIGAND FREE ENERGY PREDICTED BY IDOCK:   -0.46 KCAL/MOL
REMARK 927      BINDING AFFINITY PREDICTED BY RF-SCORE:    0.00 PKD
ROOT
HETATM    1  C   UNL     1     -11.933  12.348  64.733  1.00  0.00    -0.462 C  
HETATM    2  C   UNL     1     -10.981  13.451  65.204  1.00  0.00    -0.303 C  
HETATM    3  C   UNL     1     -11.554  14.816  64.814  1.00  0.00    -0.418 C  
ENDROOT
BRANCH   2   4
HETATM    4  N   UNL     1     -10.801  13.317  66.654  1.00  0.00    -0.279 NA 
HETATM    5  H   UNL     1      -9.838  13.061  66.874  1.00  0.00     0.000 HD 
BRANCH   4   6
HETATM    6  C   UNL     1     -11.208  14.507  67.419  1.00  0.00    -0.327 C  
BRANCH   6   7
HETATM    7  C   UNL     1     -10.000  15.143  68.155  1.00  0.00    -0.221 C  
HETATM    8  H   UNL     1      -8.095  14.705  68.498  1.00  0.00     0.000 HD 
HETATM    9  O   UNL     1      -8.835  14.316  68.047  1.00  0.00    -0.164 OA 
BRANCH   7  10
HETATM   10  C   UNL     1      -9.697  16.532  67.630  1.00  0.00    -0.239 A  
HETATM   11  C   UNL     1      -8.617  16.781  66.766  1.00  0.00    -0.264 A  
HETATM   12  C   UNL     1      -8.383  18.072  66.303  1.00  0.00    -0.197 A  
HETATM   13  O   UNL     1      -7.334  18.364  65.474  1.00  0.00    -0.534 OA 
HETATM   14  C   UNL     1      -9.218  19.120  66.681  1.00  0.00    -0.334 A  
HETATM   15  H   UNL     1      -7.174  19.245  65.158  1.00  0.00     0.000 HD 
HETATM   16  C   UNL     1     -10.297  18.897  67.519  1.00  0.00    -0.496 A  
HETATM   17  O   UNL     1      -8.971  20.384  66.230  1.00  0.00    -0.568 OA 
HETATM   18  C   UNL     1     -10.537  17.604  67.991  1.00  0.00    -0.379 A  
HETATM   19  H   UNL     1      -9.540  21.099  66.489  1.00  0.00     0.000 HD 
ENDBRANCH   7  10
ENDBRANCH   6   7
ENDBRANCH   4   6
ENDBRANCH   2   4
TORSDOF 4
ENDMDL
MODEL       90
REMARK 921   NORMALIZED FREE ENERGY PREDICTED BY IDOCK:   -4.33 KCAL/MOL
REMARK 922        TOTAL FREE ENERGY PREDICTED BY IDOCK:   -5.63 KCAL/MOL
REMARK 923 INTER-LIGAND FREE ENERGY PREDICTED BY IDOCK:   -5.36 KCAL/MOL
REMARK 924 INTRA-LIGAND FREE ENERGY PREDICTED BY IDOCK:   -0.28 KCAL/MOL
REMARK 927      BINDING AFFINITY PREDICTED BY RF-SCORE:    0.00 PKD
ROOT
HETATM    1  C   UNL     1     -11.784  13.687  64.697  1.00  0.00    -0.414 C  
HETATM    2  C   UNL     1     -10.853  14.061  65.854  1.00  0.00    -0.288 C  
HETATM    3  C   UNL     1     -10.378  15.506  65.676  1.00  0.00    -0.407 C  
ENDROOT
BRANCH   2   4
HETATM    4  N   UNL     1     -11.581  13.866  67.113  1.00  0.00    -0.343 NA 
HETATM    5  H   UNL     1     -11.220  13.055  67.615  1.00  0.00     0.000 HD 
BRANCH   4   6
HETATM    6  C   UNL     1     -11.592  15.051  67.985  1.00  0.00    -0.338 C  
BRANCH   6   7
HETATM    7  C   UNL     1     -10.829  14.783  69.309  1.00  0.00    -0.264 C  
HETATM    8  H   UNL     1      -9.146  15.377  70.177  1.00  0.00     0.000 HD 
HETATM    9  O   UNL     1      -9.614  15.540  69.366  1.00  0.00    -0.248 OA 
BRANCH   7  10
HETATM   10  C   UNL     1     -11.688  15.094  70.519  1.00  0.00    -0.344 A  
HETATM   11  C   UNL     1     -11.288  16.022  71.496  1.00  0.00    -0.342 A  
HETATM   12  C   UNL     1     -12.114  16.280  72.585  1.00  0.00    -0.534 A  
HETATM   13  O   UNL     1     -11.759  17.162  73.569  1.00  0.00    -0.117 OA 
HETATM   14  C   UNL     1     -13.341  15.634  72.710  1.00  0.00    -0.549 A  
HETATM   15  H   UNL     1     -12.323  17.339  74.313  1.00  0.00     0.000 HD 
HETATM   16  C   UNL     1     -13.764  14.728  71.752  1.00  0.00    -0.511 A  
HETATM   17  O   UNL     1     -14.137  15.887  73.789  1.00  0.00    -0.312 OA 
HETATM   18  C   UNL     1     -12.939  14.460  70.657  1.00  0.00    -0.348 A  
HETATM   19  H   UNL     1     -14.974  15.445  73.874  1.00  0.00     0.000 HD 
ENDBRANCH   7  10
ENDBRANCH   6   7
ENDBRANCH   4   6
ENDBRANCH   2   4
TORSDOF 4
ENDMDL
MODEL       91
REMARK 921   NORMALIZED FREE ENERGY PREDICTED BY IDOCK:   -4.33 KCAL/MOL
REMARK 922        TOTAL FREE ENERGY PREDICTED BY IDOCK:   -5.63 KCAL/MOL
REMARK 923 INTER-LIGAND FREE ENERGY PREDICTED BY IDOCK:   -5.33 KCAL/MOL
REMARK 924 INTRA-LIGAND FREE ENERGY PREDICTED BY IDOCK:   -0.30 KCAL/MOL
REMARK 927      BINDING AFFINITY PREDICTED BY RF-SCORE:    0.00 PKD
ROOT
HETATM    1  C   UNL     1      -9.455   5.309  73.733  1.00  0.00    -0.133 C  
HETATM    2  C   UNL     1      -9.906   6.690  74.217  1.00  0.00    -0.327 C  
HETATM    3  C   UNL     1      -8.780   7.700  73.985  1.00  0.00    -0.303 C  
ENDROOT
BRANCH   2   4
HETATM    4  N   UNL     1     -11.134   7.051  73.499  1.00  0.00    -0.539 NA 
HETATM    5  H   UNL     1     -11.267   8.062  73.503  1.00  0.00     0.000 HD 
BRANCH   4   6
HETATM    6  C   UNL     1     -11.199   6.525  72.126  1.00  0.00    -0.271 C  
BRANCH   6   7
HETATM    7  C   UNL     1     -12.415   7.107  71.358  1.00  0.00    -0.388 C  
HETATM    8  H   UNL     1     -14.385   7.198  71.582  1.00  0.00     0.000 HD 
HETATM    9  O   UNL     1     -13.640   6.842  72.052  1.00  0.00    -0.210 OA 
BRANCH   7  10
HETATM   10  C   UNL     1     -12.265   8.597  71.126  1.00  0.00    -0.272 A  
HETATM   11  C   UNL     1     -13.013   9.541  71.851  1.00  0.00    -0.514 A  
HETATM   12  C   UNL     1     -12.835  10.900  71.609  1.00  0.00    -0.449 A  
HETATM   13  O   UNL     1     -13.552  11.854  72.278  1.00  0.00    -0.550 OA 
HETATM   14  C   UNL     1     -11.913  11.333  70.660  1.00  0.00    -0.336 A  
HETATM   15  H   UNL     1     -13.431  12.781  72.113  1.00  0.00     0.000 HD 
HETATM   16  C   UNL     1     -11.154  10.423  69.944  1.00  0.00    -0.367 A  
HETATM   17  O   UNL     1     -11.757  12.668  70.423  1.00  0.00    -0.536 OA 
HETATM   18  C   UNL     1     -11.329   9.057  70.178  1.00  0.00    -0.139 A  
HETATM   19  H   UNL     1     -11.128  12.964  69.774  1.00  0.00     0.000 HD 
ENDBRANCH   7  10
ENDBRANCH   6   7
ENDBRANCH   4   6
ENDBRANCH   2   4
TORSDOF 4
ENDMDL
MODEL       92
REMARK 921   NORMALIZED FREE ENERGY PREDICTED BY IDOCK:   -4.32 KCAL/MOL
REMARK 922        TOTAL FREE ENERGY PREDICTED BY IDOCK:   -5.62 KCAL/MOL
REMARK 923 INTER-LIGAND FREE ENERGY PREDICTED BY IDOCK:   -5.42 KCAL/MOL
REMARK 924 INTRA-LIGAND FREE ENERGY PREDICTED BY IDOCK:   -0.20 KCAL/MOL
REMARK 927      BINDING AFFINITY PREDICTED BY RF-SCORE:    0.00 PKD
ROOT
HETATM    1  C   UNL     1      -8.339   6.993  67.438  1.00  0.00    -0.122 C  
HETATM    2  C   UNL     1      -9.690   7.527  66.953  1.00  0.00    -0.209 C  
HETATM    3  C   UNL     1     -10.339   8.351  68.068  1.00  0.00    -0.270 C  
ENDROOT
BRANCH   2   4
HETATM    4  N   UNL     1      -9.463   8.317  65.737  1.00  0.00    -0.445 NA 
HETATM    5  H   UNL     1      -9.810   7.819  64.917  1.00  0.00     0.000 HD 
BRANCH   4   6
HETATM    6  C   UNL     1     -10.027   9.675  65.795  1.00  0.00    -0.272 C  
BRANCH   6   7
HETATM    7  C   UNL     1      -9.419  10.584  64.695  1.00  0.00    -0.263 C  
HETATM    8  H   UNL     1      -8.951  10.445  62.771  1.00  0.00     0.000 HD 
HETATM    9  O   UNL     1      -9.323   9.889  63.445  1.00  0.00    -0.273 OA 
BRANCH   7  10
HETATM   10  C   UNL     1     -10.225  11.855  64.516  1.00  0.00    -0.320 A  
HETATM   11  C   UNL     1      -9.966  13.012  65.272  1.00  0.00    -0.186 A  
HETATM   12  C   UNL     1     -10.728  14.158  65.066  1.00  0.00    -0.416 A  
HETATM   13  O   UNL     1     -10.523  15.302  65.790  1.00  0.00    -0.304 OA 
HETATM   14  C   UNL     1     -11.739  14.173  64.109  1.00  0.00    -0.282 A  
HETATM   15  H   UNL     1     -11.042  16.084  65.650  1.00  0.00     0.000 HD 
HETATM   16  C   UNL     1     -12.002  13.051  63.342  1.00  0.00    -0.592 A  
HETATM   17  O   UNL     1     -12.487  15.299  63.926  1.00  0.00    -0.964 OA 
HETATM   18  C   UNL     1     -11.245  11.894  63.544  1.00  0.00    -0.501 A  
HETATM   19  H   UNL     1     -13.177  15.308  63.273  1.00  0.00     0.000 HD 
ENDBRANCH   7  10
ENDBRANCH   6   7
ENDBRANCH   4   6
ENDBRANCH   2   4
TORSDOF 4
ENDMDL
MODEL       93
REMARK 921   NORMALIZED FREE ENERGY PREDICTED BY IDOCK:   -4.32 KCAL/MOL
REMARK 922        TOTAL FREE ENERGY PREDICTED BY IDOCK:   -5.61 KCAL/MOL
REMARK 923 INTER-LIGAND FREE ENERGY PREDICTED BY IDOCK:   -5.29 KCAL/MOL
REMARK 924 INTRA-LIGAND FREE ENERGY PREDICTED BY IDOCK:   -0.33 KCAL/MOL
REMARK 927      BINDING AFFINITY PREDICTED BY RF-SCORE:    0.00 PKD
ROOT
HETATM    1  C   UNL     1      -8.042  17.607  68.553  1.00  0.00    -0.283 C  
HETATM    2  C   UNL     1      -9.067  16.585  68.055  1.00  0.00    -0.209 C  
HETATM    3  C   UNL     1      -9.119  16.625  66.525  1.00  0.00    -0.303 C  
ENDROOT
BRANCH   2   4
HETATM    4  N   UNL     1      -8.685  15.263  68.564  1.00  0.00    -0.168 NA 
HETATM    5  H   UNL     1      -7.990  15.352  69.306  1.00  0.00     0.000 HD 
BRANCH   4   6
HETATM    6  C   UNL     1      -9.823  14.446  69.016  1.00  0.00    -0.101 C  
BRANCH   6   7
HETATM    7  C   UNL     1     -11.152  15.243  68.945  1.00  0.00    -0.266 C  
HETATM    8  H   UNL     1     -12.877  15.132  67.969  1.00  0.00     0.000 HD 
HETATM    9  O   UNL     1     -12.063  14.645  68.014  1.00  0.00    -0.286 OA 
BRANCH   7  10
HETATM   10  C   UNL     1     -11.807  15.355  70.307  1.00  0.00    -0.368 A  
HETATM   11  C   UNL     1     -12.703  14.383  70.784  1.00  0.00    -0.427 A  
HETATM   12  C   UNL     1     -13.273  14.526  72.045  1.00  0.00    -0.362 A  
HETATM   13  O   UNL     1     -14.163  13.614  72.544  1.00  0.00    -0.724 OA 
HETATM   14  C   UNL     1     -12.955  15.621  72.844  1.00  0.00    -0.497 A  
HETATM   15  H   UNL     1     -14.552  13.711  73.405  1.00  0.00     0.000 HD 
HETATM   16  C   UNL     1     -12.064  16.583  72.402  1.00  0.00    -0.335 A  
HETATM   17  O   UNL     1     -13.531  15.756  74.074  1.00  0.00    -0.704 OA 
HETATM   18  C   UNL     1     -11.489  16.450  71.136  1.00  0.00    -0.252 A  
HETATM   19  H   UNL     1     -13.314  16.504  74.619  1.00  0.00     0.000 HD 
ENDBRANCH   7  10
ENDBRANCH   6   7
ENDBRANCH   4   6
ENDBRANCH   2   4
TORSDOF 4
ENDMDL
MODEL       94
REMARK 921   NORMALIZED FREE ENERGY PREDICTED BY IDOCK:   -4.31 KCAL/MOL
REMARK 922        TOTAL FREE ENERGY PREDICTED BY IDOCK:   -5.61 KCAL/MOL
REMARK 923 INTER-LIGAND FREE ENERGY PREDICTED BY IDOCK:   -5.27 KCAL/MOL
REMARK 924 INTRA-LIGAND FREE ENERGY PREDICTED BY IDOCK:   -0.34 KCAL/MOL
REMARK 927      BINDING AFFINITY PREDICTED BY RF-SCORE:    0.00 PKD
ROOT
HETATM    1  C   UNL     1     -14.342   8.796  72.268  1.00  0.00    -0.468 C  
HETATM    2  C   UNL     1     -12.999   8.964  71.551  1.00  0.00    -0.332 C  
HETATM    3  C   UNL     1     -12.660  10.454  71.454  1.00  0.00    -0.539 C  
ENDROOT
BRANCH   2   4
HETATM    4  N   UNL     1     -11.983   8.209  72.293  1.00  0.00    -0.358 NA 
HETATM    5  H   UNL     1     -12.130   8.301  73.298  1.00  0.00     0.000 HD 
BRANCH   4   6
HETATM    6  C   UNL     1     -11.896   6.791  71.911  1.00  0.00    -0.326 C  
BRANCH   6   7
HETATM    7  C   UNL     1     -10.519   6.462  71.275  1.00  0.00    -0.216 C  
HETATM    8  H   UNL     1      -9.414   4.851  70.922  1.00  0.00     0.000 HD 
HETATM    9  O   UNL     1     -10.257   5.053  71.311  1.00  0.00    -0.204 OA 
BRANCH   7  10
HETATM   10  C   UNL     1     -10.430   6.966  69.849  1.00  0.00    -0.239 A  
HETATM   11  C   UNL     1     -10.914   6.217  68.763  1.00  0.00    -0.421 A  
HETATM   12  C   UNL     1     -10.817   6.725  67.472  1.00  0.00    -0.318 A  
HETATM   13  O   UNL     1     -11.259   6.024  66.383  1.00  0.00    -0.742 OA 
HETATM   14  C   UNL     1     -10.253   7.978  67.247  1.00  0.00    -0.275 A  
HETATM   15  H   UNL     1     -11.193   6.371  65.502  1.00  0.00     0.000 HD 
HETATM   16  C   UNL     1      -9.785   8.743  68.302  1.00  0.00    -0.175 A  
HETATM   17  O   UNL     1     -10.153   8.462  65.974  1.00  0.00    -0.470 OA 
HETATM   18  C   UNL     1      -9.874   8.238  69.601  1.00  0.00    -0.184 A  
HETATM   19  H   UNL     1      -9.768   9.316  65.821  1.00  0.00     0.000 HD 
ENDBRANCH   7  10
ENDBRANCH   6   7
ENDBRANCH   4   6
ENDBRANCH   2   4
TORSDOF 4
ENDMDL
MODEL       95
REMARK 921   NORMALIZED FREE ENERGY PREDICTED BY IDOCK:   -4.30 KCAL/MOL
REMARK 922        TOTAL FREE ENERGY PREDICTED BY IDOCK:   -5.59 KCAL/MOL
REMARK 923 INTER-LIGAND FREE ENERGY PREDICTED BY IDOCK:   -5.22 KCAL/MOL
REMARK 924 INTRA-LIGAND FREE ENERGY PREDICTED BY IDOCK:   -0.37 KCAL/MOL
REMARK 927      BINDING AFFINITY PREDICTED BY RF-SCORE:    0.00 PKD
ROOT
HETATM    1  C   UNL     1      -6.370  21.145  66.921  1.00  0.00    -0.397 C  
HETATM    2  C   UNL     1      -7.227  20.044  67.553  1.00  0.00    -0.277 C  
HETATM    3  C   UNL     1      -6.802  19.846  69.011  1.00  0.00    -0.343 C  
ENDROOT
BRANCH   2   4
HETATM    4  N   UNL     1      -8.637  20.432  67.433  1.00  0.00    -0.342 NA 
HETATM    5  H   UNL     1      -8.868  20.647  66.463  1.00  0.00     0.000 HD 
BRANCH   4   6
HETATM    6  C   UNL     1      -9.577  19.441  67.980  1.00  0.00    -0.346 C  
BRANCH   6   7
HETATM    7  C   UNL     1     -10.446  18.810  66.861  1.00  0.00    -0.414 C  
HETATM    8  H   UNL     1     -10.824  19.134  64.939  1.00  0.00     0.000 HD 
HETATM    9  O   UNL     1     -10.292  19.520  65.625  1.00  0.00    -0.453 OA 
BRANCH   7  10
HETATM   10  C   UNL     1     -10.114  17.345  66.658  1.00  0.00    -0.317 A  
HETATM   11  C   UNL     1     -10.496  16.649  65.498  1.00  0.00    -0.285 A  
HETATM   12  C   UNL     1     -10.161  15.306  65.354  1.00  0.00    -0.383 A  
HETATM   13  O   UNL     1     -10.525  14.585  64.250  1.00  0.00    -0.486 OA 
HETATM   14  C   UNL     1      -9.441  14.647  66.347  1.00  0.00    -0.299 A  
HETATM   15  H   UNL     1     -10.297  13.669  64.151  1.00  0.00     0.000 HD 
HETATM   16  C   UNL     1      -9.041  15.315  67.491  1.00  0.00    -0.189 A  
HETATM   17  O   UNL     1      -9.130  13.327  66.199  1.00  0.00    -0.462 OA 
HETATM   18  C   UNL     1      -9.376  16.662  67.646  1.00  0.00    -0.224 A  
HETATM   19  H   UNL     1      -8.639  12.877  66.877  1.00  0.00     0.000 HD 
ENDBRANCH   7  10
ENDBRANCH   6   7
ENDBRANCH   4   6
ENDBRANCH   2   4
TORSDOF 4
ENDMDL
MODEL       96
REMARK 921   NORMALIZED FREE ENERGY PREDICTED BY IDOCK:   -4.29 KCAL/MOL
REMARK 922        TOTAL FREE ENERGY PREDICTED BY IDOCK:   -5.58 KCAL/MOL
REMARK 923 INTER-LIGAND FREE ENERGY PREDICTED BY IDOCK:   -5.09 KCAL/MOL
REMARK 924 INTRA-LIGAND FREE ENERGY PREDICTED BY IDOCK:   -0.50 KCAL/MOL
REMARK 927      BINDING AFFINITY PREDICTED BY RF-SCORE:    0.00 PKD
ROOT
HETATM    1  C   UNL     1      -9.058  11.523  68.245  1.00  0.00    -0.185 C  
HETATM    2  C   UNL     1      -9.114  11.202  66.749  1.00  0.00    -0.166 C  
HETATM    3  C   UNL     1     -10.230  10.186  66.490  1.00  0.00    -0.288 C  
ENDROOT
BRANCH   2   4
HETATM    4  N   UNL     1      -9.323  12.456  66.016  1.00  0.00    -0.401 NA 
HETATM    5  H   UNL     1      -8.808  12.447  65.136  1.00  0.00     0.000 HD 
BRANCH   4   6
HETATM    6  C   UNL     1     -10.739  12.782  65.783  1.00  0.00    -0.272 C  
BRANCH   6   7
HETATM    7  C   UNL     1     -10.964  14.317  65.742  1.00  0.00    -0.305 C  
HETATM    8  H   UNL     1     -12.245  15.589  64.917  1.00  0.00     0.000 HD 
HETATM    9  O   UNL     1     -12.106  14.650  64.943  1.00  0.00    -0.401 OA 
BRANCH   7  10
HETATM   10  C   UNL     1     -11.124  14.893  67.134  1.00  0.00    -0.332 A  
HETATM   11  C   UNL     1     -10.687  16.190  67.457  1.00  0.00    -0.304 A  
HETATM   12  C   UNL     1     -10.863  16.679  68.748  1.00  0.00    -0.331 A  
HETATM   13  O   UNL     1     -10.439  17.928  69.112  1.00  0.00    -0.437 OA 
HETATM   14  C   UNL     1     -11.478  15.897  69.722  1.00  0.00    -0.342 A  
HETATM   15  H   UNL     1     -10.559  18.262  69.993  1.00  0.00     0.000 HD 
HETATM   16  C   UNL     1     -11.931  14.623  69.424  1.00  0.00    -0.351 A  
HETATM   17  O   UNL     1     -11.634  16.383  70.987  1.00  0.00    -0.584 OA 
HETATM   18  C   UNL     1     -11.755  14.122  68.132  1.00  0.00    -0.390 A  
HETATM   19  H   UNL     1     -12.053  15.849  71.652  1.00  0.00     0.000 HD 
ENDBRANCH   7  10
ENDBRANCH   6   7
ENDBRANCH   4   6
ENDBRANCH   2   4
TORSDOF 4
ENDMDL
MODEL       97
REMARK 921   NORMALIZED FREE ENERGY PREDICTED BY IDOCK:   -4.27 KCAL/MOL
REMARK 922        TOTAL FREE ENERGY PREDICTED BY IDOCK:   -5.55 KCAL/MOL
REMARK 923 INTER-LIGAND FREE ENERGY PREDICTED BY IDOCK:   -5.33 KCAL/MOL
REMARK 924 INTRA-LIGAND FREE ENERGY PREDICTED BY IDOCK:   -0.23 KCAL/MOL
REMARK 927      BINDING AFFINITY PREDICTED BY RF-SCORE:    0.00 PKD
ROOT
HETATM    1  C   UNL     1     -11.212   6.188  70.515  1.00  0.00    -0.403 C  
HETATM    2  C   UNL     1     -11.773   7.230  71.486  1.00  0.00    -0.289 C  
HETATM    3  C   UNL     1     -10.694   7.607  72.505  1.00  0.00    -0.350 C  
ENDROOT
BRANCH   2   4
HETATM    4  N   UNL     1     -12.231   8.387  70.708  1.00  0.00    -0.496 NA 
HETATM    5  H   UNL     1     -13.248   8.389  70.633  1.00  0.00     0.000 HD 
BRANCH   4   6
HETATM    6  C   UNL     1     -11.747   9.679  71.218  1.00  0.00    -0.382 C  
BRANCH   6   7
HETATM    7  C   UNL     1     -12.801  10.797  71.009  1.00  0.00    -0.385 C  
HETATM    8  H   UNL     1     -13.867  12.037  72.135  1.00  0.00     0.000 HD 
HETATM    9  O   UNL     1     -13.221  11.352  72.262  1.00  0.00    -0.415 OA 
BRANCH   7  10
HETATM   10  C   UNL     1     -12.273  11.898  70.110  1.00  0.00    -0.319 A  
HETATM   11  C   UNL     1     -12.197  13.235  70.537  1.00  0.00    -0.416 A  
HETATM   12  C   UNL     1     -11.698  14.209  69.677  1.00  0.00    -0.316 A  
HETATM   13  O   UNL     1     -11.620  15.525  70.044  1.00  0.00    -0.287 OA 
HETATM   14  C   UNL     1     -11.263  13.868  68.400  1.00  0.00    -0.264 A  
HETATM   15  H   UNL     1     -11.280  16.190  69.458  1.00  0.00     0.000 HD 
HETATM   16  C   UNL     1     -11.314  12.556  67.962  1.00  0.00    -0.339 A  
HETATM   17  O   UNL     1     -10.787  14.835  67.562  1.00  0.00    -0.274 OA 
HETATM   18  C   UNL     1     -11.817  11.572  68.817  1.00  0.00    -0.394 A  
HETATM   19  H   UNL     1     -10.491  14.602  66.690  1.00  0.00     0.000 HD 
ENDBRANCH   7  10
ENDBRANCH   6   7
ENDBRANCH   4   6
ENDBRANCH   2   4
TORSDOF 4
ENDMDL
MODEL       98
REMARK 921   NORMALIZED FREE ENERGY PREDICTED BY IDOCK:   -4.26 KCAL/MOL
REMARK 922        TOTAL FREE ENERGY PREDICTED BY IDOCK:   -5.54 KCAL/MOL
REMARK 923 INTER-LIGAND FREE ENERGY PREDICTED BY IDOCK:   -5.29 KCAL/MOL
REMARK 924 INTRA-LIGAND FREE ENERGY PREDICTED BY IDOCK:   -0.26 KCAL/MOL
REMARK 927      BINDING AFFINITY PREDICTED BY RF-SCORE:    0.00 PKD
ROOT
HETATM    1  C   UNL     1     -11.608  12.197  63.409  1.00  0.00    -0.508 C  
HETATM    2  C   UNL     1     -10.755  11.159  64.144  1.00  0.00    -0.345 C  
HETATM    3  C   UNL     1      -9.456  10.929  63.367  1.00  0.00    -0.339 C  
ENDROOT
BRANCH   2   4
HETATM    4  N   UNL     1     -10.510  11.645  65.506  1.00  0.00    -0.264 NA 
HETATM    5  H   UNL     1      -9.591  12.084  65.570  1.00  0.00     0.000 HD 
BRANCH   4   6
HETATM    6  C   UNL     1     -11.552  12.552  66.012  1.00  0.00    -0.406 C  
BRANCH   6   7
HETATM    7  C   UNL     1     -11.477  12.691  67.556  1.00  0.00    -0.340 C  
HETATM    8  H   UNL     1     -10.387  11.956  69.043  1.00  0.00     0.000 HD 
HETATM    9  O   UNL     1     -10.434  11.871  68.098  1.00  0.00    -0.193 OA 
BRANCH   7  10
HETATM   10  C   UNL     1     -11.269  14.133  67.975  1.00  0.00    -0.302 A  
HETATM   11  C   UNL     1     -11.548  14.576  69.280  1.00  0.00    -0.339 A  
HETATM   12  C   UNL     1     -11.334  15.908  69.620  1.00  0.00    -0.342 A  
HETATM   13  O   UNL     1     -11.606  16.387  70.872  1.00  0.00    -0.571 OA 
HETATM   14  C   UNL     1     -10.835  16.805  68.680  1.00  0.00    -0.336 A  
HETATM   15  H   UNL     1     -11.460  17.296  71.105  1.00  0.00     0.000 HD 
HETATM   16  C   UNL     1     -10.539  16.390  67.393  1.00  0.00    -0.306 A  
HETATM   17  O   UNL     1     -10.641  18.112  69.022  1.00  0.00    -0.392 OA 
HETATM   18  C   UNL     1     -10.754  15.055  67.041  1.00  0.00    -0.304 A  
HETATM   19  H   UNL     1     -10.301  18.724  68.380  1.00  0.00     0.000 HD 
ENDBRANCH   7  10
ENDBRANCH   6   7
ENDBRANCH   4   6
ENDBRANCH   2   4
TORSDOF 4
ENDMDL
MODEL       99
REMARK 921   NORMALIZED FREE ENERGY PREDICTED BY IDOCK:   -4.26 KCAL/MOL
REMARK 922        TOTAL FREE ENERGY PREDICTED BY IDOCK:   -5.54 KCAL/MOL
REMARK 923 INTER-LIGAND FREE ENERGY PREDICTED BY IDOCK:   -5.34 KCAL/MOL
REMARK 924 INTRA-LIGAND FREE ENERGY PREDICTED BY IDOCK:   -0.20 KCAL/MOL
REMARK 927      BINDING AFFINITY PREDICTED BY RF-SCORE:    0.00 PKD
ROOT
HETATM    1  C   UNL     1     -10.808  11.179  68.125  1.00  0.00    -0.266 C  
HETATM    2  C   UNL     1     -11.594  12.323  68.772  1.00  0.00    -0.330 C  
HETATM    3  C   UNL     1     -12.312  11.803  70.020  1.00  0.00    -0.233 C  
ENDROOT
BRANCH   2   4
HETATM    4  N   UNL     1     -10.656  13.409  69.081  1.00  0.00    -0.436 NA 
HETATM    5  H   UNL     1      -9.836  13.357  68.477  1.00  0.00     0.000 HD 
BRANCH   4   6
HETATM    6  C   UNL     1     -11.257  14.751  69.023  1.00  0.00    -0.270 C  
BRANCH   6   7
HETATM    7  C   UNL     1     -10.216  15.850  69.360  1.00  0.00    -0.262 C  
HETATM    8  H   UNL     1      -8.267  15.962  69.722  1.00  0.00     0.000 HD 
HETATM    9  O   UNL     1      -8.906  15.290  69.515  1.00  0.00    -0.243 OA 
BRANCH   7  10
HETATM   10  C   UNL     1     -10.190  16.935  68.302  1.00  0.00    -0.318 A  
HETATM   11  C   UNL     1     -10.638  16.707  66.990  1.00  0.00    -0.247 A  
HETATM   12  C   UNL     1     -10.602  17.737  66.056  1.00  0.00    -0.229 A  
HETATM   13  O   UNL     1     -11.013  17.556  64.763  1.00  0.00    -0.950 OA 
HETATM   14  C   UNL     1     -10.135  18.999  66.414  1.00  0.00    -0.415 A  
HETATM   15  H   UNL     1     -10.989  18.259  64.125  1.00  0.00     0.000 HD 
HETATM   16  C   UNL     1      -9.703  19.253  67.704  1.00  0.00    -0.412 A  
HETATM   17  O   UNL     1     -10.094  19.998  65.485  1.00  0.00    -0.349 OA 
HETATM   18  C   UNL     1      -9.732  18.223  68.648  1.00  0.00    -0.379 A  
HETATM   19  H   UNL     1      -9.774  20.859  65.730  1.00  0.00     0.000 HD 
ENDBRANCH   7  10
ENDBRANCH   6   7
ENDBRANCH   4   6
ENDBRANCH   2   4
TORSDOF 4
ENDMDL
MODEL      100
REMARK 921   NORMALIZED FREE ENERGY PREDICTED BY IDOCK:   -4.25 KCAL/MOL
REMARK 922        TOTAL FREE ENERGY PREDICTED BY IDOCK:   -5.54 KCAL/MOL
REMARK 923 INTER-LIGAND FREE ENERGY PREDICTED BY IDOCK:   -5.19 KCAL/MOL
REMARK 924 INTRA-LIGAND FREE ENERGY PREDICTED BY IDOCK:   -0.35 KCAL/MOL
REMARK 927      BINDING AFFINITY PREDICTED BY RF-SCORE:    0.00 PKD
ROOT
HETATM    1  C   UNL     1     -10.539  18.604  66.099  1.00  0.00    -0.409 C  
HETATM    2  C   UNL     1      -9.930  17.463  66.919  1.00  0.00    -0.300 C  
HETATM    3  C   UNL     1      -8.667  17.966  67.624  1.00  0.00    -0.242 C  
ENDROOT
BRANCH   2   4
HETATM    4  N   UNL     1     -10.943  16.985  67.867  1.00  0.00    -0.298 NA 
HETATM    5  H   UNL     1     -11.815  17.500  67.749  1.00  0.00     0.000 HD 
BRANCH   4   6
HETATM    6  C   UNL     1     -11.185  15.535  67.799  1.00  0.00    -0.302 C  
BRANCH   6   7
HETATM    7  C   UNL     1     -10.002  14.797  67.120  1.00  0.00    -0.236 C  
HETATM    8  H   UNL     1      -8.486  13.639  67.668  1.00  0.00     0.000 HD 
HETATM    9  O   UNL     1      -9.211  14.091  68.084  1.00  0.00    -0.184 OA 
BRANCH   7  10
HETATM   10  C   UNL     1     -10.485  13.840  66.049  1.00  0.00    -0.297 A  
HETATM   11  C   UNL     1     -10.187  12.467  66.089  1.00  0.00    -0.262 A  
HETATM   12  C   UNL     1     -10.660  11.626  65.086  1.00  0.00    -0.290 A  
HETATM   13  O   UNL     1     -10.381  10.286  65.075  1.00  0.00    -0.288 OA 
HETATM   14  C   UNL     1     -11.436  12.132  64.047  1.00  0.00    -0.411 A  
HETATM   15  H   UNL     1     -10.703   9.712  64.391  1.00  0.00     0.000 HD 
HETATM   16  C   UNL     1     -11.756  13.477  63.995  1.00  0.00    -0.440 A  
HETATM   17  O   UNL     1     -11.884  11.298  63.064  1.00  0.00    -0.864 OA 
HETATM   18  C   UNL     1     -11.283  14.330  64.995  1.00  0.00    -0.364 A  
HETATM   19  H   UNL     1     -12.413  11.644  62.355  1.00  0.00     0.000 HD 
ENDBRANCH   7  10
ENDBRANCH   6   7
ENDBRANCH   4   6
ENDBRANCH   2   4
TORSDOF 4
ENDMDL
MODEL      101
REMARK 921   NORMALIZED FREE ENERGY PREDICTED BY IDOCK:   -4.24 KCAL/MOL
REMARK 922        TOTAL FREE ENERGY PREDICTED BY IDOCK:   -5.52 KCAL/MOL
REMARK 923 INTER-LIGAND FREE ENERGY PREDICTED BY IDOCK:   -5.26 KCAL/MOL
REMARK 924 INTRA-LIGAND FREE ENERGY PREDICTED BY IDOCK:   -0.27 KCAL/MOL
REMARK 927      BINDING AFFINITY PREDICTED BY RF-SCORE:    0.00 PKD
ROOT
HETATM    1  C   UNL     1     -11.870  12.518  66.479  1.00  0.00    -0.434 C  
HETATM    2  C   UNL     1     -11.511  12.396  67.963  1.00  0.00    -0.322 C  
HETATM    3  C   UNL     1     -11.942  13.670  68.695  1.00  0.00    -0.395 C  
ENDROOT
BRANCH   2   4
HETATM    4  N   UNL     1     -12.168  11.198  68.499  1.00  0.00    -0.722 NA 
HETATM    5  H   UNL     1     -12.667  10.702  67.760  1.00  0.00     0.000 HD 
BRANCH   4   6
HETATM    6  C   UNL     1     -11.257  10.286  69.209  1.00  0.00    -0.228 C  
BRANCH   6   7
HETATM    7  C   UNL     1     -11.457  10.372  70.744  1.00  0.00    -0.332 C  
HETATM    8  H   UNL     1     -12.778  11.143  72.010  1.00  0.00     0.000 HD 
HETATM    9  O   UNL     1     -12.655  11.089  71.070  1.00  0.00    -0.358 OA 
BRANCH   7  10
HETATM   10  C   UNL     1     -11.492   8.996  71.380  1.00  0.00    -0.400 A  
HETATM   11  C   UNL     1     -10.506   8.570  72.286  1.00  0.00    -0.402 A  
HETATM   12  C   UNL     1     -10.586   7.300  72.849  1.00  0.00    -0.301 A  
HETATM   13  O   UNL     1      -9.640   6.836  73.722  1.00  0.00    -0.173 OA 
HETATM   14  C   UNL     1     -11.642   6.451  72.530  1.00  0.00    -0.222 A  
HETATM   15  H   UNL     1      -9.694   5.970  74.107  1.00  0.00     0.000 HD 
HETATM   16  C   UNL     1     -12.633   6.854  71.653  1.00  0.00    -0.410 A  
HETATM   17  O   UNL     1     -11.702   5.203  73.080  1.00  0.00    -0.491 OA 
HETATM   18  C   UNL     1     -12.560   8.126  71.079  1.00  0.00    -0.068 A  
HETATM   19  H   UNL     1     -12.422   4.623  72.862  1.00  0.00     0.000 HD 
ENDBRANCH   7  10
ENDBRANCH   6   7
ENDBRANCH   4   6
ENDBRANCH   2   4
TORSDOF 4
ENDMDL
MODEL      102
REMARK 921   NORMALIZED FREE ENERGY PREDICTED BY IDOCK:   -4.21 KCAL/MOL
REMARK 922        TOTAL FREE ENERGY PREDICTED BY IDOCK:   -5.49 KCAL/MOL
REMARK 923 INTER-LIGAND FREE ENERGY PREDICTED BY IDOCK:   -5.10 KCAL/MOL
REMARK 924 INTRA-LIGAND FREE ENERGY PREDICTED BY IDOCK:   -0.38 KCAL/MOL
REMARK 927      BINDING AFFINITY PREDICTED BY RF-SCORE:    0.00 PKD
ROOT
HETATM    1  C   UNL     1     -11.813  11.125  68.331  1.00  0.00    -0.302 C  
HETATM    2  C   UNL     1     -11.111  12.165  67.453  1.00  0.00    -0.276 C  
HETATM    3  C   UNL     1      -9.754  11.616  67.004  1.00  0.00    -0.201 C  
ENDROOT
BRANCH   2   4
HETATM    4  N   UNL     1     -11.988  12.477  66.318  1.00  0.00    -0.577 NA 
HETATM    5  H   UNL     1     -12.826  11.897  66.343  1.00  0.00     0.000 HD 
BRANCH   4   6
HETATM    6  C   UNL     1     -12.347  13.901  66.215  1.00  0.00    -0.449 C  
BRANCH   6   7
HETATM    7  C   UNL     1     -11.169  14.739  65.654  1.00  0.00    -0.343 C  
HETATM    8  H   UNL     1     -10.720  15.698  63.975  1.00  0.00     0.000 HD 
HETATM    9  O   UNL     1     -11.441  15.184  64.320  1.00  0.00    -0.261 OA 
BRANCH   7  10
HETATM   10  C   UNL     1     -10.861  15.930  66.541  1.00  0.00    -0.198 A  
HETATM   11  C   UNL     1     -11.023  15.879  67.937  1.00  0.00    -0.327 A  
HETATM   12  C   UNL     1     -10.720  16.995  68.710  1.00  0.00    -0.313 A  
HETATM   13  O   UNL     1     -10.877  16.998  70.069  1.00  0.00    -0.354 OA 
HETATM   14  C   UNL     1     -10.246  18.161  68.113  1.00  0.00    -0.388 A  
HETATM   15  H   UNL     1     -10.670  17.759  70.597  1.00  0.00     0.000 HD 
HETATM   16  C   UNL     1     -10.064  18.229  66.743  1.00  0.00    -0.375 A  
HETATM   17  O   UNL     1      -9.964  19.253  68.881  1.00  0.00    -0.422 OA 
HETATM   18  C   UNL     1     -10.370  17.115  65.958  1.00  0.00    -0.317 A  
HETATM   19  H   UNL     1      -9.641  20.048  68.474  1.00  0.00     0.000 HD 
ENDBRANCH   7  10
ENDBRANCH   6   7
ENDBRANCH   4   6
ENDBRANCH   2   4
TORSDOF 4
ENDMDL
MODEL      103
REMARK 921   NORMALIZED FREE ENERGY PREDICTED BY IDOCK:   -4.20 KCAL/MOL
REMARK 922        TOTAL FREE ENERGY PREDICTED BY IDOCK:   -5.47 KCAL/MOL
REMARK 923 INTER-LIGAND FREE ENERGY PREDICTED BY IDOCK:   -5.24 KCAL/MOL
REMARK 924 INTRA-LIGAND FREE ENERGY PREDICTED BY IDOCK:   -0.24 KCAL/MOL
REMARK 927      BINDING AFFINITY PREDICTED BY RF-SCORE:    0.00 PKD
ROOT
HETATM    1  C   UNL     1      -9.951  18.361  67.907  1.00  0.00    -0.370 C  
HETATM    2  C   UNL     1      -9.187  17.348  67.049  1.00  0.00    -0.246 C  
HETATM    3  C   UNL     1      -7.696  17.696  67.062  1.00  0.00    -0.234 C  
ENDROOT
BRANCH   2   4
HETATM    4  N   UNL     1      -9.449  16.005  67.580  1.00  0.00    -0.222 NA 
HETATM    5  H   UNL     1      -8.586  15.578  67.917  1.00  0.00     0.000 HD 
BRANCH   4   6
HETATM    6  C   UNL     1     -10.487  15.967  68.622  1.00  0.00    -0.251 C  
BRANCH   6   7
HETATM    7  C   UNL     1     -11.748  15.207  68.135  1.00  0.00    -0.302 C  
HETATM    8  H   UNL     1     -12.456  14.484  66.427  1.00  0.00     0.000 HD 
HETATM    9  O   UNL     1     -11.684  14.950  66.726  1.00  0.00    -0.335 OA 
BRANCH   7  10
HETATM   10  C   UNL     1     -11.938  13.904  68.887  1.00  0.00    -0.393 A  
HETATM   11  C   UNL     1     -11.762  12.655  68.268  1.00  0.00    -0.389 A  
HETATM   12  C   UNL     1     -11.940  11.487  69.002  1.00  0.00    -0.311 A  
HETATM   13  O   UNL     1     -11.796  10.249  68.437  1.00  0.00    -0.709 OA 
HETATM   14  C   UNL     1     -12.281  11.545  70.351  1.00  0.00    -0.355 A  
HETATM   15  H   UNL     1     -11.917   9.451  68.938  1.00  0.00     0.000 HD 
HETATM   16  C   UNL     1     -12.444  12.764  70.987  1.00  0.00    -0.369 A  
HETATM   17  O   UNL     1     -12.464  10.392  71.057  1.00  0.00    -0.320 OA 
HETATM   18  C   UNL     1     -12.271  13.942  70.256  1.00  0.00    -0.428 A  
HETATM   19  H   UNL     1     -12.697  10.432  71.977  1.00  0.00     0.000 HD 
ENDBRANCH   7  10
ENDBRANCH   6   7
ENDBRANCH   4   6
ENDBRANCH   2   4
TORSDOF 4
ENDMDL
MODEL      104
REMARK 921   NORMALIZED FREE ENERGY PREDICTED BY IDOCK:   -4.19 KCAL/MOL
REMARK 922        TOTAL FREE ENERGY PREDICTED BY IDOCK:   -5.46 KCAL/MOL
REMARK 923 INTER-LIGAND FREE ENERGY PREDICTED BY IDOCK:   -5.23 KCAL/MOL
REMARK 924 INTRA-LIGAND FREE ENERGY PREDICTED BY IDOCK:   -0.24 KCAL/MOL
REMARK 927      BINDING AFFINITY PREDICTED BY RF-SCORE:    0.00 PKD
ROOT
HETATM    1  C   UNL     1     -12.033  12.781  69.760  1.00  0.00    -0.362 C  
HETATM    2  C   UNL     1     -10.902  12.405  68.798  1.00  0.00    -0.226 C  
HETATM    3  C   UNL     1     -11.492  12.099  67.418  1.00  0.00    -0.415 C  
ENDROOT
BRANCH   2   4
HETATM    4  N   UNL     1      -9.942  13.514  68.759  1.00  0.00    -0.406 NA 
HETATM    5  H   UNL     1      -9.255  13.367  68.019  1.00  0.00     0.000 HD 
BRANCH   4   6
HETATM    6  C   UNL     1     -10.568  14.840  68.629  1.00  0.00    -0.255 C  
BRANCH   6   7
HETATM    7  C   UNL     1      -9.693  15.941  69.282  1.00  0.00    -0.263 C  
HETATM    8  H   UNL     1      -7.890  16.091  70.099  1.00  0.00     0.000 HD 
HETATM    9  O   UNL     1      -8.426  15.416  69.699  1.00  0.00    -0.247 OA 
BRANCH   7  10
HETATM   10  C   UNL     1      -9.480  17.112  68.343  1.00  0.00    -0.276 A  
HETATM   11  C   UNL     1      -8.469  17.109  67.366  1.00  0.00    -0.202 A  
HETATM   12  C   UNL     1      -8.318  18.204  66.521  1.00  0.00    -0.265 A  
HETATM   13  O   UNL     1      -7.338  18.251  65.568  1.00  0.00    -0.539 OA 
HETATM   14  C   UNL     1      -9.168  19.301  66.628  1.00  0.00    -0.338 A  
HETATM   15  H   UNL     1      -7.234  18.999  64.991  1.00  0.00     0.000 HD 
HETATM   16  C   UNL     1     -10.181  19.321  67.572  1.00  0.00    -0.514 A  
HETATM   17  O   UNL     1      -9.002  20.374  65.802  1.00  0.00    -0.554 OA 
HETATM   18  C   UNL     1     -10.338  18.228  68.427  1.00  0.00    -0.366 A  
HETATM   19  H   UNL     1      -9.582  21.123  65.876  1.00  0.00     0.000 HD 
ENDBRANCH   7  10
ENDBRANCH   6   7
ENDBRANCH   4   6
ENDBRANCH   2   4
TORSDOF 4
ENDMDL
MODEL      105
REMARK 921   NORMALIZED FREE ENERGY PREDICTED BY IDOCK:   -4.18 KCAL/MOL
REMARK 922        TOTAL FREE ENERGY PREDICTED BY IDOCK:   -5.45 KCAL/MOL
REMARK 923 INTER-LIGAND FREE ENERGY PREDICTED BY IDOCK:   -5.14 KCAL/MOL
REMARK 924 INTRA-LIGAND FREE ENERGY PREDICTED BY IDOCK:   -0.31 KCAL/MOL
REMARK 927      BINDING AFFINITY PREDICTED BY RF-SCORE:    0.00 PKD
ROOT
HETATM    1  C   UNL     1     -11.555  12.831  67.733  1.00  0.00    -0.405 C  
HETATM    2  C   UNL     1     -11.745  11.334  67.471  1.00  0.00    -0.082 C  
HETATM    3  C   UNL     1     -10.384  10.693  67.187  1.00  0.00    -0.275 C  
ENDROOT
BRANCH   2   4
HETATM    4  N   UNL     1     -12.406  10.743  68.641  1.00  0.00    -0.786 NA 
HETATM    5  H   UNL     1     -12.244   9.736  68.672  1.00  0.00     0.000 HD 
BRANCH   4   6
HETATM    6  C   UNL     1     -12.029  11.367  69.918  1.00  0.00    -0.359 C  
BRANCH   6   7
HETATM    7  C   UNL     1     -12.504  10.515  71.124  1.00  0.00    -0.412 C  
HETATM    8  H   UNL     1     -14.068   9.387  71.598  1.00  0.00     0.000 HD 
HETATM    9  O   UNL     1     -13.776   9.910  70.859  1.00  0.00    -0.238 OA 
BRANCH   7  10
HETATM   10  C   UNL     1     -11.491   9.447  71.484  1.00  0.00    -0.467 A  
HETATM   11  C   UNL     1     -11.787   8.416  72.392  1.00  0.00    -0.452 A  
HETATM   12  C   UNL     1     -10.826   7.453  72.685  1.00  0.00    -0.303 A  
HETATM   13  O   UNL     1     -11.064   6.441  73.574  1.00  0.00    -0.465 OA 
HETATM   14  C   UNL     1      -9.574   7.497  72.077  1.00  0.00    -0.154 A  
HETATM   15  H   UNL     1     -10.408   5.784  73.774  1.00  0.00     0.000 HD 
HETATM   16  C   UNL     1      -9.264   8.493  71.167  1.00  0.00    -0.248 A  
HETATM   17  O   UNL     1      -8.636   6.554  72.381  1.00  0.00    -0.120 OA 
HETATM   18  C   UNL     1     -10.221   9.467  70.870  1.00  0.00    -0.373 A  
HETATM   19  H   UNL     1      -7.782   6.584  71.967  1.00  0.00     0.000 HD 
ENDBRANCH   7  10
ENDBRANCH   6   7
ENDBRANCH   4   6
ENDBRANCH   2   4
TORSDOF 4
ENDMDL
MODEL      106
REMARK 921   NORMALIZED FREE ENERGY PREDICTED BY IDOCK:   -4.17 KCAL/MOL
REMARK 922        TOTAL FREE ENERGY PREDICTED BY IDOCK:   -5.43 KCAL/MOL
REMARK 923 INTER-LIGAND FREE ENERGY PREDICTED BY IDOCK:   -5.35 KCAL/MOL
REMARK 924 INTRA-LIGAND FREE ENERGY PREDICTED BY IDOCK:   -0.08 KCAL/MOL
REMARK 927      BINDING AFFINITY PREDICTED BY RF-SCORE:    0.00 PKD
ROOT
HETATM    1  C   UNL     1      -7.150  12.545  67.132  1.00  0.00    -0.058 C  
HETATM    2  C   UNL     1      -7.623  13.589  68.147  1.00  0.00    -0.138 C  
HETATM    3  C   UNL     1      -6.681  14.796  68.107  1.00  0.00    -0.134 C  
ENDROOT
BRANCH   2   4
HETATM    4  N   UNL     1      -9.007  13.953  67.824  1.00  0.00    -0.179 NA 
HETATM    5  H   UNL     1      -9.525  13.136  67.499  1.00  0.00     0.000 HD 
BRANCH   4   6
HETATM    6  C   UNL     1      -9.723  14.614  68.926  1.00  0.00    -0.196 C  
BRANCH   6   7
HETATM    7  C   UNL     1     -10.796  15.598  68.390  1.00  0.00    -0.290 C  
HETATM    8  H   UNL     1     -10.976  17.551  68.088  1.00  0.00     0.000 HD 
HETATM    9  O   UNL     1     -10.318  16.948  68.416  1.00  0.00    -0.297 OA 
BRANCH   7  10
HETATM   10  C   UNL     1     -11.234  15.233  66.986  1.00  0.00    -0.275 A  
HETATM   11  C   UNL     1     -12.137  14.185  66.736  1.00  0.00    -0.474 A  
HETATM   12  C   UNL     1     -12.515  13.893  65.429  1.00  0.00    -0.501 A  
HETATM   13  O   UNL     1     -13.378  12.872  65.137  1.00  0.00    -0.605 OA 
HETATM   14  C   UNL     1     -12.013  14.637  64.365  1.00  0.00    -0.437 A  
HETATM   15  H   UNL     1     -13.637  12.673  64.246  1.00  0.00     0.000 HD 
HETATM   16  C   UNL     1     -11.134  15.684  64.587  1.00  0.00    -0.387 A  
HETATM   17  O   UNL     1     -12.382  14.333  63.087  1.00  0.00    -1.096 OA 
HETATM   18  C   UNL     1     -10.746  15.982  65.895  1.00  0.00    -0.287 A  
HETATM   19  H   UNL     1     -12.038  14.841  62.361  1.00  0.00     0.000 HD 
ENDBRANCH   7  10
ENDBRANCH   6   7
ENDBRANCH   4   6
ENDBRANCH   2   4
TORSDOF 4
ENDMDL
MODEL      107
REMARK 921   NORMALIZED FREE ENERGY PREDICTED BY IDOCK:   -4.17 KCAL/MOL
REMARK 922        TOTAL FREE ENERGY PREDICTED BY IDOCK:   -5.43 KCAL/MOL
REMARK 923 INTER-LIGAND FREE ENERGY PREDICTED BY IDOCK:   -5.24 KCAL/MOL
REMARK 924 INTRA-LIGAND FREE ENERGY PREDICTED BY IDOCK:   -0.19 KCAL/MOL
REMARK 927      BINDING AFFINITY PREDICTED BY RF-SCORE:    0.00 PKD
ROOT
HETATM    1  C   UNL     1     -11.971  14.500  67.438  1.00  0.00    -0.367 C  
HETATM    2  C   UNL     1     -10.611  14.531  68.141  1.00  0.00    -0.238 C  
HETATM    3  C   UNL     1     -10.405  15.904  68.786  1.00  0.00    -0.228 C  
ENDROOT
BRANCH   2   4
HETATM    4  N   UNL     1     -10.578  13.443  69.126  1.00  0.00    -0.436 NA 
HETATM    5  H   UNL     1     -10.175  13.768  70.006  1.00  0.00     0.000 HD 
BRANCH   4   6
HETATM    6  C   UNL     1     -11.884  12.808  69.358  1.00  0.00    -0.300 C  
BRANCH   6   7
HETATM    7  C   UNL     1     -11.883  11.330  68.888  1.00  0.00    -0.345 C  
HETATM    8  H   UNL     1     -10.798  10.170  67.697  1.00  0.00     0.000 HD 
HETATM    9  O   UNL     1     -10.799  11.075  67.986  1.00  0.00    -0.195 OA 
BRANCH   7  10
HETATM   10  C   UNL     1     -11.812  10.373  70.061  1.00  0.00    -0.351 A  
HETATM   11  C   UNL     1     -10.605   9.775  70.462  1.00  0.00    -0.376 A  
HETATM   12  C   UNL     1     -10.588   8.909  71.551  1.00  0.00    -0.329 A  
HETATM   13  O   UNL     1      -9.440   8.292  71.966  1.00  0.00    -0.187 OA 
HETATM   14  C   UNL     1     -11.758   8.636  72.254  1.00  0.00    -0.358 A  
HETATM   15  H   UNL     1      -9.428   7.701  72.709  1.00  0.00     0.000 HD 
HETATM   16  C   UNL     1     -12.957   9.225  71.888  1.00  0.00    -0.489 A  
HETATM   17  O   UNL     1     -11.731   7.776  73.313  1.00  0.00    -0.659 OA 
HETATM   18  C   UNL     1     -12.984  10.093  70.794  1.00  0.00    -0.380 A  
HETATM   19  H   UNL     1     -12.530   7.590  73.793  1.00  0.00     0.000 HD 
ENDBRANCH   7  10
ENDBRANCH   6   7
ENDBRANCH   4   6
ENDBRANCH   2   4
TORSDOF 4
ENDMDL
MODEL      108
REMARK 921   NORMALIZED FREE ENERGY PREDICTED BY IDOCK:   -4.16 KCAL/MOL
REMARK 922        TOTAL FREE ENERGY PREDICTED BY IDOCK:   -5.42 KCAL/MOL
REMARK 923 INTER-LIGAND FREE ENERGY PREDICTED BY IDOCK:   -5.07 KCAL/MOL
REMARK 924 INTRA-LIGAND FREE ENERGY PREDICTED BY IDOCK:   -0.35 KCAL/MOL
REMARK 927      BINDING AFFINITY PREDICTED BY RF-SCORE:    0.00 PKD
ROOT
HETATM    1  C   UNL     1     -10.142   9.667  68.149  1.00  0.00    -0.205 C  
HETATM    2  C   UNL     1     -10.091  11.108  67.633  1.00  0.00    -0.179 C  
HETATM    3  C   UNL     1      -8.722  11.370  66.999  1.00  0.00    -0.160 C  
ENDROOT
BRANCH   2   4
HETATM    4  N   UNL     1     -11.190  11.295  66.680  1.00  0.00    -0.315 NA 
HETATM    5  H   UNL     1     -11.767  10.455  66.628  1.00  0.00     0.000 HD 
BRANCH   4   6
HETATM    6  C   UNL     1     -12.022  12.478  66.954  1.00  0.00    -0.236 C  
BRANCH   6   7
HETATM    7  C   UNL     1     -11.783  13.591  65.900  1.00  0.00    -0.352 C  
HETATM    8  H   UNL     1     -12.847  14.597  64.561  1.00  0.00     0.000 HD 
HETATM    9  O   UNL     1     -12.994  13.915  65.206  1.00  0.00    -0.747 OA 
BRANCH   7  10
HETATM   10  C   UNL     1     -11.202  14.840  66.533  1.00  0.00    -0.342 A  
HETATM   11  C   UNL     1     -10.352  15.707  65.825  1.00  0.00    -0.386 A  
HETATM   12  C   UNL     1      -9.850  16.846  66.447  1.00  0.00    -0.305 A  
HETATM   13  O   UNL     1      -9.007  17.710  65.802  1.00  0.00    -0.509 OA 
HETATM   14  C   UNL     1     -10.191  17.140  67.764  1.00  0.00    -0.324 A  
HETATM   15  H   UNL     1      -8.664  18.487  66.226  1.00  0.00     0.000 HD 
HETATM   16  C   UNL     1     -11.039  16.310  68.477  1.00  0.00    -0.368 A  
HETATM   17  O   UNL     1      -9.682  18.254  68.367  1.00  0.00    -0.321 OA 
HETATM   18  C   UNL     1     -11.544  15.162  67.863  1.00  0.00    -0.326 A  
HETATM   19  H   UNL     1      -9.915  18.454  69.266  1.00  0.00     0.000 HD 
ENDBRANCH   7  10
ENDBRANCH   6   7
ENDBRANCH   4   6
ENDBRANCH   2   4
TORSDOF 4
ENDMDL
MODEL      109
REMARK 921   NORMALIZED FREE ENERGY PREDICTED BY IDOCK:   -4.13 KCAL/MOL
REMARK 922        TOTAL FREE ENERGY PREDICTED BY IDOCK:   -5.38 KCAL/MOL
REMARK 923 INTER-LIGAND FREE ENERGY PREDICTED BY IDOCK:   -5.02 KCAL/MOL
REMARK 924 INTRA-LIGAND FREE ENERGY PREDICTED BY IDOCK:   -0.36 KCAL/MOL
REMARK 927      BINDING AFFINITY PREDICTED BY RF-SCORE:    0.00 PKD
ROOT
HETATM    1  C   UNL     1     -11.367  10.376  68.799  1.00  0.00    -0.275 C  
HETATM    2  C   UNL     1     -10.214  10.445  67.794  1.00  0.00    -0.193 C  
HETATM    3  C   UNL     1      -9.889   9.033  67.298  1.00  0.00    -0.252 C  
ENDROOT
BRANCH   2   4
HETATM    4  N   UNL     1     -10.610  11.340  66.701  1.00  0.00    -0.252 NA 
HETATM    5  H   UNL     1     -10.712  10.819  65.829  1.00  0.00     0.000 HD 
BRANCH   4   6
HETATM    6  C   UNL     1     -11.823  12.124  66.981  1.00  0.00    -0.216 C  
BRANCH   6   7
HETATM    7  C   UNL     1     -11.590  13.635  66.721  1.00  0.00    -0.364 C  
HETATM    8  H   UNL     1     -12.431  15.088  65.661  1.00  0.00     0.000 HD 
HETATM    9  O   UNL     1     -12.573  14.162  65.821  1.00  0.00    -0.488 OA 
BRANCH   7  10
HETATM   10  C   UNL     1     -11.597  14.429  68.012  1.00  0.00    -0.357 A  
HETATM   11  C   UNL     1     -12.061  13.881  69.220  1.00  0.00    -0.383 A  
HETATM   12  C   UNL     1     -12.040  14.647  70.382  1.00  0.00    -0.319 A  
HETATM   13  O   UNL     1     -12.497  14.161  71.577  1.00  0.00    -0.336 OA 
HETATM   14  C   UNL     1     -11.551  15.950  70.360  1.00  0.00    -0.371 A  
HETATM   15  H   UNL     1     -12.482  14.683  72.369  1.00  0.00     0.000 HD 
HETATM   16  C   UNL     1     -11.073  16.506  69.185  1.00  0.00    -0.270 A  
HETATM   17  O   UNL     1     -11.546  16.695  71.503  1.00  0.00    -0.606 OA 
HETATM   18  C   UNL     1     -11.095  15.747  68.013  1.00  0.00    -0.337 A  
HETATM   19  H   UNL     1     -11.213  17.585  71.488  1.00  0.00     0.000 HD 
ENDBRANCH   7  10
ENDBRANCH   6   7
ENDBRANCH   4   6
ENDBRANCH   2   4
TORSDOF 4
ENDMDL
MODEL      110
REMARK 921   NORMALIZED FREE ENERGY PREDICTED BY IDOCK:   -4.11 KCAL/MOL
REMARK 922        TOTAL FREE ENERGY PREDICTED BY IDOCK:   -5.36 KCAL/MOL
REMARK 923 INTER-LIGAND FREE ENERGY PREDICTED BY IDOCK:   -5.12 KCAL/MOL
REMARK 924 INTRA-LIGAND FREE ENERGY PREDICTED BY IDOCK:   -0.24 KCAL/MOL
REMARK 927      BINDING AFFINITY PREDICTED BY RF-SCORE:    0.00 PKD
ROOT
HETATM    1  C   UNL     1      -8.711   8.694  68.609  1.00  0.00    -0.138 C  
HETATM    2  C   UNL     1      -9.449   9.972  68.200  1.00  0.00    -0.138 C  
HETATM    3  C   UNL     1      -9.124  10.299  66.740  1.00  0.00    -0.161 C  
ENDROOT
BRANCH   2   4
HETATM    4  N   UNL     1     -10.885   9.763  68.417  1.00  0.00    -0.366 NA 
HETATM    5  H   UNL     1     -11.040   9.051  69.131  1.00  0.00     0.000 HD 
BRANCH   4   6
HETATM    6  C   UNL     1     -11.624  10.993  68.744  1.00  0.00    -0.318 C  
BRANCH   6   7
HETATM    7  C   UNL     1     -12.310  10.885  70.131  1.00  0.00    -0.322 C  
HETATM    8  H   UNL     1     -11.950  10.026  71.883  1.00  0.00     0.000 HD 
HETATM    9  O   UNL     1     -11.530  10.092  71.034  1.00  0.00    -0.348 OA 
BRANCH   7  10
HETATM   10  C   UNL     1     -12.564  12.253  70.734  1.00  0.00    -0.302 A  
HETATM   11  C   UNL     1     -12.100  13.432  70.126  1.00  0.00    -0.415 A  
HETATM   12  C   UNL     1     -12.365  14.665  70.713  1.00  0.00    -0.328 A  
HETATM   13  O   UNL     1     -11.919  15.837  70.166  1.00  0.00    -0.353 OA 
HETATM   14  C   UNL     1     -13.095  14.742  71.896  1.00  0.00    -0.334 A  
HETATM   15  H   UNL     1     -12.099  16.679  70.566  1.00  0.00     0.000 HD 
HETATM   16  C   UNL     1     -13.576  13.596  72.505  1.00  0.00    -0.675 A  
HETATM   17  O   UNL     1     -13.338  15.956  72.469  1.00  0.00    -0.475 OA 
HETATM   18  C   UNL     1     -13.312  12.353  71.925  1.00  0.00    -0.450 A  
HETATM   19  H   UNL     1     -13.836  16.008  73.276  1.00  0.00     0.000 HD 
ENDBRANCH   7  10
ENDBRANCH   6   7
ENDBRANCH   4   6
ENDBRANCH   2   4
TORSDOF 4
ENDMDL
MODEL      111
REMARK 921   NORMALIZED FREE ENERGY PREDICTED BY IDOCK:   -4.10 KCAL/MOL
REMARK 922        TOTAL FREE ENERGY PREDICTED BY IDOCK:   -5.34 KCAL/MOL
REMARK 923 INTER-LIGAND FREE ENERGY PREDICTED BY IDOCK:   -5.13 KCAL/MOL
REMARK 924 INTRA-LIGAND FREE ENERGY PREDICTED BY IDOCK:   -0.21 KCAL/MOL
REMARK 927      BINDING AFFINITY PREDICTED BY RF-SCORE:    0.00 PKD
ROOT
HETATM    1  C   UNL     1     -11.032   6.230  72.012  1.00  0.00    -0.299 C  
HETATM    2  C   UNL     1     -11.193   7.534  72.799  1.00  0.00    -0.352 C  
HETATM    3  C   UNL     1      -9.821   8.188  72.983  1.00  0.00    -0.319 C  
ENDROOT
BRANCH   2   4
HETATM    4  N   UNL     1     -12.128   8.399  72.070  1.00  0.00    -0.332 NA 
HETATM    5  H   UNL     1     -12.978   8.548  72.615  1.00  0.00     0.000 HD 
BRANCH   4   6
HETATM    6  C   UNL     1     -11.549   9.686  71.654  1.00  0.00    -0.336 C  
BRANCH   6   7
HETATM    7  C   UNL     1     -12.641  10.649  71.119  1.00  0.00    -0.423 C  
HETATM    8  H   UNL     1     -13.811  12.083  71.835  1.00  0.00     0.000 HD 
HETATM    9  O   UNL     1     -13.142  11.493  72.162  1.00  0.00    -0.466 OA 
BRANCH   7  10
HETATM   10  C   UNL     1     -12.123  11.496  69.974  1.00  0.00    -0.408 A  
HETATM   11  C   UNL     1     -11.754  10.935  68.739  1.00  0.00    -0.355 A  
HETATM   12  C   UNL     1     -11.292  11.755  67.715  1.00  0.00    -0.289 A  
HETATM   13  O   UNL     1     -10.905  11.250  66.503  1.00  0.00    -0.271 OA 
HETATM   14  C   UNL     1     -11.201  13.132  67.899  1.00  0.00    -0.270 A  
HETATM   15  H   UNL     1     -10.590  11.810  65.804  1.00  0.00     0.000 HD 
HETATM   16  C   UNL     1     -11.574  13.710  69.101  1.00  0.00    -0.356 A  
HETATM   17  O   UNL     1     -10.735  13.924  66.891  1.00  0.00    -0.281 OA 
HETATM   18  C   UNL     1     -12.036  12.894  70.136  1.00  0.00    -0.373 A  
HETATM   19  H   UNL     1     -10.673  14.864  67.017  1.00  0.00     0.000 HD 
ENDBRANCH   7  10
ENDBRANCH   6   7
ENDBRANCH   4   6
ENDBRANCH   2   4
TORSDOF 4
ENDMDL
MODEL      112
REMARK 921   NORMALIZED FREE ENERGY PREDICTED BY IDOCK:   -4.09 KCAL/MOL
REMARK 922        TOTAL FREE ENERGY PREDICTED BY IDOCK:   -5.34 KCAL/MOL
REMARK 923 INTER-LIGAND FREE ENERGY PREDICTED BY IDOCK:   -4.78 KCAL/MOL
REMARK 924 INTRA-LIGAND FREE ENERGY PREDICTED BY IDOCK:   -0.55 KCAL/MOL
REMARK 927      BINDING AFFINITY PREDICTED BY RF-SCORE:    0.00 PKD
ROOT
HETATM    1  C   UNL     1     -12.281  14.705  69.435  1.00  0.00    -0.270 C  
HETATM    2  C   UNL     1     -11.688  13.660  68.486  1.00  0.00    -0.357 C  
HETATM    3  C   UNL     1     -11.977  14.067  67.039  1.00  0.00    -0.472 C  
ENDROOT
BRANCH   2   4
HETATM    4  N   UNL     1     -10.250  13.555  68.758  1.00  0.00    -0.383 NA 
HETATM    5  H   UNL     1      -9.772  13.091  67.984  1.00  0.00     0.000 HD 
BRANCH   4   6
HETATM    6  C   UNL     1      -9.606  14.841  69.068  1.00  0.00    -0.178 C  
BRANCH   6   7
HETATM    7  C   UNL     1      -8.503  15.183  68.032  1.00  0.00    -0.148 C  
HETATM    8  H   UNL     1      -7.831  14.456  66.311  1.00  0.00     0.000 HD 
HETATM    9  O   UNL     1      -8.506  14.247  66.946  1.00  0.00    -0.192 OA 
BRANCH   7  10
HETATM   10  C   UNL     1      -8.660  16.592  67.497  1.00  0.00    -0.199 A  
HETATM   11  C   UNL     1      -9.821  17.350  67.726  1.00  0.00    -0.283 A  
HETATM   12  C   UNL     1      -9.916  18.643  67.221  1.00  0.00    -0.329 A  
HETATM   13  O   UNL     1     -11.033  19.412  67.405  1.00  0.00    -0.490 OA 
HETATM   14  C   UNL     1      -8.863  19.198  66.499  1.00  0.00    -0.334 A  
HETATM   15  H   UNL     1     -11.098  20.294  67.061  1.00  0.00     0.000 HD 
HETATM   16  C   UNL     1      -7.703  18.477  66.274  1.00  0.00    -0.283 A  
HETATM   17  O   UNL     1      -8.972  20.463  65.999  1.00  0.00    -0.589 OA 
HETATM   18  C   UNL     1      -7.601  17.177  66.773  1.00  0.00    -0.274 A  
HETATM   19  H   UNL     1      -8.254  20.841  65.506  1.00  0.00     0.000 HD 
ENDBRANCH   7  10
ENDBRANCH   6   7
ENDBRANCH   4   6
ENDBRANCH   2   4
TORSDOF 4
ENDMDL
MODEL      113
REMARK 921   NORMALIZED FREE ENERGY PREDICTED BY IDOCK:   -4.08 KCAL/MOL
REMARK 922        TOTAL FREE ENERGY PREDICTED BY IDOCK:   -5.33 KCAL/MOL
REMARK 923 INTER-LIGAND FREE ENERGY PREDICTED BY IDOCK:   -5.09 KCAL/MOL
REMARK 924 INTRA-LIGAND FREE ENERGY PREDICTED BY IDOCK:   -0.24 KCAL/MOL
REMARK 927      BINDING AFFINITY PREDICTED BY RF-SCORE:    0.00 PKD
ROOT
HETATM    1  C   UNL     1      -9.561  16.145  66.104  1.00  0.00    -0.359 C  
HETATM    2  C   UNL     1     -10.723  15.151  66.039  1.00  0.00    -0.329 C  
HETATM    3  C   UNL     1     -11.569  15.441  64.796  1.00  0.00    -0.286 C  
ENDROOT
BRANCH   2   4
HETATM    4  N   UNL     1     -10.168  13.793  66.029  1.00  0.00    -0.301 NA 
HETATM    5  H   UNL     1      -9.226  13.793  65.636  1.00  0.00     0.000 HD 
BRANCH   4   6
HETATM    6  C   UNL     1     -10.179  13.134  67.345  1.00  0.00    -0.232 C  
BRANCH   6   7
HETATM    7  C   UNL     1     -11.549  12.464  67.628  1.00  0.00    -0.357 C  
HETATM    8  H   UNL     1     -12.864  11.345  66.651  1.00  0.00     0.000 HD 
HETATM    9  O   UNL     1     -12.025  11.755  66.478  1.00  0.00    -0.545 OA 
BRANCH   7  10
HETATM   10  C   UNL     1     -11.474  11.526  68.817  1.00  0.00    -0.349 A  
HETATM   11  C   UNL     1     -12.354  11.634  69.907  1.00  0.00    -0.226 A  
HETATM   12  C   UNL     1     -12.252  10.745  70.972  1.00  0.00    -0.380 A  
HETATM   13  O   UNL     1     -13.076  10.823  72.061  1.00  0.00    -0.483 OA 
HETATM   14  C   UNL     1     -11.290   9.739  70.961  1.00  0.00    -0.387 A  
HETATM   15  H   UNL     1     -13.007  10.215  72.788  1.00  0.00     0.000 HD 
HETATM   16  C   UNL     1     -10.422   9.601  69.891  1.00  0.00    -0.285 A  
HETATM   17  O   UNL     1     -11.191   8.879  72.017  1.00  0.00    -0.353 OA 
HETATM   18  C   UNL     1     -10.515  10.493  68.820  1.00  0.00    -0.216 A  
HETATM   19  H   UNL     1     -10.534   8.193  72.010  1.00  0.00     0.000 HD 
ENDBRANCH   7  10
ENDBRANCH   6   7
ENDBRANCH   4   6
ENDBRANCH   2   4
TORSDOF 4
ENDMDL
MODEL      114
REMARK 921   NORMALIZED FREE ENERGY PREDICTED BY IDOCK:   -4.06 KCAL/MOL
REMARK 922        TOTAL FREE ENERGY PREDICTED BY IDOCK:   -5.30 KCAL/MOL
REMARK 923 INTER-LIGAND FREE ENERGY PREDICTED BY IDOCK:   -5.06 KCAL/MOL
REMARK 924 INTRA-LIGAND FREE ENERGY PREDICTED BY IDOCK:   -0.23 KCAL/MOL
REMARK 927      BINDING AFFINITY PREDICTED BY RF-SCORE:    0.00 PKD
ROOT
HETATM    1  C   UNL     1      -9.103   6.267  73.938  1.00  0.00    -0.140 C  
HETATM    2  C   UNL     1     -10.257   5.396  73.432  1.00  0.00    -0.196 C  
HETATM    3  C   UNL     1     -10.513   4.265  74.432  1.00  0.00    -0.300 C  
ENDROOT
BRANCH   2   4
HETATM    4  N   UNL     1     -11.434   6.253  73.248  1.00  0.00    -0.421 NA 
HETATM    5  H   UNL     1     -12.024   6.236  74.080  1.00  0.00     0.000 HD 
BRANCH   4   6
HETATM    6  C   UNL     1     -11.111   7.638  72.871  1.00  0.00    -0.393 C  
BRANCH   6   7
HETATM    7  C   UNL     1     -11.516   7.932  71.403  1.00  0.00    -0.260 C  
HETATM    8  H   UNL     1     -12.902   7.330  70.115  1.00  0.00     0.000 HD 
HETATM    9  O   UNL     1     -12.653   7.150  71.015  1.00  0.00    -0.357 OA 
BRANCH   7  10
HETATM   10  C   UNL     1     -11.807   9.404  71.190  1.00  0.00    -0.413 A  
HETATM   11  C   UNL     1     -11.114  10.169  70.235  1.00  0.00    -0.384 A  
HETATM   12  C   UNL     1     -11.422  11.515  70.070  1.00  0.00    -0.220 A  
HETATM   13  O   UNL     1     -10.763  12.302  69.164  1.00  0.00    -0.391 OA 
HETATM   14  C   UNL     1     -12.419  12.111  70.837  1.00  0.00    -0.279 A  
HETATM   15  H   UNL     1     -10.973  13.221  69.052  1.00  0.00     0.000 HD 
HETATM   16  C   UNL     1     -13.125  11.376  71.773  1.00  0.00    -0.523 A  
HETATM   17  O   UNL     1     -12.703  13.436  70.675  1.00  0.00    -0.264 OA 
HETATM   18  C   UNL     1     -12.821  10.024  71.948  1.00  0.00    -0.524 A  
HETATM   19  H   UNL     1     -13.383  13.843  71.199  1.00  0.00     0.000 HD 
ENDBRANCH   7  10
ENDBRANCH   6   7
ENDBRANCH   4   6
ENDBRANCH   2   4
TORSDOF 4
ENDMDL
MODEL      115
REMARK 921   NORMALIZED FREE ENERGY PREDICTED BY IDOCK:   -4.05 KCAL/MOL
REMARK 922        TOTAL FREE ENERGY PREDICTED BY IDOCK:   -5.29 KCAL/MOL
REMARK 923 INTER-LIGAND FREE ENERGY PREDICTED BY IDOCK:   -5.10 KCAL/MOL
REMARK 924 INTRA-LIGAND FREE ENERGY PREDICTED BY IDOCK:   -0.19 KCAL/MOL
REMARK 927      BINDING AFFINITY PREDICTED BY RF-SCORE:    0.00 PKD
ROOT
HETATM    1  C   UNL     1     -13.089  10.414  71.629  1.00  0.00    -0.553 C  
HETATM    2  C   UNL     1     -11.936  11.066  70.861  1.00  0.00    -0.286 C  
HETATM    3  C   UNL     1     -11.751  10.350  69.520  1.00  0.00    -0.259 C  
ENDROOT
BRANCH   2   4
HETATM    4  N   UNL     1     -12.243  12.491  70.692  1.00  0.00    -0.437 NA 
HETATM    5  H   UNL     1     -12.110  12.993  71.570  1.00  0.00     0.000 HD 
BRANCH   4   6
HETATM    6  C   UNL     1     -11.489  13.139  69.607  1.00  0.00    -0.191 C  
BRANCH   6   7
HETATM    7  C   UNL     1     -12.176  14.453  69.151  1.00  0.00    -0.220 C  
HETATM    8  H   UNL     1     -12.927  16.085  69.995  1.00  0.00     0.000 HD 
HETATM    9  O   UNL     1     -12.507  15.280  70.274  1.00  0.00    -0.357 OA 
BRANCH   7  10
HETATM   10  C   UNL     1     -11.306  15.227  68.180  1.00  0.00    -0.346 A  
HETATM   11  C   UNL     1     -11.480  15.133  66.788  1.00  0.00    -0.195 A  
HETATM   12  C   UNL     1     -10.662  15.870  65.937  1.00  0.00    -0.296 A  
HETATM   13  O   UNL     1     -10.784  15.797  64.576  1.00  0.00    -0.755 OA 
HETATM   14  C   UNL     1      -9.678  16.709  66.453  1.00  0.00    -0.286 A  
HETATM   15  H   UNL     1     -10.226  16.300  63.994  1.00  0.00     0.000 HD 
HETATM   16  C   UNL     1      -9.499  16.830  67.820  1.00  0.00    -0.228 A  
HETATM   17  O   UNL     1      -8.875  17.417  65.607  1.00  0.00    -0.448 OA 
HETATM   18  C   UNL     1     -10.312  16.091  68.683  1.00  0.00    -0.241 A  
HETATM   19  H   UNL     1      -8.203  17.989  65.960  1.00  0.00     0.000 HD 
ENDBRANCH   7  10
ENDBRANCH   6   7
ENDBRANCH   4   6
ENDBRANCH   2   4
TORSDOF 4
ENDMDL
MODEL      116
REMARK 921   NORMALIZED FREE ENERGY PREDICTED BY IDOCK:   -4.05 KCAL/MOL
REMARK 922        TOTAL FREE ENERGY PREDICTED BY IDOCK:   -5.29 KCAL/MOL
REMARK 923 INTER-LIGAND FREE ENERGY PREDICTED BY IDOCK:   -5.11 KCAL/MOL
REMARK 924 INTRA-LIGAND FREE ENERGY PREDICTED BY IDOCK:   -0.18 KCAL/MOL
REMARK 927      BINDING AFFINITY PREDICTED BY RF-SCORE:    0.00 PKD
ROOT
HETATM    1  C   UNL     1     -10.521  19.966  66.338  1.00  0.00    -0.589 C  
HETATM    2  C   UNL     1      -9.330  19.004  66.355  1.00  0.00    -0.336 C  
HETATM    3  C   UNL     1      -8.029  19.806  66.266  1.00  0.00    -0.346 C  
ENDROOT
BRANCH   2   4
HETATM    4  N   UNL     1      -9.405  18.199  67.579  1.00  0.00    -0.256 NA 
HETATM    5  H   UNL     1      -9.904  18.705  68.311  1.00  0.00     0.000 HD 
BRANCH   4   6
HETATM    6  C   UNL     1      -9.993  16.864  67.381  1.00  0.00    -0.269 C  
BRANCH   6   7
HETATM    7  C   UNL     1      -9.989  16.046  68.699  1.00  0.00    -0.220 C  
HETATM    8  H   UNL     1     -10.729  16.215  70.533  1.00  0.00     0.000 HD 
HETATM    9  O   UNL     1     -10.731  16.716  69.726  1.00  0.00    -0.328 OA 
BRANCH   7  10
HETATM   10  C   UNL     1     -10.544  14.651  68.489  1.00  0.00    -0.245 A  
HETATM   11  C   UNL     1     -10.371  13.955  67.281  1.00  0.00    -0.257 A  
HETATM   12  C   UNL     1     -10.892  12.673  67.138  1.00  0.00    -0.253 A  
HETATM   13  O   UNL     1     -10.762  11.965  65.975  1.00  0.00    -0.265 OA 
HETATM   14  C   UNL     1     -11.576  12.068  68.189  1.00  0.00    -0.340 A  
HETATM   15  H   UNL     1     -11.117  11.090  65.877  1.00  0.00     0.000 HD 
HETATM   16  C   UNL     1     -11.745  12.727  69.395  1.00  0.00    -0.380 A  
HETATM   17  O   UNL     1     -12.093  10.815  68.033  1.00  0.00    -0.778 OA 
HETATM   18  C   UNL     1     -11.229  14.016  69.545  1.00  0.00    -0.249 A  
HETATM   19  H   UNL     1     -12.560  10.402  68.750  1.00  0.00     0.000 HD 
ENDBRANCH   7  10
ENDBRANCH   6   7
ENDBRANCH   4   6
ENDBRANCH   2   4
TORSDOF 4
ENDMDL
MODEL      117
REMARK 921   NORMALIZED FREE ENERGY PREDICTED BY IDOCK:   -4.04 KCAL/MOL
REMARK 922        TOTAL FREE ENERGY PREDICTED BY IDOCK:   -5.27 KCAL/MOL
REMARK 923 INTER-LIGAND FREE ENERGY PREDICTED BY IDOCK:   -4.97 KCAL/MOL
REMARK 924 INTRA-LIGAND FREE ENERGY PREDICTED BY IDOCK:   -0.31 KCAL/MOL
REMARK 927      BINDING AFFINITY PREDICTED BY RF-SCORE:    0.00 PKD
ROOT
HETATM    1  C   UNL     1     -12.476  11.117  69.675  1.00  0.00    -0.195 C  
HETATM    2  C   UNL     1     -11.409  11.616  68.697  1.00  0.00    -0.267 C  
HETATM    3  C   UNL     1     -10.121  10.813  68.900  1.00  0.00    -0.217 C  
ENDROOT
BRANCH   2   4
HETATM    4  N   UNL     1     -11.936  11.485  67.334  1.00  0.00    -0.597 NA 
HETATM    5  H   UNL     1     -12.792  12.031  67.226  1.00  0.00     0.000 HD 
BRANCH   4   6
HETATM    6  C   UNL     1     -10.966  11.831  66.283  1.00  0.00    -0.300 C  
BRANCH   6   7
HETATM    7  C   UNL     1     -11.620  12.701  65.177  1.00  0.00    -0.348 C  
HETATM    8  H   UNL     1     -13.445  13.072  64.490  1.00  0.00     0.000 HD 
HETATM    9  O   UNL     1     -13.044  12.539  65.167  1.00  0.00    -0.659 OA 
BRANCH   7  10
HETATM   10  C   UNL     1     -11.270  14.167  65.343  1.00  0.00    -0.325 A  
HETATM   11  C   UNL     1     -10.509  14.632  66.429  1.00  0.00    -0.296 A  
HETATM   12  C   UNL     1     -10.206  15.986  66.534  1.00  0.00    -0.293 A  
HETATM   13  O   UNL     1      -9.483  16.486  67.582  1.00  0.00    -0.222 OA 
HETATM   14  C   UNL     1     -10.642  16.884  65.564  1.00  0.00    -0.202 A  
HETATM   15  H   UNL     1      -9.276  17.410  67.654  1.00  0.00     0.000 HD 
HETATM   16  C   UNL     1     -11.380  16.448  64.476  1.00  0.00    -0.120 A  
HETATM   17  O   UNL     1     -10.349  18.212  65.684  1.00  0.00    -0.603 OA 
HETATM   18  C   UNL     1     -11.692  15.091  64.365  1.00  0.00    -0.320 A  
HETATM   19  H   UNL     1     -10.647  18.824  65.022  1.00  0.00     0.000 HD 
ENDBRANCH   7  10
ENDBRANCH   6   7
ENDBRANCH   4   6
ENDBRANCH   2   4
TORSDOF 4
ENDMDL
MODEL      118
REMARK 921   NORMALIZED FREE ENERGY PREDICTED BY IDOCK:   -4.03 KCAL/MOL
REMARK 922        TOTAL FREE ENERGY PREDICTED BY IDOCK:   -5.26 KCAL/MOL
REMARK 923 INTER-LIGAND FREE ENERGY PREDICTED BY IDOCK:   -4.83 KCAL/MOL
REMARK 924 INTRA-LIGAND FREE ENERGY PREDICTED BY IDOCK:   -0.43 KCAL/MOL
REMARK 927      BINDING AFFINITY PREDICTED BY RF-SCORE:    0.00 PKD
ROOT
HETATM    1  C   UNL     1      -7.926   6.583  68.089  1.00  0.00    -0.110 C  
HETATM    2  C   UNL     1      -9.067   7.379  67.450  1.00  0.00    -0.122 C  
HETATM    3  C   UNL     1     -10.300   6.482  67.320  1.00  0.00    -0.283 C  
ENDROOT
BRANCH   2   4
HETATM    4  N   UNL     1      -9.324   8.562  68.279  1.00  0.00    -0.138 NA 
HETATM    5  H   UNL     1     -10.306   8.835  68.220  1.00  0.00     0.000 HD 
BRANCH   4   6
HETATM    6  C   UNL     1      -8.914   8.407  69.683  1.00  0.00    -0.145 C  
BRANCH   6   7
HETATM    7  C   UNL     1      -9.775   9.292  70.623  1.00  0.00    -0.272 C  
HETATM    8  H   UNL     1     -10.678  11.058  70.553  1.00  0.00     0.000 HD 
HETATM    9  O   UNL     1     -10.151  10.516  69.978  1.00  0.00    -0.121 OA 
BRANCH   7  10
HETATM   10  C   UNL     1     -11.013   8.559  71.099  1.00  0.00    -0.306 A  
HETATM   11  C   UNL     1     -12.061   9.220  71.761  1.00  0.00    -0.457 A  
HETATM   12  C   UNL     1     -13.181   8.505  72.173  1.00  0.00    -0.352 A  
HETATM   13  O   UNL     1     -14.218   9.104  72.835  1.00  0.00    -1.016 OA 
HETATM   14  C   UNL     1     -13.278   7.139  71.923  1.00  0.00    -0.221 A  
HETATM   15  H   UNL     1     -14.983   8.616  73.116  1.00  0.00     0.000 HD 
HETATM   16  C   UNL     1     -12.266   6.468  71.258  1.00  0.00    -0.287 A  
HETATM   17  O   UNL     1     -14.377   6.446  72.342  1.00  0.00    -0.711 OA 
HETATM   18  C   UNL     1     -11.135   7.177  70.845  1.00  0.00    -0.290 A  
HETATM   19  H   UNL     1     -14.442   5.514  72.172  1.00  0.00     0.000 HD 
ENDBRANCH   7  10
ENDBRANCH   6   7
ENDBRANCH   4   6
ENDBRANCH   2   4
TORSDOF 4
ENDMDL
MODEL      119
REMARK 921   NORMALIZED FREE ENERGY PREDICTED BY IDOCK:   -4.02 KCAL/MOL
REMARK 922        TOTAL FREE ENERGY PREDICTED BY IDOCK:   -5.25 KCAL/MOL
REMARK 923 INTER-LIGAND FREE ENERGY PREDICTED BY IDOCK:   -4.83 KCAL/MOL
REMARK 924 INTRA-LIGAND FREE ENERGY PREDICTED BY IDOCK:   -0.42 KCAL/MOL
REMARK 927      BINDING AFFINITY PREDICTED BY RF-SCORE:    0.00 PKD
ROOT
HETATM    1  C   UNL     1     -13.791  14.452  71.558  1.00  0.00    -0.455 C  
HETATM    2  C   UNL     1     -12.575  15.165  70.959  1.00  0.00    -0.377 C  
HETATM    3  C   UNL     1     -11.956  16.084  72.015  1.00  0.00    -0.622 C  
ENDROOT
BRANCH   2   4
HETATM    4  N   UNL     1     -11.631  14.146  70.485  1.00  0.00    -0.494 NA 
HETATM    5  H   UNL     1     -12.092  13.239  70.406  1.00  0.00     0.000 HD 
BRANCH   4   6
HETATM    6  C   UNL     1     -10.959  14.496  69.224  1.00  0.00    -0.260 C  
BRANCH   6   7
HETATM    7  C   UNL     1      -9.515  15.002  69.477  1.00  0.00    -0.073 C  
HETATM    8  H   UNL     1      -7.663  14.414  69.072  1.00  0.00     0.000 HD 
HETATM    9  O   UNL     1      -8.548  14.105  68.917  1.00  0.00    -0.110 OA 
BRANCH   7  10
HETATM   10  C   UNL     1      -9.308  16.396  68.919  1.00  0.00    -0.249 A  
HETATM   11  C   UNL     1     -10.376  17.291  68.737  1.00  0.00    -0.358 A  
HETATM   12  C   UNL     1     -10.135  18.564  68.229  1.00  0.00    -0.390 A  
HETATM   13  O   UNL     1     -11.146  19.462  68.020  1.00  0.00    -0.294 OA 
HETATM   14  C   UNL     1      -8.840  18.963  67.908  1.00  0.00    -0.298 A  
HETATM   15  H   UNL     1     -10.981  20.331  67.673  1.00  0.00     0.000 HD 
HETATM   16  C   UNL     1      -7.770  18.104  68.093  1.00  0.00    -0.280 A  
HETATM   17  O   UNL     1      -8.618  20.209  67.399  1.00  0.00    -0.325 OA 
HETATM   18  C   UNL     1      -8.003  16.823  68.599  1.00  0.00    -0.246 A  
HETATM   19  H   UNL     1      -7.735  20.481  67.180  1.00  0.00     0.000 HD 
ENDBRANCH   7  10
ENDBRANCH   6   7
ENDBRANCH   4   6
ENDBRANCH   2   4
TORSDOF 4
ENDMDL
MODEL      120
REMARK 921   NORMALIZED FREE ENERGY PREDICTED BY IDOCK:   -3.99 KCAL/MOL
REMARK 922        TOTAL FREE ENERGY PREDICTED BY IDOCK:   -5.21 KCAL/MOL
REMARK 923 INTER-LIGAND FREE ENERGY PREDICTED BY IDOCK:   -4.94 KCAL/MOL
REMARK 924 INTRA-LIGAND FREE ENERGY PREDICTED BY IDOCK:   -0.27 KCAL/MOL
REMARK 927      BINDING AFFINITY PREDICTED BY RF-SCORE:    0.00 PKD
ROOT
HETATM    1  C   UNL     1      -8.891   6.330  66.581  1.00  0.00    -0.132 C  
HETATM    2  C   UNL     1     -10.342   6.280  67.068  1.00  0.00    -0.240 C  
HETATM    3  C   UNL     1     -10.368   5.872  68.543  1.00  0.00    -0.268 C  
ENDROOT
BRANCH   2   4
HETATM    4  N   UNL     1     -10.949   7.597  66.844  1.00  0.00    -0.491 NA 
HETATM    5  H   UNL     1     -11.962   7.549  66.956  1.00  0.00     0.000 HD 
BRANCH   4   6
HETATM    6  C   UNL     1     -10.386   8.664  67.687  1.00  0.00    -0.254 C  
BRANCH   6   7
HETATM    7  C   UNL     1      -9.891   9.858  66.830  1.00  0.00    -0.201 C  
HETATM    8  H   UNL     1      -9.764  10.328  64.906  1.00  0.00     0.000 HD 
HETATM    9  O   UNL     1     -10.067   9.597  65.432  1.00  0.00    -0.272 OA 
BRANCH   7  10
HETATM   10  C   UNL     1     -10.598  11.145  67.207  1.00  0.00    -0.279 A  
HETATM   11  C   UNL     1     -11.335  11.890  66.271  1.00  0.00    -0.394 A  
HETATM   12  C   UNL     1     -11.973  13.062  66.667  1.00  0.00    -0.387 A  
HETATM   13  O   UNL     1     -12.688  13.828  65.787  1.00  0.00    -0.490 OA 
HETATM   14  C   UNL     1     -11.896  13.497  67.987  1.00  0.00    -0.365 A  
HETATM   15  H   UNL     1     -13.124  14.627  66.056  1.00  0.00     0.000 HD 
HETATM   16  C   UNL     1     -11.189  12.771  68.930  1.00  0.00    -0.332 A  
HETATM   17  O   UNL     1     -12.517  14.654  68.360  1.00  0.00    -0.594 OA 
HETATM   18  C   UNL     1     -10.542  11.596  68.541  1.00  0.00    -0.241 A  
HETATM   19  H   UNL     1     -12.464  14.951  69.260  1.00  0.00     0.000 HD 
ENDBRANCH   7  10
ENDBRANCH   6   7
ENDBRANCH   4   6
ENDBRANCH   2   4
TORSDOF 4
ENDMDL
MODEL      121
REMARK 921   NORMALIZED FREE ENERGY PREDICTED BY IDOCK:   -3.99 KCAL/MOL
REMARK 922        TOTAL FREE ENERGY PREDICTED BY IDOCK:   -5.21 KCAL/MOL
REMARK 923 INTER-LIGAND FREE ENERGY PREDICTED BY IDOCK:   -4.99 KCAL/MOL
REMARK 924 INTRA-LIGAND FREE ENERGY PREDICTED BY IDOCK:   -0.21 KCAL/MOL
REMARK 927      BINDING AFFINITY PREDICTED BY RF-SCORE:    0.00 PKD
ROOT
HETATM    1  C   UNL     1     -10.256  20.022  67.683  1.00  0.00    -0.548 C  
HETATM    2  C   UNL     1      -9.637  19.560  66.361  1.00  0.00    -0.390 C  
HETATM    3  C   UNL     1      -8.155  19.244  66.579  1.00  0.00    -0.310 C  
ENDROOT
BRANCH   2   4
HETATM    4  N   UNL     1     -10.390  18.394  65.882  1.00  0.00    -0.601 NA 
HETATM    5  H   UNL     1     -10.061  18.110  64.959  1.00  0.00     0.000 HD 
BRANCH   4   6
HETATM    6  C   UNL     1     -10.376  17.253  66.811  1.00  0.00    -0.308 C  
BRANCH   6   7
HETATM    7  C   UNL     1     -10.860  15.954  66.114  1.00  0.00    -0.208 C  
HETATM    8  H   UNL     1     -10.701  15.101  64.329  1.00  0.00     0.000 HD 
HETATM    9  O   UNL     1     -10.405  15.896  64.756  1.00  0.00    -0.485 OA 
BRANCH   7  10
HETATM   10  C   UNL     1     -10.404  14.718  66.863  1.00  0.00    -0.267 A  
HETATM   11  C   UNL     1      -9.307  13.950  66.435  1.00  0.00    -0.226 A  
HETATM   12  C   UNL     1      -8.922  12.828  67.160  1.00  0.00    -0.214 A  
HETATM   13  O   UNL     1      -7.871  12.042  66.772  1.00  0.00    -0.304 OA 
HETATM   14  C   UNL     1      -9.608  12.463  68.316  1.00  0.00    -0.211 A  
HETATM   15  H   UNL     1      -7.607  11.275  67.267  1.00  0.00     0.000 HD 
HETATM   16  C   UNL     1     -10.681  13.213  68.766  1.00  0.00    -0.253 A  
HETATM   17  O   UNL     1      -9.227  11.353  69.012  1.00  0.00    -0.383 OA 
HETATM   18  C   UNL     1     -11.078  14.339  68.042  1.00  0.00    -0.286 A  
HETATM   19  H   UNL     1      -9.696  11.105  69.800  1.00  0.00     0.000 HD 
ENDBRANCH   7  10
ENDBRANCH   6   7
ENDBRANCH   4   6
ENDBRANCH   2   4
TORSDOF 4
ENDMDL
MODEL      122
REMARK 921   NORMALIZED FREE ENERGY PREDICTED BY IDOCK:   -3.98 KCAL/MOL
REMARK 922        TOTAL FREE ENERGY PREDICTED BY IDOCK:   -5.20 KCAL/MOL
REMARK 923 INTER-LIGAND FREE ENERGY PREDICTED BY IDOCK:   -4.77 KCAL/MOL
REMARK 924 INTRA-LIGAND FREE ENERGY PREDICTED BY IDOCK:   -0.43 KCAL/MOL
REMARK 927      BINDING AFFINITY PREDICTED BY RF-SCORE:    0.00 PKD
ROOT
HETATM    1  C   UNL     1      -7.766  16.969  68.695  1.00  0.00    -0.251 C  
HETATM    2  C   UNL     1      -8.357  16.479  67.370  1.00  0.00    -0.170 C  
HETATM    3  C   UNL     1      -7.700  17.235  66.212  1.00  0.00    -0.353 C  
ENDROOT
BRANCH   2   4
HETATM    4  N   UNL     1      -8.146  15.030  67.279  1.00  0.00    -0.196 NA 
HETATM    5  H   UNL     1      -7.840  14.655  68.177  1.00  0.00     0.000 HD 
BRANCH   4   6
HETATM    6  C   UNL     1      -9.313  14.287  66.778  1.00  0.00    -0.276 C  
BRANCH   6   7
HETATM    7  C   UNL     1     -10.633  15.045  67.077  1.00  0.00    -0.293 C  
HETATM    8  H   UNL     1     -12.355  15.409  66.160  1.00  0.00     0.000 HD 
HETATM    9  O   UNL     1     -11.546  14.945  65.977  1.00  0.00    -0.323 OA 
BRANCH   7  10
HETATM   10  C   UNL     1     -11.293  14.534  68.342  1.00  0.00    -0.311 A  
HETATM   11  C   UNL     1     -11.923  15.398  69.254  1.00  0.00    -0.335 A  
HETATM   12  C   UNL     1     -12.522  14.881  70.398  1.00  0.00    -0.350 A  
HETATM   13  O   UNL     1     -13.132  15.686  71.322  1.00  0.00    -0.484 OA 
HETATM   14  C   UNL     1     -12.514  13.510  70.643  1.00  0.00    -0.333 A  
HETATM   15  H   UNL     1     -13.542  15.333  72.103  1.00  0.00     0.000 HD 
HETATM   16  C   UNL     1     -11.914  12.637  69.751  1.00  0.00    -0.365 A  
HETATM   17  O   UNL     1     -13.095  13.016  71.774  1.00  0.00    -0.399 OA 
HETATM   18  C   UNL     1     -11.306  13.148  68.602  1.00  0.00    -0.327 A  
HETATM   19  H   UNL     1     -13.088  12.081  71.941  1.00  0.00     0.000 HD 
ENDBRANCH   7  10
ENDBRANCH   6   7
ENDBRANCH   4   6
ENDBRANCH   2   4
TORSDOF 4
ENDMDL
MODEL      123
REMARK 921   NORMALIZED FREE ENERGY PREDICTED BY IDOCK:   -3.98 KCAL/MOL
REMARK 922        TOTAL FREE ENERGY PREDICTED BY IDOCK:   -5.20 KCAL/MOL
REMARK 923 INTER-LIGAND FREE ENERGY PREDICTED BY IDOCK:   -4.90 KCAL/MOL
REMARK 924 INTRA-LIGAND FREE ENERGY PREDICTED BY IDOCK:   -0.30 KCAL/MOL
REMARK 927      BINDING AFFINITY PREDICTED BY RF-SCORE:    0.00 PKD
ROOT
HETATM    1  C   UNL     1      -9.990   8.423  67.069  1.00  0.00    -0.323 C  
HETATM    2  C   UNL     1     -10.099   7.595  68.353  1.00  0.00    -0.186 C  
HETATM    3  C   UNL     1      -8.749   7.603  69.076  1.00  0.00    -0.136 C  
ENDROOT
BRANCH   2   4
HETATM    4  N   UNL     1     -11.174   8.160  69.176  1.00  0.00    -0.361 NA 
HETATM    5  H   UNL     1     -11.594   7.438  69.762  1.00  0.00     0.000 HD 
BRANCH   4   6
HETATM    6  C   UNL     1     -10.759   9.311  69.993  1.00  0.00    -0.232 C  
BRANCH   6   7
HETATM    7  C   UNL     1     -11.980  10.005  70.651  1.00  0.00    -0.313 C  
HETATM    8  H   UNL     1     -12.691  10.297  72.481  1.00  0.00     0.000 HD 
HETATM    9  O   UNL     1     -11.943   9.872  72.077  1.00  0.00    -0.247 OA 
BRANCH   7  10
HETATM   10  C   UNL     1     -12.058  11.471  70.272  1.00  0.00    -0.444 A  
HETATM   11  C   UNL     1     -11.789  11.917  68.967  1.00  0.00    -0.368 A  
HETATM   12  C   UNL     1     -11.882  13.272  68.665  1.00  0.00    -0.345 A  
HETATM   13  O   UNL     1     -11.614  13.754  67.413  1.00  0.00    -0.322 OA 
HETATM   14  C   UNL     1     -12.250  14.190  69.645  1.00  0.00    -0.326 A  
HETATM   15  H   UNL     1     -11.677  14.679  67.207  1.00  0.00     0.000 HD 
HETATM   16  C   UNL     1     -12.534  13.773  70.934  1.00  0.00    -0.451 A  
HETATM   17  O   UNL     1     -12.325  15.518  69.340  1.00  0.00    -0.572 OA 
HETATM   18  C   UNL     1     -12.440  12.415  71.247  1.00  0.00    -0.274 A  
HETATM   19  H   UNL     1     -12.576  16.145  70.009  1.00  0.00     0.000 HD 
ENDBRANCH   7  10
ENDBRANCH   6   7
ENDBRANCH   4   6
ENDBRANCH   2   4
TORSDOF 4
ENDMDL
MODEL      124
REMARK 921   NORMALIZED FREE ENERGY PREDICTED BY IDOCK:   -3.97 KCAL/MOL
REMARK 922        TOTAL FREE ENERGY PREDICTED BY IDOCK:   -5.19 KCAL/MOL
REMARK 923 INTER-LIGAND FREE ENERGY PREDICTED BY IDOCK:   -4.89 KCAL/MOL
REMARK 924 INTRA-LIGAND FREE ENERGY PREDICTED BY IDOCK:   -0.30 KCAL/MOL
REMARK 927      BINDING AFFINITY PREDICTED BY RF-SCORE:    0.00 PKD
ROOT
HETATM    1  C   UNL     1      -9.368   3.652  68.012  1.00  0.00    -0.237 C  
HETATM    2  C   UNL     1      -8.215   4.270  68.807  1.00  0.00    -0.079 C  
HETATM    3  C   UNL     1      -7.333   5.094  67.864  1.00  0.00    -0.075 C  
ENDROOT
BRANCH   2   4
HETATM    4  N   UNL     1      -8.784   5.083  69.888  1.00  0.00    -0.100 NA 
HETATM    5  H   UNL     1      -8.154   5.848  70.132  1.00  0.00     0.000 HD 
BRANCH   4   6
HETATM    6  C   UNL     1     -10.133   5.596  69.602  1.00  0.00    -0.222 C  
BRANCH   6   7
HETATM    7  C   UNL     1     -10.176   7.144  69.684  1.00  0.00    -0.208 C  
HETATM    8  H   UNL     1     -10.331   8.675  68.429  1.00  0.00     0.000 HD 
HETATM    9  O   UNL     1     -10.305   7.726  68.380  1.00  0.00    -0.197 OA 
BRANCH   7  10
HETATM   10  C   UNL     1     -11.304   7.623  70.575  1.00  0.00    -0.266 A  
HETATM   11  C   UNL     1     -12.249   6.737  71.121  1.00  0.00    -0.413 A  
HETATM   12  C   UNL     1     -13.262   7.224  71.941  1.00  0.00    -0.233 A  
HETATM   13  O   UNL     1     -14.213   6.401  72.481  1.00  0.00    -0.596 OA 
HETATM   14  C   UNL     1     -13.343   8.582  72.234  1.00  0.00    -0.323 A  
HETATM   15  H   UNL     1     -14.905   6.732  73.041  1.00  0.00     0.000 HD 
HETATM   16  C   UNL     1     -12.415   9.472  71.722  1.00  0.00    -0.484 A  
HETATM   17  O   UNL     1     -14.349   9.049  73.030  1.00  0.00    -1.108 OA 
HETATM   18  C   UNL     1     -11.396   8.993  70.894  1.00  0.00    -0.351 A  
HETATM   19  H   UNL     1     -14.403   9.976  73.230  1.00  0.00     0.000 HD 
ENDBRANCH   7  10
ENDBRANCH   6   7
ENDBRANCH   4   6
ENDBRANCH   2   4
TORSDOF 4
ENDMDL
MODEL      125
REMARK 921   NORMALIZED FREE ENERGY PREDICTED BY IDOCK:   -3.97 KCAL/MOL
REMARK 922        TOTAL FREE ENERGY PREDICTED BY IDOCK:   -5.19 KCAL/MOL
REMARK 923 INTER-LIGAND FREE ENERGY PREDICTED BY IDOCK:   -4.96 KCAL/MOL
REMARK 924 INTRA-LIGAND FREE ENERGY PREDICTED BY IDOCK:   -0.22 KCAL/MOL
REMARK 927      BINDING AFFINITY PREDICTED BY RF-SCORE:    0.00 PKD
ROOT
HETATM    1  C   UNL     1      -8.902  16.921  66.697  1.00  0.00    -0.275 C  
HETATM    2  C   UNL     1      -9.678  16.074  67.709  1.00  0.00    -0.221 C  
HETATM    3  C   UNL     1     -10.972  16.798  68.090  1.00  0.00    -0.309 C  
ENDROOT
BRANCH   2   4
HETATM    4  N   UNL     1      -9.933  14.759  67.109  1.00  0.00    -0.234 NA 
HETATM    5  H   UNL     1     -10.187  14.080  67.828  1.00  0.00     0.000 HD 
BRANCH   4   6
HETATM    6  C   UNL     1     -10.939  14.777  66.036  1.00  0.00    -0.328 C  
BRANCH   6   7
HETATM    7  C   UNL     1     -12.143  13.860  66.378  1.00  0.00    -0.455 C  
HETATM    8  H   UNL     1     -13.771  13.178  65.470  1.00  0.00     0.000 HD 
HETATM    9  O   UNL     1     -13.033  13.739  65.261  1.00  0.00    -0.731 OA 
BRANCH   7  10
HETATM   10  C   UNL     1     -11.686  12.485  66.823  1.00  0.00    -0.453 A  
HETATM   11  C   UNL     1     -11.071  11.583  65.938  1.00  0.00    -0.274 A  
HETATM   12  C   UNL     1     -10.661  10.334  66.396  1.00  0.00    -0.033 A  
HETATM   13  O   UNL     1     -10.073   9.418  65.567  1.00  0.00    -0.397 OA 
HETATM   14  C   UNL     1     -10.846   9.975  67.728  1.00  0.00    -0.282 A  
HETATM   15  H   UNL     1      -9.793   8.566  65.879  1.00  0.00     0.000 HD 
HETATM   16  C   UNL     1     -11.435  10.852  68.622  1.00  0.00    -0.380 A  
HETATM   17  O   UNL     1     -10.451   8.743  68.162  1.00  0.00    -0.231 OA 
HETATM   18  C   UNL     1     -11.853  12.106  68.170  1.00  0.00    -0.362 A  
HETATM   19  H   UNL     1     -10.578   8.497  69.071  1.00  0.00     0.000 HD 
ENDBRANCH   7  10
ENDBRANCH   6   7
ENDBRANCH   4   6
ENDBRANCH   2   4
TORSDOF 4
ENDMDL
MODEL      126
REMARK 921   NORMALIZED FREE ENERGY PREDICTED BY IDOCK:   -3.96 KCAL/MOL
REMARK 922        TOTAL FREE ENERGY PREDICTED BY IDOCK:   -5.18 KCAL/MOL
REMARK 923 INTER-LIGAND FREE ENERGY PREDICTED BY IDOCK:   -4.85 KCAL/MOL
REMARK 924 INTRA-LIGAND FREE ENERGY PREDICTED BY IDOCK:   -0.33 KCAL/MOL
REMARK 927      BINDING AFFINITY PREDICTED BY RF-SCORE:    0.00 PKD
ROOT
HETATM    1  C   UNL     1     -12.411  13.461  63.658  1.00  0.00    -0.422 C  
HETATM    2  C   UNL     1     -11.770  12.143  64.101  1.00  0.00    -0.396 C  
HETATM    3  C   UNL     1     -10.267  12.188  63.810  1.00  0.00    -0.449 C  
ENDROOT
BRANCH   2   4
HETATM    4  N   UNL     1     -12.055  11.948  65.527  1.00  0.00    -0.350 NA 
HETATM    5  H   UNL     1     -11.376  11.311  65.944  1.00  0.00     0.000 HD 
BRANCH   4   6
HETATM    6  C   UNL     1     -12.130  13.200  66.297  1.00  0.00    -0.397 C  
BRANCH   6   7
HETATM    7  C   UNL     1     -10.975  13.297  67.328  1.00  0.00    -0.268 C  
HETATM    8  H   UNL     1     -10.398  14.531  68.772  1.00  0.00     0.000 HD 
HETATM    9  O   UNL     1     -11.105  14.471  68.140  1.00  0.00    -0.250 OA 
BRANCH   7  10
HETATM   10  C   UNL     1     -10.911  12.066  68.209  1.00  0.00    -0.275 A  
HETATM   11  C   UNL     1     -12.014  11.634  68.966  1.00  0.00    -0.368 A  
HETATM   12  C   UNL     1     -11.910  10.493  69.754  1.00  0.00    -0.257 A  
HETATM   13  O   UNL     1     -12.952  10.045  70.520  1.00  0.00    -0.557 OA 
HETATM   14  C   UNL     1     -10.722   9.767  69.792  1.00  0.00    -0.256 A  
HETATM   15  H   UNL     1     -12.881   9.265  71.058  1.00  0.00     0.000 HD 
HETATM   16  C   UNL     1      -9.627  10.163  69.043  1.00  0.00    -0.202 A  
HETATM   17  O   UNL     1     -10.628   8.655  70.578  1.00  0.00    -0.205 OA 
HETATM   18  C   UNL     1      -9.722  11.310  68.252  1.00  0.00    -0.199 A  
HETATM   19  H   UNL     1      -9.818   8.160  70.604  1.00  0.00     0.000 HD 
ENDBRANCH   7  10
ENDBRANCH   6   7
ENDBRANCH   4   6
ENDBRANCH   2   4
TORSDOF 4
ENDMDL
MODEL      127
REMARK 921   NORMALIZED FREE ENERGY PREDICTED BY IDOCK:   -3.95 KCAL/MOL
REMARK 922        TOTAL FREE ENERGY PREDICTED BY IDOCK:   -5.16 KCAL/MOL
REMARK 923 INTER-LIGAND FREE ENERGY PREDICTED BY IDOCK:   -4.66 KCAL/MOL
REMARK 924 INTRA-LIGAND FREE ENERGY PREDICTED BY IDOCK:   -0.50 KCAL/MOL
REMARK 927      BINDING AFFINITY PREDICTED BY RF-SCORE:    0.00 PKD
ROOT
HETATM    1  C   UNL     1     -10.308  11.361  63.954  1.00  0.00    -0.434 C  
HETATM    2  C   UNL     1     -11.098  12.621  64.323  1.00  0.00    -0.362 C  
HETATM    3  C   UNL     1     -12.259  12.796  63.340  1.00  0.00    -0.594 C  
ENDROOT
BRANCH   2   4
HETATM    4  N   UNL     1     -11.558  12.486  65.710  1.00  0.00    -0.372 NA 
HETATM    5  H   UNL     1     -12.110  11.635  65.823  1.00  0.00     0.000 HD 
BRANCH   4   6
HETATM    6  C   UNL     1     -10.476  12.537  66.705  1.00  0.00    -0.225 C  
BRANCH   6   7
HETATM    7  C   UNL     1     -10.694  11.490  67.829  1.00  0.00    -0.207 C  
HETATM    8  H   UNL     1     -12.210  10.771  68.889  1.00  0.00     0.000 HD 
HETATM    9  O   UNL     1     -12.076  11.412  68.201  1.00  0.00    -0.623 OA 
BRANCH   7  10
HETATM   10  C   UNL     1     -10.194  10.120  67.417  1.00  0.00    -0.267 A  
HETATM   11  C   UNL     1     -11.024   8.986  67.439  1.00  0.00     0.040 A  
HETATM   12  C   UNL     1     -10.521   7.751  67.044  1.00  0.00    -0.349 A  
HETATM   13  O   UNL     1     -11.288   6.618  67.066  1.00  0.00    -0.710 OA 
HETATM   14  C   UNL     1      -9.203   7.629  66.615  1.00  0.00    -0.170 A  
HETATM   15  H   UNL     1     -10.945   5.774  66.796  1.00  0.00     0.000 HD 
HETATM   16  C   UNL     1      -8.370   8.734  66.569  1.00  0.00    -0.112 A  
HETATM   17  O   UNL     1      -8.718   6.410  66.242  1.00  0.00    -0.133 OA 
HETATM   18  C   UNL     1      -8.865   9.978  66.968  1.00  0.00    -0.147 A  
HETATM   19  H   UNL     1      -7.817   6.327  65.949  1.00  0.00     0.000 HD 
ENDBRANCH   7  10
ENDBRANCH   6   7
ENDBRANCH   4   6
ENDBRANCH   2   4
TORSDOF 4
ENDMDL
MODEL      128
REMARK 921   NORMALIZED FREE ENERGY PREDICTED BY IDOCK:   -3.94 KCAL/MOL
REMARK 922        TOTAL FREE ENERGY PREDICTED BY IDOCK:   -5.16 KCAL/MOL
REMARK 923 INTER-LIGAND FREE ENERGY PREDICTED BY IDOCK:   -4.83 KCAL/MOL
REMARK 924 INTRA-LIGAND FREE ENERGY PREDICTED BY IDOCK:   -0.32 KCAL/MOL
REMARK 927      BINDING AFFINITY PREDICTED BY RF-SCORE:    0.00 PKD
ROOT
HETATM    1  C   UNL     1     -10.363  16.284  65.990  1.00  0.00    -0.363 C  
HETATM    2  C   UNL     1     -10.284  16.563  67.494  1.00  0.00    -0.283 C  
HETATM    3  C   UNL     1     -10.387  18.072  67.735  1.00  0.00    -0.403 C  
ENDROOT
BRANCH   2   4
HETATM    4  N   UNL     1     -11.361  15.820  68.157  1.00  0.00    -0.353 NA 
HETATM    5  H   UNL     1     -12.208  16.386  68.211  1.00  0.00     0.000 HD 
BRANCH   4   6
HETATM    6  C   UNL     1     -11.651  14.514  67.543  1.00  0.00    -0.381 C  
BRANCH   6   7
HETATM    7  C   UNL     1     -11.230  13.348  68.475  1.00  0.00    -0.283 C  
HETATM    8  H   UNL     1     -12.028  12.288  69.951  1.00  0.00     0.000 HD 
HETATM    9  O   UNL     1     -12.285  13.002  69.380  1.00  0.00    -0.237 OA 
BRANCH   7  10
HETATM   10  C   UNL     1     -10.811  12.126  67.682  1.00  0.00    -0.272 A  
HETATM   11  C   UNL     1     -11.154  10.824  68.084  1.00  0.00    -0.337 A  
HETATM   12  C   UNL     1     -10.753   9.733  67.319  1.00  0.00    -0.227 A  
HETATM   13  O   UNL     1     -11.050   8.448  67.680  1.00  0.00    -0.478 OA 
HETATM   14  C   UNL     1     -10.023   9.922  66.149  1.00  0.00    -0.263 A  
HETATM   15  H   UNL     1     -10.777   7.703  67.158  1.00  0.00     0.000 HD 
HETATM   16  C   UNL     1      -9.686  11.196  65.723  1.00  0.00    -0.266 A  
HETATM   17  O   UNL     1      -9.625   8.844  65.413  1.00  0.00    -0.454 OA 
HETATM   18  C   UNL     1     -10.081  12.296  66.488  1.00  0.00    -0.232 A  
HETATM   19  H   UNL     1      -9.126   8.973  64.615  1.00  0.00     0.000 HD 
ENDBRANCH   7  10
ENDBRANCH   6   7
ENDBRANCH   4   6
ENDBRANCH   2   4
TORSDOF 4
ENDMDL
MODEL      129
REMARK 921   NORMALIZED FREE ENERGY PREDICTED BY IDOCK:   -3.94 KCAL/MOL
REMARK 922        TOTAL FREE ENERGY PREDICTED BY IDOCK:   -5.15 KCAL/MOL
REMARK 923 INTER-LIGAND FREE ENERGY PREDICTED BY IDOCK:   -4.86 KCAL/MOL
REMARK 924 INTRA-LIGAND FREE ENERGY PREDICTED BY IDOCK:   -0.30 KCAL/MOL
REMARK 927      BINDING AFFINITY PREDICTED BY RF-SCORE:    0.00 PKD
ROOT
HETATM    1  C   UNL     1     -11.086   6.580  69.846  1.00  0.00    -0.430 C  
HETATM    2  C   UNL     1     -11.132   8.064  70.219  1.00  0.00    -0.224 C  
HETATM    3  C   UNL     1     -11.051   8.206  71.742  1.00  0.00    -0.329 C  
ENDROOT
BRANCH   2   4
HETATM    4  N   UNL     1     -10.025   8.745  69.538  1.00  0.00    -0.190 NA 
HETATM    5  H   UNL     1      -9.798   8.273  68.662  1.00  0.00     0.000 HD 
BRANCH   4   6
HETATM    6  C   UNL     1     -10.258  10.179  69.307  1.00  0.00    -0.223 C  
BRANCH   6   7
HETATM    7  C   UNL     1     -11.494  10.410  68.399  1.00  0.00    -0.155 C  
HETATM    8  H   UNL     1     -13.283  11.259  68.543  1.00  0.00     0.000 HD 
HETATM    9  O   UNL     1     -12.525  11.118  69.099  1.00  0.00    -0.418 OA 
BRANCH   7  10
HETATM   10  C   UNL     1     -11.124  11.157  67.133  1.00  0.00    -0.352 A  
HETATM   11  C   UNL     1     -10.180  10.655  66.221  1.00  0.00    -0.304 A  
HETATM   12  C   UNL     1      -9.879  11.374  65.069  1.00  0.00    -0.261 A  
HETATM   13  O   UNL     1      -8.955  10.931  64.161  1.00  0.00    -0.267 OA 
HETATM   14  C   UNL     1     -10.513  12.585  64.806  1.00  0.00    -0.311 A  
HETATM   15  H   UNL     1      -8.749  11.422  63.375  1.00  0.00     0.000 HD 
HETATM   16  C   UNL     1     -11.457  13.093  65.681  1.00  0.00    -0.351 A  
HETATM   17  O   UNL     1     -10.200  13.287  63.678  1.00  0.00    -0.610 OA 
HETATM   18  C   UNL     1     -11.763  12.380  66.843  1.00  0.00    -0.432 A  
HETATM   19  H   UNL     1     -10.632  14.114  63.500  1.00  0.00     0.000 HD 
ENDBRANCH   7  10
ENDBRANCH   6   7
ENDBRANCH   4   6
ENDBRANCH   2   4
TORSDOF 4
ENDMDL
MODEL      130
REMARK 921   NORMALIZED FREE ENERGY PREDICTED BY IDOCK:   -3.94 KCAL/MOL
REMARK 922        TOTAL FREE ENERGY PREDICTED BY IDOCK:   -5.15 KCAL/MOL
REMARK 923 INTER-LIGAND FREE ENERGY PREDICTED BY IDOCK:   -4.87 KCAL/MOL
REMARK 924 INTRA-LIGAND FREE ENERGY PREDICTED BY IDOCK:   -0.28 KCAL/MOL
REMARK 927      BINDING AFFINITY PREDICTED BY RF-SCORE:    0.00 PKD
ROOT
HETATM    1  C   UNL     1     -10.436  12.315  64.355  1.00  0.00    -0.355 C  
HETATM    2  C   UNL     1     -11.908  12.734  64.395  1.00  0.00    -0.384 C  
HETATM    3  C   UNL     1     -12.704  11.882  63.402  1.00  0.00    -0.496 C  
ENDROOT
BRANCH   2   4
HETATM    4  N   UNL     1     -12.393  12.581  65.772  1.00  0.00    -0.626 NA 
HETATM    5  H   UNL     1     -12.832  11.668  65.899  1.00  0.00     0.000 HD 
BRANCH   4   6
HETATM    6  C   UNL     1     -11.361  12.805  66.796  1.00  0.00    -0.313 C  
BRANCH   6   7
HETATM    7  C   UNL     1     -11.852  13.795  67.884  1.00  0.00    -0.378 C  
HETATM    8  H   UNL     1     -12.388  13.728  69.795  1.00  0.00     0.000 HD 
HETATM    9  O   UNL     1     -12.087  13.122  69.128  1.00  0.00    -0.294 OA 
BRANCH   7  10
HETATM   10  C   UNL     1     -10.867  14.929  68.090  1.00  0.00    -0.256 A  
HETATM   11  C   UNL     1      -9.487  14.762  67.888  1.00  0.00    -0.201 A  
HETATM   12  C   UNL     1      -8.623  15.835  68.082  1.00  0.00    -0.164 A  
HETATM   13  O   UNL     1      -7.270  15.714  67.913  1.00  0.00    -0.118 OA 
HETATM   14  C   UNL     1      -9.117  17.079  68.466  1.00  0.00    -0.259 A  
HETATM   15  H   UNL     1      -6.680  16.446  68.045  1.00  0.00     0.000 HD 
HETATM   16  C   UNL     1     -10.474  17.272  68.655  1.00  0.00    -0.356 A  
HETATM   17  O   UNL     1      -8.258  18.120  68.664  1.00  0.00    -0.308 OA 
HETATM   18  C   UNL     1     -11.349  16.200  68.467  1.00  0.00    -0.359 A  
HETATM   19  H   UNL     1      -8.595  18.969  68.926  1.00  0.00     0.000 HD 
ENDBRANCH   7  10
ENDBRANCH   6   7
ENDBRANCH   4   6
ENDBRANCH   2   4
TORSDOF 4
ENDMDL
MODEL      131
REMARK 921   NORMALIZED FREE ENERGY PREDICTED BY IDOCK:   -3.91 KCAL/MOL
REMARK 922        TOTAL FREE ENERGY PREDICTED BY IDOCK:   -5.12 KCAL/MOL
REMARK 923 INTER-LIGAND FREE ENERGY PREDICTED BY IDOCK:   -4.67 KCAL/MOL
REMARK 924 INTRA-LIGAND FREE ENERGY PREDICTED BY IDOCK:   -0.44 KCAL/MOL
REMARK 927      BINDING AFFINITY PREDICTED BY RF-SCORE:    0.00 PKD
ROOT
HETATM    1  C   UNL     1      -9.713  11.066  64.900  1.00  0.00    -0.303 C  
HETATM    2  C   UNL     1      -8.966  10.354  66.032  1.00  0.00    -0.159 C  
HETATM    3  C   UNL     1      -8.182  11.386  66.848  1.00  0.00    -0.157 C  
ENDROOT
BRANCH   2   4
HETATM    4  N   UNL     1      -9.949   9.631  66.848  1.00  0.00    -0.198 NA 
HETATM    5  H   UNL     1      -9.918   8.632  66.643  1.00  0.00     0.000 HD 
BRANCH   4   6
HETATM    6  C   UNL     1      -9.813   9.867  68.294  1.00  0.00    -0.147 C  
BRANCH   6   7
HETATM    7  C   UNL     1     -11.200  10.010  68.974  1.00  0.00    -0.133 C  
HETATM    8  H   UNL     1     -12.072   9.436  70.662  1.00  0.00     0.000 HD 
HETATM    9  O   UNL     1     -11.223   9.349  70.245  1.00  0.00    -0.245 OA 
BRANCH   7  10
HETATM   10  C   UNL     1     -11.589  11.465  69.143  1.00  0.00    -0.381 A  
HETATM   11  C   UNL     1     -11.663  12.348  68.052  1.00  0.00    -0.414 A  
HETATM   12  C   UNL     1     -12.032  13.673  68.257  1.00  0.00    -0.350 A  
HETATM   13  O   UNL     1     -12.102  14.572  67.227  1.00  0.00    -0.523 OA 
HETATM   14  C   UNL     1     -12.340  14.132  69.535  1.00  0.00    -0.231 A  
HETATM   15  H   UNL     1     -12.354  15.477  67.366  1.00  0.00     0.000 HD 
HETATM   16  C   UNL     1     -12.290  13.278  70.623  1.00  0.00    -0.416 A  
HETATM   17  O   UNL     1     -12.690  15.437  69.724  1.00  0.00    -0.615 OA 
HETATM   18  C   UNL     1     -11.916  11.946  70.428  1.00  0.00    -0.400 A  
HETATM   19  H   UNL     1     -12.900  15.750  70.596  1.00  0.00     0.000 HD 
ENDBRANCH   7  10
ENDBRANCH   6   7
ENDBRANCH   4   6
ENDBRANCH   2   4
TORSDOF 4
ENDMDL
MODEL      132
REMARK 921   NORMALIZED FREE ENERGY PREDICTED BY IDOCK:   -3.90 KCAL/MOL
REMARK 922        TOTAL FREE ENERGY PREDICTED BY IDOCK:   -5.10 KCAL/MOL
REMARK 923 INTER-LIGAND FREE ENERGY PREDICTED BY IDOCK:   -4.62 KCAL/MOL
REMARK 924 INTRA-LIGAND FREE ENERGY PREDICTED BY IDOCK:   -0.49 KCAL/MOL
REMARK 927      BINDING AFFINITY PREDICTED BY RF-SCORE:    0.00 PKD
ROOT
HETATM    1  C   UNL     1     -12.005  12.829  63.338  1.00  0.00    -0.613 C  
HETATM    2  C   UNL     1     -11.575  11.967  64.529  1.00  0.00    -0.317 C  
HETATM    3  C   UNL     1     -10.048  11.865  64.554  1.00  0.00    -0.302 C  
ENDROOT
BRANCH   2   4
HETATM    4  N   UNL     1     -12.112  12.572  65.753  1.00  0.00    -0.583 NA 
HETATM    5  H   UNL     1     -11.782  12.068  66.576  1.00  0.00     0.000 HD 
BRANCH   4   6
HETATM    6  C   UNL     1     -11.832  14.011  65.880  1.00  0.00    -0.383 C  
BRANCH   6   7
HETATM    7  C   UNL     1     -11.418  14.378  67.329  1.00  0.00    -0.359 C  
HETATM    8  H   UNL     1     -11.713  13.674  69.162  1.00  0.00     0.000 HD 
HETATM    9  O   UNL     1     -11.966  13.450  68.274  1.00  0.00    -0.345 OA 
BRANCH   7  10
HETATM   10  C   UNL     1      -9.911  14.438  67.480  1.00  0.00    -0.220 A  
HETATM   11  C   UNL     1      -9.207  13.527  68.287  1.00  0.00    -0.195 A  
HETATM   12  C   UNL     1      -7.823  13.617  68.387  1.00  0.00    -0.140 A  
HETATM   13  O   UNL     1      -7.098  12.763  69.174  1.00  0.00    -0.239 OA 
HETATM   14  C   UNL     1      -7.125  14.596  67.685  1.00  0.00    -0.182 A  
HETATM   15  H   UNL     1      -6.153  12.824  69.242  1.00  0.00     0.000 HD 
HETATM   16  C   UNL     1      -7.795  15.494  66.872  1.00  0.00    -0.229 A  
HETATM   17  O   UNL     1      -5.768  14.681  67.801  1.00  0.00    -0.237 OA 
HETATM   18  C   UNL     1      -9.185  15.414  66.768  1.00  0.00    -0.273 A  
HETATM   19  H   UNL     1      -5.293  15.350  67.323  1.00  0.00     0.000 HD 
ENDBRANCH   7  10
ENDBRANCH   6   7
ENDBRANCH   4   6
ENDBRANCH   2   4
TORSDOF 4
ENDMDL
MODEL      133
REMARK 921   NORMALIZED FREE ENERGY PREDICTED BY IDOCK:   -3.90 KCAL/MOL
REMARK 922        TOTAL FREE ENERGY PREDICTED BY IDOCK:   -5.09 KCAL/MOL
REMARK 923 INTER-LIGAND FREE ENERGY PREDICTED BY IDOCK:   -4.89 KCAL/MOL
REMARK 924 INTRA-LIGAND FREE ENERGY PREDICTED BY IDOCK:   -0.20 KCAL/MOL
REMARK 927      BINDING AFFINITY PREDICTED BY RF-SCORE:    0.00 PKD
ROOT
HETATM    1  C   UNL     1     -13.896  13.952  72.205  1.00  0.00    -0.669 C  
HETATM    2  C   UNL     1     -12.819  15.005  71.929  1.00  0.00    -0.337 C  
HETATM    3  C   UNL     1     -12.398  15.657  73.249  1.00  0.00    -0.609 C  
ENDROOT
BRANCH   2   4
HETATM    4  N   UNL     1     -11.696  14.348  71.249  1.00  0.00    -0.491 NA 
HETATM    5  H   UNL     1     -12.031  13.596  70.648  1.00  0.00     0.000 HD 
BRANCH   4   6
HETATM    6  C   UNL     1     -10.835  15.271  70.493  1.00  0.00    -0.257 C  
BRANCH   6   7
HETATM    7  C   UNL     1     -10.794  14.897  68.988  1.00  0.00    -0.245 C  
HETATM    8  H   UNL     1     -11.859  15.269  67.355  1.00  0.00     0.000 HD 
HETATM    9  O   UNL     1     -11.884  15.498  68.277  1.00  0.00    -0.330 OA 
BRANCH   7  10
HETATM   10  C   UNL     1      -9.479  15.297  68.350  1.00  0.00    -0.206 A  
HETATM   11  C   UNL     1      -9.421  16.163  67.244  1.00  0.00    -0.231 A  
HETATM   12  C   UNL     1      -8.189  16.509  66.698  1.00  0.00    -0.271 A  
HETATM   13  O   UNL     1      -8.086  17.335  65.612  1.00  0.00    -0.454 OA 
HETATM   14  C   UNL     1      -7.010  16.011  67.246  1.00  0.00    -0.205 A  
HETATM   15  H   UNL     1      -7.245  17.571  65.240  1.00  0.00     0.000 HD 
HETATM   16  C   UNL     1      -7.040  15.170  68.344  1.00  0.00    -0.107 A  
HETATM   17  O   UNL     1      -5.808  16.348  66.693  1.00  0.00    -0.317 OA 
HETATM   18  C   UNL     1      -8.273  14.814  68.897  1.00  0.00    -0.165 A  
HETATM   19  H   UNL     1      -5.003  16.008  67.067  1.00  0.00     0.000 HD 
ENDBRANCH   7  10
ENDBRANCH   6   7
ENDBRANCH   4   6
ENDBRANCH   2   4
TORSDOF 4
ENDMDL
MODEL      134
REMARK 921   NORMALIZED FREE ENERGY PREDICTED BY IDOCK:   -3.85 KCAL/MOL
REMARK 922        TOTAL FREE ENERGY PREDICTED BY IDOCK:   -5.04 KCAL/MOL
REMARK 923 INTER-LIGAND FREE ENERGY PREDICTED BY IDOCK:   -4.76 KCAL/MOL
REMARK 924 INTRA-LIGAND FREE ENERGY PREDICTED BY IDOCK:   -0.28 KCAL/MOL
REMARK 927      BINDING AFFINITY PREDICTED BY RF-SCORE:    0.00 PKD
ROOT
HETATM    1  C   UNL     1      -9.011   3.710  71.937  1.00  0.00    -0.149 C  
HETATM    2  C   UNL     1     -10.401   4.340  72.062  1.00  0.00    -0.099 C  
HETATM    3  C   UNL     1     -10.967   4.047  73.454  1.00  0.00    -0.342 C  
ENDROOT
BRANCH   2   4
HETATM    4  N   UNL     1     -10.279   5.780  71.803  1.00  0.00    -0.191 NA 
HETATM    5  H   UNL     1      -9.574   5.957  71.088  1.00  0.00     0.000 HD 
BRANCH   4   6
HETATM    6  C   UNL     1     -11.550   6.432  71.450  1.00  0.00    -0.311 C  
BRANCH   6   7
HETATM    7  C   UNL     1     -11.927   7.527  72.482  1.00  0.00    -0.171 C  
HETATM    8  H   UNL     1     -11.250   8.196  74.224  1.00  0.00     0.000 HD 
HETATM    9  O   UNL     1     -11.020   7.526  73.591  1.00  0.00    -0.322 OA 
BRANCH   7  10
HETATM   10  C   UNL     1     -11.961   8.903  71.846  1.00  0.00    -0.441 A  
HETATM   11  C   UNL     1     -11.012   9.305  70.891  1.00  0.00    -0.368 A  
HETATM   12  C   UNL     1     -11.090  10.575  70.329  1.00  0.00    -0.285 A  
HETATM   13  O   UNL     1     -10.179  11.015  69.408  1.00  0.00    -0.380 OA 
HETATM   14  C   UNL     1     -12.108  11.450  70.699  1.00  0.00    -0.372 A  
HETATM   15  H   UNL     1     -10.231  11.882  69.024  1.00  0.00     0.000 HD 
HETATM   16  C   UNL     1     -13.064  11.071  71.626  1.00  0.00    -0.543 A  
HETATM   17  O   UNL     1     -12.166  12.698  70.149  1.00  0.00    -0.305 OA 
HETATM   18  C   UNL     1     -12.991   9.799  72.198  1.00  0.00    -0.483 A  
HETATM   19  H   UNL     1     -12.861  13.295  70.402  1.00  0.00     0.000 HD 
ENDBRANCH   7  10
ENDBRANCH   6   7
ENDBRANCH   4   6
ENDBRANCH   2   4
TORSDOF 4
ENDMDL
MODEL      135
REMARK 921   NORMALIZED FREE ENERGY PREDICTED BY IDOCK:   -3.85 KCAL/MOL
REMARK 922        TOTAL FREE ENERGY PREDICTED BY IDOCK:   -5.04 KCAL/MOL
REMARK 923 INTER-LIGAND FREE ENERGY PREDICTED BY IDOCK:   -4.80 KCAL/MOL
REMARK 924 INTRA-LIGAND FREE ENERGY PREDICTED BY IDOCK:   -0.23 KCAL/MOL
REMARK 927      BINDING AFFINITY PREDICTED BY RF-SCORE:    0.00 PKD
ROOT
HETATM    1  C   UNL     1      -9.344   8.286  66.522  1.00  0.00    -0.263 C  
HETATM    2  C   UNL     1      -9.687   7.460  67.765  1.00  0.00    -0.143 C  
HETATM    3  C   UNL     1      -8.516   7.517  68.750  1.00  0.00    -0.129 C  
ENDROOT
BRANCH   2   4
HETATM    4  N   UNL     1     -10.927   7.992  68.343  1.00  0.00    -0.422 NA 
HETATM    5  H   UNL     1     -11.541   7.231  68.635  1.00  0.00     0.000 HD 
BRANCH   4   6
HETATM    6  C   UNL     1     -10.711   8.936  69.451  1.00  0.00    -0.181 C  
BRANCH   6   7
HETATM    7  C   UNL     1     -12.034   9.231  70.205  1.00  0.00     0.105 C  
HETATM    8  H   UNL     1     -12.904   8.695  71.907  1.00  0.00     0.000 HD 
HETATM    9  O   UNL     1     -12.093   8.514  71.444  1.00  0.00    -0.291 OA 
BRANCH   7  10
HETATM   10  C   UNL     1     -12.210  10.715  70.460  1.00  0.00    -0.449 A  
HETATM   11  C   UNL     1     -12.943  11.200  71.557  1.00  0.00    -0.542 A  
HETATM   12  C   UNL     1     -13.070  12.571  71.753  1.00  0.00    -0.347 A  
HETATM   13  O   UNL     1     -13.788  13.089  72.798  1.00  0.00    -0.733 OA 
HETATM   14  C   UNL     1     -12.468  13.470  70.877  1.00  0.00    -0.369 A  
HETATM   15  H   UNL     1     -13.874  14.025  72.932  1.00  0.00     0.000 HD 
HETATM   16  C   UNL     1     -11.728  13.016  69.798  1.00  0.00    -0.346 A  
HETATM   17  O   UNL     1     -12.610  14.813  71.074  1.00  0.00    -0.292 OA 
HETATM   18  C   UNL     1     -11.598  11.641  69.591  1.00  0.00    -0.401 A  
HETATM   19  H   UNL     1     -12.199  15.425  70.475  1.00  0.00     0.000 HD 
ENDBRANCH   7  10
ENDBRANCH   6   7
ENDBRANCH   4   6
ENDBRANCH   2   4
TORSDOF 4
ENDMDL
MODEL      136
REMARK 921   NORMALIZED FREE ENERGY PREDICTED BY IDOCK:   -3.84 KCAL/MOL
REMARK 922        TOTAL FREE ENERGY PREDICTED BY IDOCK:   -5.03 KCAL/MOL
REMARK 923 INTER-LIGAND FREE ENERGY PREDICTED BY IDOCK:   -4.79 KCAL/MOL
REMARK 924 INTRA-LIGAND FREE ENERGY PREDICTED BY IDOCK:   -0.23 KCAL/MOL
REMARK 927      BINDING AFFINITY PREDICTED BY RF-SCORE:    0.00 PKD
ROOT
HETATM    1  C   UNL     1      -9.036  10.448  65.814  1.00  0.00    -0.197 C  
HETATM    2  C   UNL     1      -8.913   9.834  67.212  1.00  0.00    -0.135 C  
HETATM    3  C   UNL     1      -7.449   9.473  67.479  1.00  0.00    -0.091 C  
ENDROOT
BRANCH   2   4
HETATM    4  N   UNL     1      -9.435  10.798  68.187  1.00  0.00    -0.153 NA 
HETATM    5  H   UNL     1      -8.924  11.679  68.128  1.00  0.00     0.000 HD 
BRANCH   4   6
HETATM    6  C   UNL     1     -10.883  11.033  68.077  1.00  0.00    -0.229 C  
BRANCH   6   7
HETATM    7  C   UNL     1     -11.598  10.787  69.432  1.00  0.00    -0.308 C  
HETATM    8  H   UNL     1     -11.166   9.978  71.192  1.00  0.00     0.000 HD 
HETATM    9  O   UNL     1     -10.729  10.129  70.362  1.00  0.00    -0.291 OA 
BRANCH   7  10
HETATM   10  C   UNL     1     -12.110  12.081  70.033  1.00  0.00    -0.355 A  
HETATM   11  C   UNL     1     -12.904  12.100  71.193  1.00  0.00    -0.313 A  
HETATM   12  C   UNL     1     -13.344  13.313  71.712  1.00  0.00    -0.393 A  
HETATM   13  O   UNL     1     -14.131  13.379  72.829  1.00  0.00    -0.715 OA 
HETATM   14  C   UNL     1     -12.995  14.513  71.097  1.00  0.00    -0.346 A  
HETATM   15  H   UNL     1     -14.432  14.207  73.184  1.00  0.00     0.000 HD 
HETATM   16  C   UNL     1     -12.201  14.521  69.963  1.00  0.00    -0.396 A  
HETATM   17  O   UNL     1     -13.443  15.696  71.609  1.00  0.00    -0.490 OA 
HETATM   18  C   UNL     1     -11.758  13.307  69.433  1.00  0.00    -0.383 A  
HETATM   19  H   UNL     1     -13.205  16.514  71.189  1.00  0.00     0.000 HD 
ENDBRANCH   7  10
ENDBRANCH   6   7
ENDBRANCH   4   6
ENDBRANCH   2   4
TORSDOF 4
ENDMDL
MODEL      137
REMARK 921   NORMALIZED FREE ENERGY PREDICTED BY IDOCK:   -3.84 KCAL/MOL
REMARK 922        TOTAL FREE ENERGY PREDICTED BY IDOCK:   -5.03 KCAL/MOL
REMARK 923 INTER-LIGAND FREE ENERGY PREDICTED BY IDOCK:   -4.74 KCAL/MOL
REMARK 924 INTRA-LIGAND FREE ENERGY PREDICTED BY IDOCK:   -0.28 KCAL/MOL
REMARK 927      BINDING AFFINITY PREDICTED BY RF-SCORE:    0.00 PKD
ROOT
HETATM    1  C   UNL     1      -9.000  10.923  67.512  1.00  0.00    -0.136 C  
HETATM    2  C   UNL     1     -10.288  10.377  66.889  1.00  0.00    -0.240 C  
HETATM    3  C   UNL     1     -10.250  10.597  65.374  1.00  0.00    -0.341 C  
ENDROOT
BRANCH   2   4
HETATM    4  N   UNL     1     -10.406   8.958  67.242  1.00  0.00    -0.262 NA 
HETATM    5  H   UNL     1     -10.139   8.369  66.452  1.00  0.00     0.000 HD 
BRANCH   4   6
HETATM    6  C   UNL     1      -9.652   8.579  68.447  1.00  0.00    -0.147 C  
BRANCH   6   7
HETATM    7  C   UNL     1     -10.281   7.341  69.139  1.00  0.00    -0.197 C  
HETATM    8  H   UNL     1      -9.661   5.768  70.179  1.00  0.00     0.000 HD 
HETATM    9  O   UNL     1      -9.276   6.527  69.755  1.00  0.00    -0.144 OA 
BRANCH   7  10
HETATM   10  C   UNL     1     -11.318   7.746  70.168  1.00  0.00    -0.121 A  
HETATM   11  C   UNL     1     -11.541   9.091  70.511  1.00  0.00    -0.209 A  
HETATM   12  C   UNL     1     -12.510   9.414  71.456  1.00  0.00    -0.366 A  
HETATM   13  O   UNL     1     -12.749  10.707  71.833  1.00  0.00    -0.412 OA 
HETATM   14  C   UNL     1     -13.270   8.415  72.058  1.00  0.00    -0.346 A  
HETATM   15  H   UNL     1     -13.410  10.928  72.477  1.00  0.00     0.000 HD 
HETATM   16  C   UNL     1     -13.080   7.085  71.725  1.00  0.00    -0.343 A  
HETATM   17  O   UNL     1     -14.209   8.743  72.992  1.00  0.00    -1.075 OA 
HETATM   18  C   UNL     1     -12.107   6.751  70.780  1.00  0.00    -0.402 A  
HETATM   19  H   UNL     1     -14.727   8.061  73.403  1.00  0.00     0.000 HD 
ENDBRANCH   7  10
ENDBRANCH   6   7
ENDBRANCH   4   6
ENDBRANCH   2   4
TORSDOF 4
ENDMDL
MODEL      138
REMARK 921   NORMALIZED FREE ENERGY PREDICTED BY IDOCK:   -3.83 KCAL/MOL
REMARK 922        TOTAL FREE ENERGY PREDICTED BY IDOCK:   -5.02 KCAL/MOL
REMARK 923 INTER-LIGAND FREE ENERGY PREDICTED BY IDOCK:   -4.65 KCAL/MOL
REMARK 924 INTRA-LIGAND FREE ENERGY PREDICTED BY IDOCK:   -0.37 KCAL/MOL
REMARK 927      BINDING AFFINITY PREDICTED BY RF-SCORE:    0.00 PKD
ROOT
HETATM    1  C   UNL     1      -8.157   6.715  67.367  1.00  0.00    -0.121 C  
HETATM    2  C   UNL     1      -9.361   7.413  66.728  1.00  0.00    -0.160 C  
HETATM    3  C   UNL     1     -10.628   6.603  67.017  1.00  0.00    -0.404 C  
ENDROOT
BRANCH   2   4
HETATM    4  N   UNL     1      -9.439   8.777  67.263  1.00  0.00    -0.153 NA 
HETATM    5  H   UNL     1     -10.381   8.975  67.603  1.00  0.00     0.000 HD 
BRANCH   4   6
HETATM    6  C   UNL     1      -8.442   9.068  68.305  1.00  0.00    -0.129 C  
BRANCH   6   7
HETATM    7  C   UNL     1      -8.923  10.205  69.244  1.00  0.00    -0.183 C  
HETATM    8  H   UNL     1      -9.753  12.000  69.068  1.00  0.00     0.000 HD 
HETATM    9  O   UNL     1      -9.458  11.302  68.493  1.00  0.00    -0.182 OA 
BRANCH   7  10
HETATM   10  C   UNL     1      -9.955   9.708  70.237  1.00  0.00    -0.326 A  
HETATM   11  C   UNL     1     -11.327   9.961  70.073  1.00  0.00    -0.303 A  
HETATM   12  C   UNL     1     -12.237   9.477  71.008  1.00  0.00    -0.304 A  
HETATM   13  O   UNL     1     -13.581   9.712  70.898  1.00  0.00    -0.570 OA 
HETATM   14  C   UNL     1     -11.800   8.734  72.100  1.00  0.00    -0.366 A  
HETATM   15  H   UNL     1     -14.202   9.382  71.535  1.00  0.00     0.000 HD 
HETATM   16  C   UNL     1     -10.454   8.458  72.275  1.00  0.00    -0.407 A  
HETATM   17  O   UNL     1     -12.701   8.275  73.017  1.00  0.00    -0.694 OA 
HETATM   18  C   UNL     1      -9.533   8.943  71.344  1.00  0.00    -0.344 A  
HETATM   19  H   UNL     1     -12.402   7.768  73.762  1.00  0.00     0.000 HD 
ENDBRANCH   7  10
ENDBRANCH   6   7
ENDBRANCH   4   6
ENDBRANCH   2   4
TORSDOF 4
ENDMDL
MODEL      139
REMARK 921   NORMALIZED FREE ENERGY PREDICTED BY IDOCK:   -3.83 KCAL/MOL
REMARK 922        TOTAL FREE ENERGY PREDICTED BY IDOCK:   -5.02 KCAL/MOL
REMARK 923 INTER-LIGAND FREE ENERGY PREDICTED BY IDOCK:   -4.79 KCAL/MOL
REMARK 924 INTRA-LIGAND FREE ENERGY PREDICTED BY IDOCK:   -0.23 KCAL/MOL
REMARK 927      BINDING AFFINITY PREDICTED BY RF-SCORE:    0.00 PKD
ROOT
HETATM    1  C   UNL     1      -7.870  11.207  67.899  1.00  0.00    -0.111 C  
HETATM    2  C   UNL     1      -8.856  10.460  66.997  1.00  0.00    -0.136 C  
HETATM    3  C   UNL     1      -8.181  10.146  65.659  1.00  0.00    -0.150 C  
ENDROOT
BRANCH   2   4
HETATM    4  N   UNL     1      -9.293   9.247  67.697  1.00  0.00    -0.128 NA 
HETATM    5  H   UNL     1      -8.794   8.430  67.344  1.00  0.00     0.000 HD 
BRANCH   4   6
HETATM    6  C   UNL     1      -9.179   9.330  69.162  1.00  0.00    -0.149 C  
BRANCH   6   7
HETATM    7  C   UNL     1      -9.675   8.026  69.840  1.00  0.00    -0.180 C  
HETATM    8  H   UNL     1      -8.964   6.664  71.097  1.00  0.00     0.000 HD 
HETATM    9  O   UNL     1      -8.661   7.463  70.682  1.00  0.00    -0.138 OA 
BRANCH   7  10
HETATM   10  C   UNL     1     -10.938   8.263  70.643  1.00  0.00    -0.257 A  
HETATM   11  C   UNL     1     -11.801   7.212  71.000  1.00  0.00    -0.373 A  
HETATM   12  C   UNL     1     -12.945   7.478  71.745  1.00  0.00    -0.328 A  
HETATM   13  O   UNL     1     -13.822   6.490  72.102  1.00  0.00    -0.475 OA 
HETATM   14  C   UNL     1     -13.238   8.777  72.151  1.00  0.00    -0.414 A  
HETATM   15  H   UNL     1     -14.603   6.671  72.610  1.00  0.00     0.000 HD 
HETATM   16  C   UNL     1     -12.396   9.826  71.825  1.00  0.00    -0.470 A  
HETATM   17  O   UNL     1     -14.370   9.027  72.871  1.00  0.00    -1.047 OA 
HETATM   18  C   UNL     1     -11.247   9.569  71.073  1.00  0.00    -0.432 A  
HETATM   19  H   UNL     1     -14.570   9.914  73.147  1.00  0.00     0.000 HD 
ENDBRANCH   7  10
ENDBRANCH   6   7
ENDBRANCH   4   6
ENDBRANCH   2   4
TORSDOF 4
ENDMDL
MODEL      140
REMARK 921   NORMALIZED FREE ENERGY PREDICTED BY IDOCK:   -3.83 KCAL/MOL
REMARK 922        TOTAL FREE ENERGY PREDICTED BY IDOCK:   -5.02 KCAL/MOL
REMARK 923 INTER-LIGAND FREE ENERGY PREDICTED BY IDOCK:   -4.60 KCAL/MOL
REMARK 924 INTRA-LIGAND FREE ENERGY PREDICTED BY IDOCK:   -0.42 KCAL/MOL
REMARK 927      BINDING AFFINITY PREDICTED BY RF-SCORE:    0.00 PKD
ROOT
HETATM    1  C   UNL     1     -13.209   7.184  71.492  1.00  0.00    -0.419 C  
HETATM    2  C   UNL     1     -11.735   6.853  71.240  1.00  0.00    -0.328 C  
HETATM    3  C   UNL     1     -11.322   5.675  72.127  1.00  0.00    -0.277 C  
ENDROOT
BRANCH   2   4
HETATM    4  N   UNL     1     -11.566   6.561  69.812  1.00  0.00    -0.609 NA 
HETATM    5  H   UNL     1     -12.460   6.307  69.390  1.00  0.00     0.000 HD 
BRANCH   4   6
HETATM    6  C   UNL     1     -10.925   7.646  69.053  1.00  0.00     0.060 C  
BRANCH   6   7
HETATM    7  C   UNL     1     -10.244   8.669  69.999  1.00  0.00    -0.194 C  
HETATM    8  H   UNL     1      -8.418   9.376  70.324  1.00  0.00     0.000 HD 
HETATM    9  O   UNL     1      -8.835   8.750  69.744  1.00  0.00    -0.135 OA 
BRANCH   7  10
HETATM   10  C   UNL     1     -10.869  10.044  69.874  1.00  0.00    -0.328 A  
HETATM   11  C   UNL     1     -11.748  10.552  70.846  1.00  0.00    -0.431 A  
HETATM   12  C   UNL     1     -12.291  11.824  70.692  1.00  0.00    -0.328 A  
HETATM   13  O   UNL     1     -13.163  12.353  71.604  1.00  0.00    -0.400 OA 
HETATM   14  C   UNL     1     -11.962  12.603  69.586  1.00  0.00    -0.286 A  
HETATM   15  H   UNL     1     -13.534  13.221  71.499  1.00  0.00     0.000 HD 
HETATM   16  C   UNL     1     -11.087  12.130  68.623  1.00  0.00    -0.297 A  
HETATM   17  O   UNL     1     -12.511  13.844  69.439  1.00  0.00    -0.400 OA 
HETATM   18  C   UNL     1     -10.540  10.853  68.768  1.00  0.00    -0.231 A  
HETATM   19  H   UNL     1     -12.287  14.375  68.684  1.00  0.00     0.000 HD 
ENDBRANCH   7  10
ENDBRANCH   6   7
ENDBRANCH   4   6
ENDBRANCH   2   4
TORSDOF 4
ENDMDL
MODEL      141
REMARK 921   NORMALIZED FREE ENERGY PREDICTED BY IDOCK:   -3.81 KCAL/MOL
REMARK 922        TOTAL FREE ENERGY PREDICTED BY IDOCK:   -4.99 KCAL/MOL
REMARK 923 INTER-LIGAND FREE ENERGY PREDICTED BY IDOCK:   -4.65 KCAL/MOL
REMARK 924 INTRA-LIGAND FREE ENERGY PREDICTED BY IDOCK:   -0.34 KCAL/MOL
REMARK 927      BINDING AFFINITY PREDICTED BY RF-SCORE:    0.00 PKD
ROOT
HETATM    1  C   UNL     1     -12.828   9.752  71.182  1.00  0.00    -0.434 C  
HETATM    2  C   UNL     1     -11.317   9.867  70.961  1.00  0.00    -0.386 C  
HETATM    3  C   UNL     1     -10.820   8.629  70.210  1.00  0.00    -0.250 C  
ENDROOT
BRANCH   2   4
HETATM    4  N   UNL     1     -11.053  11.108  70.224  1.00  0.00    -0.455 NA 
HETATM    5  H   UNL     1     -10.683  11.824  70.850  1.00  0.00     0.000 HD 
BRANCH   4   6
HETATM    6  C   UNL     1     -10.172  10.934  69.059  1.00  0.00    -0.203 C  
BRANCH   6   7
HETATM    7  C   UNL     1     -10.858  11.426  67.757  1.00  0.00    -0.231 C  
HETATM    8  H   UNL     1     -12.701  11.788  67.116  1.00  0.00     0.000 HD 
HETATM    9  O   UNL     1     -12.281  11.487  67.913  1.00  0.00    -0.586 OA 
BRANCH   7  10
HETATM   10  C   UNL     1     -10.328  12.779  67.326  1.00  0.00    -0.235 A  
HETATM   11  C   UNL     1      -9.068  13.250  67.736  1.00  0.00    -0.202 A  
HETATM   12  C   UNL     1      -8.622  14.496  67.308  1.00  0.00    -0.215 A  
HETATM   13  O   UNL     1      -7.411  15.002  67.695  1.00  0.00    -0.152 OA 
HETATM   14  C   UNL     1      -9.409  15.278  66.466  1.00  0.00    -0.281 A  
HETATM   15  H   UNL     1      -7.105  15.852  67.402  1.00  0.00     0.000 HD 
HETATM   16  C   UNL     1     -10.645  14.829  66.036  1.00  0.00    -0.318 A  
HETATM   17  O   UNL     1      -8.964  16.503  66.063  1.00  0.00    -0.392 OA 
HETATM   18  C   UNL     1     -11.104  13.581  66.464  1.00  0.00    -0.310 A  
HETATM   19  H   UNL     1      -9.502  17.037  65.489  1.00  0.00     0.000 HD 
ENDBRANCH   7  10
ENDBRANCH   6   7
ENDBRANCH   4   6
ENDBRANCH   2   4
TORSDOF 4
ENDMDL
MODEL      142
REMARK 921   NORMALIZED FREE ENERGY PREDICTED BY IDOCK:   -3.81 KCAL/MOL
REMARK 922        TOTAL FREE ENERGY PREDICTED BY IDOCK:   -4.98 KCAL/MOL
REMARK 923 INTER-LIGAND FREE ENERGY PREDICTED BY IDOCK:   -4.63 KCAL/MOL
REMARK 924 INTRA-LIGAND FREE ENERGY PREDICTED BY IDOCK:   -0.36 KCAL/MOL
REMARK 927      BINDING AFFINITY PREDICTED BY RF-SCORE:    0.00 PKD
ROOT
HETATM    1  C   UNL     1     -12.231  13.540  65.885  1.00  0.00    -0.507 C  
HETATM    2  C   UNL     1     -11.145  13.327  64.827  1.00  0.00    -0.342 C  
HETATM    3  C   UNL     1     -11.799  13.177  63.451  1.00  0.00    -0.490 C  
ENDROOT
BRANCH   2   4
HETATM    4  N   UNL     1     -10.219  14.465  64.882  1.00  0.00    -0.493 NA 
HETATM    5  H   UNL     1      -9.714  14.558  64.000  1.00  0.00     0.000 HD 
BRANCH   4   6
HETATM    6  C   UNL     1     -10.860  15.738  65.248  1.00  0.00    -0.395 C  
BRANCH   6   7
HETATM    7  C   UNL     1      -9.836  16.726  65.867  1.00  0.00    -0.249 C  
HETATM    8  H   UNL     1      -9.866  18.486  66.784  1.00  0.00     0.000 HD 
HETATM    9  O   UNL     1     -10.493  17.880  66.405  1.00  0.00    -0.362 OA 
BRANCH   7  10
HETATM   10  C   UNL     1      -9.001  16.060  66.943  1.00  0.00    -0.253 A  
HETATM   11  C   UNL     1      -7.632  15.797  66.766  1.00  0.00    -0.177 A  
HETATM   12  C   UNL     1      -6.905  15.191  67.786  1.00  0.00    -0.170 A  
HETATM   13  O   UNL     1      -5.574  14.902  67.652  1.00  0.00    -0.295 OA 
HETATM   14  C   UNL     1      -7.521  14.852  68.987  1.00  0.00    -0.144 A  
HETATM   15  H   UNL     1      -5.078  14.488  68.348  1.00  0.00     0.000 HD 
HETATM   16  C   UNL     1      -8.865  15.115  69.191  1.00  0.00    -0.221 A  
HETATM   17  O   UNL     1      -6.800  14.247  69.975  1.00  0.00    -0.333 OA 
HETATM   18  C   UNL     1      -9.604  15.719  68.171  1.00  0.00    -0.199 A  
HETATM   19  H   UNL     1      -7.221  14.016  70.795  1.00  0.00     0.000 HD 
ENDBRANCH   7  10
ENDBRANCH   6   7
ENDBRANCH   4   6
ENDBRANCH   2   4
TORSDOF 4
ENDMDL
MODEL      143
REMARK 921   NORMALIZED FREE ENERGY PREDICTED BY IDOCK:   -3.81 KCAL/MOL
REMARK 922        TOTAL FREE ENERGY PREDICTED BY IDOCK:   -4.98 KCAL/MOL
REMARK 923 INTER-LIGAND FREE ENERGY PREDICTED BY IDOCK:   -4.69 KCAL/MOL
REMARK 924 INTRA-LIGAND FREE ENERGY PREDICTED BY IDOCK:   -0.30 KCAL/MOL
REMARK 927      BINDING AFFINITY PREDICTED BY RF-SCORE:    0.00 PKD
ROOT
HETATM    1  C   UNL     1      -9.504  10.824  66.905  1.00  0.00    -0.192 C  
HETATM    2  C   UNL     1      -9.596  11.648  65.618  1.00  0.00    -0.229 C  
HETATM    3  C   UNL     1     -11.034  11.610  65.094  1.00  0.00    -0.326 C  
ENDROOT
BRANCH   2   4
HETATM    4  N   UNL     1      -9.148  13.014  65.913  1.00  0.00    -0.410 NA 
HETATM    5  H   UNL     1      -8.638  13.403  65.119  1.00  0.00     0.000 HD 
BRANCH   4   6
HETATM    6  C   UNL     1     -10.230  13.921  66.328  1.00  0.00    -0.297 C  
BRANCH   6   7
HETATM    7  C   UNL     1      -9.818  14.760  67.566  1.00  0.00    -0.218 C  
HETATM    8  H   UNL     1      -8.432  14.696  68.985  1.00  0.00     0.000 HD 
HETATM    9  O   UNL     1      -8.685  14.183  68.227  1.00  0.00    -0.169 OA 
BRANCH   7  10
HETATM   10  C   UNL     1      -9.517  16.197  67.189  1.00  0.00    -0.231 A  
HETATM   11  C   UNL     1     -10.436  17.235  67.421  1.00  0.00    -0.338 A  
HETATM   12  C   UNL     1     -10.112  18.540  67.065  1.00  0.00    -0.360 A  
HETATM   13  O   UNL     1     -10.981  19.579  67.257  1.00  0.00    -0.499 OA 
HETATM   14  C   UNL     1      -8.878  18.829  66.489  1.00  0.00    -0.312 A  
HETATM   15  H   UNL     1     -10.760  20.470  67.014  1.00  0.00     0.000 HD 
HETATM   16  C   UNL     1      -7.950  17.826  66.264  1.00  0.00    -0.283 A  
HETATM   17  O   UNL     1      -8.577  20.112  66.133  1.00  0.00    -0.517 OA 
HETATM   18  C   UNL     1      -8.269  16.512  66.615  1.00  0.00    -0.306 A  
HETATM   19  H   UNL     1      -7.735  20.308  65.739  1.00  0.00     0.000 HD 
ENDBRANCH   7  10
ENDBRANCH   6   7
ENDBRANCH   4   6
ENDBRANCH   2   4
TORSDOF 4
ENDMDL
MODEL      144
REMARK 921   NORMALIZED FREE ENERGY PREDICTED BY IDOCK:   -3.80 KCAL/MOL
REMARK 922        TOTAL FREE ENERGY PREDICTED BY IDOCK:   -4.97 KCAL/MOL
REMARK 923 INTER-LIGAND FREE ENERGY PREDICTED BY IDOCK:   -4.88 KCAL/MOL
REMARK 924 INTRA-LIGAND FREE ENERGY PREDICTED BY IDOCK:   -0.10 KCAL/MOL
REMARK 927      BINDING AFFINITY PREDICTED BY RF-SCORE:    0.00 PKD
ROOT
HETATM    1  C   UNL     1      -9.990  10.097  65.012  1.00  0.00    -0.375 C  
HETATM    2  C   UNL     1     -10.433  11.563  65.031  1.00  0.00    -0.290 C  
HETATM    3  C   UNL     1     -11.227  11.868  63.758  1.00  0.00    -0.519 C  
ENDROOT
BRANCH   2   4
HETATM    4  N   UNL     1     -11.222  11.790  66.247  1.00  0.00    -0.323 NA 
HETATM    5  H   UNL     1     -12.219  11.804  66.030  1.00  0.00     0.000 HD 
BRANCH   4   6
HETATM    6  C   UNL     1     -10.941  10.833  67.328  1.00  0.00    -0.297 C  
BRANCH   6   7
HETATM    7  C   UNL     1     -10.179  11.510  68.497  1.00  0.00    -0.213 C  
HETATM    8  H   UNL     1      -8.438  12.419  68.782  1.00  0.00     0.000 HD 
HETATM    9  O   UNL     1      -8.905  12.004  68.066  1.00  0.00    -0.165 OA 
BRANCH   7  10
HETATM   10  C   UNL     1     -10.988  12.637  69.109  1.00  0.00    -0.195 A  
HETATM   11  C   UNL     1     -10.950  13.944  68.595  1.00  0.00    -0.281 A  
HETATM   12  C   UNL     1     -11.716  14.944  69.186  1.00  0.00    -0.309 A  
HETATM   13  O   UNL     1     -11.698  16.234  68.730  1.00  0.00    -0.317 OA 
HETATM   14  C   UNL     1     -12.530  14.657  70.278  1.00  0.00    -0.346 A  
HETATM   15  H   UNL     1     -12.221  16.916  69.133  1.00  0.00     0.000 HD 
HETATM   16  C   UNL     1     -12.596  13.373  70.793  1.00  0.00    -0.369 A  
HETATM   17  O   UNL     1     -13.268  15.649  70.857  1.00  0.00    -0.562 OA 
HETATM   18  C   UNL     1     -11.827  12.364  70.208  1.00  0.00    -0.315 A  
HETATM   19  H   UNL     1     -13.823  15.452  71.603  1.00  0.00     0.000 HD 
ENDBRANCH   7  10
ENDBRANCH   6   7
ENDBRANCH   4   6
ENDBRANCH   2   4
TORSDOF 4
ENDMDL
MODEL      145
REMARK 921   NORMALIZED FREE ENERGY PREDICTED BY IDOCK:   -3.80 KCAL/MOL
REMARK 922        TOTAL FREE ENERGY PREDICTED BY IDOCK:   -4.97 KCAL/MOL
REMARK 923 INTER-LIGAND FREE ENERGY PREDICTED BY IDOCK:   -4.59 KCAL/MOL
REMARK 924 INTRA-LIGAND FREE ENERGY PREDICTED BY IDOCK:   -0.38 KCAL/MOL
REMARK 927      BINDING AFFINITY PREDICTED BY RF-SCORE:    0.00 PKD
ROOT
HETATM    1  C   UNL     1      -9.387   3.175  71.508  1.00  0.00    -0.202 C  
HETATM    2  C   UNL     1      -8.994   4.602  71.902  1.00  0.00    -0.126 C  
HETATM    3  C   UNL     1      -8.099   5.199  70.813  1.00  0.00    -0.104 C  
ENDROOT
BRANCH   2   4
HETATM    4  N   UNL     1     -10.223   5.380  72.101  1.00  0.00    -0.196 NA 
HETATM    5  H   UNL     1     -11.033   4.866  71.754  1.00  0.00     0.000 HD 
BRANCH   4   6
HETATM    6  C   UNL     1     -10.439   5.808  73.492  1.00  0.00    -0.256 C  
BRANCH   6   7
HETATM    7  C   UNL     1     -10.126   7.316  73.672  1.00  0.00    -0.340 C  
HETATM    8  H   UNL     1      -8.524   8.463  73.917  1.00  0.00     0.000 HD 
HETATM    9  O   UNL     1      -8.717   7.539  73.807  1.00  0.00    -0.177 OA 
BRANCH   7  10
HETATM   10  C   UNL     1     -10.670   8.139  72.521  1.00  0.00    -0.419 A  
HETATM   11  C   UNL     1     -12.050   8.289  72.300  1.00  0.00    -0.439 A  
HETATM   12  C   UNL     1     -12.501   9.061  71.234  1.00  0.00    -0.289 A  
HETATM   13  O   UNL     1     -13.834   9.221  70.971  1.00  0.00    -0.559 OA 
HETATM   14  C   UNL     1     -11.595   9.696  70.389  1.00  0.00    -0.236 A  
HETATM   15  H   UNL     1     -14.142   9.748  70.244  1.00  0.00     0.000 HD 
HETATM   16  C   UNL     1     -10.232   9.577  70.596  1.00  0.00    -0.364 A  
HETATM   17  O   UNL     1     -12.050  10.441  69.340  1.00  0.00    -0.518 OA 
HETATM   18  C   UNL     1      -9.769   8.800  71.661  1.00  0.00    -0.366 A  
HETATM   19  H   UNL     1     -11.432  10.874  68.763  1.00  0.00     0.000 HD 
ENDBRANCH   7  10
ENDBRANCH   6   7
ENDBRANCH   4   6
ENDBRANCH   2   4
TORSDOF 4
ENDMDL
MODEL      146
REMARK 921   NORMALIZED FREE ENERGY PREDICTED BY IDOCK:   -3.79 KCAL/MOL
REMARK 922        TOTAL FREE ENERGY PREDICTED BY IDOCK:   -4.96 KCAL/MOL
REMARK 923 INTER-LIGAND FREE ENERGY PREDICTED BY IDOCK:   -4.52 KCAL/MOL
REMARK 924 INTRA-LIGAND FREE ENERGY PREDICTED BY IDOCK:   -0.44 KCAL/MOL
REMARK 927      BINDING AFFINITY PREDICTED BY RF-SCORE:    0.00 PKD
ROOT
HETATM    1  C   UNL     1     -11.483  12.309  64.586  1.00  0.00    -0.392 C  
HETATM    2  C   UNL     1     -10.903  13.338  65.561  1.00  0.00    -0.284 C  
HETATM    3  C   UNL     1     -11.136  14.747  65.007  1.00  0.00    -0.412 C  
ENDROOT
BRANCH   2   4
HETATM    4  N   UNL     1     -11.539  13.143  66.869  1.00  0.00    -0.348 NA 
HETATM    5  H   UNL     1     -10.886  12.714  67.524  1.00  0.00     0.000 HD 
BRANCH   4   6
HETATM    6  C   UNL     1     -12.115  14.370  67.441  1.00  0.00    -0.313 C  
BRANCH   6   7
HETATM    7  C   UNL     1     -11.521  14.671  68.842  1.00  0.00    -0.298 C  
HETATM    8  H   UNL     1     -10.616  13.669  70.298  1.00  0.00     0.000 HD 
HETATM    9  O   UNL     1     -10.981  13.485  69.440  1.00  0.00    -0.173 OA 
BRANCH   7  10
HETATM   10  C   UNL     1     -10.453  15.745  68.774  1.00  0.00    -0.228 A  
HETATM   11  C   UNL     1     -10.770  17.094  68.537  1.00  0.00    -0.326 A  
HETATM   12  C   UNL     1      -9.756  18.045  68.491  1.00  0.00    -0.352 A  
HETATM   13  O   UNL     1     -10.015  19.367  68.247  1.00  0.00    -0.369 OA 
HETATM   14  C   UNL     1      -8.429  17.674  68.690  1.00  0.00    -0.266 A  
HETATM   15  H   UNL     1      -9.323  20.016  68.216  1.00  0.00     0.000 HD 
HETATM   16  C   UNL     1      -8.094  16.354  68.941  1.00  0.00    -0.236 A  
HETATM   17  O   UNL     1      -7.442  18.615  68.631  1.00  0.00    -0.291 OA 
HETATM   18  C   UNL     1      -9.105  15.391  68.984  1.00  0.00    -0.233 A  
HETATM   19  H   UNL     1      -6.537  18.361  68.766  1.00  0.00     0.000 HD 
ENDBRANCH   7  10
ENDBRANCH   6   7
ENDBRANCH   4   6
ENDBRANCH   2   4
TORSDOF 4
ENDMDL
MODEL      147
REMARK 921   NORMALIZED FREE ENERGY PREDICTED BY IDOCK:   -3.78 KCAL/MOL
REMARK 922        TOTAL FREE ENERGY PREDICTED BY IDOCK:   -4.96 KCAL/MOL
REMARK 923 INTER-LIGAND FREE ENERGY PREDICTED BY IDOCK:   -4.76 KCAL/MOL
REMARK 924 INTRA-LIGAND FREE ENERGY PREDICTED BY IDOCK:   -0.19 KCAL/MOL
REMARK 927      BINDING AFFINITY PREDICTED BY RF-SCORE:    0.00 PKD
ROOT
HETATM    1  C   UNL     1      -9.872  14.205  67.426  1.00  0.00    -0.239 C  
HETATM    2  C   UNL     1     -10.535  13.379  68.533  1.00  0.00    -0.252 C  
HETATM    3  C   UNL     1     -12.036  13.681  68.561  1.00  0.00    -0.396 C  
ENDROOT
BRANCH   2   4
HETATM    4  N   UNL     1     -10.258  11.961  68.278  1.00  0.00    -0.199 NA 
HETATM    5  H   UNL     1      -9.252  11.792  68.245  1.00  0.00     0.000 HD 
BRANCH   4   6
HETATM    6  C   UNL     1     -10.904  11.046  69.232  1.00  0.00    -0.238 C  
BRANCH   6   7
HETATM    7  C   UNL     1     -10.206   9.660  69.245  1.00  0.00    -0.205 C  
HETATM    8  H   UNL     1      -8.388   8.937  69.577  1.00  0.00     0.000 HD 
HETATM    9  O   UNL     1      -8.816   9.785  69.569  1.00  0.00    -0.163 OA 
BRANCH   7  10
HETATM   10  C   UNL     1     -10.878   8.708  70.214  1.00  0.00    -0.250 A  
HETATM   11  C   UNL     1     -11.806   9.153  71.171  1.00  0.00    -0.374 A  
HETATM   12  C   UNL     1     -12.402   8.239  72.035  1.00  0.00    -0.349 A  
HETATM   13  O   UNL     1     -13.299   8.629  72.992  1.00  0.00    -0.789 OA 
HETATM   14  C   UNL     1     -12.095   6.884  71.952  1.00  0.00    -0.333 A  
HETATM   15  H   UNL     1     -13.706   8.006  73.582  1.00  0.00     0.000 HD 
HETATM   16  C   UNL     1     -11.196   6.420  71.007  1.00  0.00    -0.370 A  
HETATM   17  O   UNL     1     -12.677   6.000  72.812  1.00  0.00    -0.362 OA 
HETATM   18  C   UNL     1     -10.589   7.330  70.139  1.00  0.00    -0.245 A  
HETATM   19  H   UNL     1     -12.467   5.075  72.756  1.00  0.00     0.000 HD 
ENDBRANCH   7  10
ENDBRANCH   6   7
ENDBRANCH   4   6
ENDBRANCH   2   4
TORSDOF 4
ENDMDL
MODEL      148
REMARK 921   NORMALIZED FREE ENERGY PREDICTED BY IDOCK:   -3.78 KCAL/MOL
REMARK 922        TOTAL FREE ENERGY PREDICTED BY IDOCK:   -4.95 KCAL/MOL
REMARK 923 INTER-LIGAND FREE ENERGY PREDICTED BY IDOCK:   -4.69 KCAL/MOL
REMARK 924 INTRA-LIGAND FREE ENERGY PREDICTED BY IDOCK:   -0.26 KCAL/MOL
REMARK 927      BINDING AFFINITY PREDICTED BY RF-SCORE:    0.00 PKD
ROOT
HETATM    1  C   UNL     1     -13.785  14.430  71.566  1.00  0.00    -0.458 C  
HETATM    2  C   UNL     1     -12.500  14.963  70.926  1.00  0.00    -0.330 C  
HETATM    3  C   UNL     1     -11.813  15.928  71.896  1.00  0.00    -0.595 C  
ENDROOT
BRANCH   2   4
HETATM    4  N   UNL     1     -11.647  13.819  70.583  1.00  0.00    -0.514 NA 
HETATM    5  H   UNL     1     -12.182  12.951  70.617  1.00  0.00     0.000 HD 
BRANCH   4   6
HETATM    6  C   UNL     1     -10.961  13.953  69.288  1.00  0.00    -0.183 C  
BRANCH   6   7
HETATM    7  C   UNL     1     -11.835  13.407  68.128  1.00  0.00    -0.361 C  
HETATM    8  H   UNL     1     -12.709  14.114  66.492  1.00  0.00     0.000 HD 
HETATM    9  O   UNL     1     -12.173  14.448  67.203  1.00  0.00    -0.390 OA 
BRANCH   7  10
HETATM   10  C   UNL     1     -11.145  12.272  67.398  1.00  0.00    -0.333 A  
HETATM   11  C   UNL     1     -10.163  11.478  68.015  1.00  0.00    -0.205 A  
HETATM   12  C   UNL     1      -9.564  10.442  67.306  1.00  0.00    -0.156 A  
HETATM   13  O   UNL     1      -8.592   9.654  67.861  1.00  0.00    -0.122 OA 
HETATM   14  C   UNL     1      -9.936  10.178  65.991  1.00  0.00    -0.256 A  
HETATM   15  H   UNL     1      -8.183   8.947  67.377  1.00  0.00     0.000 HD 
HETATM   16  C   UNL     1     -10.912  10.936  65.367  1.00  0.00    -0.032 A  
HETATM   17  O   UNL     1      -9.332   9.167  65.303  1.00  0.00    -0.358 OA 
HETATM   18  C   UNL     1     -11.517  11.981  66.070  1.00  0.00    -0.399 A  
HETATM   19  H   UNL     1      -9.586   8.987  64.405  1.00  0.00     0.000 HD 
ENDBRANCH   7  10
ENDBRANCH   6   7
ENDBRANCH   4   6
ENDBRANCH   2   4
TORSDOF 4
ENDMDL
MODEL      149
REMARK 921   NORMALIZED FREE ENERGY PREDICTED BY IDOCK:   -3.77 KCAL/MOL
REMARK 922        TOTAL FREE ENERGY PREDICTED BY IDOCK:   -4.94 KCAL/MOL
REMARK 923 INTER-LIGAND FREE ENERGY PREDICTED BY IDOCK:   -4.54 KCAL/MOL
REMARK 924 INTRA-LIGAND FREE ENERGY PREDICTED BY IDOCK:   -0.40 KCAL/MOL
REMARK 927      BINDING AFFINITY PREDICTED BY RF-SCORE:    0.00 PKD
ROOT
HETATM    1  C   UNL     1      -7.936   7.817  70.441  1.00  0.00    -0.095 C  
HETATM    2  C   UNL     1      -7.969   6.540  69.597  1.00  0.00    -0.120 C  
HETATM    3  C   UNL     1      -6.986   5.521  70.181  1.00  0.00    -0.064 C  
ENDROOT
BRANCH   2   4
HETATM    4  N   UNL     1      -9.347   6.035  69.577  1.00  0.00    -0.135 NA 
HETATM    5  H   UNL     1      -9.534   5.471  70.406  1.00  0.00     0.000 HD 
BRANCH   4   6
HETATM    6  C   UNL     1     -10.365   7.087  69.427  1.00  0.00    -0.207 C  
BRANCH   6   7
HETATM    7  C   UNL     1     -11.509   6.915  70.460  1.00  0.00    -0.342 C  
HETATM    8  H   UNL     1     -11.787   6.006  72.203  1.00  0.00     0.000 HD 
HETATM    9  O   UNL     1     -11.087   6.112  71.570  1.00  0.00    -0.266 OA 
BRANCH   7  10
HETATM   10  C   UNL     1     -12.016   8.254  70.957  1.00  0.00    -0.260 A  
HETATM   11  C   UNL     1     -11.526   9.470  70.449  1.00  0.00    -0.297 A  
HETATM   12  C   UNL     1     -12.028  10.674  70.931  1.00  0.00    -0.363 A  
HETATM   13  O   UNL     1     -11.570  11.882  70.479  1.00  0.00    -0.496 OA 
HETATM   14  C   UNL     1     -13.022  10.686  71.906  1.00  0.00    -0.437 A  
HETATM   15  H   UNL     1     -11.912  12.704  70.807  1.00  0.00     0.000 HD 
HETATM   16  C   UNL     1     -13.532   9.501  72.410  1.00  0.00    -0.475 A  
HETATM   17  O   UNL     1     -13.498  11.874  72.380  1.00  0.00    -0.611 OA 
HETATM   18  C   UNL     1     -13.030   8.287  71.935  1.00  0.00    -0.371 A  
HETATM   19  H   UNL     1     -14.176  11.881  73.045  1.00  0.00     0.000 HD 
ENDBRANCH   7  10
ENDBRANCH   6   7
ENDBRANCH   4   6
ENDBRANCH   2   4
TORSDOF 4
ENDMDL
MODEL      150
REMARK 921   NORMALIZED FREE ENERGY PREDICTED BY IDOCK:   -3.76 KCAL/MOL
REMARK 922        TOTAL FREE ENERGY PREDICTED BY IDOCK:   -4.93 KCAL/MOL
REMARK 923 INTER-LIGAND FREE ENERGY PREDICTED BY IDOCK:   -4.53 KCAL/MOL
REMARK 924 INTRA-LIGAND FREE ENERGY PREDICTED BY IDOCK:   -0.40 KCAL/MOL
REMARK 927      BINDING AFFINITY PREDICTED BY RF-SCORE:    0.00 PKD
ROOT
HETATM    1  C   UNL     1     -13.253   9.933  71.110  1.00  0.00    -0.424 C  
HETATM    2  C   UNL     1     -11.740   9.703  71.177  1.00  0.00    -0.372 C  
HETATM    3  C   UNL     1     -11.452   8.484  72.057  1.00  0.00    -0.431 C  
ENDROOT
BRANCH   2   4
HETATM    4  N   UNL     1     -11.240   9.531  69.808  1.00  0.00    -0.381 NA 
HETATM    5  H   UNL     1     -12.013   9.512  69.143  1.00  0.00     0.000 HD 
BRANCH   4   6
HETATM    6  C   UNL     1     -10.239  10.533  69.409  1.00  0.00    -0.221 C  
BRANCH   6   7
HETATM    7  C   UNL     1     -10.641  11.234  68.085  1.00  0.00    -0.192 C  
HETATM    8  H   UNL     1     -12.030  11.033  66.682  1.00  0.00     0.000 HD 
HETATM    9  O   UNL     1     -11.783  10.604  67.492  1.00  0.00    -0.445 OA 
BRANCH   7  10
HETATM   10  C   UNL     1     -10.921  12.709  68.300  1.00  0.00    -0.275 A  
HETATM   11  C   UNL     1     -11.209  13.234  69.571  1.00  0.00    -0.163 A  
HETATM   12  C   UNL     1     -11.451  14.596  69.719  1.00  0.00    -0.282 A  
HETATM   13  O   UNL     1     -11.752  15.149  70.934  1.00  0.00    -0.284 OA 
HETATM   14  C   UNL     1     -11.399  15.447  68.618  1.00  0.00    -0.330 A  
HETATM   15  H   UNL     1     -11.917  16.079  71.036  1.00  0.00     0.000 HD 
HETATM   16  C   UNL     1     -11.101  14.956  67.359  1.00  0.00    -0.325 A  
HETATM   17  O   UNL     1     -11.650  16.779  68.775  1.00  0.00    -0.113 OA 
HETATM   18  C   UNL     1     -10.861  13.589  67.200  1.00  0.00    -0.291 A  
HETATM   19  H   UNL     1     -11.615  17.359  68.023  1.00  0.00     0.000 HD 
ENDBRANCH   7  10
ENDBRANCH   6   7
ENDBRANCH   4   6
ENDBRANCH   2   4
TORSDOF 4
ENDMDL
MODEL      151
REMARK 921   NORMALIZED FREE ENERGY PREDICTED BY IDOCK:   -3.76 KCAL/MOL
REMARK 922        TOTAL FREE ENERGY PREDICTED BY IDOCK:   -4.93 KCAL/MOL
REMARK 923 INTER-LIGAND FREE ENERGY PREDICTED BY IDOCK:   -4.63 KCAL/MOL
REMARK 924 INTRA-LIGAND FREE ENERGY PREDICTED BY IDOCK:   -0.29 KCAL/MOL
REMARK 927      BINDING AFFINITY PREDICTED BY RF-SCORE:    0.00 PKD
ROOT
HETATM    1  C   UNL     1      -6.614   6.079  71.734  1.00  0.00    -0.055 C  
HETATM    2  C   UNL     1      -6.574   7.583  71.450  1.00  0.00    -0.042 C  
HETATM    3  C   UNL     1      -6.049   7.817  70.031  1.00  0.00    -0.026 C  
ENDROOT
BRANCH   2   4
HETATM    4  N   UNL     1      -7.925   8.124  71.639  1.00  0.00    -0.111 NA 
HETATM    5  H   UNL     1      -8.044   8.466  72.593  1.00  0.00     0.000 HD 
BRANCH   4   6
HETATM    6  C   UNL     1      -8.292   9.166  70.668  1.00  0.00    -0.205 C  
BRANCH   6   7
HETATM    7  C   UNL     1      -9.543   8.757  69.848  1.00  0.00    -0.177 C  
HETATM    8  H   UNL     1     -10.156   7.193  68.789  1.00  0.00     0.000 HD 
HETATM    9  O   UNL     1      -9.390   7.445  69.291  1.00  0.00    -0.154 OA 
BRANCH   7  10
HETATM   10  C   UNL     1     -10.803   8.815  70.690  1.00  0.00    -0.273 A  
HETATM   11  C   UNL     1     -11.441  10.030  70.992  1.00  0.00    -0.463 A  
HETATM   12  C   UNL     1     -12.599  10.032  71.762  1.00  0.00    -0.409 A  
HETATM   13  O   UNL     1     -13.245  11.192  72.094  1.00  0.00    -0.586 OA 
HETATM   14  C   UNL     1     -13.140   8.837  72.227  1.00  0.00    -0.409 A  
HETATM   15  H   UNL     1     -14.036  11.194  72.619  1.00  0.00     0.000 HD 
HETATM   16  C   UNL     1     -12.539   7.626  71.930  1.00  0.00    -0.332 A  
HETATM   17  O   UNL     1     -14.270   8.853  72.992  1.00  0.00    -1.106 OA 
HETATM   18  C   UNL     1     -11.373   7.614  71.161  1.00  0.00    -0.286 A  
HETATM   19  H   UNL     1     -14.639   8.037  73.310  1.00  0.00     0.000 HD 
ENDBRANCH   7  10
ENDBRANCH   6   7
ENDBRANCH   4   6
ENDBRANCH   2   4
TORSDOF 4
ENDMDL
MODEL      152
REMARK 921   NORMALIZED FREE ENERGY PREDICTED BY IDOCK:   -3.75 KCAL/MOL
REMARK 922        TOTAL FREE ENERGY PREDICTED BY IDOCK:   -4.92 KCAL/MOL
REMARK 923 INTER-LIGAND FREE ENERGY PREDICTED BY IDOCK:   -4.53 KCAL/MOL
REMARK 924 INTRA-LIGAND FREE ENERGY PREDICTED BY IDOCK:   -0.39 KCAL/MOL
REMARK 927      BINDING AFFINITY PREDICTED BY RF-SCORE:    0.00 PKD
ROOT
HETATM    1  C   UNL     1     -10.028  10.202  64.881  1.00  0.00    -0.358 C  
HETATM    2  C   UNL     1      -9.741   9.423  66.168  1.00  0.00    -0.265 C  
HETATM    3  C   UNL     1      -8.454   9.954  66.805  1.00  0.00    -0.125 C  
ENDROOT
BRANCH   2   4
HETATM    4  N   UNL     1     -10.900   9.559  67.057  1.00  0.00    -0.198 NA 
HETATM    5  H   UNL     1     -11.271   8.641  67.305  1.00  0.00     0.000 HD 
BRANCH   4   6
HETATM    6  C   UNL     1     -10.633  10.353  68.267  1.00  0.00    -0.212 C  
BRANCH   6   7
HETATM    7  C   UNL     1     -11.762  11.386  68.522  1.00  0.00    -0.318 C  
HETATM    8  H   UNL     1     -12.829  12.043  70.061  1.00  0.00     0.000 HD 
HETATM    9  O   UNL     1     -12.137  11.410  69.905  1.00  0.00    -0.310 OA 
BRANCH   7  10
HETATM   10  C   UNL     1     -11.356  12.776  68.074  1.00  0.00    -0.335 A  
HETATM   11  C   UNL     1     -10.565  12.988  66.931  1.00  0.00    -0.260 A  
HETATM   12  C   UNL     1     -10.225  14.284  66.555  1.00  0.00    -0.276 A  
HETATM   13  O   UNL     1      -9.444  14.537  65.460  1.00  0.00    -0.524 OA 
HETATM   14  C   UNL     1     -10.670  15.375  67.297  1.00  0.00    -0.307 A  
HETATM   15  H   UNL     1      -9.211  15.421  65.203  1.00  0.00     0.000 HD 
HETATM   16  C   UNL     1     -11.462  15.192  68.417  1.00  0.00    -0.347 A  
HETATM   17  O   UNL     1     -10.319  16.640  66.925  1.00  0.00    -0.297 OA 
HETATM   18  C   UNL     1     -11.806  13.895  68.804  1.00  0.00    -0.396 A  
HETATM   19  H   UNL     1     -10.622  17.384  67.431  1.00  0.00     0.000 HD 
ENDBRANCH   7  10
ENDBRANCH   6   7
ENDBRANCH   4   6
ENDBRANCH   2   4
TORSDOF 4
ENDMDL
MODEL      153
REMARK 921   NORMALIZED FREE ENERGY PREDICTED BY IDOCK:   -3.75 KCAL/MOL
REMARK 922        TOTAL FREE ENERGY PREDICTED BY IDOCK:   -4.91 KCAL/MOL
REMARK 923 INTER-LIGAND FREE ENERGY PREDICTED BY IDOCK:   -4.72 KCAL/MOL
REMARK 924 INTRA-LIGAND FREE ENERGY PREDICTED BY IDOCK:   -0.19 KCAL/MOL
REMARK 927      BINDING AFFINITY PREDICTED BY RF-SCORE:    0.00 PKD
ROOT
HETATM    1  C   UNL     1      -8.894  16.935  66.700  1.00  0.00    -0.275 C  
HETATM    2  C   UNL     1      -9.656  16.091  67.726  1.00  0.00    -0.219 C  
HETATM    3  C   UNL     1     -10.962  16.800  68.094  1.00  0.00    -0.309 C  
ENDROOT
BRANCH   2   4
HETATM    4  N   UNL     1      -9.887  14.762  67.149  1.00  0.00    -0.230 NA 
HETATM    5  H   UNL     1     -10.135  14.093  67.879  1.00  0.00     0.000 HD 
BRANCH   4   6
HETATM    6  C   UNL     1     -10.887  14.746  66.070  1.00  0.00    -0.318 C  
BRANCH   6   7
HETATM    7  C   UNL     1     -12.071  13.804  66.415  1.00  0.00    -0.444 C  
HETATM    8  H   UNL     1     -13.654  13.041  65.492  1.00  0.00     0.000 HD 
HETATM    9  O   UNL     1     -12.929  13.618  65.282  1.00  0.00    -0.719 OA 
BRANCH   7  10
HETATM   10  C   UNL     1     -11.584  12.460  66.919  1.00  0.00    -0.437 A  
HETATM   11  C   UNL     1     -11.588  12.132  68.286  1.00  0.00    -0.382 A  
HETATM   12  C   UNL     1     -11.139  10.882  68.699  1.00  0.00    -0.252 A  
HETATM   13  O   UNL     1     -11.109  10.525  70.020  1.00  0.00    -0.277 OA 
HETATM   14  C   UNL     1     -10.695   9.947  67.768  1.00  0.00    -0.277 A  
HETATM   15  H   UNL     1     -10.803   9.672  70.303  1.00  0.00     0.000 HD 
HETATM   16  C   UNL     1     -10.697  10.241  66.416  1.00  0.00    -0.103 A  
HETATM   17  O   UNL     1     -10.246   8.729  68.188  1.00  0.00    -0.189 OA 
HETATM   18  C   UNL     1     -11.142  11.495  65.991  1.00  0.00    -0.289 A  
HETATM   19  H   UNL     1      -9.943   8.091  67.552  1.00  0.00     0.000 HD 
ENDBRANCH   7  10
ENDBRANCH   6   7
ENDBRANCH   4   6
ENDBRANCH   2   4
TORSDOF 4
ENDMDL
MODEL      154
REMARK 921   NORMALIZED FREE ENERGY PREDICTED BY IDOCK:   -3.74 KCAL/MOL
REMARK 922        TOTAL FREE ENERGY PREDICTED BY IDOCK:   -4.90 KCAL/MOL
REMARK 923 INTER-LIGAND FREE ENERGY PREDICTED BY IDOCK:   -4.71 KCAL/MOL
REMARK 924 INTRA-LIGAND FREE ENERGY PREDICTED BY IDOCK:   -0.19 KCAL/MOL
REMARK 927      BINDING AFFINITY PREDICTED BY RF-SCORE:    0.00 PKD
ROOT
HETATM    1  C   UNL     1      -9.601   5.151  72.130  1.00  0.00    -0.189 C  
HETATM    2  C   UNL     1      -9.477   6.620  71.713  1.00  0.00    -0.151 C  
HETATM    3  C   UNL     1      -8.939   6.696  70.282  1.00  0.00    -0.152 C  
ENDROOT
BRANCH   2   4
HETATM    4  N   UNL     1     -10.796   7.249  71.846  1.00  0.00    -0.223 NA 
HETATM    5  H   UNL     1     -11.078   7.289  72.826  1.00  0.00     0.000 HD 
BRANCH   4   6
HETATM    6  C   UNL     1     -10.887   8.581  71.227  1.00  0.00    -0.251 C  
BRANCH   6   7
HETATM    7  C   UNL     1     -12.334   9.135  71.291  1.00  0.00    -0.315 C  
HETATM    8  H   UNL     1     -13.803   9.250  72.621  1.00  0.00     0.000 HD 
HETATM    9  O   UNL     1     -12.916   8.911  72.581  1.00  0.00    -0.407 OA 
BRANCH   7  10
HETATM   10  C   UNL     1     -12.380  10.612  70.954  1.00  0.00    -0.502 A  
HETATM   11  C   UNL     1     -11.713  11.141  69.836  1.00  0.00    -0.433 A  
HETATM   12  C   UNL     1     -11.791  12.503  69.563  1.00  0.00    -0.310 A  
HETATM   13  O   UNL     1     -11.145  13.065  68.496  1.00  0.00    -0.240 OA 
HETATM   14  C   UNL     1     -12.534  13.347  70.385  1.00  0.00    -0.252 A  
HETATM   15  H   UNL     1     -11.198  13.995  68.309  1.00  0.00     0.000 HD 
HETATM   16  C   UNL     1     -13.213  12.846  71.483  1.00  0.00    -0.346 A  
HETATM   17  O   UNL     1     -12.593  14.683  70.113  1.00  0.00    -0.436 OA 
HETATM   18  C   UNL     1     -13.136  11.481  71.767  1.00  0.00    -0.503 A  
HETATM   19  H   UNL     1     -13.100  15.258  70.674  1.00  0.00     0.000 HD 
ENDBRANCH   7  10
ENDBRANCH   6   7
ENDBRANCH   4   6
ENDBRANCH   2   4
TORSDOF 4
ENDMDL
MODEL      155
REMARK 921   NORMALIZED FREE ENERGY PREDICTED BY IDOCK:   -3.73 KCAL/MOL
REMARK 922        TOTAL FREE ENERGY PREDICTED BY IDOCK:   -4.90 KCAL/MOL
REMARK 923 INTER-LIGAND FREE ENERGY PREDICTED BY IDOCK:   -5.59 KCAL/MOL
REMARK 924 INTRA-LIGAND FREE ENERGY PREDICTED BY IDOCK:    0.69 KCAL/MOL
REMARK 927      BINDING AFFINITY PREDICTED BY RF-SCORE:    0.00 PKD
ROOT
HETATM    1  C   UNL     1     -12.049  12.390  63.969  1.00  0.00    -0.563 C  
HETATM    2  C   UNL     1     -11.590  11.928  65.355  1.00  0.00    -0.223 C  
HETATM    3  C   UNL     1     -10.251  11.197  65.227  1.00  0.00    -0.337 C  
ENDROOT
BRANCH   2   4
HETATM    4  N   UNL     1     -11.501  13.105  66.226  1.00  0.00    -0.320 NA 
HETATM    5  H   UNL     1     -12.432  13.448  66.463  1.00  0.00     0.000 HD 
BRANCH   4   6
HETATM    6  C   UNL     1     -10.705  12.886  67.445  1.00  0.00    -0.237 C  
BRANCH   6   7
HETATM    7  C   UNL     1      -9.549  13.913  67.555  1.00  0.00    -0.229 C  
HETATM    8  H   UNL     1      -7.644  14.041  67.012  1.00  0.00     0.000 HD 
HETATM    9  O   UNL     1      -8.353  13.412  66.945  1.00  0.00    -0.125 OA 
BRANCH   7  10
HETATM   10  C   UNL     1      -9.925  15.243  66.934  1.00  0.00    -0.243 A  
HETATM   11  C   UNL     1     -10.452  15.335  65.634  1.00  0.00    -0.377 A  
HETATM   12  C   UNL     1     -10.790  16.579  65.109  1.00  0.00    -0.233 A  
HETATM   13  O   UNL     1     -11.291  16.718  63.843  1.00  0.00    -1.436 OA 
HETATM   14  C   UNL     1     -10.620  17.734  65.867  1.00  0.00    -0.205 A  
HETATM   15  H   UNL     1     -11.522  17.566  63.485  1.00  0.00     0.000 HD 
HETATM   16  C   UNL     1     -10.118  17.668  67.155  1.00  0.00    -0.328 A  
HETATM   17  O   UNL     1     -10.945  18.949  65.337  1.00  0.00    -0.493 OA 
HETATM   18  C   UNL     1      -9.772  16.424  67.688  1.00  0.00    -0.238 A  
HETATM   19  H   UNL     1     -10.828  19.738  65.853  1.00  0.00     0.000 HD 
ENDBRANCH   7  10
ENDBRANCH   6   7
ENDBRANCH   4   6
ENDBRANCH   2   4
TORSDOF 4
ENDMDL
MODEL      156
REMARK 921   NORMALIZED FREE ENERGY PREDICTED BY IDOCK:   -3.73 KCAL/MOL
REMARK 922        TOTAL FREE ENERGY PREDICTED BY IDOCK:   -4.89 KCAL/MOL
REMARK 923 INTER-LIGAND FREE ENERGY PREDICTED BY IDOCK:   -4.89 KCAL/MOL
REMARK 924 INTRA-LIGAND FREE ENERGY PREDICTED BY IDOCK:   -0.00 KCAL/MOL
REMARK 927      BINDING AFFINITY PREDICTED BY RF-SCORE:    0.00 PKD
ROOT
HETATM    1  C   UNL     1      -9.688  10.224  69.389  1.00  0.00    -0.242 C  
HETATM    2  C   UNL     1      -9.717  11.592  68.700  1.00  0.00    -0.143 C  
HETATM    3  C   UNL     1      -8.955  11.508  67.375  1.00  0.00    -0.156 C  
ENDROOT
BRANCH   2   4
HETATM    4  N   UNL     1     -11.118  11.984  68.512  1.00  0.00    -0.226 NA 
HETATM    5  H   UNL     1     -11.743  11.233  68.806  1.00  0.00     0.000 HD 
BRANCH   4   6
HETATM    6  C   UNL     1     -11.479  13.247  69.176  1.00  0.00    -0.305 C  
BRANCH   6   7
HETATM    7  C   UNL     1     -11.930  14.315  68.147  1.00  0.00    -0.308 C  
HETATM    8  H   UNL     1     -11.540  16.219  67.742  1.00  0.00     0.000 HD 
HETATM    9  O   UNL     1     -11.264  15.564  68.373  1.00  0.00    -0.305 OA 
BRANCH   7  10
HETATM   10  C   UNL     1     -11.689  13.853  66.723  1.00  0.00    -0.423 A  
HETATM   11  C   UNL     1     -12.640  13.097  66.016  1.00  0.00    -0.192 A  
HETATM   12  C   UNL     1     -12.376  12.703  64.708  1.00  0.00    -0.489 A  
HETATM   13  O   UNL     1     -13.265  11.953  63.986  1.00  0.00    -0.632 OA 
HETATM   14  C   UNL     1     -11.182  13.061  64.089  1.00  0.00    -0.399 A  
HETATM   15  H   UNL     1     -13.085  11.683  63.093  1.00  0.00     0.000 HD 
HETATM   16  C   UNL     1     -10.237  13.818  64.760  1.00  0.00    -0.362 A  
HETATM   17  O   UNL     1     -10.930  12.657  62.809  1.00  0.00    -0.400 OA 
HETATM   18  C   UNL     1     -10.491  14.215  66.075  1.00  0.00    -0.308 A  
HETATM   19  H   UNL     1     -10.115  12.901  62.388  1.00  0.00     0.000 HD 
ENDBRANCH   7  10
ENDBRANCH   6   7
ENDBRANCH   4   6
ENDBRANCH   2   4
TORSDOF 4
ENDMDL
MODEL      157
REMARK 921   NORMALIZED FREE ENERGY PREDICTED BY IDOCK:   -3.73 KCAL/MOL
REMARK 922        TOTAL FREE ENERGY PREDICTED BY IDOCK:   -4.89 KCAL/MOL
REMARK 923 INTER-LIGAND FREE ENERGY PREDICTED BY IDOCK:   -4.67 KCAL/MOL
REMARK 924 INTRA-LIGAND FREE ENERGY PREDICTED BY IDOCK:   -0.23 KCAL/MOL
REMARK 927      BINDING AFFINITY PREDICTED BY RF-SCORE:    0.00 PKD
ROOT
HETATM    1  C   UNL     1     -11.387  10.357  70.072  1.00  0.00    -0.384 C  
HETATM    2  C   UNL     1     -11.167  11.299  68.885  1.00  0.00    -0.253 C  
HETATM    3  C   UNL     1     -11.266  10.502  67.581  1.00  0.00    -0.338 C  
ENDROOT
BRANCH   2   4
HETATM    4  N   UNL     1     -12.164  12.373  68.958  1.00  0.00    -0.103 NA 
HETATM    5  H   UNL     1     -12.764  12.251  69.774  1.00  0.00     0.000 HD 
BRANCH   4   6
HETATM    6  C   UNL     1     -11.586  13.726  68.939  1.00  0.00    -0.319 C  
BRANCH   6   7
HETATM    7  C   UNL     1     -11.213  14.159  67.497  1.00  0.00    -0.306 C  
HETATM    8  H   UNL     1     -12.158  14.603  65.808  1.00  0.00     0.000 HD 
HETATM    9  O   UNL     1     -12.385  14.338  66.692  1.00  0.00    -0.446 OA 
BRANCH   7  10
HETATM   10  C   UNL     1     -10.387  15.430  67.494  1.00  0.00    -0.264 A  
HETATM   11  C   UNL     1     -10.718  16.534  68.298  1.00  0.00    -0.345 A  
HETATM   12  C   UNL     1      -9.924  17.677  68.267  1.00  0.00    -0.339 A  
HETATM   13  O   UNL     1     -10.217  18.781  69.020  1.00  0.00    -0.491 OA 
HETATM   14  C   UNL     1      -8.797  17.732  67.451  1.00  0.00    -0.240 A  
HETATM   15  H   UNL     1      -9.675  19.561  68.999  1.00  0.00     0.000 HD 
HETATM   16  C   UNL     1      -8.442  16.651  66.662  1.00  0.00    -0.294 A  
HETATM   17  O   UNL     1      -8.034  18.862  67.420  1.00  0.00    -0.244 OA 
HETATM   18  C   UNL     1      -9.236  15.502  66.684  1.00  0.00    -0.299 A  
HETATM   19  H   UNL     1      -7.265  18.900  66.863  1.00  0.00     0.000 HD 
ENDBRANCH   7  10
ENDBRANCH   6   7
ENDBRANCH   4   6
ENDBRANCH   2   4
TORSDOF 4
ENDMDL
MODEL      158
REMARK 921   NORMALIZED FREE ENERGY PREDICTED BY IDOCK:   -3.73 KCAL/MOL
REMARK 922        TOTAL FREE ENERGY PREDICTED BY IDOCK:   -4.88 KCAL/MOL
REMARK 923 INTER-LIGAND FREE ENERGY PREDICTED BY IDOCK:   -4.64 KCAL/MOL
REMARK 924 INTRA-LIGAND FREE ENERGY PREDICTED BY IDOCK:   -0.24 KCAL/MOL
REMARK 927      BINDING AFFINITY PREDICTED BY RF-SCORE:    0.00 PKD
ROOT
HETATM    1  C   UNL     1      -9.425   4.957  65.310  1.00  0.00    -0.106 C  
HETATM    2  C   UNL     1      -9.075   5.799  66.540  1.00  0.00    -0.141 C  
HETATM    3  C   UNL     1      -7.583   6.140  66.513  1.00  0.00    -0.094 C  
ENDROOT
BRANCH   2   4
HETATM    4  N   UNL     1      -9.920   6.999  66.533  1.00  0.00    -0.399 NA 
HETATM    5  H   UNL     1     -10.441   7.076  67.407  1.00  0.00     0.000 HD 
BRANCH   4   6
HETATM    6  C   UNL     1      -9.186   8.244  66.258  1.00  0.00    -0.203 C  
BRANCH   6   7
HETATM    7  C   UNL     1      -9.848   9.456  66.963  1.00  0.00    -0.201 C  
HETATM    8  H   UNL     1      -9.344  10.826  68.308  1.00  0.00     0.000 HD 
HETATM    9  O   UNL     1      -8.939  10.084  67.876  1.00  0.00    -0.131 OA 
BRANCH   7  10
HETATM   10  C   UNL     1     -10.355  10.474  65.960  1.00  0.00    -0.279 A  
HETATM   11  C   UNL     1     -10.025  10.403  64.596  1.00  0.00    -0.408 A  
HETATM   12  C   UNL     1     -10.521  11.356  63.712  1.00  0.00    -0.399 A  
HETATM   13  O   UNL     1     -10.213  11.336  62.379  1.00  0.00    -0.390 OA 
HETATM   14  C   UNL     1     -11.353  12.376  64.167  1.00  0.00    -0.379 A  
HETATM   15  H   UNL     1     -10.552  11.987  61.776  1.00  0.00     0.000 HD 
HETATM   16  C   UNL     1     -11.705  12.458  65.503  1.00  0.00    -0.459 A  
HETATM   17  O   UNL     1     -11.824  13.312  63.292  1.00  0.00    -0.748 OA 
HETATM   18  C   UNL     1     -11.208  11.507  66.398  1.00  0.00    -0.307 A  
HETATM   19  H   UNL     1     -12.391  14.008  63.603  1.00  0.00     0.000 HD 
ENDBRANCH   7  10
ENDBRANCH   6   7
ENDBRANCH   4   6
ENDBRANCH   2   4
TORSDOF 4
ENDMDL
MODEL      159
REMARK 921   NORMALIZED FREE ENERGY PREDICTED BY IDOCK:   -3.72 KCAL/MOL
REMARK 922        TOTAL FREE ENERGY PREDICTED BY IDOCK:   -4.88 KCAL/MOL
REMARK 923 INTER-LIGAND FREE ENERGY PREDICTED BY IDOCK:   -4.60 KCAL/MOL
REMARK 924 INTRA-LIGAND FREE ENERGY PREDICTED BY IDOCK:   -0.28 KCAL/MOL
REMARK 927      BINDING AFFINITY PREDICTED BY RF-SCORE:    0.00 PKD
ROOT
HETATM    1  C   UNL     1     -10.303   3.850  72.576  1.00  0.00    -0.210 C  
HETATM    2  C   UNL     1     -11.064   4.768  73.537  1.00  0.00    -0.335 C  
HETATM    3  C   UNL     1     -10.083   5.364  74.550  1.00  0.00    -0.291 C  
ENDROOT
BRANCH   2   4
HETATM    4  N   UNL     1     -11.743   5.801  72.746  1.00  0.00    -0.513 NA 
HETATM    5  H   UNL     1     -12.517   6.205  73.274  1.00  0.00     0.000 HD 
BRANCH   4   6
HETATM    6  C   UNL     1     -10.848   6.858  72.250  1.00  0.00    -0.230 C  
BRANCH   6   7
HETATM    7  C   UNL     1     -11.608   7.859  71.342  1.00  0.00    -0.272 C  
HETATM    8  H   UNL     1     -11.916   9.818  71.255  1.00  0.00     0.000 HD 
HETATM    9  O   UNL     1     -11.451   9.204  71.811  1.00  0.00    -0.347 OA 
BRANCH   7  10
HETATM   10  C   UNL     1     -11.151   7.760  69.900  1.00  0.00    -0.142 A  
HETATM   11  C   UNL     1     -11.280   6.573  69.158  1.00  0.00    -0.367 A  
HETATM   12  C   UNL     1     -10.853   6.534  67.835  1.00  0.00    -0.304 A  
HETATM   13  O   UNL     1     -10.944   5.396  67.080  1.00  0.00    -0.383 OA 
HETATM   14  C   UNL     1     -10.308   7.665  67.234  1.00  0.00    -0.297 A  
HETATM   15  H   UNL     1     -10.653   5.368  66.176  1.00  0.00     0.000 HD 
HETATM   16  C   UNL     1     -10.185   8.850  67.939  1.00  0.00    -0.274 A  
HETATM   17  O   UNL     1      -9.881   7.610  65.939  1.00  0.00    -0.415 OA 
HETATM   18  C   UNL     1     -10.607   8.898  69.270  1.00  0.00    -0.219 A  
HETATM   19  H   UNL     1      -9.509   8.382  65.529  1.00  0.00     0.000 HD 
ENDBRANCH   7  10
ENDBRANCH   6   7
ENDBRANCH   4   6
ENDBRANCH   2   4
TORSDOF 4
ENDMDL
MODEL      160
REMARK 921   NORMALIZED FREE ENERGY PREDICTED BY IDOCK:   -3.72 KCAL/MOL
REMARK 922        TOTAL FREE ENERGY PREDICTED BY IDOCK:   -4.88 KCAL/MOL
REMARK 923 INTER-LIGAND FREE ENERGY PREDICTED BY IDOCK:   -4.70 KCAL/MOL
REMARK 924 INTRA-LIGAND FREE ENERGY PREDICTED BY IDOCK:   -0.18 KCAL/MOL
REMARK 927      BINDING AFFINITY PREDICTED BY RF-SCORE:    0.00 PKD
ROOT
HETATM    1  C   UNL     1     -10.691  19.616  66.505  1.00  0.00    -0.543 C  
HETATM    2  C   UNL     1      -9.711  18.442  66.578  1.00  0.00    -0.348 C  
HETATM    3  C   UNL     1      -8.304  18.934  66.229  1.00  0.00    -0.274 C  
ENDROOT
BRANCH   2   4
HETATM    4  N   UNL     1      -9.781  17.867  67.926  1.00  0.00    -0.279 NA 
HETATM    5  H   UNL     1     -10.050  18.578  68.606  1.00  0.00     0.000 HD 
BRANCH   4   6
HETATM    6  C   UNL     1     -10.664  16.694  68.029  1.00  0.00    -0.350 C  
BRANCH   6   7
HETATM    7  C   UNL     1      -9.871  15.428  68.447  1.00  0.00    -0.215 C  
HETATM    8  H   UNL     1      -8.249  14.996  69.507  1.00  0.00     0.000 HD 
HETATM    9  O   UNL     1      -8.735  15.771  69.251  1.00  0.00    -0.240 OA 
BRANCH   7  10
HETATM   10  C   UNL     1     -10.750  14.442  69.192  1.00  0.00    -0.254 A  
HETATM   11  C   UNL     1     -11.462  14.806  70.348  1.00  0.00    -0.303 A  
HETATM   12  C   UNL     1     -12.262  13.868  70.992  1.00  0.00    -0.342 A  
HETATM   13  O   UNL     1     -12.960  14.172  72.129  1.00  0.00    -0.347 OA 
HETATM   14  C   UNL     1     -12.372  12.572  70.495  1.00  0.00    -0.262 A  
HETATM   15  H   UNL     1     -13.507  13.532  72.569  1.00  0.00     0.000 HD 
HETATM   16  C   UNL     1     -11.692  12.194  69.350  1.00  0.00    -0.391 A  
HETATM   17  O   UNL     1     -13.150  11.658  71.144  1.00  0.00    -0.265 OA 
HETATM   18  C   UNL     1     -10.883  13.128  68.698  1.00  0.00    -0.287 A  
HETATM   19  H   UNL     1     -13.224  10.773  70.805  1.00  0.00     0.000 HD 
ENDBRANCH   7  10
ENDBRANCH   6   7
ENDBRANCH   4   6
ENDBRANCH   2   4
TORSDOF 4
ENDMDL
MODEL      161
REMARK 921   NORMALIZED FREE ENERGY PREDICTED BY IDOCK:   -3.72 KCAL/MOL
REMARK 922        TOTAL FREE ENERGY PREDICTED BY IDOCK:   -4.88 KCAL/MOL
REMARK 923 INTER-LIGAND FREE ENERGY PREDICTED BY IDOCK:   -4.60 KCAL/MOL
REMARK 924 INTRA-LIGAND FREE ENERGY PREDICTED BY IDOCK:   -0.28 KCAL/MOL
REMARK 927      BINDING AFFINITY PREDICTED BY RF-SCORE:    0.00 PKD
ROOT
HETATM    1  C   UNL     1      -9.246  11.571  67.000  1.00  0.00    -0.180 C  
HETATM    2  C   UNL     1      -9.115  13.090  67.141  1.00  0.00    -0.225 C  
HETATM    3  C   UNL     1     -10.062  13.774  66.152  1.00  0.00    -0.314 C  
ENDROOT
BRANCH   2   4
HETATM    4  N   UNL     1      -9.408  13.451  68.533  1.00  0.00    -0.348 NA 
HETATM    5  H   UNL     1      -8.594  13.287  69.125  1.00  0.00     0.000 HD 
BRANCH   4   6
HETATM    6  C   UNL     1      -9.903  14.826  68.701  1.00  0.00    -0.225 C  
BRANCH   6   7
HETATM    7  C   UNL     1      -8.819  15.741  69.329  1.00  0.00    -0.262 C  
HETATM    8  H   UNL     1      -6.853  15.715  69.598  1.00  0.00     0.000 HD 
HETATM    9  O   UNL     1      -7.517  15.154  69.214  1.00  0.00    -0.162 OA 
BRANCH   7  10
HETATM   10  C   UNL     1      -8.821  17.119  68.698  1.00  0.00    -0.266 A  
HETATM   11  C   UNL     1      -9.963  17.651  68.074  1.00  0.00    -0.326 A  
HETATM   12  C   UNL     1      -9.918  18.924  67.516  1.00  0.00    -0.345 A  
HETATM   13  O   UNL     1     -11.000  19.475  66.884  1.00  0.00    -0.462 OA 
HETATM   14  C   UNL     1      -8.752  19.683  67.579  1.00  0.00    -0.312 A  
HETATM   15  H   UNL     1     -10.970  20.344  66.503  1.00  0.00     0.000 HD 
HETATM   16  C   UNL     1      -7.620  19.187  68.202  1.00  0.00    -0.321 A  
HETATM   17  O   UNL     1      -8.718  20.926  67.017  1.00  0.00    -0.577 OA 
HETATM   18  C   UNL     1      -7.654  17.908  68.762  1.00  0.00    -0.271 A  
HETATM   19  H   UNL     1      -7.922  21.443  67.060  1.00  0.00     0.000 HD 
ENDBRANCH   7  10
ENDBRANCH   6   7
ENDBRANCH   4   6
ENDBRANCH   2   4
TORSDOF 4
ENDMDL
MODEL      162
REMARK 921   NORMALIZED FREE ENERGY PREDICTED BY IDOCK:   -3.72 KCAL/MOL
REMARK 922        TOTAL FREE ENERGY PREDICTED BY IDOCK:   -4.88 KCAL/MOL
REMARK 923 INTER-LIGAND FREE ENERGY PREDICTED BY IDOCK:   -4.61 KCAL/MOL
REMARK 924 INTRA-LIGAND FREE ENERGY PREDICTED BY IDOCK:   -0.26 KCAL/MOL
REMARK 927      BINDING AFFINITY PREDICTED BY RF-SCORE:    0.00 PKD
ROOT
HETATM    1  C   UNL     1      -8.379  10.570  69.199  1.00  0.00    -0.154 C  
HETATM    2  C   UNL     1      -7.485  10.737  67.967  1.00  0.00    -0.090 C  
HETATM    3  C   UNL     1      -7.844   9.666  66.933  1.00  0.00    -0.102 C  
ENDROOT
BRANCH   2   4
HETATM    4  N   UNL     1      -7.667  12.096  67.446  1.00  0.00    -0.156 NA 
HETATM    5  H   UNL     1      -7.849  12.074  66.443  1.00  0.00     0.000 HD 
BRANCH   4   6
HETATM    6  C   UNL     1      -8.707  12.868  68.144  1.00  0.00    -0.190 C  
BRANCH   6   7
HETATM    7  C   UNL     1      -8.523  14.392  67.919  1.00  0.00    -0.165 C  
HETATM    8  H   UNL     1      -7.044  15.644  67.488  1.00  0.00     0.000 HD 
HETATM    9  O   UNL     1      -7.157  14.710  67.626  1.00  0.00    -0.156 OA 
BRANCH   7  10
HETATM   10  C   UNL     1      -9.421  14.903  66.809  1.00  0.00    -0.269 A  
HETATM   11  C   UNL     1     -10.341  14.068  66.153  1.00  0.00    -0.301 A  
HETATM   12  C   UNL     1     -11.149  14.585  65.145  1.00  0.00    -0.370 A  
HETATM   13  O   UNL     1     -12.048  13.806  64.468  1.00  0.00    -0.398 OA 
HETATM   14  C   UNL     1     -11.061  15.927  64.787  1.00  0.00    -0.384 A  
HETATM   15  H   UNL     1     -12.600  14.158  63.780  1.00  0.00     0.000 HD 
HETATM   16  C   UNL     1     -10.173  16.773  65.429  1.00  0.00    -0.099 A  
HETATM   17  O   UNL     1     -11.850  16.419  63.788  1.00  0.00    -1.455 OA 
HETATM   18  C   UNL     1      -9.355  16.262  66.440  1.00  0.00    -0.322 A  
HETATM   19  H   UNL     1     -11.789  17.335  63.544  1.00  0.00     0.000 HD 
ENDBRANCH   7  10
ENDBRANCH   6   7
ENDBRANCH   4   6
ENDBRANCH   2   4
TORSDOF 4
ENDMDL
MODEL      163
REMARK 921   NORMALIZED FREE ENERGY PREDICTED BY IDOCK:   -3.72 KCAL/MOL
REMARK 922        TOTAL FREE ENERGY PREDICTED BY IDOCK:   -4.87 KCAL/MOL
REMARK 923 INTER-LIGAND FREE ENERGY PREDICTED BY IDOCK:   -4.44 KCAL/MOL
REMARK 924 INTRA-LIGAND FREE ENERGY PREDICTED BY IDOCK:   -0.43 KCAL/MOL
REMARK 927      BINDING AFFINITY PREDICTED BY RF-SCORE:    0.00 PKD
ROOT
HETATM    1  C   UNL     1      -8.052   7.927  71.205  1.00  0.00    -0.093 C  
HETATM    2  C   UNL     1      -8.296   6.418  71.287  1.00  0.00    -0.123 C  
HETATM    3  C   UNL     1      -7.586   5.857  72.523  1.00  0.00    -0.100 C  
ENDROOT
BRANCH   2   4
HETATM    4  N   UNL     1      -9.744   6.186  71.325  1.00  0.00    -0.174 NA 
HETATM    5  H   UNL     1     -10.090   6.233  72.283  1.00  0.00     0.000 HD 
BRANCH   4   6
HETATM    6  C   UNL     1     -10.515   7.085  70.452  1.00  0.00    -0.206 C  
BRANCH   6   7
HETATM    7  C   UNL     1     -11.773   7.632  71.176  1.00  0.00    -0.290 C  
HETATM    8  H   UNL     1     -12.498   7.678  73.024  1.00  0.00     0.000 HD 
HETATM    9  O   UNL     1     -11.727   7.343  72.579  1.00  0.00    -0.286 OA 
BRANCH   7  10
HETATM   10  C   UNL     1     -11.933   9.124  70.963  1.00  0.00    -0.344 A  
HETATM   11  C   UNL     1     -12.717   9.918  71.818  1.00  0.00    -0.523 A  
HETATM   12  C   UNL     1     -12.827  11.286  71.586  1.00  0.00    -0.405 A  
HETATM   13  O   UNL     1     -13.591  12.095  72.382  1.00  0.00    -0.594 OA 
HETATM   14  C   UNL     1     -12.159  11.877  70.517  1.00  0.00    -0.331 A  
HETATM   15  H   UNL     1     -13.667  13.028  72.224  1.00  0.00     0.000 HD 
HETATM   16  C   UNL     1     -11.369  11.119  69.671  1.00  0.00    -0.366 A  
HETATM   17  O   UNL     1     -12.285  13.217  70.293  1.00  0.00    -0.340 OA 
HETATM   18  C   UNL     1     -11.255   9.744  69.894  1.00  0.00    -0.271 A  
HETATM   19  H   UNL     1     -11.829  13.620  69.564  1.00  0.00     0.000 HD 
ENDBRANCH   7  10
ENDBRANCH   6   7
ENDBRANCH   4   6
ENDBRANCH   2   4
TORSDOF 4
ENDMDL
MODEL      164
REMARK 921   NORMALIZED FREE ENERGY PREDICTED BY IDOCK:   -3.71 KCAL/MOL
REMARK 922        TOTAL FREE ENERGY PREDICTED BY IDOCK:   -4.87 KCAL/MOL
REMARK 923 INTER-LIGAND FREE ENERGY PREDICTED BY IDOCK:   -4.37 KCAL/MOL
REMARK 924 INTRA-LIGAND FREE ENERGY PREDICTED BY IDOCK:   -0.49 KCAL/MOL
REMARK 927      BINDING AFFINITY PREDICTED BY RF-SCORE:    0.00 PKD
ROOT
HETATM    1  C   UNL     1      -7.887   8.888  68.577  1.00  0.00    -0.103 C  
HETATM    2  C   UNL     1      -8.449   7.886  67.564  1.00  0.00    -0.123 C  
HETATM    3  C   UNL     1      -9.751   7.292  68.109  1.00  0.00    -0.155 C  
ENDROOT
BRANCH   2   4
HETATM    4  N   UNL     1      -8.646   8.583  66.288  1.00  0.00    -0.122 NA 
HETATM    5  H   UNL     1      -8.398   7.977  65.506  1.00  0.00     0.000 HD 
BRANCH   4   6
HETATM    6  C   UNL     1     -10.001   9.129  66.110  1.00  0.00    -0.268 C  
BRANCH   6   7
HETATM    7  C   UNL     1      -9.956  10.597  65.611  1.00  0.00    -0.268 C  
HETATM    8  H   UNL     1     -10.528  11.620  64.009  1.00  0.00     0.000 HD 
HETATM    9  O   UNL     1     -10.555  10.721  64.315  1.00  0.00    -0.350 OA 
BRANCH   7  10
HETATM   10  C   UNL     1     -10.639  11.537  66.586  1.00  0.00    -0.294 A  
HETATM   11  C   UNL     1     -10.698  11.265  67.963  1.00  0.00    -0.245 A  
HETATM   12  C   UNL     1     -11.328  12.162  68.820  1.00  0.00    -0.288 A  
HETATM   13  O   UNL     1     -11.425  11.931  70.165  1.00  0.00    -0.500 OA 
HETATM   14  C   UNL     1     -11.893  13.334  68.324  1.00  0.00    -0.354 A  
HETATM   15  H   UNL     1     -11.855  12.543  70.750  1.00  0.00     0.000 HD 
HETATM   16  C   UNL     1     -11.833  13.632  66.973  1.00  0.00    -0.448 A  
HETATM   17  O   UNL     1     -12.519  14.201  69.173  1.00  0.00    -0.519 OA 
HETATM   18  C   UNL     1     -11.206  12.735  66.105  1.00  0.00    -0.336 A  
HETATM   19  H   UNL     1     -12.904  15.000  68.834  1.00  0.00     0.000 HD 
ENDBRANCH   7  10
ENDBRANCH   6   7
ENDBRANCH   4   6
ENDBRANCH   2   4
TORSDOF 4
ENDMDL
MODEL      165
REMARK 921   NORMALIZED FREE ENERGY PREDICTED BY IDOCK:   -3.71 KCAL/MOL
REMARK 922        TOTAL FREE ENERGY PREDICTED BY IDOCK:   -4.86 KCAL/MOL
REMARK 923 INTER-LIGAND FREE ENERGY PREDICTED BY IDOCK:   -4.45 KCAL/MOL
REMARK 924 INTRA-LIGAND FREE ENERGY PREDICTED BY IDOCK:   -0.41 KCAL/MOL
REMARK 927      BINDING AFFINITY PREDICTED BY RF-SCORE:    0.00 PKD
ROOT
HETATM    1  C   UNL     1     -10.117  10.429  65.277  1.00  0.00    -0.370 C  
HETATM    2  C   UNL     1      -9.837  11.835  64.738  1.00  0.00    -0.211 C  
HETATM    3  C   UNL     1     -10.566  12.021  63.405  1.00  0.00    -0.478 C  
ENDROOT
BRANCH   2   4
HETATM    4  N   UNL     1     -10.267  12.809  65.748  1.00  0.00    -0.285 NA 
HETATM    5  H   UNL     1     -11.279  12.936  65.716  1.00  0.00     0.000 HD 
BRANCH   4   6
HETATM    6  C   UNL     1      -9.830  12.484  67.115  1.00  0.00    -0.210 C  
BRANCH   6   7
HETATM    7  C   UNL     1     -10.995  12.629  68.128  1.00  0.00    -0.236 C  
HETATM    8  H   UNL     1     -12.956  12.934  68.075  1.00  0.00     0.000 HD 
HETATM    9  O   UNL     1     -12.242  12.845  67.455  1.00  0.00    -0.330 OA 
BRANCH   7  10
HETATM   10  C   UNL     1     -11.101  11.415  69.030  1.00  0.00    -0.300 A  
HETATM   11  C   UNL     1     -10.182  10.355  68.962  1.00  0.00    -0.233 A  
HETATM   12  C   UNL     1     -10.316   9.265  69.817  1.00  0.00    -0.218 A  
HETATM   13  O   UNL     1      -9.454   8.203  69.776  1.00  0.00    -0.159 OA 
HETATM   14  C   UNL     1     -11.349   9.222  70.749  1.00  0.00    -0.287 A  
HETATM   15  H   UNL     1      -9.546   7.460  70.359  1.00  0.00     0.000 HD 
HETATM   16  C   UNL     1     -12.258  10.262  70.846  1.00  0.00    -0.465 A  
HETATM   17  O   UNL     1     -11.477   8.142  71.574  1.00  0.00    -0.252 OA 
HETATM   18  C   UNL     1     -12.134  11.358  69.989  1.00  0.00    -0.417 A  
HETATM   19  H   UNL     1     -12.183   8.113  72.210  1.00  0.00     0.000 HD 
ENDBRANCH   7  10
ENDBRANCH   6   7
ENDBRANCH   4   6
ENDBRANCH   2   4
TORSDOF 4
ENDMDL
MODEL      166
REMARK 921   NORMALIZED FREE ENERGY PREDICTED BY IDOCK:   -3.70 KCAL/MOL
REMARK 922        TOTAL FREE ENERGY PREDICTED BY IDOCK:   -4.86 KCAL/MOL
REMARK 923 INTER-LIGAND FREE ENERGY PREDICTED BY IDOCK:   -4.60 KCAL/MOL
REMARK 924 INTRA-LIGAND FREE ENERGY PREDICTED BY IDOCK:   -0.26 KCAL/MOL
REMARK 927      BINDING AFFINITY PREDICTED BY RF-SCORE:    0.00 PKD
ROOT
HETATM    1  C   UNL     1     -10.340   7.994  72.687  1.00  0.00    -0.398 C  
HETATM    2  C   UNL     1     -11.220   7.624  71.489  1.00  0.00    -0.246 C  
HETATM    3  C   UNL     1     -11.915   6.288  71.765  1.00  0.00    -0.313 C  
ENDROOT
BRANCH   2   4
HETATM    4  N   UNL     1     -12.177   8.714  71.267  1.00  0.00    -0.320 NA 
HETATM    5  H   UNL     1     -12.954   8.648  71.924  1.00  0.00     0.000 HD 
BRANCH   4   6
HETATM    6  C   UNL     1     -11.575  10.055  71.311  1.00  0.00    -0.350 C  
BRANCH   6   7
HETATM    7  C   UNL     1     -12.331  11.043  70.384  1.00  0.00    -0.356 C  
HETATM    8  H   UNL     1     -13.307  12.763  70.559  1.00  0.00     0.000 HD 
HETATM    9  O   UNL     1     -12.844  12.157  71.126  1.00  0.00    -0.326 OA 
BRANCH   7  10
HETATM   10  C   UNL     1     -11.446  11.538  69.258  1.00  0.00    -0.370 A  
HETATM   11  C   UNL     1     -11.640  12.792  68.655  1.00  0.00    -0.352 A  
HETATM   12  C   UNL     1     -10.797  13.206  67.629  1.00  0.00    -0.254 A  
HETATM   13  O   UNL     1     -10.958  14.412  67.002  1.00  0.00    -0.292 OA 
HETATM   14  C   UNL     1      -9.753  12.391  67.200  1.00  0.00    -0.207 A  
HETATM   15  H   UNL     1     -10.383  14.695  66.302  1.00  0.00     0.000 HD 
HETATM   16  C   UNL     1      -9.531  11.158  67.789  1.00  0.00    -0.173 A  
HETATM   17  O   UNL     1      -8.939  12.803  66.185  1.00  0.00    -0.430 OA 
HETATM   18  C   UNL     1     -10.376  10.732  68.817  1.00  0.00    -0.209 A  
HETATM   19  H   UNL     1      -8.227  12.246  65.893  1.00  0.00     0.000 HD 
ENDBRANCH   7  10
ENDBRANCH   6   7
ENDBRANCH   4   6
ENDBRANCH   2   4
TORSDOF 4
ENDMDL
MODEL      167
REMARK 921   NORMALIZED FREE ENERGY PREDICTED BY IDOCK:   -3.70 KCAL/MOL
REMARK 922        TOTAL FREE ENERGY PREDICTED BY IDOCK:   -4.86 KCAL/MOL
REMARK 923 INTER-LIGAND FREE ENERGY PREDICTED BY IDOCK:   -4.46 KCAL/MOL
REMARK 924 INTRA-LIGAND FREE ENERGY PREDICTED BY IDOCK:   -0.40 KCAL/MOL
REMARK 927      BINDING AFFINITY PREDICTED BY RF-SCORE:    0.00 PKD
ROOT
HETATM    1  C   UNL     1     -11.356  12.342  63.381  1.00  0.00    -0.508 C  
HETATM    2  C   UNL     1     -10.624  11.013  63.594  1.00  0.00    -0.269 C  
HETATM    3  C   UNL     1      -9.386  10.967  62.694  1.00  0.00    -0.348 C  
ENDROOT
BRANCH   2   4
HETATM    4  N   UNL     1     -10.283  10.897  65.016  1.00  0.00    -0.289 NA 
HETATM    5  H   UNL     1      -9.271  10.905  65.144  1.00  0.00     0.000 HD 
BRANCH   4   6
HETATM    6  C   UNL     1     -10.920  11.915  65.867  1.00  0.00    -0.307 C  
BRANCH   6   7
HETATM    7  C   UNL     1      -9.927  12.467  66.923  1.00  0.00    -0.224 C  
HETATM    8  H   UNL     1      -8.116  12.026  67.605  1.00  0.00     0.000 HD 
HETATM    9  O   UNL     1      -8.724  11.688  66.959  1.00  0.00    -0.160 OA 
BRANCH   7  10
HETATM   10  C   UNL     1      -9.590  13.922  66.663  1.00  0.00    -0.297 A  
HETATM   11  C   UNL     1      -8.467  14.541  67.239  1.00  0.00    -0.234 A  
HETATM   12  C   UNL     1      -8.195  15.877  66.963  1.00  0.00    -0.221 A  
HETATM   13  O   UNL     1      -7.123  16.525  67.514  1.00  0.00    -0.123 OA 
HETATM   14  C   UNL     1      -9.021  16.606  66.112  1.00  0.00    -0.286 A  
HETATM   15  H   UNL     1      -6.937  17.437  67.327  1.00  0.00     0.000 HD 
HETATM   16  C   UNL     1     -10.124  16.014  65.520  1.00  0.00    -0.336 A  
HETATM   17  O   UNL     1      -8.750  17.919  65.860  1.00  0.00    -0.508 OA 
HETATM   18  C   UNL     1     -10.408  14.674  65.794  1.00  0.00    -0.349 A  
HETATM   19  H   UNL     1      -9.315  18.416  65.279  1.00  0.00     0.000 HD 
ENDBRANCH   7  10
ENDBRANCH   6   7
ENDBRANCH   4   6
ENDBRANCH   2   4
TORSDOF 4
ENDMDL
MODEL      168
REMARK 921   NORMALIZED FREE ENERGY PREDICTED BY IDOCK:   -3.69 KCAL/MOL
REMARK 922        TOTAL FREE ENERGY PREDICTED BY IDOCK:   -4.84 KCAL/MOL
REMARK 923 INTER-LIGAND FREE ENERGY PREDICTED BY IDOCK:   -4.44 KCAL/MOL
REMARK 924 INTRA-LIGAND FREE ENERGY PREDICTED BY IDOCK:   -0.39 KCAL/MOL
REMARK 927      BINDING AFFINITY PREDICTED BY RF-SCORE:    0.00 PKD
ROOT
HETATM    1  C   UNL     1      -7.934   8.470  68.510  1.00  0.00    -0.117 C  
HETATM    2  C   UNL     1      -8.533   9.585  69.372  1.00  0.00    -0.146 C  
HETATM    3  C   UNL     1      -7.823  10.905  69.057  1.00  0.00    -0.138 C  
ENDROOT
BRANCH   2   4
HETATM    4  N   UNL     1      -9.974   9.651  69.103  1.00  0.00    -0.177 NA 
HETATM    5  H   UNL     1     -10.444  10.222  69.806  1.00  0.00     0.000 HD 
BRANCH   4   6
HETATM    6  C   UNL     1     -10.308  10.119  67.749  1.00  0.00    -0.210 C  
BRANCH   6   7
HETATM    7  C   UNL     1     -11.495  11.118  67.774  1.00  0.00    -0.272 C  
HETATM    8  H   UNL     1     -12.515  12.149  69.129  1.00  0.00     0.000 HD 
HETATM    9  O   UNL     1     -11.788  11.537  69.113  1.00  0.00    -0.298 OA 
BRANCH   7  10
HETATM   10  C   UNL     1     -11.223  12.328  66.903  1.00  0.00    -0.367 A  
HETATM   11  C   UNL     1     -10.175  13.223  67.178  1.00  0.00    -0.246 A  
HETATM   12  C   UNL     1      -9.960  14.315  66.344  1.00  0.00    -0.292 A  
HETATM   13  O   UNL     1      -8.962  15.221  66.582  1.00  0.00    -0.250 OA 
HETATM   14  C   UNL     1     -10.770  14.524  65.231  1.00  0.00    -0.376 A  
HETATM   15  H   UNL     1      -8.815  15.967  66.012  1.00  0.00     0.000 HD 
HETATM   16  C   UNL     1     -11.798  13.648  64.930  1.00  0.00    -0.398 A  
HETATM   17  O   UNL     1     -10.556  15.607  64.427  1.00  0.00    -0.676 OA 
HETATM   18  C   UNL     1     -12.024  12.551  65.764  1.00  0.00    -0.482 A  
HETATM   19  H   UNL     1     -11.109  15.749  63.668  1.00  0.00     0.000 HD 
ENDBRANCH   7  10
ENDBRANCH   6   7
ENDBRANCH   4   6
ENDBRANCH   2   4
TORSDOF 4
ENDMDL
MODEL      169
REMARK 921   NORMALIZED FREE ENERGY PREDICTED BY IDOCK:   -3.68 KCAL/MOL
REMARK 922        TOTAL FREE ENERGY PREDICTED BY IDOCK:   -4.83 KCAL/MOL
REMARK 923 INTER-LIGAND FREE ENERGY PREDICTED BY IDOCK:   -4.65 KCAL/MOL
REMARK 924 INTRA-LIGAND FREE ENERGY PREDICTED BY IDOCK:   -0.19 KCAL/MOL
REMARK 927      BINDING AFFINITY PREDICTED BY RF-SCORE:    0.00 PKD
ROOT
HETATM    1  C   UNL     1      -9.559   4.955  66.575  1.00  0.00    -0.176 C  
HETATM    2  C   UNL     1      -8.750   5.111  67.866  1.00  0.00    -0.102 C  
HETATM    3  C   UNL     1      -7.310   4.651  67.620  1.00  0.00    -0.074 C  
ENDROOT
BRANCH   2   4
HETATM    4  N   UNL     1      -8.821   6.516  68.286  1.00  0.00    -0.120 NA 
HETATM    5  H   UNL     1      -9.129   7.106  67.513  1.00  0.00     0.000 HD 
BRANCH   4   6
HETATM    6  C   UNL     1      -9.657   6.741  69.475  1.00  0.00    -0.147 C  
BRANCH   6   7
HETATM    7  C   UNL     1      -9.781   8.253  69.799  1.00  0.00    -0.180 C  
HETATM    8  H   UNL     1      -9.904   9.962  68.797  1.00  0.00     0.000 HD 
HETATM    9  O   UNL     1      -9.828   9.036  68.599  1.00  0.00    -0.157 OA 
BRANCH   7  10
HETATM   10  C   UNL     1     -11.001   8.542  70.651  1.00  0.00    -0.268 A  
HETATM   11  C   UNL     1     -11.507   9.843  70.809  1.00  0.00    -0.433 A  
HETATM   12  C   UNL     1     -12.634  10.058  71.595  1.00  0.00    -0.427 A  
HETATM   13  O   UNL     1     -13.152  11.309  71.791  1.00  0.00    -0.472 OA 
HETATM   14  C   UNL     1     -13.274   8.990  72.219  1.00  0.00    -0.460 A  
HETATM   15  H   UNL     1     -13.922  11.456  72.328  1.00  0.00     0.000 HD 
HETATM   16  C   UNL     1     -12.804   7.697  72.066  1.00  0.00    -0.242 A  
HETATM   17  O   UNL     1     -14.372   9.215  72.998  1.00  0.00    -1.075 OA 
HETATM   18  C   UNL     1     -11.670   7.473  71.282  1.00  0.00    -0.312 A  
HETATM   19  H   UNL     1     -14.808   8.486  73.424  1.00  0.00     0.000 HD 
ENDBRANCH   7  10
ENDBRANCH   6   7
ENDBRANCH   4   6
ENDBRANCH   2   4
TORSDOF 4
ENDMDL
MODEL      170
REMARK 921   NORMALIZED FREE ENERGY PREDICTED BY IDOCK:   -3.67 KCAL/MOL
REMARK 922        TOTAL FREE ENERGY PREDICTED BY IDOCK:   -4.81 KCAL/MOL
REMARK 923 INTER-LIGAND FREE ENERGY PREDICTED BY IDOCK:   -4.60 KCAL/MOL
REMARK 924 INTRA-LIGAND FREE ENERGY PREDICTED BY IDOCK:   -0.21 KCAL/MOL
REMARK 927      BINDING AFFINITY PREDICTED BY RF-SCORE:    0.00 PKD
ROOT
HETATM    1  C   UNL     1     -12.194   7.353  71.711  1.00  0.00    -0.359 C  
HETATM    2  C   UNL     1     -11.060   8.149  72.364  1.00  0.00    -0.369 C  
HETATM    3  C   UNL     1     -10.298   7.242  73.334  1.00  0.00    -0.410 C  
ENDROOT
BRANCH   2   4
HETATM    4  N   UNL     1     -10.197   8.677  71.301  1.00  0.00    -0.218 NA 
HETATM    5  H   UNL     1      -9.423   8.038  71.117  1.00  0.00     0.000 HD 
BRANCH   4   6
HETATM    6  C   UNL     1     -10.912   8.994  70.054  1.00  0.00    -0.214 C  
BRANCH   6   7
HETATM    7  C   UNL     1     -10.002   9.767  69.064  1.00  0.00    -0.184 C  
HETATM    8  H   UNL     1      -8.991   9.388  67.399  1.00  0.00     0.000 HD 
HETATM    9  O   UNL     1      -9.548   8.915  68.006  1.00  0.00    -0.144 OA 
BRANCH   7  10
HETATM   10  C   UNL     1     -10.712  10.975  68.485  1.00  0.00    -0.236 A  
HETATM   11  C   UNL     1     -10.914  11.127  67.102  1.00  0.00    -0.350 A  
HETATM   12  C   UNL     1     -11.578  12.250  66.618  1.00  0.00    -0.375 A  
HETATM   13  O   UNL     1     -11.782  12.447  65.280  1.00  0.00    -0.362 OA 
HETATM   14  C   UNL     1     -12.054  13.221  67.494  1.00  0.00    -0.264 A  
HETATM   15  H   UNL     1     -12.236  13.213  64.949  1.00  0.00     0.000 HD 
HETATM   16  C   UNL     1     -11.881  13.086  68.861  1.00  0.00    -0.358 A  
HETATM   17  O   UNL     1     -12.693  14.324  67.006  1.00  0.00    -0.483 OA 
HETATM   18  C   UNL     1     -11.212  11.964  69.356  1.00  0.00    -0.278 A  
HETATM   19  H   UNL     1     -13.017  14.987  67.604  1.00  0.00     0.000 HD 
ENDBRANCH   7  10
ENDBRANCH   6   7
ENDBRANCH   4   6
ENDBRANCH   2   4
TORSDOF 4
ENDMDL
MODEL      171
REMARK 921   NORMALIZED FREE ENERGY PREDICTED BY IDOCK:   -3.66 KCAL/MOL
REMARK 922        TOTAL FREE ENERGY PREDICTED BY IDOCK:   -4.81 KCAL/MOL
REMARK 923 INTER-LIGAND FREE ENERGY PREDICTED BY IDOCK:   -4.38 KCAL/MOL
REMARK 924 INTRA-LIGAND FREE ENERGY PREDICTED BY IDOCK:   -0.42 KCAL/MOL
REMARK 927      BINDING AFFINITY PREDICTED BY RF-SCORE:    0.00 PKD
ROOT
HETATM    1  C   UNL     1      -9.041  11.512  65.999  1.00  0.00    -0.206 C  
HETATM    2  C   UNL     1      -8.238  11.036  67.213  1.00  0.00    -0.125 C  
HETATM    3  C   UNL     1      -8.223  12.139  68.275  1.00  0.00    -0.168 C  
ENDROOT
BRANCH   2   4
HETATM    4  N   UNL     1      -8.845   9.795  67.708  1.00  0.00    -0.129 NA 
HETATM    5  H   UNL     1      -8.190   9.017  67.623  1.00  0.00     0.000 HD 
BRANCH   4   6
HETATM    6  C   UNL     1      -9.358   9.890  69.084  1.00  0.00    -0.193 C  
BRANCH   6   7
HETATM    7  C   UNL     1     -10.848   9.465  69.159  1.00  0.00    -0.155 C  
HETATM    8  H   UNL     1     -11.891   7.859  69.683  1.00  0.00     0.000 HD 
HETATM    9  O   UNL     1     -10.979   8.120  69.636  1.00  0.00    -0.201 OA 
BRANCH   7  10
HETATM   10  C   UNL     1     -11.650  10.403  70.039  1.00  0.00    -0.378 A  
HETATM   11  C   UNL     1     -11.618  11.798  69.863  1.00  0.00    -0.351 A  
HETATM   12  C   UNL     1     -12.378  12.618  70.691  1.00  0.00    -0.290 A  
HETATM   13  O   UNL     1     -12.366  13.981  70.567  1.00  0.00    -0.324 OA 
HETATM   14  C   UNL     1     -13.180  12.068  71.687  1.00  0.00    -0.260 A  
HETATM   15  H   UNL     1     -12.885  14.541  71.132  1.00  0.00     0.000 HD 
HETATM   16  C   UNL     1     -13.241  10.697  71.870  1.00  0.00    -0.528 A  
HETATM   17  O   UNL     1     -13.912  12.884  72.500  1.00  0.00    -0.635 OA 
HETATM   18  C   UNL     1     -12.478   9.866  71.046  1.00  0.00    -0.441 A  
HETATM   19  H   UNL     1     -14.459  12.508  73.181  1.00  0.00     0.000 HD 
ENDBRANCH   7  10
ENDBRANCH   6   7
ENDBRANCH   4   6
ENDBRANCH   2   4
TORSDOF 4
ENDMDL
MODEL      172
REMARK 921   NORMALIZED FREE ENERGY PREDICTED BY IDOCK:   -3.64 KCAL/MOL
REMARK 922        TOTAL FREE ENERGY PREDICTED BY IDOCK:   -4.79 KCAL/MOL
REMARK 923 INTER-LIGAND FREE ENERGY PREDICTED BY IDOCK:   -4.68 KCAL/MOL
REMARK 924 INTRA-LIGAND FREE ENERGY PREDICTED BY IDOCK:   -0.10 KCAL/MOL
REMARK 927      BINDING AFFINITY PREDICTED BY RF-SCORE:    0.00 PKD
ROOT
HETATM    1  C   UNL     1     -10.459   8.546  71.880  1.00  0.00    -0.387 C  
HETATM    2  C   UNL     1      -9.322   9.137  71.042  1.00  0.00    -0.263 C  
HETATM    3  C   UNL     1      -8.712   8.038  70.168  1.00  0.00    -0.135 C  
ENDROOT
BRANCH   2   4
HETATM    4  N   UNL     1      -9.863  10.244  70.246  1.00  0.00    -0.367 NA 
HETATM    5  H   UNL     1      -9.468  10.236  69.305  1.00  0.00     0.000 HD 
BRANCH   4   6
HETATM    6  C   UNL     1     -11.333  10.275  70.189  1.00  0.00    -0.316 C  
BRANCH   6   7
HETATM    7  C   UNL     1     -11.833  11.033  68.931  1.00  0.00    -0.308 C  
HETATM    8  H   UNL     1     -11.996  12.914  68.321  1.00  0.00     0.000 HD 
HETATM    9  O   UNL     1     -11.690  12.450  69.091  1.00  0.00    -0.288 OA 
BRANCH   7  10
HETATM   10  C   UNL     1     -11.103  10.579  67.682  1.00  0.00    -0.375 A  
HETATM   11  C   UNL     1     -10.728  11.480  66.671  1.00  0.00    -0.311 A  
HETATM   12  C   UNL     1     -10.052  11.017  65.546  1.00  0.00    -0.261 A  
HETATM   13  O   UNL     1      -9.682  11.855  64.530  1.00  0.00    -0.387 OA 
HETATM   14  C   UNL     1      -9.735   9.668  65.419  1.00  0.00    -0.295 A  
HETATM   15  H   UNL     1      -9.221  11.540  63.762  1.00  0.00     0.000 HD 
HETATM   16  C   UNL     1     -10.079   8.764  66.409  1.00  0.00    -0.313 A  
HETATM   17  O   UNL     1      -9.082   9.224  64.305  1.00  0.00    -0.405 OA 
HETATM   18  C   UNL     1     -10.762   9.219  67.540  1.00  0.00    -0.272 A  
HETATM   19  H   UNL     1      -8.866   8.303  64.218  1.00  0.00     0.000 HD 
ENDBRANCH   7  10
ENDBRANCH   6   7
ENDBRANCH   4   6
ENDBRANCH   2   4
TORSDOF 4
ENDMDL
MODEL      173
REMARK 921   NORMALIZED FREE ENERGY PREDICTED BY IDOCK:   -3.63 KCAL/MOL
REMARK 922        TOTAL FREE ENERGY PREDICTED BY IDOCK:   -4.76 KCAL/MOL
REMARK 923 INTER-LIGAND FREE ENERGY PREDICTED BY IDOCK:   -4.45 KCAL/MOL
REMARK 924 INTRA-LIGAND FREE ENERGY PREDICTED BY IDOCK:   -0.32 KCAL/MOL
REMARK 927      BINDING AFFINITY PREDICTED BY RF-SCORE:    0.00 PKD
ROOT
HETATM    1  C   UNL     1     -12.264  14.669  64.534  1.00  0.00    -0.473 C  
HETATM    2  C   UNL     1     -12.455  13.151  64.600  1.00  0.00    -0.373 C  
HETATM    3  C   UNL     1     -11.622  12.487  63.501  1.00  0.00    -0.584 C  
ENDROOT
BRANCH   2   4
HETATM    4  N   UNL     1     -12.071  12.697  65.941  1.00  0.00    -0.563 NA 
HETATM    5  H   UNL     1     -12.758  12.037  66.307  1.00  0.00     0.000 HD 
BRANCH   4   6
HETATM    6  C   UNL     1     -10.716  12.125  66.012  1.00  0.00    -0.273 C  
BRANCH   6   7
HETATM    7  C   UNL     1     -10.037  12.454  67.367  1.00  0.00    -0.201 C  
HETATM    8  H   UNL     1      -8.876  11.531  68.688  1.00  0.00     0.000 HD 
HETATM    9  O   UNL     1      -9.293  11.331  67.857  1.00  0.00    -0.153 OA 
BRANCH   7  10
HETATM   10  C   UNL     1      -9.129  13.663  67.256  1.00  0.00    -0.228 A  
HETATM   11  C   UNL     1      -9.604  14.911  66.817  1.00  0.00    -0.265 A  
HETATM   12  C   UNL     1      -8.734  15.995  66.739  1.00  0.00    -0.253 A  
HETATM   13  O   UNL     1      -9.148  17.224  66.302  1.00  0.00    -0.338 OA 
HETATM   14  C   UNL     1      -7.398  15.855  67.103  1.00  0.00    -0.223 A  
HETATM   15  H   UNL     1      -8.555  17.963  66.249  1.00  0.00     0.000 HD 
HETATM   16  C   UNL     1      -6.911  14.640  67.552  1.00  0.00    -0.174 A  
HETATM   17  O   UNL     1      -6.552  16.922  67.010  1.00  0.00    -0.166 OA 
HETATM   18  C   UNL     1      -7.775  13.546  67.630  1.00  0.00    -0.180 A  
HETATM   19  H   UNL     1      -5.640  16.826  67.258  1.00  0.00     0.000 HD 
ENDBRANCH   7  10
ENDBRANCH   6   7
ENDBRANCH   4   6
ENDBRANCH   2   4
TORSDOF 4
ENDMDL
MODEL      174
REMARK 921   NORMALIZED FREE ENERGY PREDICTED BY IDOCK:   -3.62 KCAL/MOL
REMARK 922        TOTAL FREE ENERGY PREDICTED BY IDOCK:   -4.75 KCAL/MOL
REMARK 923 INTER-LIGAND FREE ENERGY PREDICTED BY IDOCK:   -4.51 KCAL/MOL
REMARK 924 INTRA-LIGAND FREE ENERGY PREDICTED BY IDOCK:   -0.24 KCAL/MOL
REMARK 927      BINDING AFFINITY PREDICTED BY RF-SCORE:    0.00 PKD
ROOT
HETATM    1  C   UNL     1      -8.322  10.096  67.139  1.00  0.00    -0.125 C  
HETATM    2  C   UNL     1      -8.647  10.562  65.717  1.00  0.00    -0.173 C  
HETATM    3  C   UNL     1      -9.907   9.845  65.225  1.00  0.00    -0.373 C  
ENDROOT
BRANCH   2   4
HETATM    4  N   UNL     1      -8.810  12.021  65.736  1.00  0.00    -0.412 NA 
HETATM    5  H   UNL     1      -8.937  12.380  64.790  1.00  0.00     0.000 HD 
BRANCH   4   6
HETATM    6  C   UNL     1      -9.892  12.489  66.617  1.00  0.00    -0.241 C  
BRANCH   6   7
HETATM    7  C   UNL     1      -9.381  13.560  67.616  1.00  0.00    -0.216 C  
HETATM    8  H   UNL     1      -8.443  15.308  67.539  1.00  0.00     0.000 HD 
HETATM    9  O   UNL     1      -8.756  14.651  66.928  1.00  0.00    -0.225 OA 
BRANCH   7  10
HETATM   10  C   UNL     1     -10.502  14.080  68.494  1.00  0.00    -0.251 A  
HETATM   11  C   UNL     1     -11.149  13.262  69.436  1.00  0.00    -0.148 A  
HETATM   12  C   UNL     1     -12.167  13.787  70.226  1.00  0.00    -0.359 A  
HETATM   13  O   UNL     1     -12.836  13.024  71.144  1.00  0.00    -0.323 OA 
HETATM   14  C   UNL     1     -12.544  15.121  70.099  1.00  0.00    -0.279 A  
HETATM   15  H   UNL     1     -13.531  13.382  71.684  1.00  0.00     0.000 HD 
HETATM   16  C   UNL     1     -11.910  15.951  69.189  1.00  0.00    -0.340 A  
HETATM   17  O   UNL     1     -13.552  15.621  70.871  1.00  0.00    -0.780 OA 
HETATM   18  C   UNL     1     -10.890  15.431  68.389  1.00  0.00    -0.268 A  
HETATM   19  H   UNL     1     -13.809  16.532  70.783  1.00  0.00     0.000 HD 
ENDBRANCH   7  10
ENDBRANCH   6   7
ENDBRANCH   4   6
ENDBRANCH   2   4
TORSDOF 4
ENDMDL
MODEL      175
REMARK 921   NORMALIZED FREE ENERGY PREDICTED BY IDOCK:   -3.59 KCAL/MOL
REMARK 922        TOTAL FREE ENERGY PREDICTED BY IDOCK:   -4.72 KCAL/MOL
REMARK 923 INTER-LIGAND FREE ENERGY PREDICTED BY IDOCK:   -4.46 KCAL/MOL
REMARK 924 INTRA-LIGAND FREE ENERGY PREDICTED BY IDOCK:   -0.26 KCAL/MOL
REMARK 927      BINDING AFFINITY PREDICTED BY RF-SCORE:    0.00 PKD
ROOT
HETATM    1  C   UNL     1     -10.621   5.771  66.871  1.00  0.00    -0.377 C  
HETATM    2  C   UNL     1      -9.594   6.908  66.861  1.00  0.00    -0.162 C  
HETATM    3  C   UNL     1      -8.508   6.599  65.827  1.00  0.00    -0.150 C  
ENDROOT
BRANCH   2   4
HETATM    4  N   UNL     1     -10.298   8.162  66.571  1.00  0.00    -0.451 NA 
HETATM    5  H   UNL     1     -10.709   8.547  67.422  1.00  0.00     0.000 HD 
BRANCH   4   6
HETATM    6  C   UNL     1      -9.466   9.171  65.897  1.00  0.00    -0.259 C  
BRANCH   6   7
HETATM    7  C   UNL     1      -8.907  10.207  66.907  1.00  0.00    -0.132 C  
HETATM    8  H   UNL     1      -7.319  11.386  67.071  1.00  0.00     0.000 HD 
HETATM    9  O   UNL     1      -7.662  10.751  66.452  1.00  0.00    -0.134 OA 
BRANCH   7  10
HETATM   10  C   UNL     1      -9.897  11.326  67.161  1.00  0.00    -0.213 A  
HETATM   11  C   UNL     1      -9.959  11.998  68.394  1.00  0.00    -0.209 A  
HETATM   12  C   UNL     1     -10.880  13.025  68.577  1.00  0.00    -0.258 A  
HETATM   13  O   UNL     1     -10.988  13.696  69.765  1.00  0.00    -0.456 OA 
HETATM   14  C   UNL     1     -11.734  13.401  67.544  1.00  0.00    -0.366 A  
HETATM   15  H   UNL     1     -11.616  14.397  69.891  1.00  0.00     0.000 HD 
HETATM   16  C   UNL     1     -11.680  12.765  66.316  1.00  0.00    -0.460 A  
HETATM   17  O   UNL     1     -12.640  14.402  67.740  1.00  0.00    -0.516 OA 
HETATM   18  C   UNL     1     -10.762  11.730  66.124  1.00  0.00    -0.320 A  
HETATM   19  H   UNL     1     -13.223  14.658  67.035  1.00  0.00     0.000 HD 
ENDBRANCH   7  10
ENDBRANCH   6   7
ENDBRANCH   4   6
ENDBRANCH   2   4
TORSDOF 4
ENDMDL
MODEL      176
REMARK 921   NORMALIZED FREE ENERGY PREDICTED BY IDOCK:   -3.57 KCAL/MOL
REMARK 922        TOTAL FREE ENERGY PREDICTED BY IDOCK:   -4.69 KCAL/MOL
REMARK 923 INTER-LIGAND FREE ENERGY PREDICTED BY IDOCK:   -4.47 KCAL/MOL
REMARK 924 INTRA-LIGAND FREE ENERGY PREDICTED BY IDOCK:   -0.22 KCAL/MOL
REMARK 927      BINDING AFFINITY PREDICTED BY RF-SCORE:    0.00 PKD
ROOT
HETATM    1  C   UNL     1     -10.319  16.071  65.468  1.00  0.00    -0.415 C  
HETATM    2  C   UNL     1     -10.799  14.618  65.530  1.00  0.00    -0.345 C  
HETATM    3  C   UNL     1     -11.902  14.404  64.490  1.00  0.00    -0.463 C  
ENDROOT
BRANCH   2   4
HETATM    4  N   UNL     1      -9.643  13.742  65.302  1.00  0.00    -0.540 NA 
HETATM    5  H   UNL     1      -8.774  14.272  65.367  1.00  0.00     0.000 HD 
BRANCH   4   6
HETATM    6  C   UNL     1      -9.602  12.568  66.188  1.00  0.00    -0.228 C  
BRANCH   6   7
HETATM    7  C   UNL     1     -10.349  11.362  65.561  1.00  0.00    -0.266 C  
HETATM    8  H   UNL     1     -10.353  10.372  63.840  1.00  0.00     0.000 HD 
HETATM    9  O   UNL     1      -9.895  11.111  64.225  1.00  0.00    -0.243 OA 
BRANCH   7  10
HETATM   10  C   UNL     1     -10.192  10.111  66.402  1.00  0.00    -0.288 A  
HETATM   11  C   UNL     1     -10.653  10.044  67.728  1.00  0.00    -0.311 A  
HETATM   12  C   UNL     1     -10.493   8.870  68.458  1.00  0.00    -0.182 A  
HETATM   13  O   UNL     1     -10.912   8.764  69.757  1.00  0.00    -0.322 OA 
HETATM   14  C   UNL     1      -9.889   7.757  67.882  1.00  0.00    -0.160 A  
HETATM   15  H   UNL     1     -10.803   7.964  70.256  1.00  0.00     0.000 HD 
HETATM   16  C   UNL     1      -9.441   7.793  66.573  1.00  0.00    -0.262 A  
HETATM   17  O   UNL     1      -9.727   6.615  68.613  1.00  0.00    -0.130 OA 
HETATM   18  C   UNL     1      -9.594   8.969  65.833  1.00  0.00    -0.317 A  
HETATM   19  H   UNL     1      -9.314   5.856  68.219  1.00  0.00     0.000 HD 
ENDBRANCH   7  10
ENDBRANCH   6   7
ENDBRANCH   4   6
ENDBRANCH   2   4
TORSDOF 4
ENDMDL
MODEL      177
REMARK 921   NORMALIZED FREE ENERGY PREDICTED BY IDOCK:   -3.56 KCAL/MOL
REMARK 922        TOTAL FREE ENERGY PREDICTED BY IDOCK:   -4.68 KCAL/MOL
REMARK 923 INTER-LIGAND FREE ENERGY PREDICTED BY IDOCK:   -4.44 KCAL/MOL
REMARK 924 INTRA-LIGAND FREE ENERGY PREDICTED BY IDOCK:   -0.24 KCAL/MOL
REMARK 927      BINDING AFFINITY PREDICTED BY RF-SCORE:    0.00 PKD
ROOT
HETATM    1  C   UNL     1      -6.753   9.973  69.229  1.00  0.00    -0.057 C  
HETATM    2  C   UNL     1      -6.931   8.802  70.200  1.00  0.00    -0.044 C  
HETATM    3  C   UNL     1      -6.170   9.098  71.495  1.00  0.00    -0.069 C  
ENDROOT
BRANCH   2   4
HETATM    4  N   UNL     1      -8.367   8.609  70.430  1.00  0.00    -0.120 NA 
HETATM    5  H   UNL     1      -8.732   9.333  71.049  1.00  0.00     0.000 HD 
BRANCH   4   6
HETATM    6  C   UNL     1      -9.165   8.535  69.196  1.00  0.00    -0.150 C  
BRANCH   6   7
HETATM    7  C   UNL     1     -10.586   7.979  69.475  1.00  0.00    -0.214 C  
HETATM    8  H   UNL     1     -11.393   6.400  70.367  1.00  0.00     0.000 HD 
HETATM    9  O   UNL     1     -10.523   6.741  70.195  1.00  0.00    -0.198 OA 
BRANCH   7  10
HETATM   10  C   UNL     1     -11.433   8.977  70.239  1.00  0.00    -0.147 A  
HETATM   11  C   UNL     1     -12.326   8.576  71.248  1.00  0.00    -0.301 A  
HETATM   12  C   UNL     1     -13.078   9.530  71.927  1.00  0.00    -0.428 A  
HETATM   13  O   UNL     1     -13.971   9.186  72.904  1.00  0.00    -0.939 OA 
HETATM   14  C   UNL     1     -12.944  10.882  71.623  1.00  0.00    -0.464 A  
HETATM   15  H   UNL     1     -14.484   9.836  73.368  1.00  0.00     0.000 HD 
HETATM   16  C   UNL     1     -12.059  11.303  70.645  1.00  0.00    -0.480 A  
HETATM   17  O   UNL     1     -13.695  11.808  72.288  1.00  0.00    -0.459 OA 
HETATM   18  C   UNL     1     -11.304  10.351  69.955  1.00  0.00    -0.370 A  
HETATM   19  H   UNL     1     -13.604  12.730  72.080  1.00  0.00     0.000 HD 
ENDBRANCH   7  10
ENDBRANCH   6   7
ENDBRANCH   4   6
ENDBRANCH   2   4
TORSDOF 4
ENDMDL
MODEL      178
REMARK 921   NORMALIZED FREE ENERGY PREDICTED BY IDOCK:   -3.55 KCAL/MOL
REMARK 922        TOTAL FREE ENERGY PREDICTED BY IDOCK:   -4.67 KCAL/MOL
REMARK 923 INTER-LIGAND FREE ENERGY PREDICTED BY IDOCK:   -4.44 KCAL/MOL
REMARK 924 INTRA-LIGAND FREE ENERGY PREDICTED BY IDOCK:   -0.23 KCAL/MOL
REMARK 927      BINDING AFFINITY PREDICTED BY RF-SCORE:    0.00 PKD
ROOT
HETATM    1  C   UNL     1     -10.775  12.038  67.303  1.00  0.00    -0.269 C  
HETATM    2  C   UNL     1     -10.953  11.623  68.767  1.00  0.00    -0.226 C  
HETATM    3  C   UNL     1     -11.850  12.641  69.476  1.00  0.00    -0.376 C  
ENDROOT
BRANCH   2   4
HETATM    4  N   UNL     1     -11.517  10.269  68.796  1.00  0.00    -0.478 NA 
HETATM    5  H   UNL     1     -12.530  10.300  68.676  1.00  0.00     0.000 HD 
BRANCH   4   6
HETATM    6  C   UNL     1     -10.909   9.348  67.824  1.00  0.00    -0.159 C  
BRANCH   6   7
HETATM    7  C   UNL     1      -9.815   8.471  68.488  1.00  0.00    -0.173 C  
HETATM    8  H   UNL     1      -7.855   8.553  68.795  1.00  0.00     0.000 HD 
HETATM    9  O   UNL     1      -8.526   9.089  68.389  1.00  0.00    -0.126 OA 
BRANCH   7  10
HETATM   10  C   UNL     1     -10.138   8.183  69.941  1.00  0.00    -0.195 A  
HETATM   11  C   UNL     1     -11.221   7.369  70.315  1.00  0.00    -0.268 A  
HETATM   12  C   UNL     1     -11.473   7.128  71.662  1.00  0.00    -0.266 A  
HETATM   13  O   UNL     1     -12.525   6.356  72.073  1.00  0.00    -0.443 OA 
HETATM   14  C   UNL     1     -10.653   7.678  72.644  1.00  0.00    -0.299 A  
HETATM   15  H   UNL     1     -12.697   6.191  72.993  1.00  0.00     0.000 HD 
HETATM   16  C   UNL     1      -9.571   8.470  72.299  1.00  0.00    -0.377 A  
HETATM   17  O   UNL     1     -10.918   7.444  73.962  1.00  0.00    -0.520 OA 
HETATM   18  C   UNL     1      -9.313   8.721  70.949  1.00  0.00    -0.266 A  
HETATM   19  H   UNL     1     -10.359   7.820  74.631  1.00  0.00     0.000 HD 
ENDBRANCH   7  10
ENDBRANCH   6   7
ENDBRANCH   4   6
ENDBRANCH   2   4
TORSDOF 4
ENDMDL
MODEL      179
REMARK 921   NORMALIZED FREE ENERGY PREDICTED BY IDOCK:   -3.55 KCAL/MOL
REMARK 922        TOTAL FREE ENERGY PREDICTED BY IDOCK:   -4.67 KCAL/MOL
REMARK 923 INTER-LIGAND FREE ENERGY PREDICTED BY IDOCK:   -4.43 KCAL/MOL
REMARK 924 INTRA-LIGAND FREE ENERGY PREDICTED BY IDOCK:   -0.24 KCAL/MOL
REMARK 927      BINDING AFFINITY PREDICTED BY RF-SCORE:    0.00 PKD
ROOT
HETATM    1  C   UNL     1      -6.514  12.189  69.222  1.00  0.00    -0.111 C  
HETATM    2  C   UNL     1      -6.743  11.761  67.770  1.00  0.00    -0.082 C  
HETATM    3  C   UNL     1      -5.654  10.766  67.358  1.00  0.00    -0.044 C  
ENDROOT
BRANCH   2   4
HETATM    4  N   UNL     1      -8.089  11.187  67.665  1.00  0.00    -0.115 NA 
HETATM    5  H   UNL     1      -8.749  11.715  68.237  1.00  0.00     0.000 HD 
BRANCH   4   6
HETATM    6  C   UNL     1      -8.581  11.068  66.284  1.00  0.00    -0.167 C  
BRANCH   6   7
HETATM    7  C   UNL     1     -10.128  10.956  66.244  1.00  0.00    -0.233 C  
HETATM    8  H   UNL     1     -11.614  10.708  67.536  1.00  0.00     0.000 HD 
HETATM    9  O   UNL     1     -10.666  10.776  67.560  1.00  0.00    -0.226 OA 
BRANCH   7  10
HETATM   10  C   UNL     1     -10.756  12.171  65.592  1.00  0.00    -0.312 A  
HETATM   11  C   UNL     1     -10.186  13.452  65.697  1.00  0.00    -0.300 A  
HETATM   12  C   UNL     1     -10.796  14.536  65.074  1.00  0.00    -0.412 A  
HETATM   13  O   UNL     1     -10.286  15.802  65.164  1.00  0.00    -0.430 OA 
HETATM   14  C   UNL     1     -11.964  14.361  64.336  1.00  0.00    -0.452 A  
HETATM   15  H   UNL     1     -10.702  16.542  64.738  1.00  0.00     0.000 HD 
HETATM   16  C   UNL     1     -12.536  13.107  64.205  1.00  0.00    -0.348 A  
HETATM   17  O   UNL     1     -12.559  15.434  63.740  1.00  0.00    -0.911 OA 
HETATM   18  C   UNL     1     -11.932  12.014  64.830  1.00  0.00    -0.286 A  
HETATM   19  H   UNL     1     -13.356  15.315  63.237  1.00  0.00     0.000 HD 
ENDBRANCH   7  10
ENDBRANCH   6   7
ENDBRANCH   4   6
ENDBRANCH   2   4
TORSDOF 4
ENDMDL
MODEL      180
REMARK 921   NORMALIZED FREE ENERGY PREDICTED BY IDOCK:   -3.54 KCAL/MOL
REMARK 922        TOTAL FREE ENERGY PREDICTED BY IDOCK:   -4.66 KCAL/MOL
REMARK 923 INTER-LIGAND FREE ENERGY PREDICTED BY IDOCK:   -4.54 KCAL/MOL
REMARK 924 INTRA-LIGAND FREE ENERGY PREDICTED BY IDOCK:   -0.12 KCAL/MOL
REMARK 927      BINDING AFFINITY PREDICTED BY RF-SCORE:    0.00 PKD
ROOT
HETATM    1  C   UNL     1      -9.172  13.187  66.447  1.00  0.00    -0.134 C  
HETATM    2  C   UNL     1      -9.710  14.462  67.103  1.00  0.00    -0.248 C  
HETATM    3  C   UNL     1     -11.067  14.815  66.488  1.00  0.00    -0.334 C  
ENDROOT
BRANCH   2   4
HETATM    4  N   UNL     1      -9.798  14.233  68.550  1.00  0.00    -0.228 NA 
HETATM    5  H   UNL     1      -8.961  13.758  68.890  1.00  0.00     0.000 HD 
BRANCH   4   6
HETATM    6  C   UNL     1     -10.052  15.453  69.332  1.00  0.00    -0.269 C  
BRANCH   6   7
HETATM    7  C   UNL     1      -8.880  16.460  69.203  1.00  0.00    -0.186 C  
HETATM    8  H   UNL     1      -6.939  16.406  68.791  1.00  0.00     0.000 HD 
HETATM    9  O   UNL     1      -7.657  15.790  68.870  1.00  0.00    -0.154 OA 
BRANCH   7  10
HETATM   10  C   UNL     1      -9.177  17.531  68.172  1.00  0.00    -0.277 A  
HETATM   11  C   UNL     1      -8.231  17.919  67.208  1.00  0.00    -0.225 A  
HETATM   12  C   UNL     1      -8.553  18.902  66.277  1.00  0.00    -0.257 A  
HETATM   13  O   UNL     1      -7.658  19.323  65.331  1.00  0.00    -0.403 OA 
HETATM   14  C   UNL     1      -9.811  19.498  66.286  1.00  0.00    -0.429 A  
HETATM   15  H   UNL     1      -7.878  19.993  64.696  1.00  0.00     0.000 HD 
HETATM   16  C   UNL     1     -10.765  19.121  67.215  1.00  0.00    -0.585 A  
HETATM   17  O   UNL     1     -10.111  20.469  65.375  1.00  0.00    -0.447 OA 
HETATM   18  C   UNL     1     -10.449  18.138  68.156  1.00  0.00    -0.365 A  
HETATM   19  H   UNL     1     -10.969  20.875  65.381  1.00  0.00     0.000 HD 
ENDBRANCH   7  10
ENDBRANCH   6   7
ENDBRANCH   4   6
ENDBRANCH   2   4
TORSDOF 4
ENDMDL
MODEL      181
REMARK 921   NORMALIZED FREE ENERGY PREDICTED BY IDOCK:   -3.54 KCAL/MOL
REMARK 922        TOTAL FREE ENERGY PREDICTED BY IDOCK:   -4.66 KCAL/MOL
REMARK 923 INTER-LIGAND FREE ENERGY PREDICTED BY IDOCK:   -4.43 KCAL/MOL
REMARK 924 INTRA-LIGAND FREE ENERGY PREDICTED BY IDOCK:   -0.23 KCAL/MOL
REMARK 927      BINDING AFFINITY PREDICTED BY RF-SCORE:    0.00 PKD
ROOT
HETATM    1  C   UNL     1     -11.309   7.995  72.455  1.00  0.00    -0.443 C  
HETATM    2  C   UNL     1     -12.007   7.180  71.363  1.00  0.00    -0.328 C  
HETATM    3  C   UNL     1     -13.499   7.068  71.690  1.00  0.00    -0.350 C  
ENDROOT
BRANCH   2   4
HETATM    4  N   UNL     1     -11.769   7.838  70.073  1.00  0.00    -0.456 NA 
HETATM    5  H   UNL     1     -12.259   8.732  70.031  1.00  0.00     0.000 HD 
BRANCH   4   6
HETATM    6  C   UNL     1     -10.345   8.013  69.747  1.00  0.00    -0.219 C  
BRANCH   6   7
HETATM    7  C   UNL     1     -10.084   7.804  68.232  1.00  0.00    -0.192 C  
HETATM    8  H   UNL     1     -10.915   6.819  66.723  1.00  0.00     0.000 HD 
HETATM    9  O   UNL     1     -11.074   6.947  67.651  1.00  0.00    -0.242 OA 
BRANCH   7  10
HETATM   10  C   UNL     1     -10.043   9.124  67.488  1.00  0.00    -0.284 A  
HETATM   11  C   UNL     1     -10.152  10.357  68.152  1.00  0.00    -0.179 A  
HETATM   12  C   UNL     1     -10.101  11.543  67.426  1.00  0.00    -0.191 A  
HETATM   13  O   UNL     1     -10.220  12.766  68.029  1.00  0.00    -0.215 OA 
HETATM   14  C   UNL     1      -9.931  11.518  66.045  1.00  0.00    -0.224 A  
HETATM   15  H   UNL     1     -10.185  13.575  67.533  1.00  0.00     0.000 HD 
HETATM   16  C   UNL     1      -9.805  10.316  65.369  1.00  0.00    -0.362 A  
HETATM   17  O   UNL     1      -9.895  12.688  65.342  1.00  0.00    -0.380 OA 
HETATM   18  C   UNL     1      -9.859   9.121  66.090  1.00  0.00    -0.363 A  
HETATM   19  H   UNL     1      -9.780  12.670  64.399  1.00  0.00     0.000 HD 
ENDBRANCH   7  10
ENDBRANCH   6   7
ENDBRANCH   4   6
ENDBRANCH   2   4
TORSDOF 4
ENDMDL
MODEL      182
REMARK 921   NORMALIZED FREE ENERGY PREDICTED BY IDOCK:   -3.54 KCAL/MOL
REMARK 922        TOTAL FREE ENERGY PREDICTED BY IDOCK:   -4.66 KCAL/MOL
REMARK 923 INTER-LIGAND FREE ENERGY PREDICTED BY IDOCK:   -4.47 KCAL/MOL
REMARK 924 INTRA-LIGAND FREE ENERGY PREDICTED BY IDOCK:   -0.19 KCAL/MOL
REMARK 927      BINDING AFFINITY PREDICTED BY RF-SCORE:    0.00 PKD
ROOT
HETATM    1  C   UNL     1      -8.922  11.376  68.236  1.00  0.00    -0.175 C  
HETATM    2  C   UNL     1      -8.517  11.568  66.771  1.00  0.00    -0.168 C  
HETATM    3  C   UNL     1      -9.090  10.422  65.933  1.00  0.00    -0.192 C  
ENDROOT
BRANCH   2   4
HETATM    4  N   UNL     1      -9.003  12.879  66.327  1.00  0.00    -0.439 NA 
HETATM    5  H   UNL     1      -9.645  12.776  65.541  1.00  0.00     0.000 HD 
BRANCH   4   6
HETATM    6  C   UNL     1      -9.618  13.681  67.396  1.00  0.00    -0.226 C  
BRANCH   6   7
HETATM    7  C   UNL     1      -8.702  14.861  67.814  1.00  0.00    -0.167 C  
HETATM    8  H   UNL     1      -6.866  15.503  67.419  1.00  0.00     0.000 HD 
HETATM    9  O   UNL     1      -7.428  14.781  67.163  1.00  0.00    -0.179 OA 
BRANCH   7  10
HETATM   10  C   UNL     1      -9.348  16.200  67.519  1.00  0.00    -0.217 A  
HETATM   11  C   UNL     1      -9.888  16.503  66.257  1.00  0.00    -0.336 A  
HETATM   12  C   UNL     1     -10.479  17.743  66.036  1.00  0.00    -0.286 A  
HETATM   13  O   UNL     1     -11.002  18.088  64.820  1.00  0.00    -0.706 OA 
HETATM   14  C   UNL     1     -10.549  18.684  67.059  1.00  0.00    -0.397 A  
HETATM   15  H   UNL     1     -11.406  18.934  64.668  1.00  0.00     0.000 HD 
HETATM   16  C   UNL     1     -10.039  18.403  68.315  1.00  0.00    -0.410 A  
HETATM   17  O   UNL     1     -11.120  19.902  66.826  1.00  0.00    -0.286 OA 
HETATM   18  C   UNL     1      -9.440  17.162  68.545  1.00  0.00    -0.282 A  
HETATM   19  H   UNL     1     -11.168  20.544  67.525  1.00  0.00     0.000 HD 
ENDBRANCH   7  10
ENDBRANCH   6   7
ENDBRANCH   4   6
ENDBRANCH   2   4
TORSDOF 4
ENDMDL
MODEL      183
REMARK 921   NORMALIZED FREE ENERGY PREDICTED BY IDOCK:   -3.51 KCAL/MOL
REMARK 922        TOTAL FREE ENERGY PREDICTED BY IDOCK:   -4.62 KCAL/MOL
REMARK 923 INTER-LIGAND FREE ENERGY PREDICTED BY IDOCK:   -4.13 KCAL/MOL
REMARK 924 INTRA-LIGAND FREE ENERGY PREDICTED BY IDOCK:   -0.49 KCAL/MOL
REMARK 927      BINDING AFFINITY PREDICTED BY RF-SCORE:    0.00 PKD
ROOT
HETATM    1  C   UNL     1     -11.895  15.202  69.336  1.00  0.00    -0.357 C  
HETATM    2  C   UNL     1     -11.786  13.905  68.529  1.00  0.00    -0.366 C  
HETATM    3  C   UNL     1     -11.150  14.206  67.169  1.00  0.00    -0.315 C  
ENDROOT
BRANCH   2   4
HETATM    4  N   UNL     1     -11.001  12.942  69.309  1.00  0.00    -0.436 NA 
HETATM    5  H   UNL     1     -10.874  13.274  70.265  1.00  0.00     0.000 HD 
BRANCH   4   6
HETATM    6  C   UNL     1     -11.555  11.579  69.305  1.00  0.00    -0.322 C  
BRANCH   6   7
HETATM    7  C   UNL     1     -10.442  10.519  69.097  1.00  0.00    -0.228 C  
HETATM    8  H   UNL     1     -10.260   8.544  69.191  1.00  0.00     0.000 HD 
HETATM    9  O   UNL     1     -10.941   9.194  69.319  1.00  0.00    -0.179 OA 
BRANCH   7  10
HETATM   10  C   UNL     1      -9.834  10.615  67.711  1.00  0.00    -0.187 A  
HETATM   11  C   UNL     1     -10.627  10.639  66.551  1.00  0.00    -0.257 A  
HETATM   12  C   UNL     1     -10.024  10.736  65.301  1.00  0.00    -0.282 A  
HETATM   13  O   UNL     1     -10.755  10.746  64.144  1.00  0.00    -0.436 OA 
HETATM   14  C   UNL     1      -8.639  10.821  65.190  1.00  0.00    -0.128 A  
HETATM   15  H   UNL     1     -10.343  10.812  63.291  1.00  0.00     0.000 HD 
HETATM   16  C   UNL     1      -7.838  10.815  66.319  1.00  0.00    -0.156 A  
HETATM   17  O   UNL     1      -8.058  10.904  63.958  1.00  0.00    -0.360 OA 
HETATM   18  C   UNL     1      -8.434  10.714  67.578  1.00  0.00    -0.121 A  
HETATM   19  H   UNL     1      -7.113  10.961  63.883  1.00  0.00     0.000 HD 
ENDBRANCH   7  10
ENDBRANCH   6   7
ENDBRANCH   4   6
ENDBRANCH   2   4
TORSDOF 4
ENDMDL
MODEL      184
REMARK 921   NORMALIZED FREE ENERGY PREDICTED BY IDOCK:   -3.49 KCAL/MOL
REMARK 922        TOTAL FREE ENERGY PREDICTED BY IDOCK:   -4.59 KCAL/MOL
REMARK 923 INTER-LIGAND FREE ENERGY PREDICTED BY IDOCK:   -4.33 KCAL/MOL
REMARK 924 INTRA-LIGAND FREE ENERGY PREDICTED BY IDOCK:   -0.26 KCAL/MOL
REMARK 927      BINDING AFFINITY PREDICTED BY RF-SCORE:    0.00 PKD
ROOT
HETATM    1  C   UNL     1      -9.278   7.378  71.211  1.00  0.00    -0.153 C  
HETATM    2  C   UNL     1     -10.729   6.998  70.904  1.00  0.00    -0.235 C  
HETATM    3  C   UNL     1     -11.450   6.656  72.210  1.00  0.00    -0.319 C  
ENDROOT
BRANCH   2   4
HETATM    4  N   UNL     1     -11.359   8.119  70.197  1.00  0.00    -0.446 NA 
HETATM    5  H   UNL     1     -12.357   8.160  70.406  1.00  0.00     0.000 HD 
BRANCH   4   6
HETATM    6  C   UNL     1     -10.723   9.421  70.457  1.00  0.00    -0.276 C  
BRANCH   6   7
HETATM    7  C   UNL     1     -10.616  10.263  69.159  1.00  0.00    -0.230 C  
HETATM    8  H   UNL     1     -11.172  10.110  67.260  1.00  0.00     0.000 HD 
HETATM    9  O   UNL     1     -11.238   9.594  68.055  1.00  0.00    -0.129 OA 
BRANCH   7  10
HETATM   10  C   UNL     1     -11.225  11.640  69.337  1.00  0.00    -0.311 A  
HETATM   11  C   UNL     1     -10.878  12.720  68.508  1.00  0.00    -0.279 A  
HETATM   12  C   UNL     1     -11.471  13.964  68.705  1.00  0.00    -0.292 A  
HETATM   13  O   UNL     1     -11.151  15.048  67.933  1.00  0.00    -0.284 OA 
HETATM   14  C   UNL     1     -12.415  14.144  69.712  1.00  0.00    -0.216 A  
HETATM   15  H   UNL     1     -11.556  15.896  68.068  1.00  0.00     0.000 HD 
HETATM   16  C   UNL     1     -12.785  13.091  70.531  1.00  0.00    -0.111 A  
HETATM   17  O   UNL     1     -12.980  15.371  69.903  1.00  0.00    -0.635 OA 
HETATM   18  C   UNL     1     -12.192  11.840  70.343  1.00  0.00    -0.416 A  
HETATM   19  H   UNL     1     -13.624  15.494  70.591  1.00  0.00     0.000 HD 
ENDBRANCH   7  10
ENDBRANCH   6   7
ENDBRANCH   4   6
ENDBRANCH   2   4
TORSDOF 4
ENDMDL
MODEL      185
REMARK 921   NORMALIZED FREE ENERGY PREDICTED BY IDOCK:   -3.48 KCAL/MOL
REMARK 922        TOTAL FREE ENERGY PREDICTED BY IDOCK:   -4.59 KCAL/MOL
REMARK 923 INTER-LIGAND FREE ENERGY PREDICTED BY IDOCK:   -4.12 KCAL/MOL
REMARK 924 INTRA-LIGAND FREE ENERGY PREDICTED BY IDOCK:   -0.47 KCAL/MOL
REMARK 927      BINDING AFFINITY PREDICTED BY RF-SCORE:    0.00 PKD
ROOT
HETATM    1  C   UNL     1     -12.002  12.650  69.916  1.00  0.00    -0.365 C  
HETATM    2  C   UNL     1     -10.942  11.780  69.235  1.00  0.00    -0.175 C  
HETATM    3  C   UNL     1     -11.396  11.451  67.810  1.00  0.00    -0.354 C  
ENDROOT
BRANCH   2   4
HETATM    4  N   UNL     1      -9.667  12.506  69.258  1.00  0.00    -0.044 NA 
HETATM    5  H   UNL     1      -8.993  12.068  68.630  1.00  0.00     0.000 HD 
BRANCH   4   6
HETATM    6  C   UNL     1      -9.792  13.942  68.962  1.00  0.00     0.059 C  
BRANCH   6   7
HETATM    7  C   UNL     1      -8.847  14.363  67.806  1.00  0.00    -0.186 C  
HETATM    8  H   UNL     1      -7.529  13.498  66.600  1.00  0.00     0.000 HD 
HETATM    9  O   UNL     1      -8.108  13.241  67.308  1.00  0.00    -0.175 OA 
BRANCH   7  10
HETATM   10  C   UNL     1      -9.612  15.020  66.674  1.00  0.00    -0.281 A  
HETATM   11  C   UNL     1     -10.394  14.275  65.774  1.00  0.00    -0.341 A  
HETATM   12  C   UNL     1     -11.084  14.924  64.755  1.00  0.00    -0.383 A  
HETATM   13  O   UNL     1     -11.844  14.239  63.846  1.00  0.00    -0.663 OA 
HETATM   14  C   UNL     1     -11.016  16.308  64.625  1.00  0.00    -0.194 A  
HETATM   15  H   UNL     1     -12.316  14.681  63.151  1.00  0.00     0.000 HD 
HETATM   16  C   UNL     1     -10.265  17.065  65.509  1.00  0.00    -0.111 A  
HETATM   17  O   UNL     1     -11.688  16.932  63.615  1.00  0.00    -0.616 OA 
HETATM   18  C   UNL     1      -9.565  16.422  66.533  1.00  0.00    -0.291 A  
HETATM   19  H   UNL     1     -11.640  17.877  63.526  1.00  0.00     0.000 HD 
ENDBRANCH   7  10
ENDBRANCH   6   7
ENDBRANCH   4   6
ENDBRANCH   2   4
TORSDOF 4
ENDMDL
MODEL      186
REMARK 921   NORMALIZED FREE ENERGY PREDICTED BY IDOCK:   -3.48 KCAL/MOL
REMARK 922        TOTAL FREE ENERGY PREDICTED BY IDOCK:   -4.59 KCAL/MOL
REMARK 923 INTER-LIGAND FREE ENERGY PREDICTED BY IDOCK:   -4.43 KCAL/MOL
REMARK 924 INTRA-LIGAND FREE ENERGY PREDICTED BY IDOCK:   -0.16 KCAL/MOL
REMARK 927      BINDING AFFINITY PREDICTED BY RF-SCORE:    0.00 PKD
ROOT
HETATM    1  C   UNL     1     -12.659  14.044  65.413  1.00  0.00    -0.529 C  
HETATM    2  C   UNL     1     -11.654  12.936  65.739  1.00  0.00    -0.368 C  
HETATM    3  C   UNL     1     -10.256  13.546  65.875  1.00  0.00    -0.306 C  
ENDROOT
BRANCH   2   4
HETATM    4  N   UNL     1     -12.090  12.265  66.968  1.00  0.00    -0.543 NA 
HETATM    5  H   UNL     1     -12.201  11.263  66.809  1.00  0.00     0.000 HD 
BRANCH   4   6
HETATM    6  C   UNL     1     -11.215  12.511  68.125  1.00  0.00    -0.267 C  
BRANCH   6   7
HETATM    7  C   UNL     1     -11.280  11.339  69.139  1.00  0.00    -0.273 C  
HETATM    8  H   UNL     1     -12.662  10.143  69.913  1.00  0.00     0.000 HD 
HETATM    9  O   UNL     1     -12.622  10.861  69.292  1.00  0.00    -0.356 OA 
BRANCH   7  10
HETATM   10  C   UNL     1     -10.371  10.197  68.729  1.00  0.00    -0.211 A  
HETATM   11  C   UNL     1     -10.616   9.426  67.579  1.00  0.00    -0.333 A  
HETATM   12  C   UNL     1      -9.749   8.394  67.239  1.00  0.00    -0.184 A  
HETATM   13  O   UNL     1      -9.957   7.607  66.139  1.00  0.00    -0.456 OA 
HETATM   14  C   UNL     1      -8.631   8.123  68.023  1.00  0.00    -0.129 A  
HETATM   15  H   UNL     1      -9.365   6.902  65.906  1.00  0.00     0.000 HD 
HETATM   16  C   UNL     1      -8.359   8.878  69.151  1.00  0.00    -0.124 A  
HETATM   17  O   UNL     1      -7.794   7.099  67.686  1.00  0.00    -0.109 OA 
HETATM   18  C   UNL     1      -9.227   9.915  69.503  1.00  0.00    -0.238 A  
HETATM   19  H   UNL     1      -7.031   6.915  68.221  1.00  0.00     0.000 HD 
ENDBRANCH   7  10
ENDBRANCH   6   7
ENDBRANCH   4   6
ENDBRANCH   2   4
TORSDOF 4
ENDMDL
MODEL      187
REMARK 921   NORMALIZED FREE ENERGY PREDICTED BY IDOCK:   -3.48 KCAL/MOL
REMARK 922        TOTAL FREE ENERGY PREDICTED BY IDOCK:   -4.58 KCAL/MOL
REMARK 923 INTER-LIGAND FREE ENERGY PREDICTED BY IDOCK:   -4.37 KCAL/MOL
REMARK 924 INTRA-LIGAND FREE ENERGY PREDICTED BY IDOCK:   -0.21 KCAL/MOL
REMARK 927      BINDING AFFINITY PREDICTED BY RF-SCORE:    0.00 PKD
ROOT
HETATM    1  C   UNL     1     -10.522  11.207  65.304  1.00  0.00    -0.326 C  
HETATM    2  C   UNL     1     -11.193  12.449  65.897  1.00  0.00    -0.336 C  
HETATM    3  C   UNL     1     -12.146  13.053  64.861  1.00  0.00    -0.459 C  
ENDROOT
BRANCH   2   4
HETATM    4  N   UNL     1     -11.887  12.054  67.128  1.00  0.00    -0.604 NA 
HETATM    5  H   UNL     1     -12.877  11.890  66.944  1.00  0.00     0.000 HD 
BRANCH   4   6
HETATM    6  C   UNL     1     -11.288  10.893  67.804  1.00  0.00    -0.292 C  
BRANCH   6   7
HETATM    7  C   UNL     1     -10.921  11.226  69.274  1.00  0.00    -0.243 C  
HETATM    8  H   UNL     1     -11.835  11.925  70.892  1.00  0.00     0.000 HD 
HETATM    9  O   UNL     1     -12.059  11.721  69.991  1.00  0.00    -0.319 OA 
BRANCH   7  10
HETATM   10  C   UNL     1     -10.346  10.020  69.991  1.00  0.00    -0.323 A  
HETATM   11  C   UNL     1     -11.149   9.151  70.748  1.00  0.00    -0.336 A  
HETATM   12  C   UNL     1     -10.576   8.052  71.381  1.00  0.00    -0.216 A  
HETATM   13  O   UNL     1     -11.317   7.189  72.142  1.00  0.00    -0.249 OA 
HETATM   14  C   UNL     1      -9.213   7.800  71.261  1.00  0.00    -0.141 A  
HETATM   15  H   UNL     1     -10.926   6.439  72.574  1.00  0.00     0.000 HD 
HETATM   16  C   UNL     1      -8.403   8.632  70.508  1.00  0.00    -0.147 A  
HETATM   17  O   UNL     1      -8.661   6.726  71.897  1.00  0.00    -0.120 OA 
HETATM   18  C   UNL     1      -8.969   9.740  69.872  1.00  0.00    -0.254 A  
HETATM   19  H   UNL     1      -7.730   6.554  71.815  1.00  0.00     0.000 HD 
ENDBRANCH   7  10
ENDBRANCH   6   7
ENDBRANCH   4   6
ENDBRANCH   2   4
TORSDOF 4
ENDMDL
MODEL      188
REMARK 921   NORMALIZED FREE ENERGY PREDICTED BY IDOCK:   -3.45 KCAL/MOL
REMARK 922        TOTAL FREE ENERGY PREDICTED BY IDOCK:   -4.54 KCAL/MOL
REMARK 923 INTER-LIGAND FREE ENERGY PREDICTED BY IDOCK:   -4.12 KCAL/MOL
REMARK 924 INTRA-LIGAND FREE ENERGY PREDICTED BY IDOCK:   -0.42 KCAL/MOL
REMARK 927      BINDING AFFINITY PREDICTED BY RF-SCORE:    0.00 PKD
ROOT
HETATM    1  C   UNL     1      -9.026   9.345  68.466  1.00  0.00    -0.128 C  
HETATM    2  C   UNL     1     -10.517   9.208  68.146  1.00  0.00    -0.211 C  
HETATM    3  C   UNL     1     -11.039  10.534  67.588  1.00  0.00    -0.375 C  
ENDROOT
BRANCH   2   4
HETATM    4  N   UNL     1     -10.685   8.100  67.198  1.00  0.00    -0.463 NA 
HETATM    5  H   UNL     1     -10.514   8.417  66.244  1.00  0.00     0.000 HD 
BRANCH   4   6
HETATM    6  C   UNL     1      -9.861   6.920  67.507  1.00  0.00    -0.138 C  
BRANCH   6   7
HETATM    7  C   UNL     1     -10.729   5.753  68.046  1.00  0.00    -0.209 C  
HETATM    8  H   UNL     1     -10.877   3.792  67.782  1.00  0.00     0.000 HD 
HETATM    9  O   UNL     1     -10.346   4.507  67.452  1.00  0.00    -0.059 OA 
BRANCH   7  10
HETATM   10  C   UNL     1     -10.648   5.651  69.556  1.00  0.00    -0.384 A  
HETATM   11  C   UNL     1     -11.533   6.345  70.398  1.00  0.00    -0.458 A  
HETATM   12  C   UNL     1     -11.424   6.213  71.779  1.00  0.00    -0.285 A  
HETATM   13  O   UNL     1     -12.254   6.882  72.637  1.00  0.00    -0.491 OA 
HETATM   14  C   UNL     1     -10.449   5.389  72.335  1.00  0.00    -0.217 A  
HETATM   15  H   UNL     1     -12.179   6.792  73.580  1.00  0.00     0.000 HD 
HETATM   16  C   UNL     1      -9.575   4.683  71.526  1.00  0.00    -0.225 A  
HETATM   17  O   UNL     1     -10.344   5.277  73.691  1.00  0.00    -0.191 OA 
HETATM   18  C   UNL     1      -9.675   4.813  70.139  1.00  0.00    -0.288 A  
HETATM   19  H   UNL     1      -9.678   4.715  74.070  1.00  0.00     0.000 HD 
ENDBRANCH   7  10
ENDBRANCH   6   7
ENDBRANCH   4   6
ENDBRANCH   2   4
TORSDOF 4
ENDMDL
MODEL      189
REMARK 921   NORMALIZED FREE ENERGY PREDICTED BY IDOCK:   -3.43 KCAL/MOL
REMARK 922        TOTAL FREE ENERGY PREDICTED BY IDOCK:   -4.53 KCAL/MOL
REMARK 923 INTER-LIGAND FREE ENERGY PREDICTED BY IDOCK:   -4.27 KCAL/MOL
REMARK 924 INTRA-LIGAND FREE ENERGY PREDICTED BY IDOCK:   -0.25 KCAL/MOL
REMARK 927      BINDING AFFINITY PREDICTED BY RF-SCORE:    0.00 PKD
ROOT
HETATM    1  C   UNL     1      -9.719   4.877  70.934  1.00  0.00    -0.264 C  
HETATM    2  C   UNL     1     -10.297   5.604  69.716  1.00  0.00    -0.282 C  
HETATM    3  C   UNL     1     -11.525   6.412  70.144  1.00  0.00    -0.484 C  
ENDROOT
BRANCH   2   4
HETATM    4  N   UNL     1      -9.244   6.453  69.145  1.00  0.00    -0.134 NA 
HETATM    5  H   UNL     1      -8.704   5.935  68.451  1.00  0.00     0.000 HD 
BRANCH   4   6
HETATM    6  C   UNL     1      -9.740   7.716  68.577  1.00  0.00    -0.158 C  
BRANCH   6   7
HETATM    7  C   UNL     1      -9.860   7.631  67.033  1.00  0.00    -0.215 C  
HETATM    8  H   UNL     1     -11.117   6.870  65.699  1.00  0.00     0.000 HD 
HETATM    9  O   UNL     1     -11.043   6.923  66.645  1.00  0.00    -0.207 OA 
BRANCH   7  10
HETATM   10  C   UNL     1      -9.852   9.008  66.397  1.00  0.00    -0.356 A  
HETATM   11  C   UNL     1      -9.103   9.290  65.242  1.00  0.00    -0.271 A  
HETATM   12  C   UNL     1      -9.134  10.567  64.691  1.00  0.00    -0.218 A  
HETATM   13  O   UNL     1      -8.408  10.891  63.576  1.00  0.00    -0.360 OA 
HETATM   14  C   UNL     1      -9.910  11.567  65.269  1.00  0.00    -0.250 A  
HETATM   15  H   UNL     1      -8.429  11.762  63.200  1.00  0.00     0.000 HD 
HETATM   16  C   UNL     1     -10.668  11.310  66.398  1.00  0.00    -0.320 A  
HETATM   17  O   UNL     1      -9.922  12.819  64.726  1.00  0.00    -0.474 OA 
HETATM   18  C   UNL     1     -10.640  10.031  66.961  1.00  0.00    -0.279 A  
HETATM   19  H   UNL     1     -10.452  13.502  65.121  1.00  0.00     0.000 HD 
ENDBRANCH   7  10
ENDBRANCH   6   7
ENDBRANCH   4   6
ENDBRANCH   2   4
TORSDOF 4
ENDMDL
MODEL      190
REMARK 921   NORMALIZED FREE ENERGY PREDICTED BY IDOCK:   -3.42 KCAL/MOL
REMARK 922        TOTAL FREE ENERGY PREDICTED BY IDOCK:   -4.51 KCAL/MOL
REMARK 923 INTER-LIGAND FREE ENERGY PREDICTED BY IDOCK:   -4.32 KCAL/MOL
REMARK 924 INTRA-LIGAND FREE ENERGY PREDICTED BY IDOCK:   -0.19 KCAL/MOL
REMARK 927      BINDING AFFINITY PREDICTED BY RF-SCORE:    0.00 PKD
ROOT
HETATM    1  C   UNL     1      -9.906   4.046  65.825  1.00  0.00    -0.181 C  
HETATM    2  C   UNL     1      -8.976   4.269  67.021  1.00  0.00    -0.123 C  
HETATM    3  C   UNL     1      -7.566   3.792  66.661  1.00  0.00    -0.081 C  
ENDROOT
BRANCH   2   4
HETATM    4  N   UNL     1      -9.009   5.693  67.372  1.00  0.00    -0.109 NA 
HETATM    5  H   UNL     1      -9.520   6.224  66.666  1.00  0.00     0.000 HD 
BRANCH   4   6
HETATM    6  C   UNL     1      -9.547   5.965  68.714  1.00  0.00    -0.128 C  
BRANCH   6   7
HETATM    7  C   UNL     1      -9.741   7.487  68.945  1.00  0.00    -0.151 C  
HETATM    8  H   UNL     1     -10.264   9.078  67.880  1.00  0.00     0.000 HD 
HETATM    9  O   UNL     1     -10.145   8.145  67.739  1.00  0.00    -0.181 OA 
BRANCH   7  10
HETATM   10  C   UNL     1     -10.750   7.758  70.044  1.00  0.00    -0.245 A  
HETATM   11  C   UNL     1     -11.318   6.722  70.805  1.00  0.00    -0.374 A  
HETATM   12  C   UNL     1     -12.234   7.021  71.808  1.00  0.00    -0.351 A  
HETATM   13  O   UNL     1     -12.825   6.045  72.563  1.00  0.00    -0.507 OA 
HETATM   14  C   UNL     1     -12.587   8.342  72.072  1.00  0.00    -0.356 A  
HETATM   15  H   UNL     1     -13.450   6.249  73.248  1.00  0.00     0.000 HD 
HETATM   16  C   UNL     1     -12.029   9.381  71.346  1.00  0.00    -0.446 A  
HETATM   17  O   UNL     1     -13.496   8.622  73.050  1.00  0.00    -0.812 OA 
HETATM   18  C   UNL     1     -11.111   9.089  70.334  1.00  0.00    -0.279 A  
HETATM   19  H   UNL     1     -13.736   9.524  73.229  1.00  0.00     0.000 HD 
ENDBRANCH   7  10
ENDBRANCH   6   7
ENDBRANCH   4   6
ENDBRANCH   2   4
TORSDOF 4
ENDMDL
MODEL      191
REMARK 921   NORMALIZED FREE ENERGY PREDICTED BY IDOCK:   -3.42 KCAL/MOL
REMARK 922        TOTAL FREE ENERGY PREDICTED BY IDOCK:   -4.50 KCAL/MOL
REMARK 923 INTER-LIGAND FREE ENERGY PREDICTED BY IDOCK:   -4.03 KCAL/MOL
REMARK 924 INTRA-LIGAND FREE ENERGY PREDICTED BY IDOCK:   -0.47 KCAL/MOL
REMARK 927      BINDING AFFINITY PREDICTED BY RF-SCORE:    0.00 PKD
ROOT
HETATM    1  C   UNL     1      -8.945   8.243  67.617  1.00  0.00    -0.140 C  
HETATM    2  C   UNL     1      -9.432   8.663  69.007  1.00  0.00    -0.153 C  
HETATM    3  C   UNL     1      -8.667   9.912  69.455  1.00  0.00    -0.200 C  
ENDROOT
BRANCH   2   4
HETATM    4  N   UNL     1     -10.880   8.891  68.939  1.00  0.00    -0.420 NA 
HETATM    5  H   UNL     1     -11.260   9.058  69.871  1.00  0.00     0.000 HD 
BRANCH   4   6
HETATM    6  C   UNL     1     -11.271   9.972  68.020  1.00  0.00    -0.122 C  
BRANCH   6   7
HETATM    7  C   UNL     1     -12.024  11.103  68.768  1.00  0.00    -0.268 C  
HETATM    8  H   UNL     1     -12.514  11.551  70.638  1.00  0.00     0.000 HD 
HETATM    9  O   UNL     1     -12.052  10.858  70.180  1.00  0.00    -0.293 OA 
BRANCH   7  10
HETATM   10  C   UNL     1     -11.406  12.459  68.492  1.00  0.00    -0.336 A  
HETATM   11  C   UNL     1     -10.632  12.705  67.345  1.00  0.00    -0.240 A  
HETATM   12  C   UNL     1     -10.093  13.970  67.132  1.00  0.00    -0.259 A  
HETATM   13  O   UNL     1      -9.320  14.251  66.038  1.00  0.00    -0.488 OA 
HETATM   14  C   UNL     1     -10.322  14.998  68.041  1.00  0.00    -0.236 A  
HETATM   15  H   UNL     1      -8.952  15.114  65.892  1.00  0.00     0.000 HD 
HETATM   16  C   UNL     1     -11.093  14.785  69.171  1.00  0.00    -0.278 A  
HETATM   17  O   UNL     1      -9.777  16.231  67.827  1.00  0.00    -0.230 OA 
HETATM   18  C   UNL     1     -11.636  13.517  69.395  1.00  0.00    -0.369 A  
HETATM   19  H   UNL     1      -9.933  16.933  68.448  1.00  0.00     0.000 HD 
ENDBRANCH   7  10
ENDBRANCH   6   7
ENDBRANCH   4   6
ENDBRANCH   2   4
TORSDOF 4
ENDMDL
MODEL      192
REMARK 921   NORMALIZED FREE ENERGY PREDICTED BY IDOCK:   -3.41 KCAL/MOL
REMARK 922        TOTAL FREE ENERGY PREDICTED BY IDOCK:   -4.49 KCAL/MOL
REMARK 923 INTER-LIGAND FREE ENERGY PREDICTED BY IDOCK:   -4.10 KCAL/MOL
REMARK 924 INTRA-LIGAND FREE ENERGY PREDICTED BY IDOCK:   -0.39 KCAL/MOL
REMARK 927      BINDING AFFINITY PREDICTED BY RF-SCORE:    0.00 PKD
ROOT
HETATM    1  C   UNL     1     -11.951  12.741  66.062  1.00  0.00    -0.491 C  
HETATM    2  C   UNL     1     -11.003  12.103  65.042  1.00  0.00    -0.309 C  
HETATM    3  C   UNL     1     -11.211  12.762  63.676  1.00  0.00    -0.482 C  
ENDROOT
BRANCH   2   4
HETATM    4  N   UNL     1      -9.628  12.259  65.531  1.00  0.00    -0.412 NA 
HETATM    5  H   UNL     1      -9.127  12.954  64.977  1.00  0.00     0.000 HD 
BRANCH   4   6
HETATM    6  C   UNL     1      -9.537  12.576  66.965  1.00  0.00    -0.216 C  
BRANCH   6   7
HETATM    7  C   UNL     1      -8.552  11.624  67.692  1.00  0.00    -0.142 C  
HETATM    8  H   UNL     1      -6.851  11.767  68.705  1.00  0.00     0.000 HD 
HETATM    9  O   UNL     1      -7.455  12.350  68.260  1.00  0.00    -0.107 OA 
BRANCH   7  10
HETATM   10  C   UNL     1      -9.250  10.819  68.770  1.00  0.00    -0.192 A  
HETATM   11  C   UNL     1      -8.535  10.056  69.709  1.00  0.00    -0.189 A  
HETATM   12  C   UNL     1      -9.220   9.339  70.686  1.00  0.00    -0.264 A  
HETATM   13  O   UNL     1      -8.566   8.570  71.610  1.00  0.00    -0.156 OA 
HETATM   14  C   UNL     1     -10.610   9.381  70.747  1.00  0.00    -0.303 A  
HETATM   15  H   UNL     1      -9.033   8.082  72.277  1.00  0.00     0.000 HD 
HETATM   16  C   UNL     1     -11.335  10.137  69.843  1.00  0.00    -0.335 A  
HETATM   17  O   UNL     1     -11.270   8.664  71.702  1.00  0.00    -0.266 OA 
HETATM   18  C   UNL     1     -10.656  10.856  68.857  1.00  0.00    -0.241 A  
HETATM   19  H   UNL     1     -12.219   8.692  71.744  1.00  0.00     0.000 HD 
ENDBRANCH   7  10
ENDBRANCH   6   7
ENDBRANCH   4   6
ENDBRANCH   2   4
TORSDOF 4
ENDMDL
MODEL      193
REMARK 921   NORMALIZED FREE ENERGY PREDICTED BY IDOCK:   -3.40 KCAL/MOL
REMARK 922        TOTAL FREE ENERGY PREDICTED BY IDOCK:   -4.49 KCAL/MOL
REMARK 923 INTER-LIGAND FREE ENERGY PREDICTED BY IDOCK:   -4.06 KCAL/MOL
REMARK 924 INTRA-LIGAND FREE ENERGY PREDICTED BY IDOCK:   -0.43 KCAL/MOL
REMARK 927      BINDING AFFINITY PREDICTED BY RF-SCORE:    0.00 PKD
ROOT
HETATM    1  C   UNL     1     -11.768  12.594  66.999  1.00  0.00    -0.438 C  
HETATM    2  C   UNL     1     -10.837  13.543  66.238  1.00  0.00    -0.289 C  
HETATM    3  C   UNL     1     -10.926  14.942  66.855  1.00  0.00    -0.327 C  
ENDROOT
BRANCH   2   4
HETATM    4  N   UNL     1      -9.476  12.996  66.293  1.00  0.00    -0.391 NA 
HETATM    5  H   UNL     1      -9.087  13.097  67.231  1.00  0.00     0.000 HD 
BRANCH   4   6
HETATM    6  C   UNL     1      -9.375  11.600  65.839  1.00  0.00    -0.218 C  
BRANCH   6   7
HETATM    7  C   UNL     1      -8.511  10.753  66.809  1.00  0.00    -0.134 C  
HETATM    8  H   UNL     1      -7.457  11.040  68.467  1.00  0.00     0.000 HD 
HETATM    9  O   UNL     1      -7.987  11.559  67.872  1.00  0.00    -0.115 OA 
BRANCH   7  10
HETATM   10  C   UNL     1      -9.296   9.590  67.383  1.00  0.00    -0.153 A  
HETATM   11  C   UNL     1      -9.518   9.451  68.764  1.00  0.00    -0.150 A  
HETATM   12  C   UNL     1     -10.252   8.371  69.242  1.00  0.00    -0.208 A  
HETATM   13  O   UNL     1     -10.478   8.186  70.579  1.00  0.00    -0.207 OA 
HETATM   14  C   UNL     1     -10.779   7.430  68.363  1.00  0.00    -0.096 A  
HETATM   15  H   UNL     1     -10.979   7.449  70.906  1.00  0.00     0.000 HD 
HETATM   16  C   UNL     1     -10.588   7.554  66.997  1.00  0.00    -0.409 A  
HETATM   17  O   UNL     1     -11.487   6.368  68.845  1.00  0.00    -0.582 OA 
HETATM   18  C   UNL     1      -9.849   8.633  66.508  1.00  0.00    -0.348 A  
HETATM   19  H   UNL     1     -11.847   5.726  68.245  1.00  0.00     0.000 HD 
ENDBRANCH   7  10
ENDBRANCH   6   7
ENDBRANCH   4   6
ENDBRANCH   2   4
TORSDOF 4
ENDMDL
MODEL      194
REMARK 921   NORMALIZED FREE ENERGY PREDICTED BY IDOCK:   -3.40 KCAL/MOL
REMARK 922        TOTAL FREE ENERGY PREDICTED BY IDOCK:   -4.48 KCAL/MOL
REMARK 923 INTER-LIGAND FREE ENERGY PREDICTED BY IDOCK:   -4.24 KCAL/MOL
REMARK 924 INTRA-LIGAND FREE ENERGY PREDICTED BY IDOCK:   -0.24 KCAL/MOL
REMARK 927      BINDING AFFINITY PREDICTED BY RF-SCORE:    0.00 PKD
ROOT
HETATM    1  C   UNL     1     -10.358   8.328  72.083  1.00  0.00    -0.370 C  
HETATM    2  C   UNL     1     -11.118   7.597  70.973  1.00  0.00    -0.257 C  
HETATM    3  C   UNL     1     -12.485   7.153  71.503  1.00  0.00    -0.418 C  
ENDROOT
BRANCH   2   4
HETATM    4  N   UNL     1     -11.234   8.499  69.822  1.00  0.00    -0.445 NA 
HETATM    5  H   UNL     1     -12.013   9.145  69.950  1.00  0.00     0.000 HD 
BRANCH   4   6
HETATM    6  C   UNL     1      -9.998   9.234  69.513  1.00  0.00    -0.187 C  
BRANCH   6   7
HETATM    7  C   UNL     1      -9.904   9.568  68.001  1.00  0.00    -0.155 C  
HETATM    8  H   UNL     1     -10.713   8.930  66.305  1.00  0.00     0.000 HD 
HETATM    9  O   UNL     1     -10.770   8.726  67.231  1.00  0.00    -0.276 OA 
BRANCH   7  10
HETATM   10  C   UNL     1     -10.228  11.024  67.732  1.00  0.00    -0.210 A  
HETATM   11  C   UNL     1      -9.230  12.012  67.675  1.00  0.00    -0.182 A  
HETATM   12  C   UNL     1      -9.576  13.334  67.417  1.00  0.00    -0.223 A  
HETATM   13  O   UNL     1      -8.640  14.331  67.369  1.00  0.00    -0.188 OA 
HETATM   14  C   UNL     1     -10.906  13.687  67.203  1.00  0.00    -0.285 A  
HETATM   15  H   UNL     1      -8.876  15.233  67.193  1.00  0.00     0.000 HD 
HETATM   16  C   UNL     1     -11.906  12.730  67.238  1.00  0.00    -0.414 A  
HETATM   17  O   UNL     1     -11.234  14.989  66.963  1.00  0.00    -0.331 OA 
HETATM   18  C   UNL     1     -11.567  11.400  67.501  1.00  0.00    -0.298 A  
HETATM   19  H   UNL     1     -12.142  15.230  66.817  1.00  0.00     0.000 HD 
ENDBRANCH   7  10
ENDBRANCH   6   7
ENDBRANCH   4   6
ENDBRANCH   2   4
TORSDOF 4
ENDMDL
MODEL      195
REMARK 921   NORMALIZED FREE ENERGY PREDICTED BY IDOCK:   -3.39 KCAL/MOL
REMARK 922        TOTAL FREE ENERGY PREDICTED BY IDOCK:   -4.47 KCAL/MOL
REMARK 923 INTER-LIGAND FREE ENERGY PREDICTED BY IDOCK:   -4.28 KCAL/MOL
REMARK 924 INTRA-LIGAND FREE ENERGY PREDICTED BY IDOCK:   -0.19 KCAL/MOL
REMARK 927      BINDING AFFINITY PREDICTED BY RF-SCORE:    0.00 PKD
ROOT
HETATM    1  C   UNL     1      -6.287  20.275  67.947  1.00  0.00    -0.283 C  
HETATM    2  C   UNL     1      -7.534  19.494  68.373  1.00  0.00    -0.324 C  
HETATM    3  C   UNL     1      -8.743  20.003  67.585  1.00  0.00    -0.395 C  
ENDROOT
BRANCH   2   4
HETATM    4  N   UNL     1      -7.283  18.066  68.147  1.00  0.00    -0.229 NA 
HETATM    5  H   UNL     1      -6.500  17.745  68.718  1.00  0.00     0.000 HD 
BRANCH   4   6
HETATM    6  C   UNL     1      -8.462  17.212  68.359  1.00  0.00    -0.241 C  
BRANCH   6   7
HETATM    7  C   UNL     1      -8.095  15.709  68.255  1.00  0.00    -0.134 C  
HETATM    8  H   UNL     1      -7.529  14.249  69.475  1.00  0.00     0.000 HD 
HETATM    9  O   UNL     1      -7.754  15.170  69.538  1.00  0.00    -0.204 OA 
BRANCH   7  10
HETATM   10  C   UNL     1      -9.222  14.902  67.641  1.00  0.00    -0.187 A  
HETATM   11  C   UNL     1      -8.979  13.776  66.835  1.00  0.00    -0.234 A  
HETATM   12  C   UNL     1     -10.046  13.063  66.300  1.00  0.00    -0.282 A  
HETATM   13  O   UNL     1      -9.857  11.970  65.498  1.00  0.00    -0.237 OA 
HETATM   14  C   UNL     1     -11.357  13.449  66.565  1.00  0.00    -0.320 A  
HETATM   15  H   UNL     1     -10.585  11.483  65.133  1.00  0.00     0.000 HD 
HETATM   16  C   UNL     1     -11.623  14.545  67.368  1.00  0.00    -0.406 A  
HETATM   17  O   UNL     1     -12.396  12.748  66.025  1.00  0.00    -0.547 OA 
HETATM   18  C   UNL     1     -10.557  15.270  67.906  1.00  0.00    -0.260 A  
HETATM   19  H   UNL     1     -13.291  13.012  66.205  1.00  0.00     0.000 HD 
ENDBRANCH   7  10
ENDBRANCH   6   7
ENDBRANCH   4   6
ENDBRANCH   2   4
TORSDOF 4
ENDMDL
MODEL      196
REMARK 921   NORMALIZED FREE ENERGY PREDICTED BY IDOCK:   -3.38 KCAL/MOL
REMARK 922        TOTAL FREE ENERGY PREDICTED BY IDOCK:   -4.46 KCAL/MOL
REMARK 923 INTER-LIGAND FREE ENERGY PREDICTED BY IDOCK:   -4.21 KCAL/MOL
REMARK 924 INTRA-LIGAND FREE ENERGY PREDICTED BY IDOCK:   -0.25 KCAL/MOL
REMARK 927      BINDING AFFINITY PREDICTED BY RF-SCORE:    0.00 PKD
ROOT
HETATM    1  C   UNL     1      -8.718  11.350  68.461  1.00  0.00    -0.149 C  
HETATM    2  C   UNL     1      -8.160  11.540  67.047  1.00  0.00    -0.161 C  
HETATM    3  C   UNL     1      -9.040  10.783  66.050  1.00  0.00    -0.204 C  
ENDROOT
BRANCH   2   4
HETATM    4  N   UNL     1      -8.107  12.978  66.762  1.00  0.00    -0.398 NA 
HETATM    5  H   UNL     1      -8.183  13.148  65.759  1.00  0.00     0.000 HD 
BRANCH   4   6
HETATM    6  C   UNL     1      -9.105  13.770  67.498  1.00  0.00    -0.209 C  
BRANCH   6   7
HETATM    7  C   UNL     1      -8.447  14.972  68.224  1.00  0.00    -0.147 C  
HETATM    8  H   UNL     1      -6.639  15.772  68.394  1.00  0.00     0.000 HD 
HETATM    9  O   UNL     1      -7.042  15.035  67.950  1.00  0.00    -0.119 OA 
BRANCH   7  10
HETATM   10  C   UNL     1      -9.106  16.282  67.840  1.00  0.00    -0.196 A  
HETATM   11  C   UNL     1      -9.439  17.257  68.796  1.00  0.00    -0.256 A  
HETATM   12  C   UNL     1     -10.035  18.448  68.394  1.00  0.00    -0.379 A  
HETATM   13  O   UNL     1     -10.391  19.417  69.291  1.00  0.00    -0.570 OA 
HETATM   14  C   UNL     1     -10.297  18.687  67.048  1.00  0.00    -0.404 A  
HETATM   15  H   UNL     1     -10.798  20.230  69.017  1.00  0.00     0.000 HD 
HETATM   16  C   UNL     1      -9.964  17.749  66.085  1.00  0.00    -0.283 A  
HETATM   17  O   UNL     1     -10.893  19.854  66.667  1.00  0.00    -0.443 OA 
HETATM   18  C   UNL     1      -9.369  16.549  66.480  1.00  0.00    -0.295 A  
HETATM   19  H   UNL     1     -11.072  20.017  65.748  1.00  0.00     0.000 HD 
ENDBRANCH   7  10
ENDBRANCH   6   7
ENDBRANCH   4   6
ENDBRANCH   2   4
TORSDOF 4
ENDMDL
MODEL      197
REMARK 921   NORMALIZED FREE ENERGY PREDICTED BY IDOCK:   -3.37 KCAL/MOL
REMARK 922        TOTAL FREE ENERGY PREDICTED BY IDOCK:   -4.45 KCAL/MOL
REMARK 923 INTER-LIGAND FREE ENERGY PREDICTED BY IDOCK:   -4.26 KCAL/MOL
REMARK 924 INTRA-LIGAND FREE ENERGY PREDICTED BY IDOCK:   -0.19 KCAL/MOL
REMARK 927      BINDING AFFINITY PREDICTED BY RF-SCORE:    0.00 PKD
ROOT
HETATM    1  C   UNL     1      -7.365  12.805  68.215  1.00  0.00    -0.117 C  
HETATM    2  C   UNL     1      -7.590  11.348  68.630  1.00  0.00    -0.130 C  
HETATM    3  C   UNL     1      -6.556  10.959  69.690  1.00  0.00    -0.123 C  
ENDROOT
BRANCH   2   4
HETATM    4  N   UNL     1      -8.967  11.216  69.120  1.00  0.00    -0.388 NA 
HETATM    5  H   UNL     1      -9.632  11.344  68.357  1.00  0.00     0.000 HD 
BRANCH   4   6
HETATM    6  C   UNL     1      -9.229   9.954  69.829  1.00  0.00    -0.227 C  
BRANCH   6   7
HETATM    7  C   UNL     1     -10.587   9.999  70.577  1.00  0.00    -0.246 C  
HETATM    8  H   UNL     1     -12.491  10.352  70.139  1.00  0.00     0.000 HD 
HETATM    9  O   UNL     1     -11.658  10.324  69.682  1.00  0.00    -0.243 OA 
BRANCH   7  10
HETATM   10  C   UNL     1     -10.881   8.688  71.277  1.00  0.00    -0.327 A  
HETATM   11  C   UNL     1     -10.479   8.445  72.602  1.00  0.00    -0.317 A  
HETATM   12  C   UNL     1     -10.779   7.228  73.205  1.00  0.00    -0.383 A  
HETATM   13  O   UNL     1     -10.394   6.942  74.487  1.00  0.00    -0.413 OA 
HETATM   14  C   UNL     1     -11.484   6.250  72.510  1.00  0.00    -0.261 A  
HETATM   15  H   UNL     1     -10.598   6.111  74.899  1.00  0.00     0.000 HD 
HETATM   16  C   UNL     1     -11.905   6.471  71.210  1.00  0.00    -0.385 A  
HETATM   17  O   UNL     1     -11.762   5.055  73.109  1.00  0.00    -0.452 OA 
HETATM   18  C   UNL     1     -11.605   7.689  70.594  1.00  0.00    -0.251 A  
HETATM   19  H   UNL     1     -12.243   4.388  72.634  1.00  0.00     0.000 HD 
ENDBRANCH   7  10
ENDBRANCH   6   7
ENDBRANCH   4   6
ENDBRANCH   2   4
TORSDOF 4
ENDMDL
MODEL      198
REMARK 921   NORMALIZED FREE ENERGY PREDICTED BY IDOCK:   -3.36 KCAL/MOL
REMARK 922        TOTAL FREE ENERGY PREDICTED BY IDOCK:   -4.43 KCAL/MOL
REMARK 923 INTER-LIGAND FREE ENERGY PREDICTED BY IDOCK:   -3.72 KCAL/MOL
REMARK 924 INTRA-LIGAND FREE ENERGY PREDICTED BY IDOCK:   -0.72 KCAL/MOL
REMARK 927      BINDING AFFINITY PREDICTED BY RF-SCORE:    0.00 PKD
ROOT
HETATM    1  C   UNL     1      -7.882   8.146  66.132  1.00  0.00    -0.092 C  
HETATM    2  C   UNL     1      -8.694   9.197  66.894  1.00  0.00    -0.123 C  
HETATM    3  C   UNL     1     -10.039   9.404  66.193  1.00  0.00    -0.324 C  
ENDROOT
BRANCH   2   4
HETATM    4  N   UNL     1      -8.853   8.740  68.280  1.00  0.00    -0.141 NA 
HETATM    5  H   UNL     1      -8.548   9.462  68.932  1.00  0.00     0.000 HD 
BRANCH   4   6
HETATM    6  C   UNL     1     -10.215   8.290  68.606  1.00  0.00    -0.204 C  
BRANCH   6   7
HETATM    7  C   UNL     1     -10.216   6.828  69.125  1.00  0.00    -0.181 C  
HETATM    8  H   UNL     1     -11.452   5.617  70.097  1.00  0.00     0.000 HD 
HETATM    9  O   UNL     1     -11.451   6.513  69.779  1.00  0.00    -0.388 OA 
BRANCH   7  10
HETATM   10  C   UNL     1      -9.960   5.840  68.004  1.00  0.00    -0.173 A  
HETATM   11  C   UNL     1     -10.870   5.659  66.949  1.00  0.00    -0.287 A  
HETATM   12  C   UNL     1     -10.587   4.746  65.938  1.00  0.00    -0.244 A  
HETATM   13  O   UNL     1     -11.451   4.525  64.901  1.00  0.00    -1.056 OA 
HETATM   14  C   UNL     1      -9.402   4.015  65.958  1.00  0.00    -0.168 A  
HETATM   15  H   UNL     1     -11.258   3.902  64.211  1.00  0.00     0.000 HD 
HETATM   16  C   UNL     1      -8.483   4.188  66.978  1.00  0.00    -0.100 A  
HETATM   17  O   UNL     1      -9.142   3.114  64.967  1.00  0.00    -0.134 OA 
HETATM   18  C   UNL     1      -8.760   5.099  67.999  1.00  0.00    -0.102 A  
HETATM   19  H   UNL     1      -8.333   2.615  64.981  1.00  0.00     0.000 HD 
ENDBRANCH   7  10
ENDBRANCH   6   7
ENDBRANCH   4   6
ENDBRANCH   2   4
TORSDOF 4
ENDMDL
MODEL      199
REMARK 921   NORMALIZED FREE ENERGY PREDICTED BY IDOCK:   -3.31 KCAL/MOL
REMARK 922        TOTAL FREE ENERGY PREDICTED BY IDOCK:   -4.37 KCAL/MOL
REMARK 923 INTER-LIGAND FREE ENERGY PREDICTED BY IDOCK:   -4.38 KCAL/MOL
REMARK 924 INTRA-LIGAND FREE ENERGY PREDICTED BY IDOCK:    0.01 KCAL/MOL
REMARK 927      BINDING AFFINITY PREDICTED BY RF-SCORE:    0.00 PKD
ROOT
HETATM    1  C   UNL     1      -7.030  12.473  67.312  1.00  0.00    -0.114 C  
HETATM    2  C   UNL     1      -7.358  13.387  68.496  1.00  0.00    -0.111 C  
HETATM    3  C   UNL     1      -6.616  14.716  68.330  1.00  0.00    -0.118 C  
ENDROOT
BRANCH   2   4
HETATM    4  N   UNL     1      -8.813  13.565  68.552  1.00  0.00    -0.325 NA 
HETATM    5  H   UNL     1      -9.069  14.189  69.317  1.00  0.00     0.000 HD 
BRANCH   4   6
HETATM    6  C   UNL     1      -9.406  14.028  67.287  1.00  0.00    -0.230 C  
BRANCH   6   7
HETATM    7  C   UNL     1     -10.784  13.361  67.034  1.00  0.00    -0.268 C  
HETATM    8  H   UNL     1     -11.556  12.016  65.795  1.00  0.00     0.000 HD 
HETATM    9  O   UNL     1     -10.713  12.425  65.951  1.00  0.00    -0.254 OA 
BRANCH   7  10
HETATM   10  C   UNL     1     -11.305  12.670  68.278  1.00  0.00    -0.337 A  
HETATM   11  C   UNL     1     -11.296  11.271  68.412  1.00  0.00    -0.348 A  
HETATM   12  C   UNL     1     -11.778  10.683  69.577  1.00  0.00    -0.284 A  
HETATM   13  O   UNL     1     -11.804   9.325  69.744  1.00  0.00    -0.429 OA 
HETATM   14  C   UNL     1     -12.260  11.471  70.618  1.00  0.00    -0.378 A  
HETATM   15  H   UNL     1     -12.133   8.924  70.539  1.00  0.00     0.000 HD 
HETATM   16  C   UNL     1     -12.264  12.852  70.517  1.00  0.00    -0.395 A  
HETATM   17  O   UNL     1     -12.741  10.882  71.751  1.00  0.00    -0.398 OA 
HETATM   18  C   UNL     1     -11.786  13.451  69.349  1.00  0.00    -0.390 A  
HETATM   19  H   UNL     1     -13.071  11.420  72.462  1.00  0.00     0.000 HD 
ENDBRANCH   7  10
ENDBRANCH   6   7
ENDBRANCH   4   6
ENDBRANCH   2   4
TORSDOF 4
ENDMDL
MODEL      200
REMARK 921   NORMALIZED FREE ENERGY PREDICTED BY IDOCK:   -3.31 KCAL/MOL
REMARK 922        TOTAL FREE ENERGY PREDICTED BY IDOCK:   -4.37 KCAL/MOL
REMARK 923 INTER-LIGAND FREE ENERGY PREDICTED BY IDOCK:   -4.05 KCAL/MOL
REMARK 924 INTRA-LIGAND FREE ENERGY PREDICTED BY IDOCK:   -0.32 KCAL/MOL
REMARK 927      BINDING AFFINITY PREDICTED BY RF-SCORE:    0.00 PKD
ROOT
HETATM    1  C   UNL     1     -11.025  13.274  64.390  1.00  0.00    -0.413 C  
HETATM    2  C   UNL     1     -10.364  12.104  65.123  1.00  0.00    -0.279 C  
HETATM    3  C   UNL     1      -9.313  11.464  64.212  1.00  0.00    -0.081 C  
ENDROOT
BRANCH   2   4
HETATM    4  N   UNL     1      -9.782  12.611  66.372  1.00  0.00    -0.255 NA 
HETATM    5  H   UNL     1     -10.407  13.291  66.807  1.00  0.00     0.000 HD 
BRANCH   4   6
HETATM    6  C   UNL     1      -9.415  11.557  67.330  1.00  0.00    -0.165 C  
BRANCH   6   7
HETATM    7  C   UNL     1     -10.572  10.542  67.522  1.00  0.00    -0.259 C  
HETATM    8  H   UNL     1     -10.813   8.572  67.497  1.00  0.00     0.000 HD 
HETATM    9  O   UNL     1     -10.105   9.194  67.380  1.00  0.00    -0.197 OA 
BRANCH   7  10
HETATM   10  C   UNL     1     -11.246  10.714  68.868  1.00  0.00    -0.333 A  
HETATM   11  C   UNL     1     -11.609  11.979  69.362  1.00  0.00    -0.393 A  
HETATM   12  C   UNL     1     -12.233  12.086  70.601  1.00  0.00    -0.316 A  
HETATM   13  O   UNL     1     -12.589  13.297  71.129  1.00  0.00    -0.360 OA 
HETATM   14  C   UNL     1     -12.512  10.947  71.352  1.00  0.00    -0.355 A  
HETATM   15  H   UNL     1     -13.016  13.370  71.974  1.00  0.00     0.000 HD 
HETATM   16  C   UNL     1     -12.179   9.689  70.879  1.00  0.00    -0.368 A  
HETATM   17  O   UNL     1     -13.114  11.066  72.571  1.00  0.00    -0.376 OA 
HETATM   18  C   UNL     1     -11.548   9.573  69.639  1.00  0.00     0.100 A  
HETATM   19  H   UNL     1     -13.304  10.289  73.083  1.00  0.00     0.000 HD 
ENDBRANCH   7  10
ENDBRANCH   6   7
ENDBRANCH   4   6
ENDBRANCH   2   4
TORSDOF 4
ENDMDL
MODEL      201
REMARK 921   NORMALIZED FREE ENERGY PREDICTED BY IDOCK:   -3.31 KCAL/MOL
REMARK 922        TOTAL FREE ENERGY PREDICTED BY IDOCK:   -4.37 KCAL/MOL
REMARK 923 INTER-LIGAND FREE ENERGY PREDICTED BY IDOCK:   -3.67 KCAL/MOL
REMARK 924 INTRA-LIGAND FREE ENERGY PREDICTED BY IDOCK:   -0.70 KCAL/MOL
REMARK 927      BINDING AFFINITY PREDICTED BY RF-SCORE:    0.00 PKD
ROOT
HETATM    1  C   UNL     1     -10.832   6.361  70.837  1.00  0.00    -0.316 C  
HETATM    2  C   UNL     1     -11.344   7.575  71.618  1.00  0.00    -0.252 C  
HETATM    3  C   UNL     1     -10.156   8.315  72.240  1.00  0.00    -0.370 C  
ENDROOT
BRANCH   2   4
HETATM    4  N   UNL     1     -12.109   8.425  70.698  1.00  0.00    -0.493 NA 
HETATM    5  H   UNL     1     -13.091   8.454  70.970  1.00  0.00     0.000 HD 
BRANCH   4   6
HETATM    6  C   UNL     1     -11.570   9.787  70.558  1.00  0.00    -0.292 C  
BRANCH   6   7
HETATM    7  C   UNL     1     -11.254  10.118  69.076  1.00  0.00    -0.173 C  
HETATM    8  H   UNL     1     -10.658  11.689  68.018  1.00  0.00     0.000 HD 
HETATM    9  O   UNL     1     -10.852  11.485  68.926  1.00  0.00    -0.202 OA 
BRANCH   7  10
HETATM   10  C   UNL     1     -10.182   9.202  68.518  1.00  0.00    -0.223 A  
HETATM   11  C   UNL     1     -10.413   8.381  67.400  1.00  0.00    -0.354 A  
HETATM   12  C   UNL     1      -9.396   7.563  66.920  1.00  0.00    -0.157 A  
HETATM   13  O   UNL     1      -9.580   6.736  65.845  1.00  0.00    -0.393 OA 
HETATM   14  C   UNL     1      -8.145   7.558  67.531  1.00  0.00    -0.113 A  
HETATM   15  H   UNL     1      -8.886   6.177  65.517  1.00  0.00     0.000 HD 
HETATM   16  C   UNL     1      -7.889   8.369  68.623  1.00  0.00    -0.116 A  
HETATM   17  O   UNL     1      -7.159   6.742  67.058  1.00  0.00    -0.068 OA 
HETATM   18  C   UNL     1      -8.906   9.191  69.115  1.00  0.00    -0.146 A  
HETATM   19  H   UNL     1      -6.306   6.739  67.475  1.00  0.00     0.000 HD 
ENDBRANCH   7  10
ENDBRANCH   6   7
ENDBRANCH   4   6
ENDBRANCH   2   4
TORSDOF 4
ENDMDL
MODEL      202
REMARK 921   NORMALIZED FREE ENERGY PREDICTED BY IDOCK:   -3.28 KCAL/MOL
REMARK 922        TOTAL FREE ENERGY PREDICTED BY IDOCK:   -4.33 KCAL/MOL
REMARK 923 INTER-LIGAND FREE ENERGY PREDICTED BY IDOCK:   -3.96 KCAL/MOL
REMARK 924 INTRA-LIGAND FREE ENERGY PREDICTED BY IDOCK:   -0.37 KCAL/MOL
REMARK 927      BINDING AFFINITY PREDICTED BY RF-SCORE:    0.00 PKD
ROOT
HETATM    1  C   UNL     1     -13.070   7.882  71.535  1.00  0.00    -0.343 C  
HETATM    2  C   UNL     1     -11.617   7.467  71.785  1.00  0.00    -0.270 C  
HETATM    3  C   UNL     1     -11.573   6.432  72.912  1.00  0.00    -0.035 C  
ENDROOT
BRANCH   2   4
HETATM    4  N   UNL     1     -11.063   6.947  70.530  1.00  0.00    -0.271 NA 
HETATM    5  H   UNL     1     -11.751   6.368  70.048  1.00  0.00     0.000 HD 
BRANCH   4   6
HETATM    6  C   UNL     1     -10.542   7.988  69.630  1.00  0.00    -0.223 C  
BRANCH   6   7
HETATM    7  C   UNL     1     -10.076   9.236  70.425  1.00  0.00    -0.236 C  
HETATM    8  H   UNL     1      -8.360  10.056  70.993  1.00  0.00     0.000 HD 
HETATM    9  O   UNL     1      -8.646   9.292  70.506  1.00  0.00    -0.198 OA 
BRANCH   7  10
HETATM   10  C   UNL     1     -10.607  10.517  69.811  1.00  0.00    -0.274 A  
HETATM   11  C   UNL     1     -10.011  11.103  68.681  1.00  0.00    -0.210 A  
HETATM   12  C   UNL     1     -10.539  12.275  68.149  1.00  0.00    -0.214 A  
HETATM   13  O   UNL     1      -9.983  12.889  67.060  1.00  0.00    -0.235 OA 
HETATM   14  C   UNL     1     -11.662  12.867  68.721  1.00  0.00    -0.323 A  
HETATM   15  H   UNL     1     -10.344  13.689  66.696  1.00  0.00     0.000 HD 
HETATM   16  C   UNL     1     -12.275  12.300  69.825  1.00  0.00    -0.201 A  
HETATM   17  O   UNL     1     -12.163  14.023  68.197  1.00  0.00    -0.516 OA 
HETATM   18  C   UNL     1     -11.749  11.126  70.368  1.00  0.00    -0.415 A  
HETATM   19  H   UNL     1     -12.929  14.428  68.588  1.00  0.00     0.000 HD 
ENDBRANCH   7  10
ENDBRANCH   6   7
ENDBRANCH   4   6
ENDBRANCH   2   4
TORSDOF 4
ENDMDL
MODEL      203
REMARK 921   NORMALIZED FREE ENERGY PREDICTED BY IDOCK:   -3.27 KCAL/MOL
REMARK 922        TOTAL FREE ENERGY PREDICTED BY IDOCK:   -4.33 KCAL/MOL
REMARK 923 INTER-LIGAND FREE ENERGY PREDICTED BY IDOCK:   -3.99 KCAL/MOL
REMARK 924 INTRA-LIGAND FREE ENERGY PREDICTED BY IDOCK:   -0.33 KCAL/MOL
REMARK 927      BINDING AFFINITY PREDICTED BY RF-SCORE:    0.00 PKD
ROOT
HETATM    1  C   UNL     1      -6.858  11.090  69.531  1.00  0.00    -0.133 C  
HETATM    2  C   UNL     1      -7.709  10.853  68.280  1.00  0.00    -0.111 C  
HETATM    3  C   UNL     1      -7.198  11.743  67.143  1.00  0.00    -0.147 C  
ENDROOT
BRANCH   2   4
HETATM    4  N   UNL     1      -7.644   9.426  67.942  1.00  0.00    -0.087 NA 
HETATM    5  H   UNL     1      -7.088   8.920  68.632  1.00  0.00     0.000 HD 
BRANCH   4   6
HETATM    6  C   UNL     1      -8.961   8.792  67.773  1.00  0.00    -0.135 C  
BRANCH   6   7
HETATM    7  C   UNL     1     -10.051   9.532  68.591  1.00  0.00    -0.181 C  
HETATM    8  H   UNL     1     -11.724  10.538  68.233  1.00  0.00     0.000 HD 
HETATM    9  O   UNL     1     -11.056  10.085  67.732  1.00  0.00    -0.286 OA 
BRANCH   7  10
HETATM   10  C   UNL     1     -10.695   8.617  69.614  1.00  0.00    -0.204 A  
HETATM   11  C   UNL     1     -11.278   9.112  70.793  1.00  0.00    -0.336 A  
HETATM   12  C   UNL     1     -11.864   8.233  71.698  1.00  0.00    -0.299 A  
HETATM   13  O   UNL     1     -12.429   8.669  72.866  1.00  0.00    -0.524 OA 
HETATM   14  C   UNL     1     -11.888   6.865  71.441  1.00  0.00    -0.330 A  
HETATM   15  H   UNL     1     -12.829   8.069  73.484  1.00  0.00     0.000 HD 
HETATM   16  C   UNL     1     -11.335   6.355  70.279  1.00  0.00    -0.468 A  
HETATM   17  O   UNL     1     -12.455   6.013  72.342  1.00  0.00    -0.517 OA 
HETATM   18  C   UNL     1     -10.740   7.230  69.366  1.00  0.00    -0.236 A  
HETATM   19  H   UNL     1     -12.471   5.079  72.166  1.00  0.00     0.000 HD 
ENDBRANCH   7  10
ENDBRANCH   6   7
ENDBRANCH   4   6
ENDBRANCH   2   4
TORSDOF 4
ENDMDL
MODEL      204
REMARK 921   NORMALIZED FREE ENERGY PREDICTED BY IDOCK:   -3.26 KCAL/MOL
REMARK 922        TOTAL FREE ENERGY PREDICTED BY IDOCK:   -4.31 KCAL/MOL
REMARK 923 INTER-LIGAND FREE ENERGY PREDICTED BY IDOCK:   -4.12 KCAL/MOL
REMARK 924 INTRA-LIGAND FREE ENERGY PREDICTED BY IDOCK:   -0.18 KCAL/MOL
REMARK 927      BINDING AFFINITY PREDICTED BY RF-SCORE:    0.00 PKD
ROOT
HETATM    1  C   UNL     1     -11.167  13.464  67.319  1.00  0.00    -0.319 C  
HETATM    2  C   UNL     1      -9.855  12.675  67.284  1.00  0.00    -0.206 C  
HETATM    3  C   UNL     1      -8.826  13.362  68.186  1.00  0.00    -0.180 C  
ENDROOT
BRANCH   2   4
HETATM    4  N   UNL     1     -10.134  11.298  67.706  1.00  0.00    -0.177 NA 
HETATM    5  H   UNL     1      -9.396  10.955  68.321  1.00  0.00     0.000 HD 
BRANCH   4   6
HETATM    6  C   UNL     1     -11.453  11.122  68.333  1.00  0.00    -0.306 C  
BRANCH   6   7
HETATM    7  C   UNL     1     -11.342  11.096  69.880  1.00  0.00    -0.268 C  
HETATM    8  H   UNL     1     -12.341  11.820  71.435  1.00  0.00     0.000 HD 
HETATM    9  O   UNL     1     -12.409  11.835  70.487  1.00  0.00    -0.334 OA 
BRANCH   7  10
HETATM   10  C   UNL     1     -11.330   9.677  70.414  1.00  0.00    -0.337 A  
HETATM   11  C   UNL     1     -11.026   8.577  69.594  1.00  0.00    -0.093 A  
HETATM   12  C   UNL     1     -11.020   7.293  70.131  1.00  0.00    -0.260 A  
HETATM   13  O   UNL     1     -10.747   6.191  69.367  1.00  0.00    -0.248 OA 
HETATM   14  C   UNL     1     -11.302   7.090  71.479  1.00  0.00    -0.258 A  
HETATM   15  H   UNL     1     -10.742   5.315  69.734  1.00  0.00     0.000 HD 
HETATM   16  C   UNL     1     -11.588   8.160  72.310  1.00  0.00    -0.436 A  
HETATM   17  O   UNL     1     -11.305   5.826  71.991  1.00  0.00    -0.271 OA 
HETATM   18  C   UNL     1     -11.601   9.452  71.778  1.00  0.00    -0.433 A  
HETATM   19  H   UNL     1     -11.498   5.688  72.911  1.00  0.00     0.000 HD 
ENDBRANCH   7  10
ENDBRANCH   6   7
ENDBRANCH   4   6
ENDBRANCH   2   4
TORSDOF 4
ENDMDL
MODEL      205
REMARK 921   NORMALIZED FREE ENERGY PREDICTED BY IDOCK:   -3.25 KCAL/MOL
REMARK 922        TOTAL FREE ENERGY PREDICTED BY IDOCK:   -4.30 KCAL/MOL
REMARK 923 INTER-LIGAND FREE ENERGY PREDICTED BY IDOCK:   -4.08 KCAL/MOL
REMARK 924 INTRA-LIGAND FREE ENERGY PREDICTED BY IDOCK:   -0.22 KCAL/MOL
REMARK 927      BINDING AFFINITY PREDICTED BY RF-SCORE:    0.00 PKD
ROOT
HETATM    1  C   UNL     1      -7.782   6.489  70.462  1.00  0.00    -0.105 C  
HETATM    2  C   UNL     1      -8.633   6.341  69.197  1.00  0.00    -0.120 C  
HETATM    3  C   UNL     1      -9.967   5.682  69.558  1.00  0.00    -0.263 C  
ENDROOT
BRANCH   2   4
HETATM    4  N   UNL     1      -8.812   7.672  68.605  1.00  0.00    -0.128 NA 
HETATM    5  H   UNL     1      -8.288   7.750  67.733  1.00  0.00     0.000 HD 
BRANCH   4   6
HETATM    6  C   UNL     1     -10.220   8.048  68.398  1.00  0.00    -0.207 C  
BRANCH   6   7
HETATM    7  C   UNL     1     -10.451   9.552  68.700  1.00  0.00    -0.211 C  
HETATM    8  H   UNL     1      -9.509  11.020  69.647  1.00  0.00     0.000 HD 
HETATM    9  O   UNL     1      -9.368  10.099  69.462  1.00  0.00    -0.210 OA 
BRANCH   7  10
HETATM   10  C   UNL     1     -10.641  10.352  67.426  1.00  0.00    -0.321 A  
HETATM   11  C   UNL     1     -11.362  11.558  67.405  1.00  0.00    -0.367 A  
HETATM   12  C   UNL     1     -11.503  12.261  66.213  1.00  0.00    -0.380 A  
HETATM   13  O   UNL     1     -12.210  13.430  66.142  1.00  0.00    -0.416 OA 
HETATM   14  C   UNL     1     -10.924  11.784  65.040  1.00  0.00    -0.300 A  
HETATM   15  H   UNL     1     -12.306  13.910  65.328  1.00  0.00     0.000 HD 
HETATM   16  C   UNL     1     -10.195  10.607  65.038  1.00  0.00    -0.380 A  
HETATM   17  O   UNL     1     -11.078  12.477  63.874  1.00  0.00    -0.359 OA 
HETATM   18  C   UNL     1     -10.052   9.893  66.230  1.00  0.00    -0.311 A  
HETATM   19  H   UNL     1     -10.684  12.151  63.074  1.00  0.00     0.000 HD 
ENDBRANCH   7  10
ENDBRANCH   6   7
ENDBRANCH   4   6
ENDBRANCH   2   4
TORSDOF 4
ENDMDL
MODEL      206
REMARK 921   NORMALIZED FREE ENERGY PREDICTED BY IDOCK:   -3.25 KCAL/MOL
REMARK 922        TOTAL FREE ENERGY PREDICTED BY IDOCK:   -4.30 KCAL/MOL
REMARK 923 INTER-LIGAND FREE ENERGY PREDICTED BY IDOCK:   -3.83 KCAL/MOL
REMARK 924 INTRA-LIGAND FREE ENERGY PREDICTED BY IDOCK:   -0.47 KCAL/MOL
REMARK 927      BINDING AFFINITY PREDICTED BY RF-SCORE:    0.00 PKD
ROOT
HETATM    1  C   UNL     1     -10.881   9.808  69.553  1.00  0.00    -0.264 C  
HETATM    2  C   UNL     1     -12.195  10.566  69.347  1.00  0.00    -0.023 C  
HETATM    3  C   UNL     1     -12.371  11.590  70.471  1.00  0.00    -0.432 C  
ENDROOT
BRANCH   2   4
HETATM    4  N   UNL     1     -12.160  11.195  68.022  1.00  0.00    -0.711 NA 
HETATM    5  H   UNL     1     -13.104  11.291  67.645  1.00  0.00     0.000 HD 
BRANCH   4   6
HETATM    6  C   UNL     1     -11.459  12.489  67.994  1.00  0.00    -0.317 C  
BRANCH   6   7
HETATM    7  C   UNL     1     -10.699  12.688  66.657  1.00  0.00    -0.253 C  
HETATM    8  H   UNL     1      -9.610  14.101  65.785  1.00  0.00     0.000 HD 
HETATM    9  O   UNL     1     -10.076  13.978  66.604  1.00  0.00    -0.264 OA 
BRANCH   7  10
HETATM   10  C   UNL     1      -9.660  11.606  66.440  1.00  0.00    -0.236 A  
HETATM   11  C   UNL     1      -9.877  10.532  65.560  1.00  0.00    -0.324 A  
HETATM   12  C   UNL     1      -8.890   9.566  65.388  1.00  0.00    -0.178 A  
HETATM   13  O   UNL     1      -9.064   8.495  64.554  1.00  0.00    -0.383 OA 
HETATM   14  C   UNL     1      -7.683   9.661  66.075  1.00  0.00    -0.102 A  
HETATM   15  H   UNL     1      -8.390   7.836  64.437  1.00  0.00     0.000 HD 
HETATM   16  C   UNL     1      -7.440  10.717  66.935  1.00  0.00    -0.120 A  
HETATM   17  O   UNL     1      -6.727   8.701  65.907  1.00  0.00    -0.060 OA 
HETATM   18  C   UNL     1      -8.426  11.689  67.117  1.00  0.00    -0.162 A  
HETATM   19  H   UNL     1      -5.904   8.765  66.376  1.00  0.00     0.000 HD 
ENDBRANCH   7  10
ENDBRANCH   6   7
ENDBRANCH   4   6
ENDBRANCH   2   4
TORSDOF 4
ENDMDL
MODEL      207
REMARK 921   NORMALIZED FREE ENERGY PREDICTED BY IDOCK:   -3.24 KCAL/MOL
REMARK 922        TOTAL FREE ENERGY PREDICTED BY IDOCK:   -4.29 KCAL/MOL
REMARK 923 INTER-LIGAND FREE ENERGY PREDICTED BY IDOCK:   -4.33 KCAL/MOL
REMARK 924 INTRA-LIGAND FREE ENERGY PREDICTED BY IDOCK:    0.03 KCAL/MOL
REMARK 927      BINDING AFFINITY PREDICTED BY RF-SCORE:    0.00 PKD
ROOT
HETATM    1  C   UNL     1     -12.910  13.775  65.186  1.00  0.00    -0.386 C  
HETATM    2  C   UNL     1     -12.230  12.472  64.756  1.00  0.00    -0.465 C  
HETATM    3  C   UNL     1     -12.371  12.302  63.241  1.00  0.00    -0.518 C  
ENDROOT
BRANCH   2   4
HETATM    4  N   UNL     1     -10.827  12.522  65.182  1.00  0.00    -0.280 NA 
HETATM    5  H   UNL     1     -10.269  11.845  64.660  1.00  0.00     0.000 HD 
BRANCH   4   6
HETATM    6  C   UNL     1     -10.226  13.862  65.098  1.00  0.00    -0.358 C  
BRANCH   6   7
HETATM    7  C   UNL     1      -9.720  14.340  66.484  1.00  0.00    -0.291 C  
HETATM    8  H   UNL     1      -9.936  15.927  67.658  1.00  0.00     0.000 HD 
HETATM    9  O   UNL     1     -10.246  15.634  66.808  1.00  0.00    -0.263 OA 
BRANCH   7  10
HETATM   10  C   UNL     1     -10.074  13.352  67.577  1.00  0.00    -0.227 A  
HETATM   11  C   UNL     1      -9.181  12.349  67.992  1.00  0.00    -0.203 A  
HETATM   12  C   UNL     1      -9.548  11.470  69.006  1.00  0.00     0.065 A  
HETATM   13  O   UNL     1      -8.718  10.468  69.430  1.00  0.00    -0.272 OA 
HETATM   14  C   UNL     1     -10.792  11.581  69.621  1.00  0.00     0.008 A  
HETATM   15  H   UNL     1      -8.968   9.868  70.122  1.00  0.00     0.000 HD 
HETATM   16  C   UNL     1     -11.683  12.570  69.241  1.00  0.00    -0.379 A  
HETATM   17  O   UNL     1     -11.146  10.704  70.605  1.00  0.00    -0.426 OA 
HETATM   18  C   UNL     1     -11.324  13.455  68.221  1.00  0.00    -0.330 A  
HETATM   19  H   UNL     1     -11.995  10.780  71.024  1.00  0.00     0.000 HD 
ENDBRANCH   7  10
ENDBRANCH   6   7
ENDBRANCH   4   6
ENDBRANCH   2   4
TORSDOF 4
ENDMDL
MODEL      208
REMARK 921   NORMALIZED FREE ENERGY PREDICTED BY IDOCK:   -3.24 KCAL/MOL
REMARK 922        TOTAL FREE ENERGY PREDICTED BY IDOCK:   -4.29 KCAL/MOL
REMARK 923 INTER-LIGAND FREE ENERGY PREDICTED BY IDOCK:   -4.03 KCAL/MOL
REMARK 924 INTRA-LIGAND FREE ENERGY PREDICTED BY IDOCK:   -0.26 KCAL/MOL
REMARK 927      BINDING AFFINITY PREDICTED BY RF-SCORE:    0.00 PKD
ROOT
HETATM    1  C   UNL     1      -6.767   4.316  72.095  1.00  0.00    -0.030 C  
HETATM    2  C   UNL     1      -8.209   4.635  72.500  1.00  0.00    -0.114 C  
HETATM    3  C   UNL     1      -8.288   4.779  74.022  1.00  0.00    -0.104 C  
ENDROOT
BRANCH   2   4
HETATM    4  N   UNL     1      -8.623   5.859  71.804  1.00  0.00    -0.131 NA 
HETATM    5  H   UNL     1      -7.829   6.487  71.680  1.00  0.00     0.000 HD 
BRANCH   4   6
HETATM    6  C   UNL     1      -9.294   5.615  70.517  1.00  0.00    -0.161 C  
BRANCH   6   7
HETATM    7  C   UNL     1      -9.851   6.932  69.914  1.00  0.00    -0.165 C  
HETATM    8  H   UNL     1     -10.534   7.569  68.163  1.00  0.00     0.000 HD 
HETATM    9  O   UNL     1     -10.193   6.763  68.533  1.00  0.00    -0.159 OA 
BRANCH   7  10
HETATM   10  C   UNL     1     -11.056   7.431  70.686  1.00  0.00    -0.285 A  
HETATM   11  C   UNL     1     -12.196   6.633  70.885  1.00  0.00    -0.324 A  
HETATM   12  C   UNL     1     -13.274   7.133  71.607  1.00  0.00    -0.346 A  
HETATM   13  O   UNL     1     -14.410   6.398  71.812  1.00  0.00    -0.066 OA 
HETATM   14  C   UNL     1     -13.230   8.416  72.146  1.00  0.00    -0.318 A  
HETATM   15  H   UNL     1     -15.147   6.739  72.305  1.00  0.00     0.000 HD 
HETATM   16  C   UNL     1     -12.112   9.215  71.977  1.00  0.00    -0.431 A  
HETATM   17  O   UNL     1     -14.299   8.899  72.843  1.00  0.00    -1.050 OA 
HETATM   18  C   UNL     1     -11.026   8.723  71.249  1.00  0.00    -0.345 A  
HETATM   19  H   UNL     1     -14.269   9.775  73.209  1.00  0.00     0.000 HD 
ENDBRANCH   7  10
ENDBRANCH   6   7
ENDBRANCH   4   6
ENDBRANCH   2   4
TORSDOF 4
ENDMDL
MODEL      209
REMARK 921   NORMALIZED FREE ENERGY PREDICTED BY IDOCK:   -3.22 KCAL/MOL
REMARK 922        TOTAL FREE ENERGY PREDICTED BY IDOCK:   -4.26 KCAL/MOL
REMARK 923 INTER-LIGAND FREE ENERGY PREDICTED BY IDOCK:   -4.23 KCAL/MOL
REMARK 924 INTRA-LIGAND FREE ENERGY PREDICTED BY IDOCK:   -0.03 KCAL/MOL
REMARK 927      BINDING AFFINITY PREDICTED BY RF-SCORE:    0.00 PKD
ROOT
HETATM    1  C   UNL     1     -12.164  11.271  70.183  1.00  0.00    -0.410 C  
HETATM    2  C   UNL     1     -11.229  11.627  69.024  1.00  0.00    -0.262 C  
HETATM    3  C   UNL     1     -10.558  10.352  68.506  1.00  0.00    -0.237 C  
ENDROOT
BRANCH   2   4
HETATM    4  N   UNL     1     -12.017  12.302  67.987  1.00  0.00    -0.458 NA 
HETATM    5  H   UNL     1     -13.000  12.039  68.056  1.00  0.00     0.000 HD 
BRANCH   4   6
HETATM    6  C   UNL     1     -11.872  13.766  67.985  1.00  0.00    -0.373 C  
BRANCH   6   7
HETATM    7  C   UNL     1     -11.319  14.276  66.629  1.00  0.00    -0.349 C  
HETATM    8  H   UNL     1     -10.041  15.654  65.989  1.00  0.00     0.000 HD 
HETATM    9  O   UNL     1     -10.380  15.341  66.820  1.00  0.00    -0.268 OA 
BRANCH   7  10
HETATM   10  C   UNL     1     -10.674  13.157  65.835  1.00  0.00    -0.287 A  
HETATM   11  C   UNL     1      -9.401  12.655  66.156  1.00  0.00    -0.117 A  
HETATM   12  C   UNL     1      -8.854  11.622  65.402  1.00  0.00     0.175 A  
HETATM   13  O   UNL     1      -7.612  11.113  65.668  1.00  0.00    -0.364 OA 
HETATM   14  C   UNL     1      -9.562  11.072  64.337  1.00  0.00    -0.259 A  
HETATM   15  H   UNL     1      -7.238  10.407  65.154  1.00  0.00     0.000 HD 
HETATM   16  C   UNL     1     -10.824  11.539  64.011  1.00  0.00    -0.453 A  
HETATM   17  O   UNL     1      -9.009  10.067  63.598  1.00  0.00    -0.214 OA 
HETATM   18  C   UNL     1     -11.380  12.579  64.760  1.00  0.00    -0.354 A  
HETATM   19  H   UNL     1      -9.493   9.693  62.871  1.00  0.00     0.000 HD 
ENDBRANCH   7  10
ENDBRANCH   6   7
ENDBRANCH   4   6
ENDBRANCH   2   4
TORSDOF 4
ENDMDL
MODEL      210
REMARK 921   NORMALIZED FREE ENERGY PREDICTED BY IDOCK:   -3.21 KCAL/MOL
REMARK 922        TOTAL FREE ENERGY PREDICTED BY IDOCK:   -4.25 KCAL/MOL
REMARK 923 INTER-LIGAND FREE ENERGY PREDICTED BY IDOCK:   -3.71 KCAL/MOL
REMARK 924 INTRA-LIGAND FREE ENERGY PREDICTED BY IDOCK:   -0.54 KCAL/MOL
REMARK 927      BINDING AFFINITY PREDICTED BY RF-SCORE:    0.00 PKD
ROOT
HETATM    1  C   UNL     1      -9.425  14.726  67.533  1.00  0.00    -0.197 C  
HETATM    2  C   UNL     1      -8.062  14.132  67.900  1.00  0.00    -0.154 C  
HETATM    3  C   UNL     1      -8.049  12.641  67.554  1.00  0.00    -0.178 C  
ENDROOT
BRANCH   2   4
HETATM    4  N   UNL     1      -7.025  14.879  67.181  1.00  0.00    -0.342 NA 
HETATM    5  H   UNL     1      -7.439  15.440  66.435  1.00  0.00     0.000 HD 
BRANCH   4   6
HETATM    6  C   UNL     1      -6.181  15.715  68.049  1.00  0.00    -0.136 C  
BRANCH   6   7
HETATM    7  C   UNL     1      -6.111  17.175  67.529  1.00  0.00    -0.139 C  
HETATM    8  H   UNL     1      -5.427  18.132  65.930  1.00  0.00     0.000 HD 
HETATM    9  O   UNL     1      -5.471  17.238  66.249  1.00  0.00    -0.240 OA 
BRANCH   7  10
HETATM   10  C   UNL     1      -7.488  17.804  67.448  1.00  0.00    -0.210 A  
HETATM   11  C   UNL     1      -8.294  17.978  68.586  1.00  0.00    -0.282 A  
HETATM   12  C   UNL     1      -9.548  18.568  68.462  1.00  0.00    -0.358 A  
HETATM   13  O   UNL     1     -10.374  18.742  69.539  1.00  0.00    -0.374 OA 
HETATM   14  C   UNL     1     -10.008  18.997  67.220  1.00  0.00    -0.344 A  
HETATM   15  H   UNL     1     -11.230  19.145  69.455  1.00  0.00     0.000 HD 
HETATM   16  C   UNL     1      -9.225  18.851  66.088  1.00  0.00    -0.188 A  
HETATM   17  O   UNL     1     -11.245  19.563  67.110  1.00  0.00    -0.353 OA 
HETATM   18  C   UNL     1      -7.966  18.256  66.202  1.00  0.00    -0.219 A  
HETATM   19  H   UNL     1     -11.558  19.855  66.262  1.00  0.00     0.000 HD 
ENDBRANCH   7  10
ENDBRANCH   6   7
ENDBRANCH   4   6
ENDBRANCH   2   4
TORSDOF 4
ENDMDL
MODEL      211
REMARK 921   NORMALIZED FREE ENERGY PREDICTED BY IDOCK:   -3.21 KCAL/MOL
REMARK 922        TOTAL FREE ENERGY PREDICTED BY IDOCK:   -4.24 KCAL/MOL
REMARK 923 INTER-LIGAND FREE ENERGY PREDICTED BY IDOCK:   -4.09 KCAL/MOL
REMARK 924 INTRA-LIGAND FREE ENERGY PREDICTED BY IDOCK:   -0.15 KCAL/MOL
REMARK 927      BINDING AFFINITY PREDICTED BY RF-SCORE:    0.00 PKD
ROOT
HETATM    1  C   UNL     1      -8.697   8.737  66.722  1.00  0.00    -0.134 C  
HETATM    2  C   UNL     1     -10.065   9.422  66.793  1.00  0.00    -0.256 C  
HETATM    3  C   UNL     1     -10.082  10.398  67.972  1.00  0.00    -0.189 C  
ENDROOT
BRANCH   2   4
HETATM    4  N   UNL     1     -10.310  10.094  65.512  1.00  0.00    -0.204 NA 
HETATM    5  H   UNL     1     -10.866   9.499  64.896  1.00  0.00     0.000 HD 
BRANCH   4   6
HETATM    6  C   UNL     1     -10.928  11.422  65.643  1.00  0.00    -0.190 C  
BRANCH   6   7
HETATM    7  C   UNL     1      -9.886  12.552  65.434  1.00  0.00    -0.163 C  
HETATM    8  H   UNL     1      -9.175  13.631  63.927  1.00  0.00     0.000 HD 
HETATM    9  O   UNL     1      -9.814  12.939  64.056  1.00  0.00    -0.240 OA 
BRANCH   7  10
HETATM   10  C   UNL     1     -10.196  13.761  66.293  1.00  0.00    -0.298 A  
HETATM   11  C   UNL     1     -11.172  13.726  67.304  1.00  0.00    -0.329 A  
HETATM   12  C   UNL     1     -11.416  14.860  68.072  1.00  0.00    -0.337 A  
HETATM   13  O   UNL     1     -12.367  14.877  69.055  1.00  0.00    -0.565 OA 
HETATM   14  C   UNL     1     -10.692  16.029  67.855  1.00  0.00    -0.316 A  
HETATM   15  H   UNL     1     -12.533  15.650  69.580  1.00  0.00     0.000 HD 
HETATM   16  C   UNL     1      -9.714  16.084  66.876  1.00  0.00    -0.244 A  
HETATM   17  O   UNL     1     -10.948  17.139  68.607  1.00  0.00    -0.295 OA 
HETATM   18  C   UNL     1      -9.466  14.951  66.097  1.00  0.00    -0.328 A  
HETATM   19  H   UNL     1     -10.454  17.936  68.458  1.00  0.00     0.000 HD 
ENDBRANCH   7  10
ENDBRANCH   6   7
ENDBRANCH   4   6
ENDBRANCH   2   4
TORSDOF 4
ENDMDL
MODEL      212
REMARK 921   NORMALIZED FREE ENERGY PREDICTED BY IDOCK:   -3.21 KCAL/MOL
REMARK 922        TOTAL FREE ENERGY PREDICTED BY IDOCK:   -4.24 KCAL/MOL
REMARK 923 INTER-LIGAND FREE ENERGY PREDICTED BY IDOCK:   -3.65 KCAL/MOL
REMARK 924 INTRA-LIGAND FREE ENERGY PREDICTED BY IDOCK:   -0.60 KCAL/MOL
REMARK 927      BINDING AFFINITY PREDICTED BY RF-SCORE:    0.00 PKD
ROOT
HETATM    1  C   UNL     1      -8.291   8.864  70.934  1.00  0.00    -0.219 C  
HETATM    2  C   UNL     1      -9.620   8.863  71.695  1.00  0.00    -0.293 C  
HETATM    3  C   UNL     1     -10.711   9.471  70.809  1.00  0.00    -0.391 C  
ENDROOT
BRANCH   2   4
HETATM    4  N   UNL     1      -9.926   7.482  72.085  1.00  0.00    -0.173 NA 
HETATM    5  H   UNL     1     -10.934   7.321  72.073  1.00  0.00     0.000 HD 
BRANCH   4   6
HETATM    6  C   UNL     1      -9.231   6.466  71.279  1.00  0.00    -0.156 C  
BRANCH   6   7
HETATM    7  C   UNL     1     -10.238   5.527  70.566  1.00  0.00    -0.242 C  
HETATM    8  H   UNL     1     -12.207   5.296  70.460  1.00  0.00     0.000 HD 
HETATM    9  O   UNL     1     -11.589   5.871  70.897  1.00  0.00    -0.172 OA 
BRANCH   7  10
HETATM   10  C   UNL     1     -10.054   5.552  69.062  1.00  0.00    -0.275 A  
HETATM   11  C   UNL     1     -10.130   6.745  68.323  1.00  0.00    -0.173 A  
HETATM   12  C   UNL     1      -9.946   6.719  66.944  1.00  0.00    -0.191 A  
HETATM   13  O   UNL     1     -10.027   7.853  66.182  1.00  0.00    -0.466 OA 
HETATM   14  C   UNL     1      -9.676   5.520  66.290  1.00  0.00    -0.151 A  
HETATM   15  H   UNL     1      -9.901   7.835  65.241  1.00  0.00     0.000 HD 
HETATM   16  C   UNL     1      -9.580   4.334  66.998  1.00  0.00    -0.227 A  
HETATM   17  O   UNL     1      -9.509   5.506  64.936  1.00  0.00    -0.348 OA 
HETATM   18  C   UNL     1      -9.768   4.350  68.382  1.00  0.00    -0.172 A  
HETATM   19  H   UNL     1      -9.325   4.687  64.490  1.00  0.00     0.000 HD 
ENDBRANCH   7  10
ENDBRANCH   6   7
ENDBRANCH   4   6
ENDBRANCH   2   4
TORSDOF 4
ENDMDL
MODEL      213
REMARK 921   NORMALIZED FREE ENERGY PREDICTED BY IDOCK:   -3.18 KCAL/MOL
REMARK 922        TOTAL FREE ENERGY PREDICTED BY IDOCK:   -4.21 KCAL/MOL
REMARK 923 INTER-LIGAND FREE ENERGY PREDICTED BY IDOCK:   -4.03 KCAL/MOL
REMARK 924 INTRA-LIGAND FREE ENERGY PREDICTED BY IDOCK:   -0.18 KCAL/MOL
REMARK 927      BINDING AFFINITY PREDICTED BY RF-SCORE:    0.00 PKD
ROOT
HETATM    1  C   UNL     1      -7.264  10.446  66.543  1.00  0.00    -0.118 C  
HETATM    2  C   UNL     1      -7.900   9.065  66.732  1.00  0.00    -0.104 C  
HETATM    3  C   UNL     1      -6.798   8.026  66.951  1.00  0.00    -0.073 C  
ENDROOT
BRANCH   2   4
HETATM    4  N   UNL     1      -8.830   9.137  67.864  1.00  0.00    -0.128 NA 
HETATM    5  H   UNL     1      -9.794   9.047  67.543  1.00  0.00     0.000 HD 
BRANCH   4   6
HETATM    6  C   UNL     1      -8.547   8.164  68.931  1.00  0.00    -0.130 C  
BRANCH   6   7
HETATM    7  C   UNL     1      -8.497   8.850  70.321  1.00  0.00    -0.160 C  
HETATM    8  H   UNL     1      -7.756  10.515  71.109  1.00  0.00     0.000 HD 
HETATM    9  O   UNL     1      -7.787  10.094  70.258  1.00  0.00    -0.173 OA 
BRANCH   7  10
HETATM   10  C   UNL     1      -9.888   9.079  70.879  1.00  0.00    -0.330 A  
HETATM   11  C   UNL     1     -10.738  10.078  70.373  1.00  0.00    -0.369 A  
HETATM   12  C   UNL     1     -12.009  10.245  70.913  1.00  0.00    -0.375 A  
HETATM   13  O   UNL     1     -12.864  11.214  70.463  1.00  0.00    -0.235 OA 
HETATM   14  C   UNL     1     -12.452   9.422  71.945  1.00  0.00    -0.390 A  
HETATM   15  H   UNL     1     -13.732  11.328  70.831  1.00  0.00     0.000 HD 
HETATM   16  C   UNL     1     -11.639   8.421  72.449  1.00  0.00    -0.450 A  
HETATM   17  O   UNL     1     -13.697   9.603  72.474  1.00  0.00    -0.673 OA 
HETATM   18  C   UNL     1     -10.360   8.249  71.916  1.00  0.00    -0.324 A  
HETATM   19  H   UNL     1     -13.998   9.042  73.178  1.00  0.00     0.000 HD 
ENDBRANCH   7  10
ENDBRANCH   6   7
ENDBRANCH   4   6
ENDBRANCH   2   4
TORSDOF 4
ENDMDL
MODEL      214
REMARK 921   NORMALIZED FREE ENERGY PREDICTED BY IDOCK:   -3.18 KCAL/MOL
REMARK 922        TOTAL FREE ENERGY PREDICTED BY IDOCK:   -4.21 KCAL/MOL
REMARK 923 INTER-LIGAND FREE ENERGY PREDICTED BY IDOCK:   -3.90 KCAL/MOL
REMARK 924 INTRA-LIGAND FREE ENERGY PREDICTED BY IDOCK:   -0.31 KCAL/MOL
REMARK 927      BINDING AFFINITY PREDICTED BY RF-SCORE:    0.00 PKD
ROOT
HETATM    1  C   UNL     1     -12.501  13.945  65.411  1.00  0.00    -0.528 C  
HETATM    2  C   UNL     1     -10.990  13.980  65.163  1.00  0.00    -0.353 C  
HETATM    3  C   UNL     1     -10.451  15.367  65.522  1.00  0.00    -0.402 C  
ENDROOT
BRANCH   2   4
HETATM    4  N   UNL     1     -10.367  12.918  65.960  1.00  0.00    -0.277 NA 
HETATM    5  H   UNL     1      -9.410  12.750  65.648  1.00  0.00     0.000 HD 
BRANCH   4   6
HETATM    6  C   UNL     1     -10.404  13.160  67.411  1.00  0.00    -0.239 C  
BRANCH   6   7
HETATM    7  C   UNL     1     -10.926  11.917  68.177  1.00  0.00    -0.227 C  
HETATM    8  H   UNL     1     -12.602  10.858  68.285  1.00  0.00     0.000 HD 
HETATM    9  O   UNL     1     -12.281  11.619  67.816  1.00  0.00    -0.560 OA 
BRANCH   7  10
HETATM   10  C   UNL     1     -10.050  10.705  67.934  1.00  0.00    -0.194 A  
HETATM   11  C   UNL     1      -8.703  10.668  68.334  1.00  0.00    -0.141 A  
HETATM   12  C   UNL     1      -7.940   9.528  68.095  1.00  0.00    -0.094 A  
HETATM   13  O   UNL     1      -6.622   9.454  68.453  1.00  0.00    -0.054 OA 
HETATM   14  C   UNL     1      -8.504   8.419  67.472  1.00  0.00    -0.129 A  
HETATM   15  H   UNL     1      -6.101   8.676  68.290  1.00  0.00     0.000 HD 
HETATM   16  C   UNL     1      -9.833   8.425  67.083  1.00  0.00    -0.279 A  
HETATM   17  O   UNL     1      -7.743   7.312  67.233  1.00  0.00    -0.105 OA 
HETATM   18  C   UNL     1     -10.605   9.566  67.315  1.00  0.00    -0.317 A  
HETATM   19  H   UNL     1      -8.128   6.555  66.808  1.00  0.00     0.000 HD 
ENDBRANCH   7  10
ENDBRANCH   6   7
ENDBRANCH   4   6
ENDBRANCH   2   4
TORSDOF 4
ENDMDL
MODEL      215
REMARK 921   NORMALIZED FREE ENERGY PREDICTED BY IDOCK:   -3.17 KCAL/MOL
REMARK 922        TOTAL FREE ENERGY PREDICTED BY IDOCK:   -4.20 KCAL/MOL
REMARK 923 INTER-LIGAND FREE ENERGY PREDICTED BY IDOCK:   -3.84 KCAL/MOL
REMARK 924 INTRA-LIGAND FREE ENERGY PREDICTED BY IDOCK:   -0.36 KCAL/MOL
REMARK 927      BINDING AFFINITY PREDICTED BY RF-SCORE:    0.00 PKD
ROOT
HETATM    1  C   UNL     1      -9.827   8.018  67.666  1.00  0.00    -0.214 C  
HETATM    2  C   UNL     1      -9.043   6.958  66.886  1.00  0.00    -0.139 C  
HETATM    3  C   UNL     1     -10.022   6.080  66.102  1.00  0.00    -0.003 C  
ENDROOT
BRANCH   2   4
HETATM    4  N   UNL     1      -8.087   7.645  66.009  1.00  0.00    -0.112 NA 
HETATM    5  H   UNL     1      -7.309   7.028  65.776  1.00  0.00     0.000 HD 
BRANCH   4   6
HETATM    6  C   UNL     1      -8.691   8.201  64.788  1.00  0.00     0.123 C  
BRANCH   6   7
HETATM    7  C   UNL     1      -8.228   9.662  64.546  1.00  0.00    -0.151 C  
HETATM    8  H   UNL     1      -7.186  10.664  63.186  1.00  0.00     0.000 HD 
HETATM    9  O   UNL     1      -7.470   9.770  63.335  1.00  0.00    -0.115 OA 
BRANCH   7  10
HETATM   10  C   UNL     1      -9.403  10.618  64.506  1.00  0.00    -0.284 A  
HETATM   11  C   UNL     1     -10.197  10.870  65.638  1.00  0.00    -0.323 A  
HETATM   12  C   UNL     1     -11.261  11.763  65.554  1.00  0.00    -0.258 A  
HETATM   13  O   UNL     1     -12.070  12.027  66.625  1.00  0.00    -0.615 OA 
HETATM   14  C   UNL     1     -11.540  12.418  64.358  1.00  0.00    -0.354 A  
HETATM   15  H   UNL     1     -12.796  12.636  66.568  1.00  0.00     0.000 HD 
HETATM   16  C   UNL     1     -10.763  12.198  63.233  1.00  0.00    -0.373 A  
HETATM   17  O   UNL     1     -12.594  13.282  64.284  1.00  0.00    -0.617 OA 
HETATM   18  C   UNL     1      -9.695  11.300  63.307  1.00  0.00    -0.405 A  
HETATM   19  H   UNL     1     -12.784  13.729  63.468  1.00  0.00     0.000 HD 
ENDBRANCH   7  10
ENDBRANCH   6   7
ENDBRANCH   4   6
ENDBRANCH   2   4
TORSDOF 4
ENDMDL
MODEL      216
REMARK 921   NORMALIZED FREE ENERGY PREDICTED BY IDOCK:   -3.17 KCAL/MOL
REMARK 922        TOTAL FREE ENERGY PREDICTED BY IDOCK:   -4.20 KCAL/MOL
REMARK 923 INTER-LIGAND FREE ENERGY PREDICTED BY IDOCK:   -3.75 KCAL/MOL
REMARK 924 INTRA-LIGAND FREE ENERGY PREDICTED BY IDOCK:   -0.45 KCAL/MOL
REMARK 927      BINDING AFFINITY PREDICTED BY RF-SCORE:    0.00 PKD
ROOT
HETATM    1  C   UNL     1      -8.428   8.004  73.343  1.00  0.00    -0.295 C  
HETATM    2  C   UNL     1      -8.872   6.570  73.037  1.00  0.00    -0.128 C  
HETATM    3  C   UNL     1      -8.068   5.596  73.903  1.00  0.00    -0.107 C  
ENDROOT
BRANCH   2   4
HETATM    4  N   UNL     1     -10.315   6.472  73.285  1.00  0.00    -0.220 NA 
HETATM    5  H   UNL     1     -10.495   6.109  74.221  1.00  0.00     0.000 HD 
BRANCH   4   6
HETATM    6  C   UNL     1     -11.044   7.732  73.071  1.00  0.00    -0.359 C  
BRANCH   6   7
HETATM    7  C   UNL     1     -12.090   7.592  71.934  1.00  0.00    -0.305 C  
HETATM    8  H   UNL     1     -13.771   8.484  71.368  1.00  0.00     0.000 HD 
HETATM    9  O   UNL     1     -13.130   8.569  72.065  1.00  0.00    -0.338 OA 
BRANCH   7  10
HETATM   10  C   UNL     1     -11.445   7.707  70.567  1.00  0.00    -0.236 A  
HETATM   11  C   UNL     1     -10.847   8.899  70.124  1.00  0.00    -0.251 A  
HETATM   12  C   UNL     1     -10.260   8.953  68.863  1.00  0.00    -0.206 A  
HETATM   13  O   UNL     1      -9.682  10.097  68.384  1.00  0.00    -0.143 OA 
HETATM   14  C   UNL     1     -10.250   7.831  68.040  1.00  0.00    -0.201 A  
HETATM   15  H   UNL     1      -9.281  10.134  67.524  1.00  0.00     0.000 HD 
HETATM   16  C   UNL     1     -10.818   6.641  68.460  1.00  0.00    -0.319 A  
HETATM   17  O   UNL     1      -9.682   7.900  66.801  1.00  0.00    -0.198 OA 
HETATM   18  C   UNL     1     -11.414   6.578  69.723  1.00  0.00    -0.443 A  
HETATM   19  H   UNL     1      -9.676   7.134  66.239  1.00  0.00     0.000 HD 
ENDBRANCH   7  10
ENDBRANCH   6   7
ENDBRANCH   4   6
ENDBRANCH   2   4
TORSDOF 4
ENDMDL
MODEL      217
REMARK 921   NORMALIZED FREE ENERGY PREDICTED BY IDOCK:   -3.16 KCAL/MOL
REMARK 922        TOTAL FREE ENERGY PREDICTED BY IDOCK:   -4.19 KCAL/MOL
REMARK 923 INTER-LIGAND FREE ENERGY PREDICTED BY IDOCK:   -3.89 KCAL/MOL
REMARK 924 INTRA-LIGAND FREE ENERGY PREDICTED BY IDOCK:   -0.30 KCAL/MOL
REMARK 927      BINDING AFFINITY PREDICTED BY RF-SCORE:    0.00 PKD
ROOT
HETATM    1  C   UNL     1      -6.647  10.259  68.969  1.00  0.00    -0.053 C  
HETATM    2  C   UNL     1      -7.288   9.231  69.906  1.00  0.00    -0.074 C  
HETATM    3  C   UNL     1      -6.496   9.176  71.216  1.00  0.00    -0.082 C  
ENDROOT
BRANCH   2   4
HETATM    4  N   UNL     1      -8.689   9.612  70.118  1.00  0.00    -0.227 NA 
HETATM    5  H   UNL     1      -8.774  10.624  70.218  1.00  0.00     0.000 HD 
BRANCH   4   6
HETATM    6  C   UNL     1      -9.606   9.115  69.080  1.00  0.00    -0.161 C  
BRANCH   6   7
HETATM    7  C   UNL     1     -10.898   9.971  69.015  1.00  0.00    -0.222 C  
HETATM    8  H   UNL     1     -11.764  11.405  70.079  1.00  0.00     0.000 HD 
HETATM    9  O   UNL     1     -10.972  10.881  70.119  1.00  0.00    -0.230 OA 
BRANCH   7  10
HETATM   10  C   UNL     1     -10.993  10.736  67.710  1.00  0.00    -0.354 A  
HETATM   11  C   UNL     1     -11.659  11.971  67.618  1.00  0.00    -0.392 A  
HETATM   12  C   UNL     1     -11.712  12.640  66.399  1.00  0.00    -0.405 A  
HETATM   13  O   UNL     1     -12.363  13.835  66.259  1.00  0.00    -0.444 OA 
HETATM   14  C   UNL     1     -11.101  12.102  65.270  1.00  0.00    -0.321 A  
HETATM   15  H   UNL     1     -12.400  14.293  65.427  1.00  0.00     0.000 HD 
HETATM   16  C   UNL     1     -10.425  10.895  65.339  1.00  0.00    -0.291 A  
HETATM   17  O   UNL     1     -11.171  12.762  64.078  1.00  0.00    -0.362 OA 
HETATM   18  C   UNL     1     -10.370  10.214  66.558  1.00  0.00    -0.270 A  
HETATM   19  H   UNL     1     -10.754  12.394  63.307  1.00  0.00     0.000 HD 
ENDBRANCH   7  10
ENDBRANCH   6   7
ENDBRANCH   4   6
ENDBRANCH   2   4
TORSDOF 4
ENDMDL
MODEL      218
REMARK 921   NORMALIZED FREE ENERGY PREDICTED BY IDOCK:   -3.15 KCAL/MOL
REMARK 922        TOTAL FREE ENERGY PREDICTED BY IDOCK:   -4.17 KCAL/MOL
REMARK 923 INTER-LIGAND FREE ENERGY PREDICTED BY IDOCK:   -3.62 KCAL/MOL
REMARK 924 INTRA-LIGAND FREE ENERGY PREDICTED BY IDOCK:   -0.56 KCAL/MOL
REMARK 927      BINDING AFFINITY PREDICTED BY RF-SCORE:    0.00 PKD
ROOT
HETATM    1  C   UNL     1      -9.512   8.508  72.309  1.00  0.00    -0.365 C  
HETATM    2  C   UNL     1     -10.839   8.215  73.015  1.00  0.00    -0.123 C  
HETATM    3  C   UNL     1     -11.982   8.302  71.999  1.00  0.00    -0.405 C  
ENDROOT
BRANCH   2   4
HETATM    4  N   UNL     1     -10.747   6.890  73.637  1.00  0.00    -0.509 NA 
HETATM    5  H   UNL     1     -11.647   6.411  73.595  1.00  0.00     0.000 HD 
BRANCH   4   6
HETATM    6  C   UNL     1      -9.683   6.041  73.079  1.00  0.00    -0.158 C  
BRANCH   6   7
HETATM    7  C   UNL     1     -10.242   4.672  72.612  1.00  0.00    -0.184 C  
HETATM    8  H   UNL     1     -11.952   3.670  72.724  1.00  0.00     0.000 HD 
HETATM    9  O   UNL     1     -11.609   4.508  73.010  1.00  0.00    -0.176 OA 
BRANCH   7  10
HETATM   10  C   UNL     1     -10.120   4.504  71.110  1.00  0.00    -0.218 A  
HETATM   11  C   UNL     1     -10.594   5.476  70.212  1.00  0.00    -0.357 A  
HETATM   12  C   UNL     1     -10.452   5.281  68.842  1.00  0.00    -0.120 A  
HETATM   13  O   UNL     1     -10.912   6.192  67.930  1.00  0.00    -0.312 OA 
HETATM   14  C   UNL     1      -9.833   4.134  68.352  1.00  0.00    -0.012 A  
HETATM   15  H   UNL     1     -10.815   6.059  66.995  1.00  0.00     0.000 HD 
HETATM   16  C   UNL     1      -9.344   3.170  69.217  1.00  0.00    -0.223 A  
HETATM   17  O   UNL     1      -9.710   3.948  67.005  1.00  0.00    -0.214 OA 
HETATM   18  C   UNL     1      -9.486   3.355  70.594  1.00  0.00    -0.243 A  
HETATM   19  H   UNL     1      -9.289   3.165  66.671  1.00  0.00     0.000 HD 
ENDBRANCH   7  10
ENDBRANCH   6   7
ENDBRANCH   4   6
ENDBRANCH   2   4
TORSDOF 4
ENDMDL
MODEL      219
REMARK 921   NORMALIZED FREE ENERGY PREDICTED BY IDOCK:   -3.12 KCAL/MOL
REMARK 922        TOTAL FREE ENERGY PREDICTED BY IDOCK:   -4.14 KCAL/MOL
REMARK 923 INTER-LIGAND FREE ENERGY PREDICTED BY IDOCK:   -3.74 KCAL/MOL
REMARK 924 INTRA-LIGAND FREE ENERGY PREDICTED BY IDOCK:   -0.40 KCAL/MOL
REMARK 927      BINDING AFFINITY PREDICTED BY RF-SCORE:    0.00 PKD
ROOT
HETATM    1  C   UNL     1      -9.472  11.137  68.101  1.00  0.00    -0.180 C  
HETATM    2  C   UNL     1     -10.410  10.509  67.066  1.00  0.00    -0.237 C  
HETATM    3  C   UNL     1     -10.605  11.483  65.902  1.00  0.00    -0.318 C  
ENDROOT
BRANCH   2   4
HETATM    4  N   UNL     1      -9.829   9.233  66.632  1.00  0.00    -0.224 NA 
HETATM    5  H   UNL     1      -8.836   9.193  66.865  1.00  0.00     0.000 HD 
BRANCH   4   6
HETATM    6  C   UNL     1     -10.530   8.049  67.155  1.00  0.00    -0.338 C  
BRANCH   6   7
HETATM    7  C   UNL     1      -9.642   7.264  68.155  1.00  0.00    -0.140 C  
HETATM    8  H   UNL     1      -7.737   7.233  68.714  1.00  0.00     0.000 HD 
HETATM    9  O   UNL     1      -8.282   7.714  68.101  1.00  0.00    -0.122 OA 
BRANCH   7  10
HETATM   10  C   UNL     1     -10.166   7.377  69.572  1.00  0.00    -0.204 A  
HETATM   11  C   UNL     1      -9.843   6.433  70.563  1.00  0.00    -0.207 A  
HETATM   12  C   UNL     1     -10.342   6.583  71.852  1.00  0.00    -0.200 A  
HETATM   13  O   UNL     1     -10.067   5.681  72.844  1.00  0.00    -0.170 OA 
HETATM   14  C   UNL     1     -11.153   7.668  72.174  1.00  0.00    -0.267 A  
HETATM   15  H   UNL     1     -10.408   5.784  73.724  1.00  0.00     0.000 HD 
HETATM   16  C   UNL     1     -11.473   8.619  71.220  1.00  0.00    -0.341 A  
HETATM   17  O   UNL     1     -11.647   7.798  73.439  1.00  0.00    -0.623 OA 
HETATM   18  C   UNL     1     -10.979   8.474  69.921  1.00  0.00    -0.165 A  
HETATM   19  H   UNL     1     -12.201   8.538  73.658  1.00  0.00     0.000 HD 
ENDBRANCH   7  10
ENDBRANCH   6   7
ENDBRANCH   4   6
ENDBRANCH   2   4
TORSDOF 4
ENDMDL
MODEL      220
REMARK 921   NORMALIZED FREE ENERGY PREDICTED BY IDOCK:   -3.10 KCAL/MOL
REMARK 922        TOTAL FREE ENERGY PREDICTED BY IDOCK:   -4.12 KCAL/MOL
REMARK 923 INTER-LIGAND FREE ENERGY PREDICTED BY IDOCK:   -3.88 KCAL/MOL
REMARK 924 INTRA-LIGAND FREE ENERGY PREDICTED BY IDOCK:   -0.24 KCAL/MOL
REMARK 927      BINDING AFFINITY PREDICTED BY RF-SCORE:    0.00 PKD
ROOT
HETATM    1  C   UNL     1     -10.898   7.751  72.776  1.00  0.00    -0.438 C  
HETATM    2  C   UNL     1      -9.527   8.339  73.121  1.00  0.00    -0.193 C  
HETATM    3  C   UNL     1      -8.709   7.299  73.891  1.00  0.00    -0.230 C  
ENDROOT
BRANCH   2   4
HETATM    4  N   UNL     1      -8.873   8.746  71.871  1.00  0.00    -0.344 NA 
HETATM    5  H   UNL     1      -8.342   7.970  71.475  1.00  0.00     0.000 HD 
BRANCH   4   6
HETATM    6  C   UNL     1      -9.796   9.305  70.870  1.00  0.00    -0.293 C  
BRANCH   6   7
HETATM    7  C   UNL     1      -9.535   8.701  69.466  1.00  0.00    -0.162 C  
HETATM    8  H   UNL     1     -10.194   7.176  68.380  1.00  0.00     0.000 HD 
HETATM    9  O   UNL     1     -10.353   7.546  69.240  1.00  0.00    -0.200 OA 
BRANCH   7  10
HETATM   10  C   UNL     1      -9.772   9.721  68.369  1.00  0.00    -0.162 A  
HETATM   11  C   UNL     1      -8.816   9.975  67.370  1.00  0.00    -0.132 A  
HETATM   12  C   UNL     1      -9.082  10.915  66.380  1.00  0.00    -0.172 A  
HETATM   13  O   UNL     1      -8.175  11.206  65.397  1.00  0.00    -0.359 OA 
HETATM   14  C   UNL     1     -10.293  11.601  66.363  1.00  0.00    -0.230 A  
HETATM   15  H   UNL     1      -8.356  11.847  64.721  1.00  0.00     0.000 HD 
HETATM   16  C   UNL     1     -11.257  11.357  67.327  1.00  0.00    -0.370 A  
HETATM   17  O   UNL     1     -10.537  12.529  65.393  1.00  0.00    -0.268 OA 
HETATM   18  C   UNL     1     -10.997  10.418  68.328  1.00  0.00    -0.321 A  
HETATM   19  H   UNL     1     -11.364  12.997  65.383  1.00  0.00     0.000 HD 
ENDBRANCH   7  10
ENDBRANCH   6   7
ENDBRANCH   4   6
ENDBRANCH   2   4
TORSDOF 4
ENDMDL
MODEL      221
REMARK 921   NORMALIZED FREE ENERGY PREDICTED BY IDOCK:   -3.09 KCAL/MOL
REMARK 922        TOTAL FREE ENERGY PREDICTED BY IDOCK:   -4.10 KCAL/MOL
REMARK 923 INTER-LIGAND FREE ENERGY PREDICTED BY IDOCK:   -4.43 KCAL/MOL
REMARK 924 INTRA-LIGAND FREE ENERGY PREDICTED BY IDOCK:    0.33 KCAL/MOL
REMARK 927      BINDING AFFINITY PREDICTED BY RF-SCORE:    0.00 PKD
ROOT
HETATM    1  C   UNL     1     -12.534  11.804  63.352  1.00  0.00    -0.490 C  
HETATM    2  C   UNL     1     -11.226  12.218  64.032  1.00  0.00    -0.392 C  
HETATM    3  C   UNL     1     -10.046  11.589  63.285  1.00  0.00    -0.439 C  
ENDROOT
BRANCH   2   4
HETATM    4  N   UNL     1     -11.158  13.684  64.047  1.00  0.00    -0.565 NA 
HETATM    5  H   UNL     1     -12.092  14.087  63.965  1.00  0.00     0.000 HD 
BRANCH   4   6
HETATM    6  C   UNL     1     -10.457  14.237  65.216  1.00  0.00    -0.389 C  
BRANCH   6   7
HETATM    7  C   UNL     1     -11.093  13.741  66.541  1.00  0.00    -0.306 C  
HETATM    8  H   UNL     1     -12.890  13.211  67.197  1.00  0.00     0.000 HD 
HETATM    9  O   UNL     1     -12.500  13.515  66.386  1.00  0.00    -0.380 OA 
BRANCH   7  10
HETATM   10  C   UNL     1     -10.421  12.478  67.042  1.00  0.00    -0.246 A  
HETATM   11  C   UNL     1      -9.116  12.126  66.657  1.00  0.00    -0.206 A  
HETATM   12  C   UNL     1      -8.538  10.961  67.151  1.00  0.00    -0.130 A  
HETATM   13  O   UNL     1      -7.277  10.571  66.791  1.00  0.00    -0.102 OA 
HETATM   14  C   UNL     1      -9.239  10.143  68.033  1.00  0.00    -0.138 A  
HETATM   15  H   UNL     1      -6.882   9.775  67.127  1.00  0.00     0.000 HD 
HETATM   16  C   UNL     1     -10.520  10.476  68.439  1.00  0.00    -0.212 A  
HETATM   17  O   UNL     1      -8.666   8.996  68.500  1.00  0.00    -0.132 OA 
HETATM   18  C   UNL     1     -11.110  11.643  67.945  1.00  0.00    -0.306 A  
HETATM   19  H   UNL     1      -9.145   8.438  69.102  1.00  0.00     0.000 HD 
ENDBRANCH   7  10
ENDBRANCH   6   7
ENDBRANCH   4   6
ENDBRANCH   2   4
TORSDOF 4
ENDMDL
MODEL      222
REMARK 921   NORMALIZED FREE ENERGY PREDICTED BY IDOCK:   -3.08 KCAL/MOL
REMARK 922        TOTAL FREE ENERGY PREDICTED BY IDOCK:   -4.09 KCAL/MOL
REMARK 923 INTER-LIGAND FREE ENERGY PREDICTED BY IDOCK:   -3.87 KCAL/MOL
REMARK 924 INTRA-LIGAND FREE ENERGY PREDICTED BY IDOCK:   -0.22 KCAL/MOL
REMARK 927      BINDING AFFINITY PREDICTED BY RF-SCORE:    0.00 PKD
ROOT
HETATM    1  C   UNL     1     -10.600   4.082  64.851  1.00  0.00    -0.148 C  
HETATM    2  C   UNL     1      -9.431   3.849  65.812  1.00  0.00    -0.178 C  
HETATM    3  C   UNL     1      -8.176   4.528  65.257  1.00  0.00    -0.112 C  
ENDROOT
BRANCH   2   4
HETATM    4  N   UNL     1      -9.808   4.372  67.131  1.00  0.00    -0.198 NA 
HETATM    5  H   UNL     1      -9.745   3.639  67.838  1.00  0.00     0.000 HD 
BRANCH   4   6
HETATM    6  C   UNL     1      -9.042   5.558  67.544  1.00  0.00    -0.107 C  
BRANCH   6   7
HETATM    7  C   UNL     1      -9.953   6.808  67.653  1.00  0.00    -0.137 C  
HETATM    8  H   UNL     1     -11.685   7.430  66.907  1.00  0.00     0.000 HD 
HETATM    9  O   UNL     1     -11.126   6.665  66.841  1.00  0.00    -0.400 OA 
BRANCH   7  10
HETATM   10  C   UNL     1     -10.352   7.083  69.089  1.00  0.00    -0.209 A  
HETATM   11  C   UNL     1      -9.771   8.121  69.838  1.00  0.00    -0.176 A  
HETATM   12  C   UNL     1     -10.176   8.339  71.151  1.00  0.00    -0.198 A  
HETATM   13  O   UNL     1      -9.627   9.327  71.922  1.00  0.00    -0.274 OA 
HETATM   14  C   UNL     1     -11.161   7.543  71.728  1.00  0.00    -0.246 A  
HETATM   15  H   UNL     1      -9.903   9.476  72.818  1.00  0.00     0.000 HD 
HETATM   16  C   UNL     1     -11.760   6.524  71.006  1.00  0.00    -0.402 A  
HETATM   17  O   UNL     1     -11.541   7.759  73.021  1.00  0.00    -0.596 OA 
HETATM   18  C   UNL     1     -11.357   6.295  69.688  1.00  0.00    -0.492 A  
HETATM   19  H   UNL     1     -12.213   7.215  73.414  1.00  0.00     0.000 HD 
ENDBRANCH   7  10
ENDBRANCH   6   7
ENDBRANCH   4   6
ENDBRANCH   2   4
TORSDOF 4
ENDMDL
MODEL      223
REMARK 921   NORMALIZED FREE ENERGY PREDICTED BY IDOCK:   -3.08 KCAL/MOL
REMARK 922        TOTAL FREE ENERGY PREDICTED BY IDOCK:   -4.09 KCAL/MOL
REMARK 923 INTER-LIGAND FREE ENERGY PREDICTED BY IDOCK:   -3.37 KCAL/MOL
REMARK 924 INTRA-LIGAND FREE ENERGY PREDICTED BY IDOCK:   -0.72 KCAL/MOL
REMARK 927      BINDING AFFINITY PREDICTED BY RF-SCORE:    0.00 PKD
ROOT
HETATM    1  C   UNL     1     -10.257   9.113  70.962  1.00  0.00    -0.372 C  
HETATM    2  C   UNL     1      -8.913   9.543  70.367  1.00  0.00    -0.243 C  
HETATM    3  C   UNL     1      -8.147   8.302  69.900  1.00  0.00    -0.117 C  
ENDROOT
BRANCH   2   4
HETATM    4  N   UNL     1      -9.175  10.481  69.269  1.00  0.00    -0.312 NA 
HETATM    5  H   UNL     1      -8.419  10.451  68.585  1.00  0.00     0.000 HD 
BRANCH   4   6
HETATM    6  C   UNL     1     -10.476  10.282  68.612  1.00  0.00    -0.193 C  
BRANCH   6   7
HETATM    7  C   UNL     1     -10.305  10.023  67.092  1.00  0.00    -0.241 C  
HETATM    8  H   UNL     1      -9.175  10.699  65.606  1.00  0.00     0.000 HD 
HETATM    9  O   UNL     1      -9.280  10.858  66.537  1.00  0.00    -0.164 OA 
BRANCH   7  10
HETATM   10  C   UNL     1      -9.993   8.567  66.807  1.00  0.00    -0.351 A  
HETATM   11  C   UNL     1      -8.846   8.177  66.094  1.00  0.00    -0.194 A  
HETATM   12  C   UNL     1      -8.598   6.828  65.865  1.00  0.00    -0.147 A  
HETATM   13  O   UNL     1      -7.504   6.403  65.162  1.00  0.00    -0.074 OA 
HETATM   14  C   UNL     1      -9.472   5.857  66.346  1.00  0.00    -0.155 A  
HETATM   15  H   UNL     1      -7.334   5.482  65.005  1.00  0.00     0.000 HD 
HETATM   16  C   UNL     1     -10.600   6.215  67.065  1.00  0.00    -0.384 A  
HETATM   17  O   UNL     1      -9.224   4.537  66.104  1.00  0.00    -0.125 OA 
HETATM   18  C   UNL     1     -10.859   7.568  67.296  1.00  0.00    -0.297 A  
HETATM   19  H   UNL     1      -9.822   3.875  66.432  1.00  0.00     0.000 HD 
ENDBRANCH   7  10
ENDBRANCH   6   7
ENDBRANCH   4   6
ENDBRANCH   2   4
TORSDOF 4
ENDMDL
MODEL      224
REMARK 921   NORMALIZED FREE ENERGY PREDICTED BY IDOCK:   -3.07 KCAL/MOL
REMARK 922        TOTAL FREE ENERGY PREDICTED BY IDOCK:   -4.08 KCAL/MOL
REMARK 923 INTER-LIGAND FREE ENERGY PREDICTED BY IDOCK:   -3.79 KCAL/MOL
REMARK 924 INTRA-LIGAND FREE ENERGY PREDICTED BY IDOCK:   -0.29 KCAL/MOL
REMARK 927      BINDING AFFINITY PREDICTED BY RF-SCORE:    0.00 PKD
ROOT
HETATM    1  C   UNL     1     -11.887  10.859  69.808  1.00  0.00    -0.419 C  
HETATM    2  C   UNL     1     -10.419  10.492  70.043  1.00  0.00    -0.109 C  
HETATM    3  C   UNL     1     -10.212   9.008  69.727  1.00  0.00    -0.214 C  
ENDROOT
BRANCH   2   4
HETATM    4  N   UNL     1      -9.587  11.361  69.203  1.00  0.00    -0.410 NA 
HETATM    5  H   UNL     1      -9.018  11.980  69.782  1.00  0.00     0.000 HD 
BRANCH   4   6
HETATM    6  C   UNL     1      -8.743  10.632  68.243  1.00  0.00    -0.135 C  
BRANCH   6   7
HETATM    7  C   UNL     1      -8.223  11.572  67.124  1.00  0.00    -0.161 C  
HETATM    8  H   UNL     1      -6.567  11.802  66.053  1.00  0.00     0.000 HD 
HETATM    9  O   UNL     1      -6.887  11.226  66.739  1.00  0.00    -0.125 OA 
BRANCH   7  10
HETATM   10  C   UNL     1      -9.131  11.550  65.911  1.00  0.00    -0.186 A  
HETATM   11  C   UNL     1     -10.407  12.138  65.926  1.00  0.00    -0.286 A  
HETATM   12  C   UNL     1     -11.202  12.099  64.785  1.00  0.00    -0.323 A  
HETATM   13  O   UNL     1     -12.457  12.644  64.758  1.00  0.00    -0.470 OA 
HETATM   14  C   UNL     1     -10.738  11.490  63.622  1.00  0.00    -0.424 A  
HETATM   15  H   UNL     1     -12.999  12.618  63.979  1.00  0.00     0.000 HD 
HETATM   16  C   UNL     1      -9.479  10.917  63.578  1.00  0.00    -0.322 A  
HETATM   17  O   UNL     1     -11.532  11.447  62.513  1.00  0.00    -0.147 OA 
HETATM   18  C   UNL     1      -8.676  10.948  64.720  1.00  0.00    -0.055 A  
HETATM   19  H   UNL     1     -11.215  11.031  61.719  1.00  0.00     0.000 HD 
ENDBRANCH   7  10
ENDBRANCH   6   7
ENDBRANCH   4   6
ENDBRANCH   2   4
TORSDOF 4
ENDMDL
MODEL      225
REMARK 921   NORMALIZED FREE ENERGY PREDICTED BY IDOCK:   -3.07 KCAL/MOL
REMARK 922        TOTAL FREE ENERGY PREDICTED BY IDOCK:   -4.08 KCAL/MOL
REMARK 923 INTER-LIGAND FREE ENERGY PREDICTED BY IDOCK:   -3.72 KCAL/MOL
REMARK 924 INTRA-LIGAND FREE ENERGY PREDICTED BY IDOCK:   -0.35 KCAL/MOL
REMARK 927      BINDING AFFINITY PREDICTED BY RF-SCORE:    0.00 PKD
ROOT
HETATM    1  C   UNL     1      -6.655  11.386  67.742  1.00  0.00    -0.069 C  
HETATM    2  C   UNL     1      -7.807  10.377  67.739  1.00  0.00    -0.101 C  
HETATM    3  C   UNL     1      -8.246  10.105  69.180  1.00  0.00    -0.145 C  
ENDROOT
BRANCH   2   4
HETATM    4  N   UNL     1      -8.895  10.923  66.920  1.00  0.00    -0.140 NA 
HETATM    5  H   UNL     1      -9.034  10.355  66.084  1.00  0.00     0.000 HD 
BRANCH   4   6
HETATM    6  C   UNL     1     -10.162  11.093  67.647  1.00  0.00    -0.181 C  
BRANCH   6   7
HETATM    7  C   UNL     1     -10.598  12.581  67.681  1.00  0.00    -0.217 C  
HETATM    8  H   UNL     1     -11.529  13.864  66.486  1.00  0.00     0.000 HD 
HETATM    9  O   UNL     1     -11.262  12.952  66.466  1.00  0.00    -0.282 OA 
BRANCH   7  10
HETATM   10  C   UNL     1     -11.495  12.871  68.868  1.00  0.00    -0.350 A  
HETATM   11  C   UNL     1     -11.911  14.176  69.185  1.00  0.00    -0.380 A  
HETATM   12  C   UNL     1     -12.741  14.392  70.280  1.00  0.00    -0.263 A  
HETATM   13  O   UNL     1     -13.157  15.646  70.636  1.00  0.00    -0.617 OA 
HETATM   14  C   UNL     1     -13.173  13.323  71.061  1.00  0.00     0.017 A  
HETATM   15  H   UNL     1     -13.724  15.794  71.383  1.00  0.00     0.000 HD 
HETATM   16  C   UNL     1     -12.790  12.028  70.759  1.00  0.00    -0.118 A  
HETATM   17  O   UNL     1     -13.977  13.549  72.140  1.00  0.00    -0.499 OA 
HETATM   18  C   UNL     1     -11.953  11.802  69.664  1.00  0.00    -0.378 A  
HETATM   19  H   UNL     1     -14.271  12.820  72.672  1.00  0.00     0.000 HD 
ENDBRANCH   7  10
ENDBRANCH   6   7
ENDBRANCH   4   6
ENDBRANCH   2   4
TORSDOF 4
ENDMDL
MODEL      226
REMARK 921   NORMALIZED FREE ENERGY PREDICTED BY IDOCK:   -3.06 KCAL/MOL
REMARK 922        TOTAL FREE ENERGY PREDICTED BY IDOCK:   -4.06 KCAL/MOL
REMARK 923 INTER-LIGAND FREE ENERGY PREDICTED BY IDOCK:   -3.84 KCAL/MOL
REMARK 924 INTRA-LIGAND FREE ENERGY PREDICTED BY IDOCK:   -0.22 KCAL/MOL
REMARK 927      BINDING AFFINITY PREDICTED BY RF-SCORE:    0.00 PKD
ROOT
HETATM    1  C   UNL     1      -8.417   8.033  73.684  1.00  0.00    -0.317 C  
HETATM    2  C   UNL     1      -8.759   6.999  72.607  1.00  0.00    -0.119 C  
HETATM    3  C   UNL     1      -8.615   5.592  73.191  1.00  0.00    -0.117 C  
ENDROOT
BRANCH   2   4
HETATM    4  N   UNL     1     -10.120   7.267  72.128  1.00  0.00    -0.180 NA 
HETATM    5  H   UNL     1     -10.788   6.638  72.576  1.00  0.00     0.000 HD 
BRANCH   4   6
HETATM    6  C   UNL     1     -10.543   8.667  72.285  1.00  0.00    -0.305 C  
BRANCH   6   7
HETATM    7  C   UNL     1     -11.826   8.963  71.464  1.00  0.00    -0.332 C  
HETATM    8  H   UNL     1     -13.531   9.949  71.710  1.00  0.00     0.000 HD 
HETATM    9  O   UNL     1     -12.745   9.767  72.213  1.00  0.00    -0.342 OA 
BRANCH   7  10
HETATM   10  C   UNL     1     -11.499   9.644  70.149  1.00  0.00    -0.238 A  
HETATM   11  C   UNL     1     -10.830   8.975  69.110  1.00  0.00    -0.110 A  
HETATM   12  C   UNL     1     -10.559   9.640  67.919  1.00  0.00    -0.255 A  
HETATM   13  O   UNL     1      -9.896   9.033  66.887  1.00  0.00    -0.185 OA 
HETATM   14  C   UNL     1     -10.957  10.962  67.742  1.00  0.00    -0.283 A  
HETATM   15  H   UNL     1      -9.711   9.487  66.073  1.00  0.00     0.000 HD 
HETATM   16  C   UNL     1     -11.631  11.638  68.744  1.00  0.00    -0.374 A  
HETATM   17  O   UNL     1     -10.675  11.607  66.572  1.00  0.00    -0.249 OA 
HETATM   18  C   UNL     1     -11.903  10.979  69.946  1.00  0.00    -0.431 A  
HETATM   19  H   UNL     1     -10.946  12.510  66.452  1.00  0.00     0.000 HD 
ENDBRANCH   7  10
ENDBRANCH   6   7
ENDBRANCH   4   6
ENDBRANCH   2   4
TORSDOF 4
ENDMDL
MODEL      227
REMARK 921   NORMALIZED FREE ENERGY PREDICTED BY IDOCK:   -3.01 KCAL/MOL
REMARK 922        TOTAL FREE ENERGY PREDICTED BY IDOCK:   -4.00 KCAL/MOL
REMARK 923 INTER-LIGAND FREE ENERGY PREDICTED BY IDOCK:   -3.79 KCAL/MOL
REMARK 924 INTRA-LIGAND FREE ENERGY PREDICTED BY IDOCK:   -0.21 KCAL/MOL
REMARK 927      BINDING AFFINITY PREDICTED BY RF-SCORE:    0.00 PKD
ROOT
HETATM    1  C   UNL     1      -8.291   3.940  73.374  1.00  0.00    -0.088 C  
HETATM    2  C   UNL     1      -9.475   4.866  73.079  1.00  0.00    -0.135 C  
HETATM    3  C   UNL     1     -10.173   5.228  74.393  1.00  0.00    -0.299 C  
ENDROOT
BRANCH   2   4
HETATM    4  N   UNL     1      -8.970   6.049  72.373  1.00  0.00    -0.137 NA 
HETATM    5  H   UNL     1      -8.476   5.775  71.523  1.00  0.00     0.000 HD 
BRANCH   4   6
HETATM    6  C   UNL     1     -10.005   7.050  72.071  1.00  0.00    -0.159 C  
BRANCH   6   7
HETATM    7  C   UNL     1     -10.248   7.165  70.543  1.00  0.00    -0.196 C  
HETATM    8  H   UNL     1     -11.336   6.250  69.158  1.00  0.00     0.000 HD 
HETATM    9  O   UNL     1     -11.187   6.180  70.094  1.00  0.00    -0.351 OA 
BRANCH   7  10
HETATM   10  C   UNL     1     -10.730   8.550  70.159  1.00  0.00    -0.240 A  
HETATM   11  C   UNL     1     -10.647   9.027  68.840  1.00  0.00    -0.203 A  
HETATM   12  C   UNL     1     -11.110  10.303  68.534  1.00  0.00    -0.242 A  
HETATM   13  O   UNL     1     -11.034  10.816  67.268  1.00  0.00    -0.290 OA 
HETATM   14  C   UNL     1     -11.667  11.108  69.524  1.00  0.00    -0.335 A  
HETATM   15  H   UNL     1     -11.351  11.687  67.059  1.00  0.00     0.000 HD 
HETATM   16  C   UNL     1     -11.774  10.654  70.827  1.00  0.00    -0.435 A  
HETATM   17  O   UNL     1     -12.107  12.362  69.214  1.00  0.00    -0.259 OA 
HETATM   18  C   UNL     1     -11.308   9.376  71.144  1.00  0.00    -0.422 A  
HETATM   19  H   UNL     1     -12.486  12.912  69.890  1.00  0.00     0.000 HD 
ENDBRANCH   7  10
ENDBRANCH   6   7
ENDBRANCH   4   6
ENDBRANCH   2   4
TORSDOF 4
ENDMDL
MODEL      228
REMARK 921   NORMALIZED FREE ENERGY PREDICTED BY IDOCK:   -3.01 KCAL/MOL
REMARK 922        TOTAL FREE ENERGY PREDICTED BY IDOCK:   -4.00 KCAL/MOL
REMARK 923 INTER-LIGAND FREE ENERGY PREDICTED BY IDOCK:   -3.84 KCAL/MOL
REMARK 924 INTRA-LIGAND FREE ENERGY PREDICTED BY IDOCK:   -0.16 KCAL/MOL
REMARK 927      BINDING AFFINITY PREDICTED BY RF-SCORE:    0.00 PKD
ROOT
HETATM    1  C   UNL     1     -10.174  11.010  64.234  1.00  0.00    -0.414 C  
HETATM    2  C   UNL     1     -10.402  12.037  65.346  1.00  0.00    -0.266 C  
HETATM    3  C   UNL     1     -11.389  13.101  64.859  1.00  0.00    -0.334 C  
ENDROOT
BRANCH   2   4
HETATM    4  N   UNL     1     -10.891  11.328  66.534  1.00  0.00    -0.277 NA 
HETATM    5  H   UNL     1     -11.438  10.510  66.264  1.00  0.00     0.000 HD 
BRANCH   4   6
HETATM    6  C   UNL     1      -9.830  10.950  67.482  1.00  0.00    -0.168 C  
BRANCH   6   7
HETATM    7  C   UNL     1     -10.413  10.210  68.714  1.00  0.00    -0.204 C  
HETATM    8  H   UNL     1     -12.123  10.160  69.722  1.00  0.00     0.000 HD 
HETATM    9  O   UNL     1     -11.765  10.613  68.967  1.00  0.00    -0.277 OA 
BRANCH   7  10
HETATM   10  C   UNL     1     -10.349   8.705  68.541  1.00  0.00    -0.228 A  
HETATM   11  C   UNL     1     -10.700   8.080  67.332  1.00  0.00    -0.260 A  
HETATM   12  C   UNL     1     -10.617   6.696  67.218  1.00  0.00    -0.317 A  
HETATM   13  O   UNL     1     -10.964   6.043  66.066  1.00  0.00    -0.484 OA 
HETATM   14  C   UNL     1     -10.179   5.924  68.290  1.00  0.00    -0.184 A  
HETATM   15  H   UNL     1     -10.907   5.098  65.988  1.00  0.00     0.000 HD 
HETATM   16  C   UNL     1      -9.813   6.518  69.486  1.00  0.00    -0.167 A  
HETATM   17  O   UNL     1     -10.114   4.566  68.170  1.00  0.00    -0.077 OA 
HETATM   18  C   UNL     1      -9.897   7.907  69.611  1.00  0.00    -0.179 A  
HETATM   19  H   UNL     1      -9.815   4.040  68.903  1.00  0.00     0.000 HD 
ENDBRANCH   7  10
ENDBRANCH   6   7
ENDBRANCH   4   6
ENDBRANCH   2   4
TORSDOF 4
ENDMDL
MODEL      229
REMARK 921   NORMALIZED FREE ENERGY PREDICTED BY IDOCK:   -3.01 KCAL/MOL
REMARK 922        TOTAL FREE ENERGY PREDICTED BY IDOCK:   -4.00 KCAL/MOL
REMARK 923 INTER-LIGAND FREE ENERGY PREDICTED BY IDOCK:   -3.75 KCAL/MOL
REMARK 924 INTRA-LIGAND FREE ENERGY PREDICTED BY IDOCK:   -0.25 KCAL/MOL
REMARK 927      BINDING AFFINITY PREDICTED BY RF-SCORE:    0.00 PKD
ROOT
HETATM    1  C   UNL     1     -10.154   3.914  64.566  1.00  0.00    -0.224 C  
HETATM    2  C   UNL     1     -10.166   4.469  65.994  1.00  0.00    -0.260 C  
HETATM    3  C   UNL     1      -8.730   4.548  66.519  1.00  0.00    -0.112 C  
ENDROOT
BRANCH   2   4
HETATM    4  N   UNL     1     -10.824   5.780  65.973  1.00  0.00    -0.601 NA 
HETATM    5  H   UNL     1     -11.638   5.783  66.588  1.00  0.00     0.000 HD 
BRANCH   4   6
HETATM    6  C   UNL     1      -9.928   6.902  66.296  1.00  0.00     0.106 C  
BRANCH   6   7
HETATM    7  C   UNL     1     -10.644   7.958  67.178  1.00  0.00    -0.313 C  
HETATM    8  H   UNL     1     -10.983   8.272  69.108  1.00  0.00     0.000 HD 
HETATM    9  O   UNL     1     -10.544   7.625  68.568  1.00  0.00    -0.192 OA 
BRANCH   7  10
HETATM   10  C   UNL     1     -10.090   9.349  66.940  1.00  0.00    -0.314 A  
HETATM   11  C   UNL     1      -8.776   9.559  66.489  1.00  0.00    -0.147 A  
HETATM   12  C   UNL     1      -8.314  10.855  66.278  1.00  0.00    -0.164 A  
HETATM   13  O   UNL     1      -7.038  11.108  65.855  1.00  0.00    -0.351 OA 
HETATM   14  C   UNL     1      -9.149  11.947  66.500  1.00  0.00    -0.211 A  
HETATM   15  H   UNL     1      -6.723  11.992  65.711  1.00  0.00     0.000 HD 
HETATM   16  C   UNL     1     -10.452  11.765  66.929  1.00  0.00    -0.256 A  
HETATM   17  O   UNL     1      -8.681  13.213  66.301  1.00  0.00    -0.418 OA 
HETATM   18  C   UNL     1     -10.923  10.468  67.148  1.00  0.00    -0.294 A  
HETATM   19  H   UNL     1      -9.250  13.958  66.453  1.00  0.00     0.000 HD 
ENDBRANCH   7  10
ENDBRANCH   6   7
ENDBRANCH   4   6
ENDBRANCH   2   4
TORSDOF 4
ENDMDL
MODEL      230
REMARK 921   NORMALIZED FREE ENERGY PREDICTED BY IDOCK:   -3.00 KCAL/MOL
REMARK 922        TOTAL FREE ENERGY PREDICTED BY IDOCK:   -3.99 KCAL/MOL
REMARK 923 INTER-LIGAND FREE ENERGY PREDICTED BY IDOCK:   -3.79 KCAL/MOL
REMARK 924 INTRA-LIGAND FREE ENERGY PREDICTED BY IDOCK:   -0.20 KCAL/MOL
REMARK 927      BINDING AFFINITY PREDICTED BY RF-SCORE:    0.00 PKD
ROOT
HETATM    1  C   UNL     1      -8.496   3.276  65.606  1.00  0.00    -0.106 C  
HETATM    2  C   UNL     1      -8.116   4.463  66.495  1.00  0.00    -0.102 C  
HETATM    3  C   UNL     1      -7.792   5.672  65.613  1.00  0.00    -0.099 C  
ENDROOT
BRANCH   2   4
HETATM    4  N   UNL     1      -9.230   4.727  67.412  1.00  0.00    -0.124 NA 
HETATM    5  H   UNL     1      -9.939   3.998  67.334  1.00  0.00     0.000 HD 
BRANCH   4   6
HETATM    6  C   UNL     1      -8.820   4.902  68.815  1.00  0.00    -0.094 C  
BRANCH   6   7
HETATM    7  C   UNL     1      -9.870   4.304  69.787  1.00  0.00    -0.187 C  
HETATM    8  H   UNL     1      -9.929   2.929  71.218  1.00  0.00     0.000 HD 
HETATM    9  O   UNL     1      -9.286   3.296  70.622  1.00  0.00    -0.131 OA 
BRANCH   7  10
HETATM   10  C   UNL     1     -10.507   5.378  70.646  1.00  0.00    -0.329 A  
HETATM   11  C   UNL     1     -10.310   5.434  72.037  1.00  0.00    -0.268 A  
HETATM   12  C   UNL     1     -10.910   6.444  72.782  1.00  0.00    -0.248 A  
HETATM   13  O   UNL     1     -10.759   6.527  74.140  1.00  0.00    -0.443 OA 
HETATM   14  C   UNL     1     -11.698   7.408  72.160  1.00  0.00    -0.290 A  
HETATM   15  H   UNL     1     -11.168   7.217  74.649  1.00  0.00     0.000 HD 
HETATM   16  C   UNL     1     -11.894   7.384  70.790  1.00  0.00    -0.288 A  
HETATM   17  O   UNL     1     -12.291   8.387  72.903  1.00  0.00    -0.587 OA 
HETATM   18  C   UNL     1     -11.299   6.371  70.034  1.00  0.00    -0.496 A  
HETATM   19  H   UNL     1     -12.828   9.044  72.478  1.00  0.00     0.000 HD 
ENDBRANCH   7  10
ENDBRANCH   6   7
ENDBRANCH   4   6
ENDBRANCH   2   4
TORSDOF 4
ENDMDL
MODEL      231
REMARK 921   NORMALIZED FREE ENERGY PREDICTED BY IDOCK:   -2.97 KCAL/MOL
REMARK 922        TOTAL FREE ENERGY PREDICTED BY IDOCK:   -3.96 KCAL/MOL
REMARK 923 INTER-LIGAND FREE ENERGY PREDICTED BY IDOCK:   -3.56 KCAL/MOL
REMARK 924 INTRA-LIGAND FREE ENERGY PREDICTED BY IDOCK:   -0.40 KCAL/MOL
REMARK 927      BINDING AFFINITY PREDICTED BY RF-SCORE:    0.00 PKD
ROOT
HETATM    1  C   UNL     1     -10.356   7.368  71.098  1.00  0.00    -0.209 C  
HETATM    2  C   UNL     1     -11.278   8.477  70.583  1.00  0.00    -0.252 C  
HETATM    3  C   UNL     1     -12.129   9.006  71.741  1.00  0.00    -0.438 C  
ENDROOT
BRANCH   2   4
HETATM    4  N   UNL     1     -10.447   9.525  69.979  1.00  0.00    -0.228 NA 
HETATM    5  H   UNL     1      -9.561   9.137  69.656  1.00  0.00     0.000 HD 
BRANCH   4   6
HETATM    6  C   UNL     1     -11.114  10.264  68.895  1.00  0.00    -0.231 C  
BRANCH   6   7
HETATM    7  C   UNL     1     -10.251  10.273  67.606  1.00  0.00    -0.205 C  
HETATM    8  H   UNL     1      -8.588  11.143  66.960  1.00  0.00     0.000 HD 
HETATM    9  O   UNL     1      -9.117  11.137  67.749  1.00  0.00    -0.144 OA 
BRANCH   7  10
HETATM   10  C   UNL     1      -9.792   8.877  67.234  1.00  0.00    -0.256 A  
HETATM   11  C   UNL     1     -10.703   7.842  66.962  1.00  0.00    -0.289 A  
HETATM   12  C   UNL     1     -10.233   6.579  66.617  1.00  0.00    -0.142 A  
HETATM   13  O   UNL     1     -11.082   5.537  66.359  1.00  0.00    -0.681 OA 
HETATM   14  C   UNL     1      -8.866   6.334  66.528  1.00  0.00    -0.138 A  
HETATM   15  H   UNL     1     -10.762   4.675  66.124  1.00  0.00     0.000 HD 
HETATM   16  C   UNL     1      -7.949   7.341  66.776  1.00  0.00    -0.118 A  
HETATM   17  O   UNL     1      -8.417   5.087  66.200  1.00  0.00    -0.112 OA 
HETATM   18  C   UNL     1      -8.412   8.612  67.128  1.00  0.00    -0.114 A  
HETATM   19  H   UNL     1      -7.484   4.920  66.141  1.00  0.00     0.000 HD 
ENDBRANCH   7  10
ENDBRANCH   6   7
ENDBRANCH   4   6
ENDBRANCH   2   4
TORSDOF 4
ENDMDL
MODEL      232
REMARK 921   NORMALIZED FREE ENERGY PREDICTED BY IDOCK:   -2.97 KCAL/MOL
REMARK 922        TOTAL FREE ENERGY PREDICTED BY IDOCK:   -3.95 KCAL/MOL
REMARK 923 INTER-LIGAND FREE ENERGY PREDICTED BY IDOCK:   -3.41 KCAL/MOL
REMARK 924 INTRA-LIGAND FREE ENERGY PREDICTED BY IDOCK:   -0.54 KCAL/MOL
REMARK 927      BINDING AFFINITY PREDICTED BY RF-SCORE:    0.00 PKD
ROOT
HETATM    1  C   UNL     1     -11.767   6.613  70.377  1.00  0.00    -0.446 C  
HETATM    2  C   UNL     1     -10.832   7.536  71.164  1.00  0.00    -0.238 C  
HETATM    3  C   UNL     1     -11.568   8.073  72.395  1.00  0.00    -0.450 C  
ENDROOT
BRANCH   2   4
HETATM    4  N   UNL     1      -9.629   6.776  71.523  1.00  0.00    -0.164 NA 
HETATM    5  H   UNL     1      -9.804   5.773  71.450  1.00  0.00     0.000 HD 
BRANCH   4   6
HETATM    6  C   UNL     1      -8.434   7.151  70.752  1.00  0.00    -0.133 C  
BRANCH   6   7
HETATM    7  C   UNL     1      -7.753   5.905  70.127  1.00  0.00    -0.095 C  
HETATM    8  H   UNL     1      -7.195   4.091  70.710  1.00  0.00     0.000 HD 
HETATM    9  O   UNL     1      -7.612   4.855  71.092  1.00  0.00    -0.077 OA 
BRANCH   7  10
HETATM   10  C   UNL     1      -8.520   5.397  68.922  1.00  0.00    -0.099 A  
HETATM   11  C   UNL     1      -8.766   4.029  68.719  1.00  0.00    -0.131 A  
HETATM   12  C   UNL     1      -9.482   3.611  67.602  1.00  0.00    -0.185 A  
HETATM   13  O   UNL     1      -9.732   2.289  67.355  1.00  0.00    -0.405 OA 
HETATM   14  C   UNL     1      -9.967   4.541  66.686  1.00  0.00    -0.230 A  
HETATM   15  H   UNL     1     -10.221   2.004  66.592  1.00  0.00     0.000 HD 
HETATM   16  C   UNL     1      -9.751   5.896  66.872  1.00  0.00    -0.168 A  
HETATM   17  O   UNL     1     -10.658   4.119  65.587  1.00  0.00    -0.478 OA 
HETATM   18  C   UNL     1      -9.029   6.324  67.989  1.00  0.00    -0.114 A  
HETATM   19  H   UNL     1     -10.988   4.753  64.962  1.00  0.00     0.000 HD 
ENDBRANCH   7  10
ENDBRANCH   6   7
ENDBRANCH   4   6
ENDBRANCH   2   4
TORSDOF 4
ENDMDL
MODEL      233
REMARK 921   NORMALIZED FREE ENERGY PREDICTED BY IDOCK:   -2.97 KCAL/MOL
REMARK 922        TOTAL FREE ENERGY PREDICTED BY IDOCK:   -3.95 KCAL/MOL
REMARK 923 INTER-LIGAND FREE ENERGY PREDICTED BY IDOCK:   -3.65 KCAL/MOL
REMARK 924 INTRA-LIGAND FREE ENERGY PREDICTED BY IDOCK:   -0.30 KCAL/MOL
REMARK 927      BINDING AFFINITY PREDICTED BY RF-SCORE:    0.00 PKD
ROOT
HETATM    1  C   UNL     1      -8.109   5.797  70.458  1.00  0.00    -0.110 C  
HETATM    2  C   UNL     1      -9.168   5.930  69.360  1.00  0.00    -0.130 C  
HETATM    3  C   UNL     1     -10.541   5.570  69.933  1.00  0.00    -0.387 C  
ENDROOT
BRANCH   2   4
HETATM    4  N   UNL     1      -9.124   7.302  68.841  1.00  0.00    -0.133 NA 
HETATM    5  H   UNL     1      -9.076   7.299  67.822  1.00  0.00     0.000 HD 
BRANCH   4   6
HETATM    6  C   UNL     1     -10.234   8.150  69.304  1.00  0.00    -0.214 C  
BRANCH   6   7
HETATM    7  C   UNL     1      -9.716   9.505  69.853  1.00  0.00    -0.224 C  
HETATM    8  H   UNL     1      -7.975  10.317  70.351  1.00  0.00     0.000 HD 
HETATM    9  O   UNL     1      -8.292   9.487  70.015  1.00  0.00    -0.142 OA 
BRANCH   7  10
HETATM   10  C   UNL     1     -10.117  10.659  68.955  1.00  0.00    -0.215 A  
HETATM   11  C   UNL     1      -9.239  11.198  67.999  1.00  0.00    -0.159 A  
HETATM   12  C   UNL     1      -9.656  12.252  67.192  1.00  0.00    -0.200 A  
HETATM   13  O   UNL     1      -8.830  12.820  66.260  1.00  0.00    -0.429 OA 
HETATM   14  C   UNL     1     -10.942  12.771  67.316  1.00  0.00    -0.262 A  
HETATM   15  H   UNL     1      -9.114  13.539  65.709  1.00  0.00     0.000 HD 
HETATM   16  C   UNL     1     -11.830  12.246  68.238  1.00  0.00    -0.367 A  
HETATM   17  O   UNL     1     -11.335  13.813  66.526  1.00  0.00    -0.309 OA 
HETATM   18  C   UNL     1     -11.419  11.190  69.056  1.00  0.00    -0.364 A  
HETATM   19  H   UNL     1     -12.212  14.167  66.611  1.00  0.00     0.000 HD 
ENDBRANCH   7  10
ENDBRANCH   6   7
ENDBRANCH   4   6
ENDBRANCH   2   4
TORSDOF 4
ENDMDL
MODEL      234
REMARK 921   NORMALIZED FREE ENERGY PREDICTED BY IDOCK:   -2.96 KCAL/MOL
REMARK 922        TOTAL FREE ENERGY PREDICTED BY IDOCK:   -3.94 KCAL/MOL
REMARK 923 INTER-LIGAND FREE ENERGY PREDICTED BY IDOCK:   -3.52 KCAL/MOL
REMARK 924 INTRA-LIGAND FREE ENERGY PREDICTED BY IDOCK:   -0.42 KCAL/MOL
REMARK 927      BINDING AFFINITY PREDICTED BY RF-SCORE:    0.00 PKD
ROOT
HETATM    1  C   UNL     1      -6.263   5.719  71.906  1.00  0.00    -0.044 C  
HETATM    2  C   UNL     1      -6.325   5.943  70.393  1.00  0.00    -0.032 C  
HETATM    3  C   UNL     1      -5.705   4.740  69.677  1.00  0.00    -0.016 C  
ENDROOT
BRANCH   2   4
HETATM    4  N   UNL     1      -7.727   6.154  70.015  1.00  0.00    -0.095 NA 
HETATM    5  H   UNL     1      -7.828   7.018  69.481  1.00  0.00     0.000 HD 
BRANCH   4   6
HETATM    6  C   UNL     1      -8.325   5.023  69.287  1.00  0.00    -0.082 C  
BRANCH   6   7
HETATM    7  C   UNL     1      -9.421   4.325  70.133  1.00  0.00    -0.182 C  
HETATM    8  H   UNL     1      -9.522   2.929  71.540  1.00  0.00     0.000 HD 
HETATM    9  O   UNL     1      -8.850   3.357  71.021  1.00  0.00    -0.075 OA 
BRANCH   7  10
HETATM   10  C   UNL     1     -10.238   5.329  70.922  1.00  0.00    -0.304 A  
HETATM   11  C   UNL     1     -10.055   5.517  72.303  1.00  0.00    -0.225 A  
HETATM   12  C   UNL     1     -10.823   6.456  72.983  1.00  0.00    -0.259 A  
HETATM   13  O   UNL     1     -10.691   6.661  74.330  1.00  0.00    -0.419 OA 
HETATM   14  C   UNL     1     -11.767   7.222  72.304  1.00  0.00    -0.265 A  
HETATM   15  H   UNL     1     -11.215   7.302  74.794  1.00  0.00     0.000 HD 
HETATM   16  C   UNL     1     -11.955   7.067  70.941  1.00  0.00    -0.409 A  
HETATM   17  O   UNL     1     -12.523   8.132  72.984  1.00  0.00    -0.673 OA 
HETATM   18  C   UNL     1     -11.191   6.123  70.251  1.00  0.00    -0.439 A  
HETATM   19  H   UNL     1     -13.168   8.653  72.520  1.00  0.00     0.000 HD 
ENDBRANCH   7  10
ENDBRANCH   6   7
ENDBRANCH   4   6
ENDBRANCH   2   4
TORSDOF 4
ENDMDL
MODEL      235
REMARK 921   NORMALIZED FREE ENERGY PREDICTED BY IDOCK:   -2.95 KCAL/MOL
REMARK 922        TOTAL FREE ENERGY PREDICTED BY IDOCK:   -3.93 KCAL/MOL
REMARK 923 INTER-LIGAND FREE ENERGY PREDICTED BY IDOCK:   -3.65 KCAL/MOL
REMARK 924 INTRA-LIGAND FREE ENERGY PREDICTED BY IDOCK:   -0.27 KCAL/MOL
REMARK 927      BINDING AFFINITY PREDICTED BY RF-SCORE:    0.00 PKD
ROOT
HETATM    1  C   UNL     1      -8.918   3.950  66.296  1.00  0.00    -0.132 C  
HETATM    2  C   UNL     1      -8.551   5.381  66.698  1.00  0.00    -0.115 C  
HETATM    3  C   UNL     1      -7.844   6.071  65.527  1.00  0.00    -0.105 C  
ENDROOT
BRANCH   2   4
HETATM    4  N   UNL     1      -9.780   6.079  67.093  1.00  0.00    -0.124 NA 
HETATM    5  H   UNL     1     -10.511   5.409  67.332  1.00  0.00     0.000 HD 
BRANCH   4   6
HETATM    6  C   UNL     1      -9.591   7.048  68.184  1.00  0.00    -0.129 C  
BRANCH   6   7
HETATM    7  C   UNL     1      -9.827   8.501  67.693  1.00  0.00    -0.174 C  
HETATM    8  H   UNL     1     -10.618   9.405  66.113  1.00  0.00     0.000 HD 
HETATM    9  O   UNL     1     -10.474   8.516  66.415  1.00  0.00    -0.195 OA 
BRANCH   7  10
HETATM   10  C   UNL     1     -10.641   9.300  68.691  1.00  0.00    -0.219 A  
HETATM   11  C   UNL     1     -10.849   8.855  70.008  1.00  0.00    -0.239 A  
HETATM   12  C   UNL     1     -11.597   9.628  70.891  1.00  0.00    -0.344 A  
HETATM   13  O   UNL     1     -11.839   9.227  72.177  1.00  0.00    -0.328 OA 
HETATM   14  C   UNL     1     -12.133  10.846  70.483  1.00  0.00    -0.371 A  
HETATM   15  H   UNL     1     -12.349   9.754  72.779  1.00  0.00     0.000 HD 
HETATM   16  C   UNL     1     -11.929  11.313  69.196  1.00  0.00    -0.405 A  
HETATM   17  O   UNL     1     -12.876  11.589  71.355  1.00  0.00    -0.419 OA 
HETATM   18  C   UNL     1     -11.183  10.542  68.302  1.00  0.00    -0.354 A  
HETATM   19  H   UNL     1     -13.242  12.420  71.076  1.00  0.00     0.000 HD 
ENDBRANCH   7  10
ENDBRANCH   6   7
ENDBRANCH   4   6
ENDBRANCH   2   4
TORSDOF 4
ENDMDL
MODEL      236
REMARK 921   NORMALIZED FREE ENERGY PREDICTED BY IDOCK:   -2.94 KCAL/MOL
REMARK 922        TOTAL FREE ENERGY PREDICTED BY IDOCK:   -3.91 KCAL/MOL
REMARK 923 INTER-LIGAND FREE ENERGY PREDICTED BY IDOCK:   -3.64 KCAL/MOL
REMARK 924 INTRA-LIGAND FREE ENERGY PREDICTED BY IDOCK:   -0.28 KCAL/MOL
REMARK 927      BINDING AFFINITY PREDICTED BY RF-SCORE:    0.00 PKD
ROOT
HETATM    1  C   UNL     1     -12.330  11.203  70.231  1.00  0.00    -0.397 C  
HETATM    2  C   UNL     1     -11.307  11.184  69.093  1.00  0.00    -0.273 C  
HETATM    3  C   UNL     1     -10.730   9.772  68.954  1.00  0.00    -0.241 C  
ENDROOT
BRANCH   2   4
HETATM    4  N   UNL     1     -11.974  11.635  67.866  1.00  0.00    -0.623 NA 
HETATM    5  H   UNL     1     -12.953  11.348  67.864  1.00  0.00     0.000 HD 
BRANCH   4   6
HETATM    6  C   UNL     1     -11.858  13.081  67.621  1.00  0.00    -0.351 C  
BRANCH   6   7
HETATM    7  C   UNL     1     -10.785  13.386  66.543  1.00  0.00    -0.286 C  
HETATM    8  H   UNL     1      -9.990  14.985  65.675  1.00  0.00     0.000 HD 
HETATM    9  O   UNL     1     -10.648  14.798  66.336  1.00  0.00    -0.288 OA 
BRANCH   7  10
HETATM   10  C   UNL     1      -9.442  12.786  66.910  1.00  0.00    -0.235 A  
HETATM   11  C   UNL     1      -8.715  13.220  68.032  1.00  0.00    -0.186 A  
HETATM   12  C   UNL     1      -7.490  12.633  68.332  1.00  0.00    -0.127 A  
HETATM   13  O   UNL     1      -6.739  13.034  69.404  1.00  0.00    -0.213 OA 
HETATM   14  C   UNL     1      -6.982  11.611  67.535  1.00  0.00    -0.104 A  
HETATM   15  H   UNL     1      -5.903  12.633  69.610  1.00  0.00     0.000 HD 
HETATM   16  C   UNL     1      -7.687  11.156  66.434  1.00  0.00    -0.124 A  
HETATM   17  O   UNL     1      -5.773  11.051  67.834  1.00  0.00    -0.043 OA 
HETATM   18  C   UNL     1      -8.916  11.742  66.123  1.00  0.00    -0.145 A  
HETATM   19  H   UNL     1      -5.427  10.354  67.289  1.00  0.00     0.000 HD 
ENDBRANCH   7  10
ENDBRANCH   6   7
ENDBRANCH   4   6
ENDBRANCH   2   4
TORSDOF 4
ENDMDL
MODEL      237
REMARK 921   NORMALIZED FREE ENERGY PREDICTED BY IDOCK:   -2.93 KCAL/MOL
REMARK 922        TOTAL FREE ENERGY PREDICTED BY IDOCK:   -3.90 KCAL/MOL
REMARK 923 INTER-LIGAND FREE ENERGY PREDICTED BY IDOCK:   -3.43 KCAL/MOL
REMARK 924 INTRA-LIGAND FREE ENERGY PREDICTED BY IDOCK:   -0.47 KCAL/MOL
REMARK 927      BINDING AFFINITY PREDICTED BY RF-SCORE:    0.00 PKD
ROOT
HETATM    1  C   UNL     1     -10.396   4.694  65.982  1.00  0.00    -0.318 C  
HETATM    2  C   UNL     1      -9.380   4.261  67.043  1.00  0.00    -0.167 C  
HETATM    3  C   UNL     1      -8.129   5.137  66.933  1.00  0.00    -0.108 C  
ENDROOT
BRANCH   2   4
HETATM    4  N   UNL     1     -10.017   4.365  68.361  1.00  0.00    -0.059 NA 
HETATM    5  H   UNL     1      -9.843   3.523  68.910  1.00  0.00     0.000 HD 
BRANCH   4   6
HETATM    6  C   UNL     1      -9.631   5.566  69.117  1.00  0.00    -0.143 C  
BRANCH   6   7
HETATM    7  C   UNL     1     -10.853   6.486  69.377  1.00  0.00    -0.308 C  
HETATM    8  H   UNL     1     -12.164   6.807  70.832  1.00  0.00     0.000 HD 
HETATM    9  O   UNL     1     -11.416   6.244  70.672  1.00  0.00    -0.347 OA 
BRANCH   7  10
HETATM   10  C   UNL     1     -10.486   7.950  69.240  1.00  0.00    -0.221 A  
HETATM   11  C   UNL     1     -11.135   8.952  69.981  1.00  0.00    -0.180 A  
HETATM   12  C   UNL     1     -10.758  10.283  69.827  1.00  0.00    -0.285 A  
HETATM   13  O   UNL     1     -11.372  11.293  70.516  1.00  0.00    -0.457 OA 
HETATM   14  C   UNL     1      -9.734  10.629  68.950  1.00  0.00    -0.202 A  
HETATM   15  H   UNL     1     -11.115  12.201  70.411  1.00  0.00     0.000 HD 
HETATM   16  C   UNL     1      -9.069   9.659  68.221  1.00  0.00    -0.123 A  
HETATM   17  O   UNL     1      -9.381  11.939  68.799  1.00  0.00    -0.370 OA 
HETATM   18  C   UNL     1      -9.443   8.321  68.366  1.00  0.00    -0.144 A  
HETATM   19  H   UNL     1      -8.682  12.175  68.200  1.00  0.00     0.000 HD 
ENDBRANCH   7  10
ENDBRANCH   6   7
ENDBRANCH   4   6
ENDBRANCH   2   4
TORSDOF 4
ENDMDL
MODEL      238
REMARK 921   NORMALIZED FREE ENERGY PREDICTED BY IDOCK:   -2.93 KCAL/MOL
REMARK 922        TOTAL FREE ENERGY PREDICTED BY IDOCK:   -3.90 KCAL/MOL
REMARK 923 INTER-LIGAND FREE ENERGY PREDICTED BY IDOCK:   -3.89 KCAL/MOL
REMARK 924 INTRA-LIGAND FREE ENERGY PREDICTED BY IDOCK:   -0.01 KCAL/MOL
REMARK 927      BINDING AFFINITY PREDICTED BY RF-SCORE:    0.00 PKD
ROOT
HETATM    1  C   UNL     1     -10.375   4.323  72.234  1.00  0.00    -0.214 C  
HETATM    2  C   UNL     1     -10.033   5.115  70.968  1.00  0.00    -0.206 C  
HETATM    3  C   UNL     1      -9.892   4.148  69.789  1.00  0.00    -0.220 C  
ENDROOT
BRANCH   2   4
HETATM    4  N   UNL     1     -11.088   6.110  70.748  1.00  0.00    -0.303 NA 
HETATM    5  H   UNL     1     -11.742   5.788  70.034  1.00  0.00     0.000 HD 
BRANCH   4   6
HETATM    6  C   UNL     1     -11.808   6.497  71.972  1.00  0.00    -0.329 C  
BRANCH   6   7
HETATM    7  C   UNL     1     -11.174   7.752  72.626  1.00  0.00    -0.381 C  
HETATM    8  H   UNL     1     -10.001   8.165  74.173  1.00  0.00     0.000 HD 
HETATM    9  O   UNL     1     -10.390   7.397  73.772  1.00  0.00    -0.348 OA 
BRANCH   7  10
HETATM   10  C   UNL     1     -10.322   8.524  71.638  1.00  0.00    -0.333 A  
HETATM   11  C   UNL     1     -10.889   9.351  70.654  1.00  0.00    -0.346 A  
HETATM   12  C   UNL     1     -10.065  10.046  69.774  1.00  0.00    -0.248 A  
HETATM   13  O   UNL     1     -10.573  10.851  68.790  1.00  0.00    -0.179 OA 
HETATM   14  C   UNL     1      -8.681   9.937  69.867  1.00  0.00    -0.201 A  
HETATM   15  H   UNL     1     -10.011  11.325  68.190  1.00  0.00     0.000 HD 
HETATM   16  C   UNL     1      -8.098   9.140  70.838  1.00  0.00    -0.201 A  
HETATM   17  O   UNL     1      -7.884  10.614  68.991  1.00  0.00    -0.117 OA 
HETATM   18  C   UNL     1      -8.917   8.436  71.723  1.00  0.00    -0.262 A  
HETATM   19  H   UNL     1      -6.939  10.539  69.054  1.00  0.00     0.000 HD 
ENDBRANCH   7  10
ENDBRANCH   6   7
ENDBRANCH   4   6
ENDBRANCH   2   4
TORSDOF 4
ENDMDL
MODEL      239
REMARK 921   NORMALIZED FREE ENERGY PREDICTED BY IDOCK:   -2.90 KCAL/MOL
REMARK 922        TOTAL FREE ENERGY PREDICTED BY IDOCK:   -3.87 KCAL/MOL
REMARK 923 INTER-LIGAND FREE ENERGY PREDICTED BY IDOCK:   -3.59 KCAL/MOL
REMARK 924 INTRA-LIGAND FREE ENERGY PREDICTED BY IDOCK:   -0.28 KCAL/MOL
REMARK 927      BINDING AFFINITY PREDICTED BY RF-SCORE:    0.00 PKD
ROOT
HETATM    1  C   UNL     1      -9.462   2.934  65.374  1.00  0.00    -0.039 C  
HETATM    2  C   UNL     1      -8.299   3.901  65.610  1.00  0.00    -0.109 C  
HETATM    3  C   UNL     1      -8.208   4.880  64.436  1.00  0.00    -0.124 C  
ENDROOT
BRANCH   2   4
HETATM    4  N   UNL     1      -8.521   4.586  66.889  1.00  0.00    -0.105 NA 
HETATM    5  H   UNL     1      -8.734   5.572  66.736  1.00  0.00     0.000 HD 
BRANCH   4   6
HETATM    6  C   UNL     1      -9.553   3.958  67.730  1.00  0.00    -0.145 C  
BRANCH   6   7
HETATM    7  C   UNL     1      -9.055   3.771  69.187  1.00  0.00    -0.137 C  
HETATM    8  H   UNL     1      -7.351   3.949  70.189  1.00  0.00     0.000 HD 
HETATM    9  O   UNL     1      -7.656   4.063  69.296  1.00  0.00    -0.053 OA 
BRANCH   7  10
HETATM   10  C   UNL     1      -9.839   4.633  70.157  1.00  0.00    -0.306 A  
HETATM   11  C   UNL     1     -10.763   5.596  69.718  1.00  0.00    -0.401 A  
HETATM   12  C   UNL     1     -11.465   6.357  70.647  1.00  0.00    -0.362 A  
HETATM   13  O   UNL     1     -12.363   7.317  70.266  1.00  0.00    -0.556 OA 
HETATM   14  C   UNL     1     -11.266   6.165  72.012  1.00  0.00    -0.286 A  
HETATM   15  H   UNL     1     -12.842   7.836  70.900  1.00  0.00     0.000 HD 
HETATM   16  C   UNL     1     -10.372   5.212  72.469  1.00  0.00    -0.254 A  
HETATM   17  O   UNL     1     -11.951   6.927  72.914  1.00  0.00    -0.485 OA 
HETATM   18  C   UNL     1      -9.660   4.446  71.543  1.00  0.00    -0.228 A  
HETATM   19  H   UNL     1     -11.815   6.796  73.845  1.00  0.00     0.000 HD 
ENDBRANCH   7  10
ENDBRANCH   6   7
ENDBRANCH   4   6
ENDBRANCH   2   4
TORSDOF 4
ENDMDL
MODEL      240
REMARK 921   NORMALIZED FREE ENERGY PREDICTED BY IDOCK:   -2.90 KCAL/MOL
REMARK 922        TOTAL FREE ENERGY PREDICTED BY IDOCK:   -3.86 KCAL/MOL
REMARK 923 INTER-LIGAND FREE ENERGY PREDICTED BY IDOCK:   -3.66 KCAL/MOL
REMARK 924 INTRA-LIGAND FREE ENERGY PREDICTED BY IDOCK:   -0.20 KCAL/MOL
REMARK 927      BINDING AFFINITY PREDICTED BY RF-SCORE:    0.00 PKD
ROOT
HETATM    1  C   UNL     1      -9.084  15.485  66.143  1.00  0.00    -0.359 C  
HETATM    2  C   UNL     1      -9.029  15.738  67.652  1.00  0.00    -0.187 C  
HETATM    3  C   UNL     1      -9.223  17.233  67.922  1.00  0.00    -0.247 C  
ENDROOT
BRANCH   2   4
HETATM    4  N   UNL     1     -10.062  14.918  68.295  1.00  0.00    -0.218 NA 
HETATM    5  H   UNL     1     -10.958  15.036  67.823  1.00  0.00     0.000 HD 
BRANCH   4   6
HETATM    6  C   UNL     1      -9.714  13.492  68.396  1.00  0.00    -0.207 C  
BRANCH   6   7
HETATM    7  C   UNL     1     -10.984  12.603  68.429  1.00  0.00    -0.257 C  
HETATM    8  H   UNL     1     -12.319  11.902  67.138  1.00  0.00     0.000 HD 
HETATM    9  O   UNL     1     -11.540  12.446  67.118  1.00  0.00    -0.333 OA 
BRANCH   7  10
HETATM   10  C   UNL     1     -10.696  11.243  69.032  1.00  0.00    -0.257 A  
HETATM   11  C   UNL     1      -9.644  10.432  68.572  1.00  0.00    -0.161 A  
HETATM   12  C   UNL     1      -9.414   9.194  69.163  1.00  0.00    -0.156 A  
HETATM   13  O   UNL     1      -8.412   8.365  68.737  1.00  0.00    -0.122 OA 
HETATM   14  C   UNL     1     -10.211   8.754  70.216  1.00  0.00    -0.196 A  
HETATM   15  H   UNL     1      -8.254   7.520  69.141  1.00  0.00     0.000 HD 
HETATM   16  C   UNL     1     -11.244   9.541  70.697  1.00  0.00    -0.364 A  
HETATM   17  O   UNL     1      -9.983   7.533  70.779  1.00  0.00    -0.183 OA 
HETATM   18  C   UNL     1     -11.485  10.784  70.107  1.00  0.00    -0.415 A  
HETATM   19  H   UNL     1     -10.528   7.233  71.498  1.00  0.00     0.000 HD 
ENDBRANCH   7  10
ENDBRANCH   6   7
ENDBRANCH   4   6
ENDBRANCH   2   4
TORSDOF 4
ENDMDL
MODEL      241
REMARK 921   NORMALIZED FREE ENERGY PREDICTED BY IDOCK:   -2.88 KCAL/MOL
REMARK 922        TOTAL FREE ENERGY PREDICTED BY IDOCK:   -3.85 KCAL/MOL
REMARK 923 INTER-LIGAND FREE ENERGY PREDICTED BY IDOCK:   -3.51 KCAL/MOL
REMARK 924 INTRA-LIGAND FREE ENERGY PREDICTED BY IDOCK:   -0.33 KCAL/MOL
REMARK 927      BINDING AFFINITY PREDICTED BY RF-SCORE:    0.00 PKD
ROOT
HETATM    1  C   UNL     1      -6.788   8.122  72.487  1.00  0.00    -0.096 C  
HETATM    2  C   UNL     1      -7.657   6.861  72.471  1.00  0.00    -0.091 C  
HETATM    3  C   UNL     1      -6.947   5.747  73.246  1.00  0.00    -0.085 C  
ENDROOT
BRANCH   2   4
HETATM    4  N   UNL     1      -8.964   7.194  73.049  1.00  0.00    -0.129 NA 
HETATM    5  H   UNL     1      -8.915   7.196  74.068  1.00  0.00     0.000 HD 
BRANCH   4   6
HETATM    6  C   UNL     1      -9.529   8.460  72.556  1.00  0.00    -0.289 C  
BRANCH   6   7
HETATM    7  C   UNL     1     -10.888   8.231  71.845  1.00  0.00    -0.283 C  
HETATM    8  H   UNL     1     -12.650   9.137  71.722  1.00  0.00     0.000 HD 
HETATM    9  O   UNL     1     -11.817   9.277  72.157  1.00  0.00    -0.328 OA 
BRANCH   7  10
HETATM   10  C   UNL     1     -10.720   8.122  70.343  1.00  0.00    -0.234 A  
HETATM   11  C   UNL     1     -10.833   6.895  69.668  1.00  0.00    -0.294 A  
HETATM   12  C   UNL     1     -10.678   6.847  68.286  1.00  0.00    -0.214 A  
HETATM   13  O   UNL     1     -10.764   5.672  67.589  1.00  0.00    -0.235 OA 
HETATM   14  C   UNL     1     -10.421   8.008  67.563  1.00  0.00    -0.260 A  
HETATM   15  H   UNL     1     -10.659   5.639  66.646  1.00  0.00     0.000 HD 
HETATM   16  C   UNL     1     -10.320   9.232  68.203  1.00  0.00    -0.261 A  
HETATM   17  O   UNL     1     -10.259   7.946  66.210  1.00  0.00    -0.479 OA 
HETATM   18  C   UNL     1     -10.471   9.289  69.591  1.00  0.00    -0.234 A  
HETATM   19  H   UNL     1     -10.083   8.739  65.717  1.00  0.00     0.000 HD 
ENDBRANCH   7  10
ENDBRANCH   6   7
ENDBRANCH   4   6
ENDBRANCH   2   4
TORSDOF 4
ENDMDL
MODEL      242
REMARK 921   NORMALIZED FREE ENERGY PREDICTED BY IDOCK:   -2.88 KCAL/MOL
REMARK 922        TOTAL FREE ENERGY PREDICTED BY IDOCK:   -3.85 KCAL/MOL
REMARK 923 INTER-LIGAND FREE ENERGY PREDICTED BY IDOCK:   -3.38 KCAL/MOL
REMARK 924 INTRA-LIGAND FREE ENERGY PREDICTED BY IDOCK:   -0.47 KCAL/MOL
REMARK 927      BINDING AFFINITY PREDICTED BY RF-SCORE:    0.00 PKD
ROOT
HETATM    1  C   UNL     1     -10.167   4.751  65.963  1.00  0.00    -0.308 C  
HETATM    2  C   UNL     1      -8.921   4.556  66.831  1.00  0.00    -0.115 C  
HETATM    3  C   UNL     1      -8.042   5.806  66.743  1.00  0.00    -0.102 C  
ENDROOT
BRANCH   2   4
HETATM    4  N   UNL     1      -9.355   4.276  68.204  1.00  0.00    -0.142 NA 
HETATM    5  H   UNL     1      -8.840   3.484  68.589  1.00  0.00     0.000 HD 
BRANCH   4   6
HETATM    6  C   UNL     1      -9.269   5.436  69.105  1.00  0.00    -0.116 C  
BRANCH   6   7
HETATM    7  C   UNL     1     -10.668   6.057  69.359  1.00  0.00    -0.334 C  
HETATM    8  H   UNL     1     -12.076   5.979  70.755  1.00  0.00     0.000 HD 
HETATM    9  O   UNL     1     -11.220   5.599  70.599  1.00  0.00    -0.210 OA 
BRANCH   7  10
HETATM   10  C   UNL     1     -10.614   7.572  69.348  1.00  0.00    -0.225 A  
HETATM   11  C   UNL     1     -10.766   8.314  68.164  1.00  0.00    -0.093 A  
HETATM   12  C   UNL     1     -10.717   9.704  68.206  1.00  0.00    -0.217 A  
HETATM   13  O   UNL     1     -10.844  10.466  67.077  1.00  0.00    -0.259 OA 
HETATM   14  C   UNL     1     -10.528  10.368  69.415  1.00  0.00    -0.238 A  
HETATM   15  H   UNL     1     -10.810  11.415  67.105  1.00  0.00     0.000 HD 
HETATM   16  C   UNL     1     -10.391   9.660  70.597  1.00  0.00    -0.365 A  
HETATM   17  O   UNL     1     -10.469  11.731  69.441  1.00  0.00    -0.430 OA 
HETATM   18  C   UNL     1     -10.435   8.264  70.564  1.00  0.00    -0.225 A  
HETATM   19  H   UNL     1     -10.340  12.184  70.266  1.00  0.00     0.000 HD 
ENDBRANCH   7  10
ENDBRANCH   6   7
ENDBRANCH   4   6
ENDBRANCH   2   4
TORSDOF 4
ENDMDL
MODEL      243
REMARK 921   NORMALIZED FREE ENERGY PREDICTED BY IDOCK:   -2.86 KCAL/MOL
REMARK 922        TOTAL FREE ENERGY PREDICTED BY IDOCK:   -3.82 KCAL/MOL
REMARK 923 INTER-LIGAND FREE ENERGY PREDICTED BY IDOCK:   -3.41 KCAL/MOL
REMARK 924 INTRA-LIGAND FREE ENERGY PREDICTED BY IDOCK:   -0.41 KCAL/MOL
REMARK 927      BINDING AFFINITY PREDICTED BY RF-SCORE:    0.00 PKD
ROOT
HETATM    1  C   UNL     1      -8.607   9.540  68.674  1.00  0.00    -0.119 C  
HETATM    2  C   UNL     1      -9.251   8.547  67.703  1.00  0.00    -0.134 C  
HETATM    3  C   UNL     1      -9.641   9.278  66.415  1.00  0.00    -0.301 C  
ENDROOT
BRANCH   2   4
HETATM    4  N   UNL     1      -8.299   7.458  67.457  1.00  0.00    -0.113 NA 
HETATM    5  H   UNL     1      -7.346   7.763  67.660  1.00  0.00     0.000 HD 
BRANCH   4   6
HETATM    6  C   UNL     1      -8.610   6.217  68.185  1.00  0.00    -0.116 C  
BRANCH   6   7
HETATM    7  C   UNL     1     -10.136   6.069  68.418  1.00  0.00    -0.164 C  
HETATM    8  H   UNL     1     -11.618   4.928  67.750  1.00  0.00     0.000 HD 
HETATM    9  O   UNL     1     -10.683   5.020  67.608  1.00  0.00    -0.009 OA 
BRANCH   7  10
HETATM   10  C   UNL     1     -10.454   5.812  69.877  1.00  0.00    -0.360 A  
HETATM   11  C   UNL     1      -9.789   4.822  70.621  1.00  0.00    -0.292 A  
HETATM   12  C   UNL     1     -10.110   4.628  71.960  1.00  0.00    -0.197 A  
HETATM   13  O   UNL     1      -9.500   3.666  72.718  1.00  0.00    -0.112 OA 
HETATM   14  C   UNL     1     -11.079   5.416  72.575  1.00  0.00    -0.253 A  
HETATM   15  H   UNL     1      -9.719   3.534  73.633  1.00  0.00     0.000 HD 
HETATM   16  C   UNL     1     -11.737   6.408  71.869  1.00  0.00    -0.378 A  
HETATM   17  O   UNL     1     -11.393   5.209  73.887  1.00  0.00    -0.429 OA 
HETATM   18  C   UNL     1     -11.424   6.607  70.522  1.00  0.00    -0.432 A  
HETATM   19  H   UNL     1     -12.055   5.746  74.306  1.00  0.00     0.000 HD 
ENDBRANCH   7  10
ENDBRANCH   6   7
ENDBRANCH   4   6
ENDBRANCH   2   4
TORSDOF 4
ENDMDL
MODEL      244
REMARK 921   NORMALIZED FREE ENERGY PREDICTED BY IDOCK:   -2.83 KCAL/MOL
REMARK 922        TOTAL FREE ENERGY PREDICTED BY IDOCK:   -3.79 KCAL/MOL
REMARK 923 INTER-LIGAND FREE ENERGY PREDICTED BY IDOCK:   -3.55 KCAL/MOL
REMARK 924 INTRA-LIGAND FREE ENERGY PREDICTED BY IDOCK:   -0.24 KCAL/MOL
REMARK 927      BINDING AFFINITY PREDICTED BY RF-SCORE:    0.00 PKD
ROOT
HETATM    1  C   UNL     1     -10.911   3.221  73.797  1.00  0.00    -0.310 C  
HETATM    2  C   UNL     1     -11.042   4.676  73.338  1.00  0.00    -0.337 C  
HETATM    3  C   UNL     1     -10.290   5.584  74.315  1.00  0.00    -0.293 C  
ENDROOT
BRANCH   2   4
HETATM    4  N   UNL     1     -10.520   4.777  71.971  1.00  0.00    -0.187 NA 
HETATM    5  H   UNL     1     -11.161   4.340  71.309  1.00  0.00     0.000 HD 
BRANCH   4   6
HETATM    6  C   UNL     1     -10.202   6.151  71.553  1.00  0.00    -0.203 C  
BRANCH   6   7
HETATM    7  C   UNL     1     -11.010   6.558  70.293  1.00  0.00    -0.310 C  
HETATM    8  H   UNL     1     -12.885   7.028  69.841  1.00  0.00     0.000 HD 
HETATM    9  O   UNL     1     -12.390   6.779  70.613  1.00  0.00    -0.359 OA 
BRANCH   7  10
HETATM   10  C   UNL     1     -10.430   7.794  69.635  1.00  0.00    -0.229 A  
HETATM   11  C   UNL     1      -9.463   8.592  70.272  1.00  0.00    -0.176 A  
HETATM   12  C   UNL     1      -8.954   9.713  69.624  1.00  0.00    -0.203 A  
HETATM   13  O   UNL     1      -8.025  10.528  70.211  1.00  0.00    -0.400 OA 
HETATM   14  C   UNL     1      -9.388  10.046  68.343  1.00  0.00    -0.138 A  
HETATM   15  H   UNL     1      -7.677  11.293  69.769  1.00  0.00     0.000 HD 
HETATM   16  C   UNL     1     -10.327   9.268  67.690  1.00  0.00    -0.311 A  
HETATM   17  O   UNL     1      -8.890  11.155  67.723  1.00  0.00    -0.131 OA 
HETATM   18  C   UNL     1     -10.847   8.142  68.334  1.00  0.00     0.036 A  
HETATM   19  H   UNL     1      -9.186  11.383  66.850  1.00  0.00     0.000 HD 
ENDBRANCH   7  10
ENDBRANCH   6   7
ENDBRANCH   4   6
ENDBRANCH   2   4
TORSDOF 4
ENDMDL
MODEL      245
REMARK 921   NORMALIZED FREE ENERGY PREDICTED BY IDOCK:   -2.82 KCAL/MOL
REMARK 922        TOTAL FREE ENERGY PREDICTED BY IDOCK:   -3.77 KCAL/MOL
REMARK 923 INTER-LIGAND FREE ENERGY PREDICTED BY IDOCK:   -3.62 KCAL/MOL
REMARK 924 INTRA-LIGAND FREE ENERGY PREDICTED BY IDOCK:   -0.15 KCAL/MOL
REMARK 927      BINDING AFFINITY PREDICTED BY RF-SCORE:    0.00 PKD
ROOT
HETATM    1  C   UNL     1     -10.716  14.512  68.620  1.00  0.00    -0.257 C  
HETATM    2  C   UNL     1     -11.633  13.347  68.237  1.00  0.00    -0.344 C  
HETATM    3  C   UNL     1     -12.193  13.585  66.831  1.00  0.00    -0.377 C  
ENDROOT
BRANCH   2   4
HETATM    4  N   UNL     1     -10.859  12.104  68.325  1.00  0.00    -0.212 NA 
HETATM    5  H   UNL     1     -11.479  11.293  68.303  1.00  0.00     0.000 HD 
BRANCH   4   6
HETATM    6  C   UNL     1      -9.811  11.980  67.299  1.00  0.00    -0.192 C  
BRANCH   6   7
HETATM    7  C   UNL     1      -8.715  10.971  67.734  1.00  0.00    -0.130 C  
HETATM    8  H   UNL     1      -7.873  10.357  69.423  1.00  0.00     0.000 HD 
HETATM    9  O   UNL     1      -8.544  10.975  69.156  1.00  0.00    -0.111 OA 
BRANCH   7  10
HETATM   10  C   UNL     1      -9.031   9.567  67.257  1.00  0.00    -0.143 A  
HETATM   11  C   UNL     1     -10.170   8.870  67.696  1.00  0.00    -0.296 A  
HETATM   12  C   UNL     1     -10.421   7.586  67.224  1.00  0.00    -0.321 A  
HETATM   13  O   UNL     1     -11.508   6.864  67.636  1.00  0.00    -0.585 OA 
HETATM   14  C   UNL     1      -9.559   6.988  66.310  1.00  0.00    -0.031 A  
HETATM   15  H   UNL     1     -11.680   5.988  67.314  1.00  0.00     0.000 HD 
HETATM   16  C   UNL     1      -8.439   7.660  65.850  1.00  0.00    -0.150 A  
HETATM   17  O   UNL     1      -9.810   5.723  65.863  1.00  0.00    -0.357 OA 
HETATM   18  C   UNL     1      -8.176   8.949  66.322  1.00  0.00    -0.111 A  
HETATM   19  H   UNL     1      -9.221   5.315  65.239  1.00  0.00     0.000 HD 
ENDBRANCH   7  10
ENDBRANCH   6   7
ENDBRANCH   4   6
ENDBRANCH   2   4
TORSDOF 4
ENDMDL
MODEL      246
REMARK 921   NORMALIZED FREE ENERGY PREDICTED BY IDOCK:   -2.81 KCAL/MOL
REMARK 922        TOTAL FREE ENERGY PREDICTED BY IDOCK:   -3.75 KCAL/MOL
REMARK 923 INTER-LIGAND FREE ENERGY PREDICTED BY IDOCK:   -3.51 KCAL/MOL
REMARK 924 INTRA-LIGAND FREE ENERGY PREDICTED BY IDOCK:   -0.25 KCAL/MOL
REMARK 927      BINDING AFFINITY PREDICTED BY RF-SCORE:    0.00 PKD
ROOT
HETATM    1  C   UNL     1     -11.382  14.489  69.192  1.00  0.00    -0.305 C  
HETATM    2  C   UNL     1     -11.341  13.604  67.942  1.00  0.00    -0.295 C  
HETATM    3  C   UNL     1     -12.052  14.321  66.791  1.00  0.00    -0.446 C  
ENDROOT
BRANCH   2   4
HETATM    4  N   UNL     1      -9.937  13.310  67.632  1.00  0.00    -0.225 NA 
HETATM    5  H   UNL     1      -9.349  13.465  68.451  1.00  0.00     0.000 HD 
BRANCH   4   6
HETATM    6  C   UNL     1      -9.717  11.962  67.085  1.00  0.00    -0.185 C  
BRANCH   6   7
HETATM    7  C   UNL     1      -8.649  11.190  67.902  1.00  0.00    -0.135 C  
HETATM    8  H   UNL     1      -7.108  11.619  69.078  1.00  0.00     0.000 HD 
HETATM    9  O   UNL     1      -7.763  12.092  68.577  1.00  0.00    -0.122 OA 
BRANCH   7  10
HETATM   10  C   UNL     1      -9.288  10.249  68.904  1.00  0.00    -0.180 A  
HETATM   11  C   UNL     1     -10.588  10.457  69.396  1.00  0.00    -0.267 A  
HETATM   12  C   UNL     1     -11.135   9.561  70.309  1.00  0.00    -0.271 A  
HETATM   13  O   UNL     1     -12.390   9.731  70.827  1.00  0.00    -0.362 OA 
HETATM   14  C   UNL     1     -10.407   8.452  70.733  1.00  0.00    -0.195 A  
HETATM   15  H   UNL     1     -12.763   9.120  71.450  1.00  0.00     0.000 HD 
HETATM   16  C   UNL     1      -9.131   8.217  70.251  1.00  0.00    -0.150 A  
HETATM   17  O   UNL     1     -10.950   7.587  71.638  1.00  0.00    -0.230 OA 
HETATM   18  C   UNL     1      -8.572   9.114  69.337  1.00  0.00    -0.138 A  
HETATM   19  H   UNL     1     -10.453   6.830  71.927  1.00  0.00     0.000 HD 
ENDBRANCH   7  10
ENDBRANCH   6   7
ENDBRANCH   4   6
ENDBRANCH   2   4
TORSDOF 4
ENDMDL
MODEL      247
REMARK 921   NORMALIZED FREE ENERGY PREDICTED BY IDOCK:   -2.81 KCAL/MOL
REMARK 922        TOTAL FREE ENERGY PREDICTED BY IDOCK:   -3.75 KCAL/MOL
REMARK 923 INTER-LIGAND FREE ENERGY PREDICTED BY IDOCK:   -3.41 KCAL/MOL
REMARK 924 INTRA-LIGAND FREE ENERGY PREDICTED BY IDOCK:   -0.34 KCAL/MOL
REMARK 927      BINDING AFFINITY PREDICTED BY RF-SCORE:    0.00 PKD
ROOT
HETATM    1  C   UNL     1     -10.242   5.050  66.774  1.00  0.00    -0.286 C  
HETATM    2  C   UNL     1      -9.528   5.082  68.128  1.00  0.00    -0.132 C  
HETATM    3  C   UNL     1      -8.825   3.741  68.361  1.00  0.00    -0.150 C  
ENDROOT
BRANCH   2   4
HETATM    4  N   UNL     1      -8.588   6.209  68.127  1.00  0.00    -0.116 NA 
HETATM    5  H   UNL     1      -7.696   5.932  67.716  1.00  0.00     0.000 HD 
BRANCH   4   6
HETATM    6  C   UNL     1      -9.108   7.418  67.468  1.00  0.00    -0.125 C  
BRANCH   6   7
HETATM    7  C   UNL     1      -8.923   8.671  68.363  1.00  0.00    -0.142 C  
HETATM    8  H   UNL     1      -9.351  10.607  68.282  1.00  0.00     0.000 HD 
HETATM    9  O   UNL     1      -9.464   9.839  67.734  1.00  0.00    -0.133 OA 
BRANCH   7  10
HETATM   10  C   UNL     1      -9.557   8.479  69.726  1.00  0.00    -0.170 A  
HETATM   11  C   UNL     1      -8.845   8.705  70.917  1.00  0.00    -0.221 A  
HETATM   12  C   UNL     1      -9.473   8.523  72.145  1.00  0.00    -0.305 A  
HETATM   13  O   UNL     1      -8.815   8.716  73.329  1.00  0.00    -0.323 OA 
HETATM   14  C   UNL     1     -10.807   8.128  72.205  1.00  0.00    -0.303 A  
HETATM   15  H   UNL     1      -9.243   8.592  74.167  1.00  0.00     0.000 HD 
HETATM   16  C   UNL     1     -11.533   7.915  71.046  1.00  0.00    -0.298 A  
HETATM   17  O   UNL     1     -11.408   7.942  73.416  1.00  0.00    -0.512 OA 
HETATM   18  C   UNL     1     -10.910   8.091  69.809  1.00  0.00    -0.194 A  
HETATM   19  H   UNL     1     -12.318   7.672  73.456  1.00  0.00     0.000 HD 
ENDBRANCH   7  10
ENDBRANCH   6   7
ENDBRANCH   4   6
ENDBRANCH   2   4
TORSDOF 4
ENDMDL
MODEL      248
REMARK 921   NORMALIZED FREE ENERGY PREDICTED BY IDOCK:   -2.80 KCAL/MOL
REMARK 922        TOTAL FREE ENERGY PREDICTED BY IDOCK:   -3.74 KCAL/MOL
REMARK 923 INTER-LIGAND FREE ENERGY PREDICTED BY IDOCK:   -3.67 KCAL/MOL
REMARK 924 INTRA-LIGAND FREE ENERGY PREDICTED BY IDOCK:   -0.07 KCAL/MOL
REMARK 927      BINDING AFFINITY PREDICTED BY RF-SCORE:    0.00 PKD
ROOT
HETATM    1  C   UNL     1      -8.801   3.570  71.757  1.00  0.00    -0.135 C  
HETATM    2  C   UNL     1     -10.244   4.082  71.768  1.00  0.00    -0.065 C  
HETATM    3  C   UNL     1     -10.745   4.154  73.213  1.00  0.00    -0.292 C  
ENDROOT
BRANCH   2   4
HETATM    4  N   UNL     1     -10.274   5.390  71.103  1.00  0.00    -0.211 NA 
HETATM    5  H   UNL     1     -10.298   5.276  70.089  1.00  0.00     0.000 HD 
BRANCH   4   6
HETATM    6  C   UNL     1     -11.370   6.263  71.552  1.00  0.00    -0.296 C  
BRANCH   6   7
HETATM    7  C   UNL     1     -10.837   7.648  72.004  1.00  0.00    -0.238 C  
HETATM    8  H   UNL     1      -9.203   8.385  72.856  1.00  0.00     0.000 HD 
HETATM    9  O   UNL     1      -9.530   7.536  72.580  1.00  0.00    -0.145 OA 
BRANCH   7  10
HETATM   10  C   UNL     1     -10.811   8.636  70.854  1.00  0.00    -0.288 A  
HETATM   11  C   UNL     1     -11.170   9.984  71.023  1.00  0.00    -0.387 A  
HETATM   12  C   UNL     1     -11.122  10.855  69.939  1.00  0.00    -0.241 A  
HETATM   13  O   UNL     1     -11.479  12.171  70.054  1.00  0.00    -0.499 OA 
HETATM   14  C   UNL     1     -10.711  10.404  68.688  1.00  0.00    -0.218 A  
HETATM   15  H   UNL     1     -11.446  12.766  69.314  1.00  0.00     0.000 HD 
HETATM   16  C   UNL     1     -10.337   9.084  68.500  1.00  0.00    -0.233 A  
HETATM   17  O   UNL     1     -10.680  11.265  67.630  1.00  0.00    -0.201 OA 
HETATM   18  C   UNL     1     -10.386   8.202  69.582  1.00  0.00    -0.221 A  
HETATM   19  H   UNL     1     -10.400  10.957  66.777  1.00  0.00     0.000 HD 
ENDBRANCH   7  10
ENDBRANCH   6   7
ENDBRANCH   4   6
ENDBRANCH   2   4
TORSDOF 4
ENDMDL
MODEL      249
REMARK 921   NORMALIZED FREE ENERGY PREDICTED BY IDOCK:   -2.78 KCAL/MOL
REMARK 922        TOTAL FREE ENERGY PREDICTED BY IDOCK:   -3.71 KCAL/MOL
REMARK 923 INTER-LIGAND FREE ENERGY PREDICTED BY IDOCK:   -3.52 KCAL/MOL
REMARK 924 INTRA-LIGAND FREE ENERGY PREDICTED BY IDOCK:   -0.20 KCAL/MOL
REMARK 927      BINDING AFFINITY PREDICTED BY RF-SCORE:    0.00 PKD
ROOT
HETATM    1  C   UNL     1     -10.694  14.630  68.582  1.00  0.00    -0.252 C  
HETATM    2  C   UNL     1     -11.716  13.581  68.135  1.00  0.00    -0.361 C  
HETATM    3  C   UNL     1     -12.052  13.799  66.657  1.00  0.00    -0.471 C  
ENDROOT
BRANCH   2   4
HETATM    4  N   UNL     1     -11.151  12.251  68.387  1.00  0.00    -0.225 NA 
HETATM    5  H   UNL     1     -10.148  12.314  68.560  1.00  0.00     0.000 HD 
BRANCH   4   6
HETATM    6  C   UNL     1     -11.818  11.516  69.474  1.00  0.00    -0.351 C  
BRANCH   6   7
HETATM    7  C   UNL     1     -11.599   9.986  69.337  1.00  0.00    -0.023 C  
HETATM    8  H   UNL     1     -11.236   8.681  67.886  1.00  0.00     0.000 HD 
HETATM    9  O   UNL     1     -11.370   9.618  67.971  1.00  0.00    -0.048 OA 
BRANCH   7  10
HETATM   10  C   UNL     1     -10.448   9.509  70.199  1.00  0.00    -0.299 A  
HETATM   11  C   UNL     1      -9.107   9.719  69.834  1.00  0.00    -0.257 A  
HETATM   12  C   UNL     1      -8.084   9.270  70.663  1.00  0.00    -0.176 A  
HETATM   13  O   UNL     1      -6.765   9.438  70.340  1.00  0.00    -0.061 OA 
HETATM   14  C   UNL     1      -8.378   8.621  71.859  1.00  0.00    -0.124 A  
HETATM   15  H   UNL     1      -6.067   9.131  70.905  1.00  0.00     0.000 HD 
HETATM   16  C   UNL     1      -9.691   8.416  72.248  1.00  0.00    -0.386 A  
HETATM   17  O   UNL     1      -7.366   8.174  72.658  1.00  0.00    -0.100 OA 
HETATM   18  C   UNL     1     -10.724   8.861  71.420  1.00  0.00    -0.382 A  
HETATM   19  H   UNL     1      -7.567   7.731  73.474  1.00  0.00     0.000 HD 
ENDBRANCH   7  10
ENDBRANCH   6   7
ENDBRANCH   4   6
ENDBRANCH   2   4
TORSDOF 4
ENDMDL
MODEL      250
REMARK 921   NORMALIZED FREE ENERGY PREDICTED BY IDOCK:   -2.77 KCAL/MOL
REMARK 922        TOTAL FREE ENERGY PREDICTED BY IDOCK:   -3.71 KCAL/MOL
REMARK 923 INTER-LIGAND FREE ENERGY PREDICTED BY IDOCK:   -3.47 KCAL/MOL
REMARK 924 INTRA-LIGAND FREE ENERGY PREDICTED BY IDOCK:   -0.23 KCAL/MOL
REMARK 927      BINDING AFFINITY PREDICTED BY RF-SCORE:    0.00 PKD
ROOT
HETATM    1  C   UNL     1     -12.091   7.598  71.361  1.00  0.00    -0.342 C  
HETATM    2  C   UNL     1     -11.207   8.256  72.425  1.00  0.00    -0.381 C  
HETATM    3  C   UNL     1     -10.772   7.200  73.445  1.00  0.00    -0.410 C  
ENDROOT
BRANCH   2   4
HETATM    4  N   UNL     1     -10.063   8.881  71.750  1.00  0.00    -0.328 NA 
HETATM    5  H   UNL     1      -9.390   8.173  71.456  1.00  0.00     0.000 HD 
BRANCH   4   6
HETATM    6  C   UNL     1     -10.436   9.742  70.617  1.00  0.00    -0.289 C  
BRANCH   6   7
HETATM    7  C   UNL     1      -9.533   9.474  69.385  1.00  0.00    -0.176 C  
HETATM    8  H   UNL     1      -9.679   8.555  67.631  1.00  0.00     0.000 HD 
HETATM    9  O   UNL     1     -10.232   8.719  68.387  1.00  0.00    -0.186 OA 
BRANCH   7  10
HETATM   10  C   UNL     1      -9.015  10.765  68.784  1.00  0.00    -0.171 A  
HETATM   11  C   UNL     1      -7.640  11.040  68.684  1.00  0.00    -0.124 A  
HETATM   12  C   UNL     1      -7.212  12.237  68.118  1.00  0.00    -0.101 A  
HETATM   13  O   UNL     1      -5.884  12.554  68.015  1.00  0.00    -0.063 OA 
HETATM   14  C   UNL     1      -8.135  13.161  67.638  1.00  0.00    -0.176 A  
HETATM   15  H   UNL     1      -5.592  13.370  67.628  1.00  0.00     0.000 HD 
HETATM   16  C   UNL     1      -9.494  12.906  67.710  1.00  0.00    -0.202 A  
HETATM   17  O   UNL     1      -7.703  14.336  67.095  1.00  0.00    -0.322 OA 
HETATM   18  C   UNL     1      -9.933  11.710  68.281  1.00  0.00    -0.201 A  
HETATM   19  H   UNL     1      -8.333  14.967  66.768  1.00  0.00     0.000 HD 
ENDBRANCH   7  10
ENDBRANCH   6   7
ENDBRANCH   4   6
ENDBRANCH   2   4
TORSDOF 4
ENDMDL
MODEL      251
REMARK 921   NORMALIZED FREE ENERGY PREDICTED BY IDOCK:   -2.77 KCAL/MOL
REMARK 922        TOTAL FREE ENERGY PREDICTED BY IDOCK:   -3.70 KCAL/MOL
REMARK 923 INTER-LIGAND FREE ENERGY PREDICTED BY IDOCK:   -3.53 KCAL/MOL
REMARK 924 INTRA-LIGAND FREE ENERGY PREDICTED BY IDOCK:   -0.17 KCAL/MOL
REMARK 927      BINDING AFFINITY PREDICTED BY RF-SCORE:    0.00 PKD
ROOT
HETATM    1  C   UNL     1      -9.776  13.858  67.923  1.00  0.00    -0.231 C  
HETATM    2  C   UNL     1     -10.126  12.692  68.852  1.00  0.00     0.064 C  
HETATM    3  C   UNL     1     -11.594  12.802  69.273  1.00  0.00    -0.372 C  
ENDROOT
BRANCH   2   4
HETATM    4  N   UNL     1      -9.843  11.438  68.144  1.00  0.00    -0.184 NA 
HETATM    5  H   UNL     1     -10.241  11.460  67.204  1.00  0.00     0.000 HD 
BRANCH   4   6
HETATM    6  C   UNL     1      -8.414  11.091  68.092  1.00  0.00    -0.135 C  
BRANCH   6   7
HETATM    7  C   UNL     1      -8.067   9.981  69.118  1.00  0.00    -0.126 C  
HETATM    8  H   UNL     1      -7.175   9.844  70.886  1.00  0.00     0.000 HD 
HETATM    9  O   UNL     1      -7.388  10.524  70.257  1.00  0.00    -0.206 OA 
BRANCH   7  10
HETATM   10  C   UNL     1      -9.305   9.230  69.566  1.00  0.00    -0.177 A  
HETATM   11  C   UNL     1      -9.852   8.179  68.810  1.00  0.00    -0.181 A  
HETATM   12  C   UNL     1     -10.986   7.514  69.267  1.00  0.00    -0.038 A  
HETATM   13  O   UNL     1     -11.562   6.496  68.557  1.00  0.00    -0.539 OA 
HETATM   14  C   UNL     1     -11.579   7.875  70.473  1.00  0.00    -0.144 A  
HETATM   15  H   UNL     1     -12.336   6.042  68.868  1.00  0.00     0.000 HD 
HETATM   16  C   UNL     1     -11.049   8.897  71.243  1.00  0.00    -0.367 A  
HETATM   17  O   UNL     1     -12.697   7.224  70.905  1.00  0.00    -0.556 OA 
HETATM   18  C   UNL     1      -9.914   9.573  70.791  1.00  0.00    -0.334 A  
HETATM   19  H   UNL     1     -13.102   7.471  71.728  1.00  0.00     0.000 HD 
ENDBRANCH   7  10
ENDBRANCH   6   7
ENDBRANCH   4   6
ENDBRANCH   2   4
TORSDOF 4
ENDMDL
MODEL      252
REMARK 921   NORMALIZED FREE ENERGY PREDICTED BY IDOCK:   -2.74 KCAL/MOL
REMARK 922        TOTAL FREE ENERGY PREDICTED BY IDOCK:   -3.68 KCAL/MOL
REMARK 923 INTER-LIGAND FREE ENERGY PREDICTED BY IDOCK:   -3.37 KCAL/MOL
REMARK 924 INTRA-LIGAND FREE ENERGY PREDICTED BY IDOCK:   -0.30 KCAL/MOL
REMARK 927      BINDING AFFINITY PREDICTED BY RF-SCORE:    0.00 PKD
ROOT
HETATM    1  C   UNL     1      -7.362   4.631  65.712  1.00  0.00    -0.077 C  
HETATM    2  C   UNL     1      -8.453   4.803  64.650  1.00  0.00    -0.139 C  
HETATM    3  C   UNL     1      -9.006   3.429  64.265  1.00  0.00    -0.114 C  
ENDROOT
BRANCH   2   4
HETATM    4  N   UNL     1      -9.490   5.688  65.194  1.00  0.00    -0.338 NA 
HETATM    5  H   UNL     1     -10.410   5.257  65.106  1.00  0.00     0.000 HD 
BRANCH   4   6
HETATM    6  C   UNL     1      -9.247   6.108  66.583  1.00  0.00    -0.144 C  
BRANCH   6   7
HETATM    7  C   UNL     1     -10.318   5.528  67.543  1.00  0.00    -0.214 C  
HETATM    8  H   UNL     1     -10.678   3.812  68.475  1.00  0.00     0.000 HD 
HETATM    9  O   UNL     1     -10.022   4.168  67.887  1.00  0.00    -0.089 OA 
BRANCH   7  10
HETATM   10  C   UNL     1     -10.446   6.361  68.803  1.00  0.00    -0.260 A  
HETATM   11  C   UNL     1     -11.284   5.980  69.865  1.00  0.00    -0.438 A  
HETATM   12  C   UNL     1     -11.363   6.774  71.005  1.00  0.00    -0.309 A  
HETATM   13  O   UNL     1     -12.177   6.451  72.056  1.00  0.00    -0.366 OA 
HETATM   14  C   UNL     1     -10.609   7.940  71.107  1.00  0.00    -0.213 A  
HETATM   15  H   UNL     1     -12.230   6.993  72.835  1.00  0.00     0.000 HD 
HETATM   16  C   UNL     1      -9.765   8.328  70.081  1.00  0.00    -0.176 A  
HETATM   17  O   UNL     1     -10.704   8.717  72.225  1.00  0.00    -0.344 OA 
HETATM   18  C   UNL     1      -9.683   7.539  68.931  1.00  0.00    -0.151 A  
HETATM   19  H   UNL     1     -10.189   9.512  72.294  1.00  0.00     0.000 HD 
ENDBRANCH   7  10
ENDBRANCH   6   7
ENDBRANCH   4   6
ENDBRANCH   2   4
TORSDOF 4
ENDMDL
MODEL      253
REMARK 921   NORMALIZED FREE ENERGY PREDICTED BY IDOCK:   -2.74 KCAL/MOL
REMARK 922        TOTAL FREE ENERGY PREDICTED BY IDOCK:   -3.67 KCAL/MOL
REMARK 923 INTER-LIGAND FREE ENERGY PREDICTED BY IDOCK:   -3.49 KCAL/MOL
REMARK 924 INTRA-LIGAND FREE ENERGY PREDICTED BY IDOCK:   -0.19 KCAL/MOL
REMARK 927      BINDING AFFINITY PREDICTED BY RF-SCORE:    0.00 PKD
ROOT
HETATM    1  C   UNL     1      -8.801   6.663  70.633  1.00  0.00    -0.148 C  
HETATM    2  C   UNL     1      -7.701   6.983  69.617  1.00  0.00    -0.110 C  
HETATM    3  C   UNL     1      -7.641   5.869  68.568  1.00  0.00    -0.090 C  
ENDROOT
BRANCH   2   4
HETATM    4  N   UNL     1      -7.991   8.293  69.021  1.00  0.00    -0.110 NA 
HETATM    5  H   UNL     1      -8.375   8.182  68.082  1.00  0.00     0.000 HD 
BRANCH   4   6
HETATM    6  C   UNL     1      -8.870   9.140  69.843  1.00  0.00    -0.169 C  
BRANCH   6   7
HETATM    7  C   UNL     1     -10.225   9.400  69.135  1.00  0.00    -0.202 C  
HETATM    8  H   UNL     1     -11.975  10.228  69.574  1.00  0.00     0.000 HD 
HETATM    9  O   UNL     1     -11.144  10.069  70.007  1.00  0.00    -0.256 OA 
BRANCH   7  10
HETATM   10  C   UNL     1     -10.043  10.205  67.863  1.00  0.00    -0.207 A  
HETATM   11  C   UNL     1     -10.196   9.630  66.590  1.00  0.00    -0.302 A  
HETATM   12  C   UNL     1     -10.027  10.412  65.452  1.00  0.00    -0.295 A  
HETATM   13  O   UNL     1     -10.150   9.891  64.192  1.00  0.00    -0.450 OA 
HETATM   14  C   UNL     1      -9.717  11.764  65.563  1.00  0.00    -0.224 A  
HETATM   15  H   UNL     1     -10.035  10.425  63.415  1.00  0.00     0.000 HD 
HETATM   16  C   UNL     1      -9.576  12.357  66.806  1.00  0.00    -0.224 A  
HETATM   17  O   UNL     1      -9.541  12.518  64.439  1.00  0.00    -0.513 OA 
HETATM   18  C   UNL     1      -9.740  11.579  67.955  1.00  0.00    -0.187 A  
HETATM   19  H   UNL     1      -9.329  13.441  64.516  1.00  0.00     0.000 HD 
ENDBRANCH   7  10
ENDBRANCH   6   7
ENDBRANCH   4   6
ENDBRANCH   2   4
TORSDOF 4
ENDMDL
MODEL      254
REMARK 921   NORMALIZED FREE ENERGY PREDICTED BY IDOCK:   -2.74 KCAL/MOL
REMARK 922        TOTAL FREE ENERGY PREDICTED BY IDOCK:   -3.67 KCAL/MOL
REMARK 923 INTER-LIGAND FREE ENERGY PREDICTED BY IDOCK:   -3.44 KCAL/MOL
REMARK 924 INTRA-LIGAND FREE ENERGY PREDICTED BY IDOCK:   -0.22 KCAL/MOL
REMARK 927      BINDING AFFINITY PREDICTED BY RF-SCORE:    0.00 PKD
ROOT
HETATM    1  C   UNL     1     -10.047   6.905  68.400  1.00  0.00    -0.177 C  
HETATM    2  C   UNL     1      -9.009   8.024  68.524  1.00  0.00    -0.133 C  
HETATM    3  C   UNL     1      -7.615   7.453  68.252  1.00  0.00    -0.114 C  
ENDROOT
BRANCH   2   4
HETATM    4  N   UNL     1      -9.367   9.091  67.583  1.00  0.00    -0.135 NA 
HETATM    5  H   UNL     1     -10.212   8.845  67.067  1.00  0.00     0.000 HD 
BRANCH   4   6
HETATM    6  C   UNL     1      -9.508  10.415  68.208  1.00  0.00    -0.148 C  
BRANCH   6   7
HETATM    7  C   UNL     1     -10.839  11.095  67.791  1.00  0.00    -0.239 C  
HETATM    8  H   UNL     1     -12.781  10.696  67.878  1.00  0.00     0.000 HD 
HETATM    9  O   UNL     1     -11.966  10.279  68.133  1.00  0.00    -0.121 OA 
BRANCH   7  10
HETATM   10  C   UNL     1     -10.984  12.466  68.422  1.00  0.00    -0.272 A  
HETATM   11  C   UNL     1     -11.928  12.724  69.432  1.00  0.00    -0.321 A  
HETATM   12  C   UNL     1     -12.019  13.996  69.986  1.00  0.00    -0.339 A  
HETATM   13  O   UNL     1     -12.933  14.297  70.959  1.00  0.00    -0.331 OA 
HETATM   14  C   UNL     1     -11.174  15.016  69.556  1.00  0.00    -0.276 A  
HETATM   15  H   UNL     1     -12.995  15.166  71.338  1.00  0.00     0.000 HD 
HETATM   16  C   UNL     1     -10.227  14.783  68.575  1.00  0.00    -0.232 A  
HETATM   17  O   UNL     1     -11.282  16.264  70.100  1.00  0.00    -0.358 OA 
HETATM   18  C   UNL     1     -10.131  13.509  68.009  1.00  0.00    -0.244 A  
HETATM   19  H   UNL     1     -10.705  16.959  69.806  1.00  0.00     0.000 HD 
ENDBRANCH   7  10
ENDBRANCH   6   7
ENDBRANCH   4   6
ENDBRANCH   2   4
TORSDOF 4
ENDMDL
MODEL      255
REMARK 921   NORMALIZED FREE ENERGY PREDICTED BY IDOCK:   -2.74 KCAL/MOL
REMARK 922        TOTAL FREE ENERGY PREDICTED BY IDOCK:   -3.67 KCAL/MOL
REMARK 923 INTER-LIGAND FREE ENERGY PREDICTED BY IDOCK:   -3.50 KCAL/MOL
REMARK 924 INTRA-LIGAND FREE ENERGY PREDICTED BY IDOCK:   -0.17 KCAL/MOL
REMARK 927      BINDING AFFINITY PREDICTED BY RF-SCORE:    0.00 PKD
ROOT
HETATM    1  C   UNL     1      -9.286   7.081  72.111  1.00  0.00    -0.142 C  
HETATM    2  C   UNL     1      -8.857   8.380  71.422  1.00  0.00    -0.181 C  
HETATM    3  C   UNL     1      -7.493   8.175  70.758  1.00  0.00    -0.066 C  
ENDROOT
BRANCH   2   4
HETATM    4  N   UNL     1      -9.896   8.753  70.456  1.00  0.00    -0.178 NA 
HETATM    5  H   UNL     1     -10.730   9.090  70.938  1.00  0.00     0.000 HD 
BRANCH   4   6
HETATM    6  C   UNL     1      -9.452   9.730  69.449  1.00  0.00    -0.201 C  
BRANCH   6   7
HETATM    7  C   UNL     1      -9.433   9.106  68.029  1.00  0.00    -0.141 C  
HETATM    8  H   UNL     1     -10.408   7.690  67.036  1.00  0.00     0.000 HD 
HETATM    9  O   UNL     1     -10.419   8.073  67.906  1.00  0.00    -0.219 OA 
BRANCH   7  10
HETATM   10  C   UNL     1      -9.651  10.156  66.957  1.00  0.00    -0.209 A  
HETATM   11  C   UNL     1      -9.238  11.489  67.126  1.00  0.00    -0.171 A  
HETATM   12  C   UNL     1      -9.453  12.415  66.110  1.00  0.00    -0.199 A  
HETATM   13  O   UNL     1      -9.083  13.726  66.237  1.00  0.00    -0.470 OA 
HETATM   14  C   UNL     1     -10.065  12.029  64.921  1.00  0.00    -0.260 A  
HETATM   15  H   UNL     1      -9.229  14.358  65.544  1.00  0.00     0.000 HD 
HETATM   16  C   UNL     1     -10.466  10.719  64.725  1.00  0.00    -0.335 A  
HETATM   17  O   UNL     1     -10.281  12.950  63.937  1.00  0.00    -0.505 OA 
HETATM   18  C   UNL     1     -10.258   9.783  65.741  1.00  0.00    -0.222 A  
HETATM   19  H   UNL     1     -10.699  12.686  63.125  1.00  0.00     0.000 HD 
ENDBRANCH   7  10
ENDBRANCH   6   7
ENDBRANCH   4   6
ENDBRANCH   2   4
TORSDOF 4
ENDMDL
MODEL      256
REMARK 921   NORMALIZED FREE ENERGY PREDICTED BY IDOCK:   -2.72 KCAL/MOL
REMARK 922        TOTAL FREE ENERGY PREDICTED BY IDOCK:   -3.64 KCAL/MOL
REMARK 923 INTER-LIGAND FREE ENERGY PREDICTED BY IDOCK:   -3.22 KCAL/MOL
REMARK 924 INTRA-LIGAND FREE ENERGY PREDICTED BY IDOCK:   -0.42 KCAL/MOL
REMARK 927      BINDING AFFINITY PREDICTED BY RF-SCORE:    0.00 PKD
ROOT
HETATM    1  C   UNL     1      -9.880   4.880  66.875  1.00  0.00    -0.217 C  
HETATM    2  C   UNL     1      -9.088   4.176  67.982  1.00  0.00    -0.136 C  
HETATM    3  C   UNL     1      -8.700   2.771  67.512  1.00  0.00    -0.136 C  
ENDROOT
BRANCH   2   4
HETATM    4  N   UNL     1      -7.916   4.998  68.303  1.00  0.00    -0.086 NA 
HETATM    5  H   UNL     1      -7.204   4.907  67.578  1.00  0.00     0.000 HD 
BRANCH   4   6
HETATM    6  C   UNL     1      -8.230   6.415  68.545  1.00  0.00    -0.113 C  
BRANCH   6   7
HETATM    7  C   UNL     1      -8.114   6.769  70.051  1.00  0.00    -0.125 C  
HETATM    8  H   UNL     1      -7.674   8.358  71.155  1.00  0.00     0.000 HD 
HETATM    9  O   UNL     1      -7.745   8.141  70.233  1.00  0.00    -0.081 OA 
BRANCH   7  10
HETATM   10  C   UNL     1      -9.406   6.480  70.791  1.00  0.00    -0.162 A  
HETATM   11  C   UNL     1     -10.638   7.008  70.369  1.00  0.00    -0.244 A  
HETATM   12  C   UNL     1     -11.798   6.708  71.076  1.00  0.00    -0.372 A  
HETATM   13  O   UNL     1     -13.018   7.212  70.712  1.00  0.00    -0.597 OA 
HETATM   14  C   UNL     1     -11.750   5.880  72.194  1.00  0.00    -0.227 A  
HETATM   15  H   UNL     1     -13.809   7.008  71.194  1.00  0.00     0.000 HD 
HETATM   16  C   UNL     1     -10.550   5.336  72.620  1.00  0.00    -0.278 A  
HETATM   17  O   UNL     1     -12.893   5.604  72.887  1.00  0.00    -0.289 OA 
HETATM   18  C   UNL     1      -9.380   5.635  71.918  1.00  0.00    -0.161 A  
HETATM   19  H   UNL     1     -12.860   5.039  73.650  1.00  0.00     0.000 HD 
ENDBRANCH   7  10
ENDBRANCH   6   7
ENDBRANCH   4   6
ENDBRANCH   2   4
TORSDOF 4
ENDMDL
MODEL      257
REMARK 921   NORMALIZED FREE ENERGY PREDICTED BY IDOCK:   -2.71 KCAL/MOL
REMARK 922        TOTAL FREE ENERGY PREDICTED BY IDOCK:   -3.63 KCAL/MOL
REMARK 923 INTER-LIGAND FREE ENERGY PREDICTED BY IDOCK:   -3.42 KCAL/MOL
REMARK 924 INTRA-LIGAND FREE ENERGY PREDICTED BY IDOCK:   -0.20 KCAL/MOL
REMARK 927      BINDING AFFINITY PREDICTED BY RF-SCORE:    0.00 PKD
ROOT
HETATM    1  C   UNL     1     -11.814   9.989  70.737  1.00  0.00    -0.435 C  
HETATM    2  C   UNL     1     -10.784   8.858  70.808  1.00  0.00    -0.233 C  
HETATM    3  C   UNL     1     -10.994   8.062  72.099  1.00  0.00    -0.357 C  
ENDROOT
BRANCH   2   4
HETATM    4  N   UNL     1     -10.933   8.023  69.610  1.00  0.00    -0.419 NA 
HETATM    5  H   UNL     1     -11.898   8.041  69.279  1.00  0.00     0.000 HD 
BRANCH   4   6
HETATM    6  C   UNL     1     -10.007   8.372  68.521  1.00  0.00    -0.187 C  
BRANCH   6   7
HETATM    7  C   UNL     1     -10.626   8.062  67.133  1.00  0.00    -0.297 C  
HETATM    8  H   UNL     1     -11.028   9.041  65.454  1.00  0.00     0.000 HD 
HETATM    9  O   UNL     1     -10.648   9.231  66.305  1.00  0.00    -0.105 OA 
BRANCH   7  10
HETATM   10  C   UNL     1      -9.882   6.945  66.429  1.00  0.00    -0.101 A  
HETATM   11  C   UNL     1     -10.273   5.600  66.546  1.00  0.00    -0.259 A  
HETATM   12  C   UNL     1      -9.562   4.611  65.874  1.00  0.00    -0.185 A  
HETATM   13  O   UNL     1      -9.896   3.287  65.972  1.00  0.00    -0.405 OA 
HETATM   14  C   UNL     1      -8.472   4.944  65.075  1.00  0.00    -0.142 A  
HETATM   15  H   UNL     1      -9.412   2.612  65.513  1.00  0.00     0.000 HD 
HETATM   16  C   UNL     1      -8.077   6.263  64.931  1.00  0.00    -0.130 A  
HETATM   17  O   UNL     1      -7.776   3.963  64.430  1.00  0.00    -0.078 OA 
HETATM   18  C   UNL     1      -8.782   7.262  65.606  1.00  0.00    -0.092 A  
HETATM   19  H   UNL     1      -7.032   4.190  63.885  1.00  0.00     0.000 HD 
ENDBRANCH   7  10
ENDBRANCH   6   7
ENDBRANCH   4   6
ENDBRANCH   2   4
TORSDOF 4
ENDMDL
MODEL      258
REMARK 921   NORMALIZED FREE ENERGY PREDICTED BY IDOCK:   -2.71 KCAL/MOL
REMARK 922        TOTAL FREE ENERGY PREDICTED BY IDOCK:   -3.63 KCAL/MOL
REMARK 923 INTER-LIGAND FREE ENERGY PREDICTED BY IDOCK:   -3.39 KCAL/MOL
REMARK 924 INTRA-LIGAND FREE ENERGY PREDICTED BY IDOCK:   -0.24 KCAL/MOL
REMARK 927      BINDING AFFINITY PREDICTED BY RF-SCORE:    0.00 PKD
ROOT
HETATM    1  C   UNL     1      -7.872  11.388  68.523  1.00  0.00    -0.140 C  
HETATM    2  C   UNL     1      -7.177  11.502  67.164  1.00  0.00    -0.140 C  
HETATM    3  C   UNL     1      -8.075  10.896  66.083  1.00  0.00    -0.160 C  
ENDROOT
BRANCH   2   4
HETATM    4  N   UNL     1      -6.884  12.918  66.913  1.00  0.00    -0.404 NA 
HETATM    5  H   UNL     1      -6.895  13.115  65.912  1.00  0.00     0.000 HD 
BRANCH   4   6
HETATM    6  C   UNL     1      -7.770  13.847  67.633  1.00  0.00    -0.184 C  
BRANCH   6   7
HETATM    7  C   UNL     1      -6.959  14.819  68.529  1.00  0.00    -0.108 C  
HETATM    8  H   UNL     1      -5.070  15.072  69.084  1.00  0.00     0.000 HD 
HETATM    9  O   UNL     1      -5.567  14.477  68.535  1.00  0.00    -0.086 OA 
BRANCH   7  10
HETATM   10  C   UNL     1      -7.133  16.259  68.087  1.00  0.00    -0.141 A  
HETATM   11  C   UNL     1      -7.006  16.645  66.742  1.00  0.00    -0.264 A  
HETATM   12  C   UNL     1      -7.183  17.978  66.384  1.00  0.00    -0.254 A  
HETATM   13  O   UNL     1      -7.053  18.403  65.090  1.00  0.00    -0.469 OA 
HETATM   14  C   UNL     1      -7.496  18.933  67.348  1.00  0.00    -0.229 A  
HETATM   15  H   UNL     1      -7.174  19.312  64.845  1.00  0.00     0.000 HD 
HETATM   16  C   UNL     1      -7.642  18.574  68.677  1.00  0.00    -0.330 A  
HETATM   17  O   UNL     1      -7.655  20.239  66.986  1.00  0.00    -0.283 OA 
HETATM   18  C   UNL     1      -7.462  17.239  69.046  1.00  0.00    -0.196 A  
HETATM   19  H   UNL     1      -7.868  20.890  67.644  1.00  0.00     0.000 HD 
ENDBRANCH   7  10
ENDBRANCH   6   7
ENDBRANCH   4   6
ENDBRANCH   2   4
TORSDOF 4
ENDMDL
MODEL      259
REMARK 921   NORMALIZED FREE ENERGY PREDICTED BY IDOCK:   -2.70 KCAL/MOL
REMARK 922        TOTAL FREE ENERGY PREDICTED BY IDOCK:   -3.62 KCAL/MOL
REMARK 923 INTER-LIGAND FREE ENERGY PREDICTED BY IDOCK:   -3.40 KCAL/MOL
REMARK 924 INTRA-LIGAND FREE ENERGY PREDICTED BY IDOCK:   -0.22 KCAL/MOL
REMARK 927      BINDING AFFINITY PREDICTED BY RF-SCORE:    0.00 PKD
ROOT
HETATM    1  C   UNL     1     -10.216   6.660  68.833  1.00  0.00    -0.195 C  
HETATM    2  C   UNL     1     -10.430   8.153  69.102  1.00  0.00    -0.206 C  
HETATM    3  C   UNL     1     -10.802   8.353  70.574  1.00  0.00    -0.250 C  
ENDROOT
BRANCH   2   4
HETATM    4  N   UNL     1      -9.201   8.867  68.738  1.00  0.00    -0.140 NA 
HETATM    5  H   UNL     1      -9.000   8.750  67.744  1.00  0.00     0.000 HD 
BRANCH   4   6
HETATM    6  C   UNL     1      -9.211  10.294  69.099  1.00  0.00    -0.194 C  
BRANCH   6   7
HETATM    7  C   UNL     1      -9.189  11.194  67.836  1.00  0.00    -0.154 C  
HETATM    8  H   UNL     1      -9.862  11.121  65.970  1.00  0.00     0.000 HD 
HETATM    9  O   UNL     1      -9.875  10.569  66.744  1.00  0.00    -0.180 OA 
BRANCH   7  10
HETATM   10  C   UNL     1      -9.795  12.556  68.113  1.00  0.00    -0.221 A  
HETATM   11  C   UNL     1      -9.160  13.747  67.722  1.00  0.00    -0.193 A  
HETATM   12  C   UNL     1      -9.760  14.973  67.991  1.00  0.00    -0.213 A  
HETATM   13  O   UNL     1      -9.170  16.158  67.643  1.00  0.00    -0.203 OA 
HETATM   14  C   UNL     1     -10.991  15.030  68.638  1.00  0.00    -0.257 A  
HETATM   15  H   UNL     1      -9.579  16.995  67.827  1.00  0.00     0.000 HD 
HETATM   16  C   UNL     1     -11.644  13.870  69.020  1.00  0.00    -0.351 A  
HETATM   17  O   UNL     1     -11.563  16.239  68.908  1.00  0.00    -0.330 OA 
HETATM   18  C   UNL     1     -11.047  12.635  68.757  1.00  0.00    -0.307 A  
HETATM   19  H   UNL     1     -12.403  16.278  69.350  1.00  0.00     0.000 HD 
ENDBRANCH   7  10
ENDBRANCH   6   7
ENDBRANCH   4   6
ENDBRANCH   2   4
TORSDOF 4
ENDMDL
MODEL      260
REMARK 921   NORMALIZED FREE ENERGY PREDICTED BY IDOCK:   -2.68 KCAL/MOL
REMARK 922        TOTAL FREE ENERGY PREDICTED BY IDOCK:   -3.60 KCAL/MOL
REMARK 923 INTER-LIGAND FREE ENERGY PREDICTED BY IDOCK:   -3.36 KCAL/MOL
REMARK 924 INTRA-LIGAND FREE ENERGY PREDICTED BY IDOCK:   -0.24 KCAL/MOL
REMARK 927      BINDING AFFINITY PREDICTED BY RF-SCORE:    0.00 PKD
ROOT
HETATM    1  C   UNL     1      -8.610   8.427  65.491  1.00  0.00    -0.201 C  
HETATM    2  C   UNL     1      -8.451   6.936  65.802  1.00  0.00    -0.146 C  
HETATM    3  C   UNL     1      -6.974   6.628  66.062  1.00  0.00    -0.061 C  
ENDROOT
BRANCH   2   4
HETATM    4  N   UNL     1      -9.298   6.613  66.956  1.00  0.00    -0.136 NA 
HETATM    5  H   UNL     1     -10.040   7.305  67.060  1.00  0.00     0.000 HD 
BRANCH   4   6
HETATM    6  C   UNL     1      -9.860   5.254  66.921  1.00  0.00    -0.171 C  
BRANCH   6   7
HETATM    7  C   UNL     1      -9.728   4.555  68.299  1.00  0.00    -0.123 C  
HETATM    8  H   UNL     1      -8.338   3.568  69.316  1.00  0.00     0.000 HD 
HETATM    9  O   UNL     1      -8.419   3.996  68.472  1.00  0.00    -0.088 OA 
BRANCH   7  10
HETATM   10  C   UNL     1     -10.036   5.507  69.438  1.00  0.00    -0.276 A  
HETATM   11  C   UNL     1     -11.299   6.105  69.587  1.00  0.00    -0.442 A  
HETATM   12  C   UNL     1     -11.536   6.967  70.653  1.00  0.00    -0.336 A  
HETATM   13  O   UNL     1     -12.745   7.584  70.829  1.00  0.00    -0.557 OA 
HETATM   14  C   UNL     1     -10.534   7.233  71.582  1.00  0.00    -0.198 A  
HETATM   15  H   UNL     1     -12.907   8.172  71.557  1.00  0.00     0.000 HD 
HETATM   16  C   UNL     1      -9.287   6.644  71.466  1.00  0.00    -0.153 A  
HETATM   17  O   UNL     1     -10.775   8.090  72.617  1.00  0.00    -0.307 OA 
HETATM   18  C   UNL     1      -9.038   5.781  70.396  1.00  0.00    -0.160 A  
HETATM   19  H   UNL     1     -10.091   8.272  73.250  1.00  0.00     0.000 HD 
ENDBRANCH   7  10
ENDBRANCH   6   7
ENDBRANCH   4   6
ENDBRANCH   2   4
TORSDOF 4
ENDMDL
MODEL      261
REMARK 921   NORMALIZED FREE ENERGY PREDICTED BY IDOCK:   -2.68 KCAL/MOL
REMARK 922        TOTAL FREE ENERGY PREDICTED BY IDOCK:   -3.60 KCAL/MOL
REMARK 923 INTER-LIGAND FREE ENERGY PREDICTED BY IDOCK:   -3.29 KCAL/MOL
REMARK 924 INTRA-LIGAND FREE ENERGY PREDICTED BY IDOCK:   -0.31 KCAL/MOL
REMARK 927      BINDING AFFINITY PREDICTED BY RF-SCORE:    0.00 PKD
ROOT
HETATM    1  C   UNL     1      -7.893   6.901  67.664  1.00  0.00    -0.112 C  
HETATM    2  C   UNL     1      -9.084   7.207  66.751  1.00  0.00    -0.147 C  
HETATM    3  C   UNL     1      -9.742   5.894  66.320  1.00  0.00    -0.132 C  
ENDROOT
BRANCH   2   4
HETATM    4  N   UNL     1     -10.011   8.081  67.480  1.00  0.00    -0.178 NA 
HETATM    5  H   UNL     1     -10.733   7.530  67.944  1.00  0.00     0.000 HD 
BRANCH   4   6
HETATM    6  C   UNL     1      -9.352   8.982  68.438  1.00  0.00    -0.139 C  
BRANCH   6   7
HETATM    7  C   UNL     1     -10.369   9.565  69.454  1.00  0.00    -0.214 C  
HETATM    8  H   UNL     1     -12.047  10.624  69.406  1.00  0.00     0.000 HD 
HETATM    9  O   UNL     1     -11.424  10.267  68.784  1.00  0.00    -0.207 OA 
BRANCH   7  10
HETATM   10  C   UNL     1     -10.953   8.483  70.340  1.00  0.00    -0.254 A  
HETATM   11  C   UNL     1     -10.212   7.348  70.715  1.00  0.00    -0.200 A  
HETATM   12  C   UNL     1     -10.789   6.385  71.537  1.00  0.00    -0.254 A  
HETATM   13  O   UNL     1     -10.112   5.257  71.914  1.00  0.00    -0.184 OA 
HETATM   14  C   UNL     1     -12.092   6.541  72.001  1.00  0.00    -0.312 A  
HETATM   15  H   UNL     1     -10.505   4.600  72.475  1.00  0.00     0.000 HD 
HETATM   16  C   UNL     1     -12.835   7.657  71.659  1.00  0.00    -0.378 A  
HETATM   17  O   UNL     1     -12.650   5.583  72.797  1.00  0.00    -0.451 OA 
HETATM   18  C   UNL     1     -12.267   8.627  70.831  1.00  0.00    -0.123 A  
HETATM   19  H   UNL     1     -13.540   5.690  73.114  1.00  0.00     0.000 HD 
ENDBRANCH   7  10
ENDBRANCH   6   7
ENDBRANCH   4   6
ENDBRANCH   2   4
TORSDOF 4
ENDMDL
MODEL      262
REMARK 921   NORMALIZED FREE ENERGY PREDICTED BY IDOCK:   -2.66 KCAL/MOL
REMARK 922        TOTAL FREE ENERGY PREDICTED BY IDOCK:   -3.57 KCAL/MOL
REMARK 923 INTER-LIGAND FREE ENERGY PREDICTED BY IDOCK:   -3.38 KCAL/MOL
REMARK 924 INTRA-LIGAND FREE ENERGY PREDICTED BY IDOCK:   -0.19 KCAL/MOL
REMARK 927      BINDING AFFINITY PREDICTED BY RF-SCORE:    0.00 PKD
ROOT
HETATM    1  C   UNL     1      -6.436  12.162  69.311  1.00  0.00    -0.111 C  
HETATM    2  C   UNL     1      -6.485  11.613  67.883  1.00  0.00    -0.061 C  
HETATM    3  C   UNL     1      -5.280  10.698  67.650  1.00  0.00    -0.036 C  
ENDROOT
BRANCH   2   4
HETATM    4  N   UNL     1      -7.760  10.909  67.704  1.00  0.00    -0.106 NA 
HETATM    5  H   UNL     1      -8.511  11.396  68.194  1.00  0.00     0.000 HD 
BRANCH   4   6
HETATM    6  C   UNL     1      -8.124  10.683  66.296  1.00  0.00    -0.151 C  
BRANCH   6   7
HETATM    7  C   UNL     1      -9.567  10.128  66.169  1.00  0.00    -0.203 C  
HETATM    8  H   UNL     1     -10.912   9.258  67.342  1.00  0.00     0.000 HD 
HETATM    9  O   UNL     1     -10.028   9.598  67.419  1.00  0.00    -0.166 OA 
BRANCH   7  10
HETATM   10  C   UNL     1     -10.530  11.189  65.673  1.00  0.00    -0.308 A  
HETATM   11  C   UNL     1     -11.304  11.007  64.514  1.00  0.00     0.244 A  
HETATM   12  C   UNL     1     -12.180  12.007  64.103  1.00  0.00    -0.359 A  
HETATM   13  O   UNL     1     -12.941  11.881  62.973  1.00  0.00    -0.742 OA 
HETATM   14  C   UNL     1     -12.304  13.183  64.837  1.00  0.00    -0.441 A  
HETATM   15  H   UNL     1     -13.539  12.563  62.692  1.00  0.00     0.000 HD 
HETATM   16  C   UNL     1     -11.564  13.379  65.990  1.00  0.00    -0.375 A  
HETATM   17  O   UNL     1     -13.158  14.161  64.416  1.00  0.00    -0.288 OA 
HETATM   18  C   UNL     1     -10.679  12.382  66.409  1.00  0.00    -0.277 A  
HETATM   19  H   UNL     1     -13.242  14.964  64.917  1.00  0.00     0.000 HD 
ENDBRANCH   7  10
ENDBRANCH   6   7
ENDBRANCH   4   6
ENDBRANCH   2   4
TORSDOF 4
ENDMDL
MODEL      263
REMARK 921   NORMALIZED FREE ENERGY PREDICTED BY IDOCK:   -2.63 KCAL/MOL
REMARK 922        TOTAL FREE ENERGY PREDICTED BY IDOCK:   -3.54 KCAL/MOL
REMARK 923 INTER-LIGAND FREE ENERGY PREDICTED BY IDOCK:   -3.28 KCAL/MOL
REMARK 924 INTRA-LIGAND FREE ENERGY PREDICTED BY IDOCK:   -0.25 KCAL/MOL
REMARK 927      BINDING AFFINITY PREDICTED BY RF-SCORE:    0.00 PKD
ROOT
HETATM    1  C   UNL     1      -9.565   7.894  73.405  1.00  0.00    -0.331 C  
HETATM    2  C   UNL     1     -10.161   7.146  72.208  1.00  0.00    -0.181 C  
HETATM    3  C   UNL     1     -11.675   7.015  72.395  1.00  0.00    -0.252 C  
ENDROOT
BRANCH   2   4
HETATM    4  N   UNL     1      -9.812   7.880  70.986  1.00  0.00    -0.170 NA 
HETATM    5  H   UNL     1     -10.258   7.454  70.173  1.00  0.00     0.000 HD 
BRANCH   4   6
HETATM    6  C   UNL     1     -10.115   9.318  71.048  1.00  0.00    -0.303 C  
BRANCH   6   7
HETATM    7  C   UNL     1      -9.156  10.134  70.141  1.00  0.00     0.127 C  
HETATM    8  H   UNL     1      -7.474   9.827  69.133  1.00  0.00     0.000 HD 
HETATM    9  O   UNL     1      -8.061   9.328  69.689  1.00  0.00    -0.099 OA 
BRANCH   7  10
HETATM   10  C   UNL     1      -9.885  10.727  68.952  1.00  0.00    -0.209 A  
HETATM   11  C   UNL     1     -10.535  11.971  69.022  1.00  0.00    -0.087 A  
HETATM   12  C   UNL     1     -11.185  12.478  67.901  1.00  0.00    -0.264 A  
HETATM   13  O   UNL     1     -11.845  13.677  67.927  1.00  0.00    -0.339 OA 
HETATM   14  C   UNL     1     -11.187  11.766  66.704  1.00  0.00    -0.323 A  
HETATM   15  H   UNL     1     -12.288  14.023  67.162  1.00  0.00     0.000 HD 
HETATM   16  C   UNL     1     -10.541  10.546  66.606  1.00  0.00    -0.263 A  
HETATM   17  O   UNL     1     -11.838  12.269  65.615  1.00  0.00    -0.406 OA 
HETATM   18  C   UNL     1      -9.890  10.028  67.728  1.00  0.00    -0.185 A  
HETATM   19  H   UNL     1     -11.840  11.782  64.799  1.00  0.00     0.000 HD 
ENDBRANCH   7  10
ENDBRANCH   6   7
ENDBRANCH   4   6
ENDBRANCH   2   4
TORSDOF 4
ENDMDL
MODEL      264
REMARK 921   NORMALIZED FREE ENERGY PREDICTED BY IDOCK:   -2.60 KCAL/MOL
REMARK 922        TOTAL FREE ENERGY PREDICTED BY IDOCK:   -3.50 KCAL/MOL
REMARK 923 INTER-LIGAND FREE ENERGY PREDICTED BY IDOCK:   -3.23 KCAL/MOL
REMARK 924 INTRA-LIGAND FREE ENERGY PREDICTED BY IDOCK:   -0.27 KCAL/MOL
REMARK 927      BINDING AFFINITY PREDICTED BY RF-SCORE:    0.00 PKD
ROOT
HETATM    1  C   UNL     1      -9.916  14.326  66.745  1.00  0.00    -0.266 C  
HETATM    2  C   UNL     1      -8.489  13.771  66.708  1.00  0.00     0.032 C  
HETATM    3  C   UNL     1      -7.603  14.591  67.650  1.00  0.00    -0.198 C  
ENDROOT
BRANCH   2   4
HETATM    4  N   UNL     1      -8.536  12.353  67.084  1.00  0.00    -0.183 NA 
HETATM    5  H   UNL     1      -8.107  12.210  67.998  1.00  0.00     0.000 HD 
BRANCH   4   6
HETATM    6  C   UNL     1      -9.887  11.772  67.050  1.00  0.00    -0.197 C  
BRANCH   6   7
HETATM    7  C   UNL     1      -9.840  10.253  66.736  1.00  0.00    -0.197 C  
HETATM    8  H   UNL     1      -8.518   8.936  66.059  1.00  0.00     0.000 HD 
HETATM    9  O   UNL     1      -8.548   9.866  66.252  1.00  0.00    -0.126 OA 
BRANCH   7  10
HETATM   10  C   UNL     1     -10.205   9.422  67.950  1.00  0.00    -0.259 A  
HETATM   11  C   UNL     1     -10.608  10.011  69.161  1.00  0.00    -0.240 A  
HETATM   12  C   UNL     1     -10.941   9.206  70.246  1.00  0.00    -0.245 A  
HETATM   13  O   UNL     1     -11.323   9.735  71.448  1.00  0.00    -0.369 OA 
HETATM   14  C   UNL     1     -10.889   7.819  70.138  1.00  0.00    -0.244 A  
HETATM   15  H   UNL     1     -11.551   9.186  72.189  1.00  0.00     0.000 HD 
HETATM   16  C   UNL     1     -10.510   7.215  68.951  1.00  0.00    -0.218 A  
HETATM   17  O   UNL     1     -11.206   7.040  71.213  1.00  0.00    -0.250 OA 
HETATM   18  C   UNL     1     -10.170   8.016  67.858  1.00  0.00    -0.267 A  
HETATM   19  H   UNL     1     -11.170   6.094  71.140  1.00  0.00     0.000 HD 
ENDBRANCH   7  10
ENDBRANCH   6   7
ENDBRANCH   4   6
ENDBRANCH   2   4
TORSDOF 4
ENDMDL
MODEL      265
REMARK 921   NORMALIZED FREE ENERGY PREDICTED BY IDOCK:   -2.59 KCAL/MOL
REMARK 922        TOTAL FREE ENERGY PREDICTED BY IDOCK:   -3.49 KCAL/MOL
REMARK 923 INTER-LIGAND FREE ENERGY PREDICTED BY IDOCK:   -3.24 KCAL/MOL
REMARK 924 INTRA-LIGAND FREE ENERGY PREDICTED BY IDOCK:   -0.24 KCAL/MOL
REMARK 927      BINDING AFFINITY PREDICTED BY RF-SCORE:    0.00 PKD
ROOT
HETATM    1  C   UNL     1      -7.298   4.634  66.044  1.00  0.00    -0.077 C  
HETATM    2  C   UNL     1      -8.425   4.758  65.015  1.00  0.00    -0.137 C  
HETATM    3  C   UNL     1      -9.202   3.441  64.954  1.00  0.00    -0.145 C  
ENDROOT
BRANCH   2   4
HETATM    4  N   UNL     1      -9.277   5.890  65.399  1.00  0.00    -0.364 NA 
HETATM    5  H   UNL     1      -9.670   5.743  66.329  1.00  0.00     0.000 HD 
BRANCH   4   6
HETATM    6  C   UNL     1      -8.604   7.196  65.322  1.00  0.00     0.014 C  
BRANCH   6   7
HETATM    7  C   UNL     1      -9.110   8.156  66.430  1.00  0.00    -0.183 C  
HETATM    8  H   UNL     1      -8.510   8.783  68.215  1.00  0.00     0.000 HD 
HETATM    9  O   UNL     1      -8.200   8.195  67.536  1.00  0.00    -0.120 OA 
BRANCH   7  10
HETATM   10  C   UNL     1      -9.330   9.557  65.894  1.00  0.00    -0.285 A  
HETATM   11  C   UNL     1      -9.379  10.678  66.740  1.00  0.00    -0.179 A  
HETATM   12  C   UNL     1      -9.575  11.946  66.201  1.00  0.00    -0.234 A  
HETATM   13  O   UNL     1      -9.646  13.063  66.987  1.00  0.00    -0.222 OA 
HETATM   14  C   UNL     1      -9.712  12.115  64.826  1.00  0.00    -0.050 A  
HETATM   15  H   UNL     1      -9.779  13.929  66.619  1.00  0.00     0.000 HD 
HETATM   16  C   UNL     1      -9.651  11.028  63.971  1.00  0.00    -0.310 A  
HETATM   17  O   UNL     1      -9.916  13.361  64.310  1.00  0.00    -0.681 OA 
HETATM   18  C   UNL     1      -9.459   9.751  64.504  1.00  0.00    -0.269 A  
HETATM   19  H   UNL     1     -10.010  13.476  63.371  1.00  0.00     0.000 HD 
ENDBRANCH   7  10
ENDBRANCH   6   7
ENDBRANCH   4   6
ENDBRANCH   2   4
TORSDOF 4
ENDMDL
MODEL      266
REMARK 921   NORMALIZED FREE ENERGY PREDICTED BY IDOCK:   -2.58 KCAL/MOL
REMARK 922        TOTAL FREE ENERGY PREDICTED BY IDOCK:   -3.47 KCAL/MOL
REMARK 923 INTER-LIGAND FREE ENERGY PREDICTED BY IDOCK:   -3.25 KCAL/MOL
REMARK 924 INTRA-LIGAND FREE ENERGY PREDICTED BY IDOCK:   -0.23 KCAL/MOL
REMARK 927      BINDING AFFINITY PREDICTED BY RF-SCORE:    0.00 PKD
ROOT
HETATM    1  C   UNL     1      -9.927   8.618  71.898  1.00  0.00    -0.392 C  
HETATM    2  C   UNL     1     -11.125   7.862  72.478  1.00  0.00    -0.362 C  
HETATM    3  C   UNL     1     -12.407   8.651  72.197  1.00  0.00    -0.452 C  
ENDROOT
BRANCH   2   4
HETATM    4  N   UNL     1     -11.156   6.521  71.883  1.00  0.00    -0.249 NA 
HETATM    5  H   UNL     1     -12.118   6.215  71.739  1.00  0.00     0.000 HD 
BRANCH   4   6
HETATM    6  C   UNL     1     -10.385   6.405  70.635  1.00  0.00    -0.198 C  
BRANCH   6   7
HETATM    7  C   UNL     1      -9.450   5.168  70.664  1.00  0.00    -0.170 C  
HETATM    8  H   UNL     1      -9.481   3.322  71.395  1.00  0.00     0.000 HD 
HETATM    9  O   UNL     1     -10.053   4.081  71.377  1.00  0.00    -0.165 OA 
BRANCH   7  10
HETATM   10  C   UNL     1      -9.075   4.721  69.265  1.00  0.00    -0.152 A  
HETATM   11  C   UNL     1     -10.025   4.631  68.233  1.00  0.00    -0.130 A  
HETATM   12  C   UNL     1      -9.631   4.223  66.962  1.00  0.00    -0.203 A  
HETATM   13  O   UNL     1     -10.523   4.106  65.931  1.00  0.00    -0.457 OA 
HETATM   14  C   UNL     1      -8.299   3.913  66.701  1.00  0.00    -0.104 A  
HETATM   15  H   UNL     1     -10.255   3.828  65.064  1.00  0.00     0.000 HD 
HETATM   16  C   UNL     1      -7.342   4.009  67.697  1.00  0.00    -0.068 A  
HETATM   17  O   UNL     1      -7.927   3.503  65.454  1.00  0.00    -0.088 OA 
HETATM   18  C   UNL     1      -7.729   4.413  68.977  1.00  0.00    -0.058 A  
HETATM   19  H   UNL     1      -7.018   3.290  65.276  1.00  0.00     0.000 HD 
ENDBRANCH   7  10
ENDBRANCH   6   7
ENDBRANCH   4   6
ENDBRANCH   2   4
TORSDOF 4
ENDMDL
MODEL      267
REMARK 921   NORMALIZED FREE ENERGY PREDICTED BY IDOCK:   -2.56 KCAL/MOL
REMARK 922        TOTAL FREE ENERGY PREDICTED BY IDOCK:   -3.45 KCAL/MOL
REMARK 923 INTER-LIGAND FREE ENERGY PREDICTED BY IDOCK:   -3.31 KCAL/MOL
REMARK 924 INTRA-LIGAND FREE ENERGY PREDICTED BY IDOCK:   -0.15 KCAL/MOL
REMARK 927      BINDING AFFINITY PREDICTED BY RF-SCORE:    0.00 PKD
ROOT
HETATM    1  C   UNL     1     -10.367   8.672  71.777  1.00  0.00    -0.386 C  
HETATM    2  C   UNL     1     -11.572   7.977  72.417  1.00  0.00    -0.390 C  
HETATM    3  C   UNL     1     -12.838   8.788  72.125  1.00  0.00    -0.456 C  
ENDROOT
BRANCH   2   4
HETATM    4  N   UNL     1     -11.651   6.611  71.886  1.00  0.00    -0.287 NA 
HETATM    5  H   UNL     1     -12.461   6.124  72.271  1.00  0.00     0.000 HD 
BRANCH   4   6
HETATM    6  C   UNL     1     -11.655   6.541  70.417  1.00  0.00    -0.407 C  
BRANCH   6   7
HETATM    7  C   UNL     1     -10.620   5.508  69.899  1.00  0.00    -0.317 C  
HETATM    8  H   UNL     1      -9.094   5.470  68.631  1.00  0.00     0.000 HD 
HETATM    9  O   UNL     1      -9.728   6.102  68.948  1.00  0.00    -0.127 OA 
BRANCH   7  10
HETATM   10  C   UNL     1      -9.827   4.898  71.038  1.00  0.00    -0.266 A  
HETATM   11  C   UNL     1     -10.281   3.768  71.739  1.00  0.00    -0.098 A  
HETATM   12  C   UNL     1      -9.513   3.239  72.772  1.00  0.00    -0.103 A  
HETATM   13  O   UNL     1      -9.923   2.150  73.493  1.00  0.00    -0.092 OA 
HETATM   14  C   UNL     1      -8.291   3.814  73.110  1.00  0.00    -0.091 A  
HETATM   15  H   UNL     1      -9.399   1.789  74.198  1.00  0.00     0.000 HD 
HETATM   16  C   UNL     1      -7.815   4.917  72.423  1.00  0.00    -0.093 A  
HETATM   17  O   UNL     1      -7.553   3.293  74.133  1.00  0.00    -0.061 OA 
HETATM   18  C   UNL     1      -8.581   5.458  71.388  1.00  0.00    -0.131 A  
HETATM   19  H   UNL     1      -6.720   3.686  74.364  1.00  0.00     0.000 HD 
ENDBRANCH   7  10
ENDBRANCH   6   7
ENDBRANCH   4   6
ENDBRANCH   2   4
TORSDOF 4
ENDMDL
MODEL      268
REMARK 921   NORMALIZED FREE ENERGY PREDICTED BY IDOCK:   -2.56 KCAL/MOL
REMARK 922        TOTAL FREE ENERGY PREDICTED BY IDOCK:   -3.45 KCAL/MOL
REMARK 923 INTER-LIGAND FREE ENERGY PREDICTED BY IDOCK:   -3.17 KCAL/MOL
REMARK 924 INTRA-LIGAND FREE ENERGY PREDICTED BY IDOCK:   -0.28 KCAL/MOL
REMARK 927      BINDING AFFINITY PREDICTED BY RF-SCORE:    0.00 PKD
ROOT
HETATM    1  C   UNL     1      -7.330  12.614  67.747  1.00  0.00    -0.128 C  
HETATM    2  C   UNL     1      -8.775  12.113  67.681  1.00  0.00    -0.172 C  
HETATM    3  C   UNL     1      -8.980  11.327  66.383  1.00  0.00    -0.194 C  
ENDROOT
BRANCH   2   4
HETATM    4  N   UNL     1      -9.035  11.296  68.872  1.00  0.00    -0.354 NA 
HETATM    5  H   UNL     1      -9.664  11.784  69.511  1.00  0.00     0.000 HD 
BRANCH   4   6
HETATM    6  C   UNL     1      -9.544   9.949  68.573  1.00  0.00    -0.153 C  
BRANCH   6   7
HETATM    7  C   UNL     1      -8.482   8.863  68.885  1.00  0.00    -0.131 C  
HETATM    8  H   UNL     1      -7.571   8.119  70.484  1.00  0.00     0.000 HD 
HETATM    9  O   UNL     1      -8.221   8.784  70.292  1.00  0.00    -0.100 OA 
BRANCH   7  10
HETATM   10  C   UNL     1      -8.905   7.504  68.363  1.00  0.00    -0.126 A  
HETATM   11  C   UNL     1     -10.046   7.338  67.559  1.00  0.00    -0.250 A  
HETATM   12  C   UNL     1     -10.390   6.072  67.096  1.00  0.00    -0.230 A  
HETATM   13  O   UNL     1     -11.500   5.861  66.325  1.00  0.00    -0.648 OA 
HETATM   14  C   UNL     1      -9.606   4.967  67.415  1.00  0.00    -0.152 A  
HETATM   15  H   UNL     1     -11.735   4.996  66.009  1.00  0.00     0.000 HD 
HETATM   16  C   UNL     1      -8.469   5.107  68.192  1.00  0.00    -0.099 A  
HETATM   17  O   UNL     1      -9.960   3.728  66.966  1.00  0.00    -0.319 OA 
HETATM   18  C   UNL     1      -8.118   6.374  68.664  1.00  0.00    -0.113 A  
HETATM   19  H   UNL     1      -9.425   2.974  67.184  1.00  0.00     0.000 HD 
ENDBRANCH   7  10
ENDBRANCH   6   7
ENDBRANCH   4   6
ENDBRANCH   2   4
TORSDOF 4
ENDMDL
MODEL      269
REMARK 921   NORMALIZED FREE ENERGY PREDICTED BY IDOCK:   -2.56 KCAL/MOL
REMARK 922        TOTAL FREE ENERGY PREDICTED BY IDOCK:   -3.44 KCAL/MOL
REMARK 923 INTER-LIGAND FREE ENERGY PREDICTED BY IDOCK:   -3.56 KCAL/MOL
REMARK 924 INTRA-LIGAND FREE ENERGY PREDICTED BY IDOCK:    0.12 KCAL/MOL
REMARK 927      BINDING AFFINITY PREDICTED BY RF-SCORE:    0.00 PKD
ROOT
HETATM    1  C   UNL     1     -12.007  11.905  70.277  1.00  0.00    -0.416 C  
HETATM    2  C   UNL     1     -11.808  10.877  69.160  1.00  0.00    -0.317 C  
HETATM    3  C   UNL     1     -11.089  11.541  67.982  1.00  0.00    -0.313 C  
ENDROOT
BRANCH   2   4
HETATM    4  N   UNL     1     -11.051   9.744  69.706  1.00  0.00    -0.266 NA 
HETATM    5  H   UNL     1     -11.642   8.914  69.766  1.00  0.00     0.000 HD 
BRANCH   4   6
HETATM    6  C   UNL     1      -9.812   9.444  68.972  1.00  0.00    -0.169 C  
BRANCH   6   7
HETATM    7  C   UNL     1      -9.650   7.920  68.739  1.00  0.00    -0.152 C  
HETATM    8  H   UNL     1      -8.211   6.662  68.201  1.00  0.00     0.000 HD 
HETATM    9  O   UNL     1      -8.311   7.597  68.343  1.00  0.00    -0.124 OA 
BRANCH   7  10
HETATM   10  C   UNL     1     -10.029   7.125  69.972  1.00  0.00    -0.182 A  
HETATM   11  C   UNL     1      -9.071   6.707  70.912  1.00  0.00    -0.154 A  
HETATM   12  C   UNL     1      -9.468   5.986  72.033  1.00  0.00    -0.149 A  
HETATM   13  O   UNL     1      -8.568   5.545  72.965  1.00  0.00    -0.122 OA 
HETATM   14  C   UNL     1     -10.811   5.683  72.239  1.00  0.00    -0.242 A  
HETATM   15  H   UNL     1      -8.839   5.053  73.731  1.00  0.00     0.000 HD 
HETATM   16  C   UNL     1     -11.775   6.097  71.336  1.00  0.00    -0.236 A  
HETATM   17  O   UNL     1     -11.187   4.965  73.337  1.00  0.00    -0.318 OA 
HETATM   18  C   UNL     1     -11.385   6.818  70.205  1.00  0.00    -0.404 A  
HETATM   19  H   UNL     1     -12.104   4.758  73.477  1.00  0.00     0.000 HD 
ENDBRANCH   7  10
ENDBRANCH   6   7
ENDBRANCH   4   6
ENDBRANCH   2   4
TORSDOF 4
ENDMDL
MODEL      270
REMARK 921   NORMALIZED FREE ENERGY PREDICTED BY IDOCK:   -2.55 KCAL/MOL
REMARK 922        TOTAL FREE ENERGY PREDICTED BY IDOCK:   -3.43 KCAL/MOL
REMARK 923 INTER-LIGAND FREE ENERGY PREDICTED BY IDOCK:   -3.09 KCAL/MOL
REMARK 924 INTRA-LIGAND FREE ENERGY PREDICTED BY IDOCK:   -0.34 KCAL/MOL
REMARK 927      BINDING AFFINITY PREDICTED BY RF-SCORE:    0.00 PKD
ROOT
HETATM    1  C   UNL     1      -9.878   4.044  64.543  1.00  0.00    -0.189 C  
HETATM    2  C   UNL     1      -9.159   4.658  65.747  1.00  0.00    -0.139 C  
HETATM    3  C   UNL     1      -8.372   5.891  65.293  1.00  0.00    -0.146 C  
ENDROOT
BRANCH   2   4
HETATM    4  N   UNL     1     -10.164   4.985  66.766  1.00  0.00    -0.236 NA 
HETATM    5  H   UNL     1     -10.925   4.305  66.750  1.00  0.00     0.000 HD 
BRANCH   4   6
HETATM    6  C   UNL     1      -9.615   5.114  68.125  1.00  0.00    -0.134 C  
BRANCH   6   7
HETATM    7  C   UNL     1     -10.447   6.109  68.976  1.00  0.00    -0.248 C  
HETATM    8  H   UNL     1     -11.474   6.084  70.674  1.00  0.00     0.000 HD 
HETATM    9  O   UNL     1     -10.964   5.475  70.153  1.00  0.00    -0.286 OA 
BRANCH   7  10
HETATM   10  C   UNL     1      -9.631   7.327  69.363  1.00  0.00    -0.154 A  
HETATM   11  C   UNL     1      -9.219   7.556  70.687  1.00  0.00    -0.159 A  
HETATM   12  C   UNL     1      -8.465   8.685  70.992  1.00  0.00    -0.164 A  
HETATM   13  O   UNL     1      -8.056   8.958  72.269  1.00  0.00    -0.376 OA 
HETATM   14  C   UNL     1      -8.106   9.585  69.993  1.00  0.00    -0.167 A  
HETATM   15  H   UNL     1      -7.541   9.728  72.478  1.00  0.00     0.000 HD 
HETATM   16  C   UNL     1      -8.486   9.373  68.679  1.00  0.00    -0.119 A  
HETATM   17  O   UNL     1      -7.376  10.695  70.307  1.00  0.00    -0.441 OA 
HETATM   18  C   UNL     1      -9.247   8.244  68.364  1.00  0.00    -0.135 A  
HETATM   19  H   UNL     1      -7.131  11.310  69.625  1.00  0.00     0.000 HD 
ENDBRANCH   7  10
ENDBRANCH   6   7
ENDBRANCH   4   6
ENDBRANCH   2   4
TORSDOF 4
ENDMDL
MODEL      271
REMARK 921   NORMALIZED FREE ENERGY PREDICTED BY IDOCK:   -2.51 KCAL/MOL
REMARK 922        TOTAL FREE ENERGY PREDICTED BY IDOCK:   -3.38 KCAL/MOL
REMARK 923 INTER-LIGAND FREE ENERGY PREDICTED BY IDOCK:   -3.07 KCAL/MOL
REMARK 924 INTRA-LIGAND FREE ENERGY PREDICTED BY IDOCK:   -0.32 KCAL/MOL
REMARK 927      BINDING AFFINITY PREDICTED BY RF-SCORE:    0.00 PKD
ROOT
HETATM    1  C   UNL     1      -9.345   8.111  73.548  1.00  0.00    -0.210 C  
HETATM    2  C   UNL     1      -9.812   7.121  72.476  1.00  0.00    -0.155 C  
HETATM    3  C   UNL     1     -11.259   7.440  72.089  1.00  0.00    -0.302 C  
ENDROOT
BRANCH   2   4
HETATM    4  N   UNL     1      -8.897   7.214  71.333  1.00  0.00    -0.132 NA 
HETATM    5  H   UNL     1      -9.266   6.696  70.536  1.00  0.00     0.000 HD 
BRANCH   4   6
HETATM    6  C   UNL     1      -8.565   8.594  70.945  1.00  0.00    -0.172 C  
BRANCH   6   7
HETATM    7  C   UNL     1      -8.056   8.660  69.481  1.00  0.00    -0.110 C  
HETATM    8  H   UNL     1      -6.372   8.295  68.495  1.00  0.00     0.000 HD 
HETATM    9  O   UNL     1      -6.685   8.255  69.392  1.00  0.00    -0.041 OA 
BRANCH   7  10
HETATM   10  C   UNL     1      -8.906   7.809  68.558  1.00  0.00    -0.130 A  
HETATM   11  C   UNL     1      -8.444   6.588  68.037  1.00  0.00    -0.119 A  
HETATM   12  C   UNL     1      -9.264   5.838  67.199  1.00  0.00    -0.115 A  
HETATM   13  O   UNL     1      -8.851   4.652  66.656  1.00  0.00    -0.111 OA 
HETATM   14  C   UNL     1     -10.544   6.282  66.881  1.00  0.00    -0.305 A  
HETATM   15  H   UNL     1      -9.410   4.140  66.085  1.00  0.00     0.000 HD 
HETATM   16  C   UNL     1     -11.027   7.474  67.395  1.00  0.00    -0.165 A  
HETATM   17  O   UNL     1     -11.334   5.543  66.049  1.00  0.00    -0.753 OA 
HETATM   18  C   UNL     1     -10.210   8.235  68.233  1.00  0.00    -0.246 A  
HETATM   19  H   UNL     1     -12.208   5.847  65.832  1.00  0.00     0.000 HD 
ENDBRANCH   7  10
ENDBRANCH   6   7
ENDBRANCH   4   6
ENDBRANCH   2   4
TORSDOF 4
ENDMDL
MODEL      272
REMARK 921   NORMALIZED FREE ENERGY PREDICTED BY IDOCK:   -2.49 KCAL/MOL
REMARK 922        TOTAL FREE ENERGY PREDICTED BY IDOCK:   -3.36 KCAL/MOL
REMARK 923 INTER-LIGAND FREE ENERGY PREDICTED BY IDOCK:   -3.46 KCAL/MOL
REMARK 924 INTRA-LIGAND FREE ENERGY PREDICTED BY IDOCK:    0.09 KCAL/MOL
REMARK 927      BINDING AFFINITY PREDICTED BY RF-SCORE:    0.00 PKD
ROOT
HETATM    1  C   UNL     1     -10.777   6.203  66.715  1.00  0.00    -0.371 C  
HETATM    2  C   UNL     1      -9.380   6.822  66.827  1.00  0.00    -0.160 C  
HETATM    3  C   UNL     1      -8.610   6.573  65.527  1.00  0.00    -0.109 C  
ENDROOT
BRANCH   2   4
HETATM    4  N   UNL     1      -9.533   8.252  67.118  1.00  0.00    -0.151 NA 
HETATM    5  H   UNL     1     -10.513   8.529  67.055  1.00  0.00     0.000 HD 
BRANCH   4   6
HETATM    6  C   UNL     1      -8.961   8.662  68.410  1.00  0.00    -0.142 C  
BRANCH   6   7
HETATM    7  C   UNL     1      -9.950   9.554  69.206  1.00  0.00    -0.187 C  
HETATM    8  H   UNL     1      -9.970  10.553  70.921  1.00  0.00     0.000 HD 
HETATM    9  O   UNL     1      -9.365  10.007  70.433  1.00  0.00    -0.108 OA 
BRANCH   7  10
HETATM   10  C   UNL     1     -10.412  10.742  68.386  1.00  0.00    -0.207 A  
HETATM   11  C   UNL     1      -9.621  11.291  67.362  1.00  0.00    -0.182 A  
HETATM   12  C   UNL     1     -10.091  12.378  66.630  1.00  0.00    -0.221 A  
HETATM   13  O   UNL     1      -9.350  12.955  65.636  1.00  0.00    -0.462 OA 
HETATM   14  C   UNL     1     -11.346  12.919  66.898  1.00  0.00    -0.312 A  
HETATM   15  H   UNL     1      -9.671  13.697  65.137  1.00  0.00     0.000 HD 
HETATM   16  C   UNL     1     -12.149  12.385  67.891  1.00  0.00    -0.084 A  
HETATM   17  O   UNL     1     -11.791  13.992  66.182  1.00  0.00    -0.370 OA 
HETATM   18  C   UNL     1     -11.684  11.298  68.633  1.00  0.00    -0.391 A  
HETATM   19  H   UNL     1     -12.647  14.362  66.365  1.00  0.00     0.000 HD 
ENDBRANCH   7  10
ENDBRANCH   6   7
ENDBRANCH   4   6
ENDBRANCH   2   4
TORSDOF 4
ENDMDL
MODEL      273
REMARK 921   NORMALIZED FREE ENERGY PREDICTED BY IDOCK:   -2.47 KCAL/MOL
REMARK 922        TOTAL FREE ENERGY PREDICTED BY IDOCK:   -3.33 KCAL/MOL
REMARK 923 INTER-LIGAND FREE ENERGY PREDICTED BY IDOCK:   -3.09 KCAL/MOL
REMARK 924 INTRA-LIGAND FREE ENERGY PREDICTED BY IDOCK:   -0.24 KCAL/MOL
REMARK 927      BINDING AFFINITY PREDICTED BY RF-SCORE:    0.00 PKD
ROOT
HETATM    1  C   UNL     1     -10.622  12.114  65.997  1.00  0.00    -0.292 C  
HETATM    2  C   UNL     1     -10.616  11.610  67.443  1.00  0.00    -0.220 C  
HETATM    3  C   UNL     1     -11.870  12.117  68.161  1.00  0.00    -0.362 C  
ENDROOT
BRANCH   2   4
HETATM    4  N   UNL     1     -10.543  10.145  67.420  1.00  0.00    -0.256 NA 
HETATM    5  H   UNL     1     -11.476   9.740  67.338  1.00  0.00     0.000 HD 
BRANCH   4   6
HETATM    6  C   UNL     1      -9.653   9.609  66.378  1.00  0.00    -0.210 C  
BRANCH   6   7
HETATM    7  C   UNL     1      -8.658   8.574  66.965  1.00  0.00    -0.121 C  
HETATM    8  H   UNL     1      -7.928   8.087  68.746  1.00  0.00     0.000 HD 
HETATM    9  O   UNL     1      -8.537   8.721  68.386  1.00  0.00    -0.132 OA 
BRANCH   7  10
HETATM   10  C   UNL     1      -9.067   7.154  66.627  1.00  0.00    -0.175 A  
HETATM   11  C   UNL     1      -8.512   6.458  65.540  1.00  0.00    -0.141 A  
HETATM   12  C   UNL     1      -8.914   5.153  65.274  1.00  0.00    -0.142 A  
HETATM   13  O   UNL     1      -8.413   4.444  64.216  1.00  0.00    -0.104 OA 
HETATM   14  C   UNL     1      -9.856   4.525  66.084  1.00  0.00    -0.230 A  
HETATM   15  H   UNL     1      -8.688   3.553  64.035  1.00  0.00     0.000 HD 
HETATM   16  C   UNL     1     -10.405   5.184  67.171  1.00  0.00    -0.246 A  
HETATM   17  O   UNL     1     -10.251   3.249  65.806  1.00  0.00    -0.280 OA 
HETATM   18  C   UNL     1     -10.011   6.496  67.443  1.00  0.00    -0.180 A  
HETATM   19  H   UNL     1     -10.894   2.821  66.359  1.00  0.00     0.000 HD 
ENDBRANCH   7  10
ENDBRANCH   6   7
ENDBRANCH   4   6
ENDBRANCH   2   4
TORSDOF 4
ENDMDL
MODEL      274
REMARK 921   NORMALIZED FREE ENERGY PREDICTED BY IDOCK:   -2.46 KCAL/MOL
REMARK 922        TOTAL FREE ENERGY PREDICTED BY IDOCK:   -3.33 KCAL/MOL
REMARK 923 INTER-LIGAND FREE ENERGY PREDICTED BY IDOCK:   -3.06 KCAL/MOL
REMARK 924 INTRA-LIGAND FREE ENERGY PREDICTED BY IDOCK:   -0.27 KCAL/MOL
REMARK 927      BINDING AFFINITY PREDICTED BY RF-SCORE:    0.00 PKD
ROOT
HETATM    1  C   UNL     1      -7.702   4.675  65.732  1.00  0.00    -0.094 C  
HETATM    2  C   UNL     1      -8.966   5.060  64.958  1.00  0.00    -0.130 C  
HETATM    3  C   UNL     1      -9.891   3.843  64.862  1.00  0.00    -0.197 C  
ENDROOT
BRANCH   2   4
HETATM    4  N   UNL     1      -9.602   6.189  65.646  1.00  0.00    -0.361 NA 
HETATM    5  H   UNL     1     -10.567   5.963  65.890  1.00  0.00     0.000 HD 
BRANCH   4   6
HETATM    6  C   UNL     1      -8.866   6.657  66.831  1.00  0.00    -0.118 C  
BRANCH   6   7
HETATM    7  C   UNL     1      -9.743   6.574  68.108  1.00  0.00    -0.126 C  
HETATM    8  H   UNL     1      -9.613   5.793  69.928  1.00  0.00     0.000 HD 
HETATM    9  O   UNL     1      -9.077   5.844  69.146  1.00  0.00    -0.121 OA 
BRANCH   7  10
HETATM   10  C   UNL     1     -10.124   7.952  68.611  1.00  0.00    -0.210 A  
HETATM   11  C   UNL     1     -10.981   8.132  69.711  1.00  0.00    -0.133 A  
HETATM   12  C   UNL     1     -11.296   9.417  70.141  1.00  0.00    -0.185 A  
HETATM   13  O   UNL     1     -12.138   9.640  71.197  1.00  0.00    -0.316 OA 
HETATM   14  C   UNL     1     -10.760  10.528  69.497  1.00  0.00    -0.255 A  
HETATM   15  H   UNL     1     -12.353  10.517  71.491  1.00  0.00     0.000 HD 
HETATM   16  C   UNL     1      -9.902  10.377  68.421  1.00  0.00    -0.173 A  
HETATM   17  O   UNL     1     -11.086  11.784  69.921  1.00  0.00    -0.473 OA 
HETATM   18  C   UNL     1      -9.583   9.090  67.980  1.00  0.00    -0.166 A  
HETATM   19  H   UNL     1     -10.721  12.542  69.480  1.00  0.00     0.000 HD 
ENDBRANCH   7  10
ENDBRANCH   6   7
ENDBRANCH   4   6
ENDBRANCH   2   4
TORSDOF 4
ENDMDL
MODEL      275
REMARK 921   NORMALIZED FREE ENERGY PREDICTED BY IDOCK:   -2.44 KCAL/MOL
REMARK 922        TOTAL FREE ENERGY PREDICTED BY IDOCK:   -3.30 KCAL/MOL
REMARK 923 INTER-LIGAND FREE ENERGY PREDICTED BY IDOCK:   -2.92 KCAL/MOL
REMARK 924 INTRA-LIGAND FREE ENERGY PREDICTED BY IDOCK:   -0.38 KCAL/MOL
REMARK 927      BINDING AFFINITY PREDICTED BY RF-SCORE:    0.00 PKD
ROOT
HETATM    1  C   UNL     1      -6.402  10.050  70.071  1.00  0.00    -0.079 C  
HETATM    2  C   UNL     1      -7.492   9.051  70.473  1.00  0.00    -0.098 C  
HETATM    3  C   UNL     1      -8.865   9.639  70.139  1.00  0.00    -0.266 C  
ENDROOT
BRANCH   2   4
HETATM    4  N   UNL     1      -7.241   7.788  69.769  1.00  0.00    -0.066 NA 
HETATM    5  H   UNL     1      -6.448   7.882  69.135  1.00  0.00     0.000 HD 
BRANCH   4   6
HETATM    6  C   UNL     1      -7.054   6.634  70.663  1.00  0.00    -0.069 C  
BRANCH   6   7
HETATM    7  C   UNL     1      -8.371   5.832  70.830  1.00  0.00    -0.125 C  
HETATM    8  H   UNL     1     -10.030   5.945  71.915  1.00  0.00     0.000 HD 
HETATM    9  O   UNL     1      -9.223   6.436  71.812  1.00  0.00    -0.144 OA 
BRANCH   7  10
HETATM   10  C   UNL     1      -9.114   5.702  69.515  1.00  0.00    -0.143 A  
HETATM   11  C   UNL     1      -8.536   5.083  68.393  1.00  0.00    -0.100 A  
HETATM   12  C   UNL     1      -9.261   4.980  67.209  1.00  0.00    -0.121 A  
HETATM   13  O   UNL     1      -8.733   4.400  66.087  1.00  0.00    -0.113 OA 
HETATM   14  C   UNL     1     -10.559   5.476  67.130  1.00  0.00    -0.240 A  
HETATM   15  H   UNL     1      -9.227   4.329  65.279  1.00  0.00     0.000 HD 
HETATM   16  C   UNL     1     -11.155   6.075  68.226  1.00  0.00    -0.259 A  
HETATM   17  O   UNL     1     -11.254   5.379  65.960  1.00  0.00    -0.783 OA 
HETATM   18  C   UNL     1     -10.434   6.187  69.417  1.00  0.00    -0.316 A  
HETATM   19  H   UNL     1     -12.140   5.718  65.906  1.00  0.00     0.000 HD 
ENDBRANCH   7  10
ENDBRANCH   6   7
ENDBRANCH   4   6
ENDBRANCH   2   4
TORSDOF 4
ENDMDL
MODEL      276
REMARK 921   NORMALIZED FREE ENERGY PREDICTED BY IDOCK:   -2.43 KCAL/MOL
REMARK 922        TOTAL FREE ENERGY PREDICTED BY IDOCK:   -3.29 KCAL/MOL
REMARK 923 INTER-LIGAND FREE ENERGY PREDICTED BY IDOCK:   -2.77 KCAL/MOL
REMARK 924 INTRA-LIGAND FREE ENERGY PREDICTED BY IDOCK:   -0.52 KCAL/MOL
REMARK 927      BINDING AFFINITY PREDICTED BY RF-SCORE:    0.00 PKD
ROOT
HETATM    1  C   UNL     1      -9.994   6.319  67.279  1.00  0.00    -0.180 C  
HETATM    2  C   UNL     1      -9.216   5.154  66.660  1.00  0.00    -0.129 C  
HETATM    3  C   UNL     1     -10.022   4.567  65.498  1.00  0.00    -0.230 C  
ENDROOT
BRANCH   2   4
HETATM    4  N   UNL     1      -7.905   5.652  66.231  1.00  0.00    -0.099 NA 
HETATM    5  H   UNL     1      -7.218   4.898  66.227  1.00  0.00     0.000 HD 
BRANCH   4   6
HETATM    6  C   UNL     1      -7.924   6.340  64.930  1.00  0.00    -0.124 C  
BRANCH   6   7
HETATM    7  C   UNL     1      -7.161   7.689  64.995  1.00  0.00    -0.063 C  
HETATM    8  H   UNL     1      -5.922   8.730  63.846  1.00  0.00     0.000 HD 
HETATM    9  O   UNL     1      -6.389   7.904  63.807  1.00  0.00    -0.061 OA 
BRANCH   7  10
HETATM   10  C   UNL     1      -8.106   8.854  65.214  1.00  0.00    -0.126 A  
HETATM   11  C   UNL     1      -9.021   9.264  64.228  1.00  0.00    -0.142 A  
HETATM   12  C   UNL     1      -9.874  10.334  64.478  1.00  0.00    -0.315 A  
HETATM   13  O   UNL     1     -10.769  10.779  63.543  1.00  0.00    -0.530 OA 
HETATM   14  C   UNL     1      -9.838  10.996  65.702  1.00  0.00    -0.239 A  
HETATM   15  H   UNL     1     -11.352  11.509  63.713  1.00  0.00     0.000 HD 
HETATM   16  C   UNL     1      -8.957  10.600  66.694  1.00  0.00    -0.162 A  
HETATM   17  O   UNL     1     -10.672  12.052  65.931  1.00  0.00    -0.257 OA 
HETATM   18  C   UNL     1      -8.093   9.529  66.451  1.00  0.00    -0.111 A  
HETATM   19  H   UNL     1     -10.646  12.504  66.766  1.00  0.00     0.000 HD 
ENDBRANCH   7  10
ENDBRANCH   6   7
ENDBRANCH   4   6
ENDBRANCH   2   4
TORSDOF 4
ENDMDL
MODEL      277
REMARK 921   NORMALIZED FREE ENERGY PREDICTED BY IDOCK:   -2.43 KCAL/MOL
REMARK 922        TOTAL FREE ENERGY PREDICTED BY IDOCK:   -3.28 KCAL/MOL
REMARK 923 INTER-LIGAND FREE ENERGY PREDICTED BY IDOCK:   -2.88 KCAL/MOL
REMARK 924 INTRA-LIGAND FREE ENERGY PREDICTED BY IDOCK:   -0.40 KCAL/MOL
REMARK 927      BINDING AFFINITY PREDICTED BY RF-SCORE:    0.00 PKD
ROOT
HETATM    1  C   UNL     1      -9.320   4.895  66.247  1.00  0.00    -0.149 C  
HETATM    2  C   UNL     1      -8.605   5.963  67.079  1.00  0.00    -0.110 C  
HETATM    3  C   UNL     1      -7.427   5.324  67.819  1.00  0.00    -0.076 C  
ENDROOT
BRANCH   2   4
HETATM    4  N   UNL     1      -8.177   7.040  66.178  1.00  0.00    -0.118 NA 
HETATM    5  H   UNL     1      -8.914   7.259  65.507  1.00  0.00     0.000 HD 
BRANCH   4   6
HETATM    6  C   UNL     1      -7.731   8.257  66.872  1.00  0.00    -0.095 C  
BRANCH   6   7
HETATM    7  C   UNL     1      -8.929   9.179  67.220  1.00  0.00    -0.123 C  
HETATM    8  H   UNL     1     -10.777   9.490  66.568  1.00  0.00     0.000 HD 
HETATM    9  O   UNL     1     -10.043   8.926  66.355  1.00  0.00    -0.288 OA 
BRANCH   7  10
HETATM   10  C   UNL     1      -9.352   9.019  68.667  1.00  0.00    -0.136 A  
HETATM   11  C   UNL     1     -10.700   9.088  69.059  1.00  0.00    -0.163 A  
HETATM   12  C   UNL     1     -11.041   8.927  70.399  1.00  0.00    -0.239 A  
HETATM   13  O   UNL     1     -12.337   9.002  70.829  1.00  0.00    -0.478 OA 
HETATM   14  C   UNL     1     -10.057   8.686  71.354  1.00  0.00    -0.254 A  
HETATM   15  H   UNL     1     -12.570   8.892  71.743  1.00  0.00     0.000 HD 
HETATM   16  C   UNL     1      -8.724   8.598  70.989  1.00  0.00    -0.227 A  
HETATM   17  O   UNL     1     -10.402   8.542  72.666  1.00  0.00    -0.297 OA 
HETATM   18  C   UNL     1      -8.372   8.763  69.647  1.00  0.00    -0.126 A  
HETATM   19  H   UNL     1      -9.730   8.379  73.318  1.00  0.00     0.000 HD 
ENDBRANCH   7  10
ENDBRANCH   6   7
ENDBRANCH   4   6
ENDBRANCH   2   4
TORSDOF 4
ENDMDL
MODEL      278
REMARK 921   NORMALIZED FREE ENERGY PREDICTED BY IDOCK:   -2.43 KCAL/MOL
REMARK 922        TOTAL FREE ENERGY PREDICTED BY IDOCK:   -3.28 KCAL/MOL
REMARK 923 INTER-LIGAND FREE ENERGY PREDICTED BY IDOCK:   -2.82 KCAL/MOL
REMARK 924 INTRA-LIGAND FREE ENERGY PREDICTED BY IDOCK:   -0.46 KCAL/MOL
REMARK 927      BINDING AFFINITY PREDICTED BY RF-SCORE:    0.00 PKD
ROOT
HETATM    1  C   UNL     1      -9.422   3.470  70.065  1.00  0.00    -0.253 C  
HETATM    2  C   UNL     1      -9.167   3.239  68.573  1.00  0.00    -0.175 C  
HETATM    3  C   UNL     1      -9.444   1.772  68.233  1.00  0.00    -0.234 C  
ENDROOT
BRANCH   2   4
HETATM    4  N   UNL     1     -10.020   4.158  67.812  1.00  0.00    -0.047 NA 
HETATM    5  H   UNL     1     -10.877   4.361  68.327  1.00  0.00     0.000 HD 
BRANCH   4   6
HETATM    6  C   UNL     1      -9.349   5.404  67.413  1.00  0.00    -0.113 C  
BRANCH   6   7
HETATM    7  C   UNL     1     -10.136   6.649  67.899  1.00  0.00    -0.150 C  
HETATM    8  H   UNL     1     -11.757   7.029  68.980  1.00  0.00     0.000 HD 
HETATM    9  O   UNL     1     -11.274   6.267  68.681  1.00  0.00    -0.356 OA 
BRANCH   7  10
HETATM   10  C   UNL     1      -9.254   7.588  68.698  1.00  0.00    -0.144 A  
HETATM   11  C   UNL     1      -9.383   8.985  68.611  1.00  0.00    -0.136 A  
HETATM   12  C   UNL     1      -8.555   9.806  69.370  1.00  0.00    -0.165 A  
HETATM   13  O   UNL     1      -8.634  11.171  69.305  1.00  0.00    -0.375 OA 
HETATM   14  C   UNL     1      -7.606   9.255  70.226  1.00  0.00    -0.123 A  
HETATM   15  H   UNL     1      -8.070  11.731  69.823  1.00  0.00     0.000 HD 
HETATM   16  C   UNL     1      -7.470   7.882  70.341  1.00  0.00    -0.077 A  
HETATM   17  O   UNL     1      -6.792  10.071  70.956  1.00  0.00    -0.340 OA 
HETATM   18  C   UNL     1      -8.294   7.049  69.579  1.00  0.00    -0.133 A  
HETATM   19  H   UNL     1      -6.143   9.694  71.540  1.00  0.00     0.000 HD 
ENDBRANCH   7  10
ENDBRANCH   6   7
ENDBRANCH   4   6
ENDBRANCH   2   4
TORSDOF 4
ENDMDL
MODEL      279
REMARK 921   NORMALIZED FREE ENERGY PREDICTED BY IDOCK:   -2.42 KCAL/MOL
REMARK 922        TOTAL FREE ENERGY PREDICTED BY IDOCK:   -3.27 KCAL/MOL
REMARK 923 INTER-LIGAND FREE ENERGY PREDICTED BY IDOCK:   -2.98 KCAL/MOL
REMARK 924 INTRA-LIGAND FREE ENERGY PREDICTED BY IDOCK:   -0.29 KCAL/MOL
REMARK 927      BINDING AFFINITY PREDICTED BY RF-SCORE:    0.00 PKD
ROOT
HETATM    1  C   UNL     1      -9.496   6.038  72.362  1.00  0.00    -0.153 C  
HETATM    2  C   UNL     1      -8.850   6.877  71.255  1.00  0.00    -0.135 C  
HETATM    3  C   UNL     1      -7.430   6.366  70.997  1.00  0.00    -0.085 C  
ENDROOT
BRANCH   2   4
HETATM    4  N   UNL     1      -9.697   6.793  70.060  1.00  0.00    -0.163 NA 
HETATM    5  H   UNL     1     -10.342   7.582  70.021  1.00  0.00     0.000 HD 
BRANCH   4   6
HETATM    6  C   UNL     1      -8.942   6.679  68.801  1.00  0.00    -0.125 C  
BRANCH   6   7
HETATM    7  C   UNL     1      -9.812   7.089  67.584  1.00  0.00    -0.147 C  
HETATM    8  H   UNL     1     -11.708   6.932  67.016  1.00  0.00     0.000 HD 
HETATM    9  O   UNL     1     -11.174   6.680  67.761  1.00  0.00    -0.274 OA 
BRANCH   7  10
HETATM   10  C   UNL     1      -9.751   8.583  67.336  1.00  0.00    -0.222 A  
HETATM   11  C   UNL     1     -10.906   9.384  67.326  1.00  0.00    -0.165 A  
HETATM   12  C   UNL     1     -10.799  10.753  67.101  1.00  0.00    -0.277 A  
HETATM   13  O   UNL     1     -11.897  11.568  67.067  1.00  0.00    -0.568 OA 
HETATM   14  C   UNL     1      -9.553  11.339  66.896  1.00  0.00    -0.191 A  
HETATM   15  H   UNL     1     -11.824  12.503  66.913  1.00  0.00     0.000 HD 
HETATM   16  C   UNL     1      -8.399  10.574  66.916  1.00  0.00    -0.126 A  
HETATM   17  O   UNL     1      -9.462  12.681  66.664  1.00  0.00    -0.233 OA 
HETATM   18  C   UNL     1      -8.498   9.198  67.137  1.00  0.00    -0.120 A  
HETATM   19  H   UNL     1      -8.611  13.081  66.523  1.00  0.00     0.000 HD 
ENDBRANCH   7  10
ENDBRANCH   6   7
ENDBRANCH   4   6
ENDBRANCH   2   4
TORSDOF 4
ENDMDL
MODEL      280
REMARK 921   NORMALIZED FREE ENERGY PREDICTED BY IDOCK:   -2.41 KCAL/MOL
REMARK 922        TOTAL FREE ENERGY PREDICTED BY IDOCK:   -3.27 KCAL/MOL
REMARK 923 INTER-LIGAND FREE ENERGY PREDICTED BY IDOCK:   -3.04 KCAL/MOL
REMARK 924 INTRA-LIGAND FREE ENERGY PREDICTED BY IDOCK:   -0.22 KCAL/MOL
REMARK 927      BINDING AFFINITY PREDICTED BY RF-SCORE:    0.00 PKD
ROOT
HETATM    1  C   UNL     1      -7.036   5.539  67.045  1.00  0.00    -0.065 C  
HETATM    2  C   UNL     1      -8.116   5.876  66.013  1.00  0.00    -0.115 C  
HETATM    3  C   UNL     1      -9.134   4.734  65.955  1.00  0.00    -0.137 C  
ENDROOT
BRANCH   2   4
HETATM    4  N   UNL     1      -8.733   7.152  66.392  1.00  0.00    -0.133 NA 
HETATM    5  H   UNL     1      -9.428   7.010  67.126  1.00  0.00     0.000 HD 
BRANCH   4   6
HETATM    6  C   UNL     1      -7.766   8.188  66.789  1.00  0.00    -0.095 C  
BRANCH   6   7
HETATM    7  C   UNL     1      -8.141   9.568  66.188  1.00  0.00    -0.111 C  
HETATM    8  H   UNL     1      -8.669  10.305  64.422  1.00  0.00     0.000 HD 
HETATM    9  O   UNL     1      -8.439   9.459  64.791  1.00  0.00    -0.146 OA 
BRANCH   7  10
HETATM   10  C   UNL     1      -9.313  10.192  66.918  1.00  0.00    -0.185 A  
HETATM   11  C   UNL     1     -10.268  10.982  66.255  1.00  0.00    -0.295 A  
HETATM   12  C   UNL     1     -11.332  11.527  66.967  1.00  0.00    -0.269 A  
HETATM   13  O   UNL     1     -12.276  12.315  66.366  1.00  0.00    -0.613 OA 
HETATM   14  C   UNL     1     -11.465  11.288  68.332  1.00  0.00    -0.307 A  
HETATM   15  H   UNL     1     -13.002  12.687  66.851  1.00  0.00     0.000 HD 
HETATM   16  C   UNL     1     -10.546  10.501  69.004  1.00  0.00    -0.250 A  
HETATM   17  O   UNL     1     -12.506  11.839  69.021  1.00  0.00    -0.175 OA 
HETATM   18  C   UNL     1      -9.472   9.953  68.299  1.00  0.00    -0.147 A  
HETATM   19  H   UNL     1     -12.596  11.676  69.953  1.00  0.00     0.000 HD 
ENDBRANCH   7  10
ENDBRANCH   6   7
ENDBRANCH   4   6
ENDBRANCH   2   4
TORSDOF 4
ENDMDL
MODEL      281
REMARK 921   NORMALIZED FREE ENERGY PREDICTED BY IDOCK:   -2.28 KCAL/MOL
REMARK 922        TOTAL FREE ENERGY PREDICTED BY IDOCK:   -3.11 KCAL/MOL
REMARK 923 INTER-LIGAND FREE ENERGY PREDICTED BY IDOCK:   -3.02 KCAL/MOL
REMARK 924 INTRA-LIGAND FREE ENERGY PREDICTED BY IDOCK:   -0.09 KCAL/MOL
REMARK 927      BINDING AFFINITY PREDICTED BY RF-SCORE:    0.00 PKD
ROOT
HETATM    1  C   UNL     1      -9.551   7.890  73.364  1.00  0.00    -0.331 C  
HETATM    2  C   UNL     1     -10.445   7.742  72.130  1.00  0.00    -0.231 C  
HETATM    3  C   UNL     1     -11.546   8.806  72.171  1.00  0.00    -0.434 C  
ENDROOT
BRANCH   2   4
HETATM    4  N   UNL     1      -9.603   7.859  70.934  1.00  0.00    -0.161 NA 
HETATM    5  H   UNL     1      -8.615   7.856  71.190  1.00  0.00     0.000 HD 
BRANCH   4   6
HETATM    6  C   UNL     1      -9.875   6.838  69.910  1.00  0.00    -0.164 C  
BRANCH   6   7
HETATM    7  C   UNL     1      -9.660   7.402  68.481  1.00  0.00    -0.146 C  
HETATM    8  H   UNL     1     -10.661   7.483  66.769  1.00  0.00     0.000 HD 
HETATM    9  O   UNL     1     -10.793   7.137  67.644  1.00  0.00    -0.237 OA 
BRANCH   7  10
HETATM   10  C   UNL     1      -9.376   8.891  68.508  1.00  0.00    -0.141 A  
HETATM   11  C   UNL     1      -8.066   9.399  68.512  1.00  0.00    -0.105 A  
HETATM   12  C   UNL     1      -7.855  10.774  68.528  1.00  0.00    -0.122 A  
HETATM   13  O   UNL     1      -6.598  11.313  68.550  1.00  0.00    -0.056 OA 
HETATM   14  C   UNL     1      -8.935  11.654  68.530  1.00  0.00    -0.138 A  
HETATM   15  H   UNL     1      -6.454  12.252  68.561  1.00  0.00     0.000 HD 
HETATM   16  C   UNL     1     -10.234  11.178  68.510  1.00  0.00    -0.209 A  
HETATM   17  O   UNL     1      -8.716  13.000  68.559  1.00  0.00    -0.303 OA 
HETATM   18  C   UNL     1     -10.455   9.798  68.498  1.00  0.00    -0.239 A  
HETATM   19  H   UNL     1      -9.452  13.600  68.560  1.00  0.00     0.000 HD 
ENDBRANCH   7  10
ENDBRANCH   6   7
ENDBRANCH   4   6
ENDBRANCH   2   4
TORSDOF 4
ENDMDL
MODEL      282
REMARK 921   NORMALIZED FREE ENERGY PREDICTED BY IDOCK:   -2.27 KCAL/MOL
REMARK 922        TOTAL FREE ENERGY PREDICTED BY IDOCK:   -3.09 KCAL/MOL
REMARK 923 INTER-LIGAND FREE ENERGY PREDICTED BY IDOCK:   -2.48 KCAL/MOL
REMARK 924 INTRA-LIGAND FREE ENERGY PREDICTED BY IDOCK:   -0.61 KCAL/MOL
REMARK 927      BINDING AFFINITY PREDICTED BY RF-SCORE:    0.00 PKD
ROOT
HETATM    1  C   UNL     1      -7.672   6.810  70.282  1.00  0.00    -0.101 C  
HETATM    2  C   UNL     1      -6.305   7.267  69.764  1.00  0.00    -0.035 C  
HETATM    3  C   UNL     1      -5.436   6.039  69.477  1.00  0.00    -0.012 C  
ENDROOT
BRANCH   2   4
HETATM    4  N   UNL     1      -6.517   8.090  68.568  1.00  0.00    -0.052 NA 
HETATM    5  H   UNL     1      -5.740   7.981  67.916  1.00  0.00     0.000 HD 
BRANCH   4   6
HETATM    6  C   UNL     1      -7.799   7.840  67.891  1.00  0.00    -0.127 C  
BRANCH   6   7
HETATM    7  C   UNL     1      -7.581   7.344  66.438  1.00  0.00    -0.088 C  
HETATM    8  H   UNL     1      -6.053   7.004  65.217  1.00  0.00     0.000 HD 
HETATM    9  O   UNL     1      -6.187   7.308  66.107  1.00  0.00    -0.039 OA 
BRANCH   7  10
HETATM   10  C   UNL     1      -8.198   5.977  66.218  1.00  0.00    -0.118 A  
HETATM   11  C   UNL     1      -9.511   5.820  65.742  1.00  0.00    -0.002 A  
HETATM   12  C   UNL     1     -10.031   4.544  65.549  1.00  0.00    -0.215 A  
HETATM   13  O   UNL     1     -11.309   4.344  65.103  1.00  0.00    -1.022 OA 
HETATM   14  C   UNL     1      -9.256   3.419  65.814  1.00  0.00    -0.155 A  
HETATM   15  H   UNL     1     -11.664   3.473  64.970  1.00  0.00     0.000 HD 
HETATM   16  C   UNL     1      -7.955   3.547  66.268  1.00  0.00    -0.089 A  
HETATM   17  O   UNL     1      -9.781   2.172  65.632  1.00  0.00    -0.342 OA 
HETATM   18  C   UNL     1      -7.426   4.824  66.469  1.00  0.00    -0.086 A  
HETATM   19  H   UNL     1      -9.253   1.404  65.813  1.00  0.00     0.000 HD 
ENDBRANCH   7  10
ENDBRANCH   6   7
ENDBRANCH   4   6
ENDBRANCH   2   4
TORSDOF 4
ENDMDL
MODEL      283
REMARK 921   NORMALIZED FREE ENERGY PREDICTED BY IDOCK:   -2.27 KCAL/MOL
REMARK 922        TOTAL FREE ENERGY PREDICTED BY IDOCK:   -3.09 KCAL/MOL
REMARK 923 INTER-LIGAND FREE ENERGY PREDICTED BY IDOCK:   -2.84 KCAL/MOL
REMARK 924 INTRA-LIGAND FREE ENERGY PREDICTED BY IDOCK:   -0.25 KCAL/MOL
REMARK 927      BINDING AFFINITY PREDICTED BY RF-SCORE:    0.00 PKD
ROOT
HETATM    1  C   UNL     1      -9.976   8.734  71.932  1.00  0.00    -0.401 C  
HETATM    2  C   UNL     1     -11.140   7.839  72.364  1.00  0.00    -0.323 C  
HETATM    3  C   UNL     1     -12.435   8.657  72.364  1.00  0.00    -0.428 C  
ENDROOT
BRANCH   2   4
HETATM    4  N   UNL     1     -11.206   6.694  71.448  1.00  0.00    -0.261 NA 
HETATM    5  H   UNL     1     -12.161   6.340  71.385  1.00  0.00     0.000 HD 
BRANCH   4   6
HETATM    6  C   UNL     1     -10.667   6.971  70.108  1.00  0.00    -0.240 C  
BRANCH   6   7
HETATM    7  C   UNL     1      -9.639   5.891  69.680  1.00  0.00    -0.148 C  
HETATM    8  H   UNL     1      -9.626   3.939  69.320  1.00  0.00     0.000 HD 
HETATM    9  O   UNL     1     -10.256   4.601  69.582  1.00  0.00    -0.221 OA 
BRANCH   7  10
HETATM   10  C   UNL     1      -8.975   6.246  68.364  1.00  0.00    -0.116 A  
HETATM   11  C   UNL     1      -7.838   7.070  68.303  1.00  0.00    -0.118 A  
HETATM   12  C   UNL     1      -7.258   7.361  67.072  1.00  0.00    -0.089 A  
HETATM   13  O   UNL     1      -6.161   8.171  66.963  1.00  0.00    -0.051 OA 
HETATM   14  C   UNL     1      -7.790   6.833  65.899  1.00  0.00    -0.103 A  
HETATM   15  H   UNL     1      -5.765   8.370  66.124  1.00  0.00     0.000 HD 
HETATM   16  C   UNL     1      -8.899   6.006  65.935  1.00  0.00    -0.155 A  
HETATM   17  O   UNL     1      -7.219   7.135  64.697  1.00  0.00    -0.064 OA 
HETATM   18  C   UNL     1      -9.490   5.712  67.166  1.00  0.00    -0.120 A  
HETATM   19  H   UNL     1      -7.582   6.775  63.896  1.00  0.00     0.000 HD 
ENDBRANCH   7  10
ENDBRANCH   6   7
ENDBRANCH   4   6
ENDBRANCH   2   4
TORSDOF 4
ENDMDL
MODEL      284
REMARK 921   NORMALIZED FREE ENERGY PREDICTED BY IDOCK:   -2.25 KCAL/MOL
REMARK 922        TOTAL FREE ENERGY PREDICTED BY IDOCK:   -3.06 KCAL/MOL
REMARK 923 INTER-LIGAND FREE ENERGY PREDICTED BY IDOCK:   -2.70 KCAL/MOL
REMARK 924 INTRA-LIGAND FREE ENERGY PREDICTED BY IDOCK:   -0.36 KCAL/MOL
REMARK 927      BINDING AFFINITY PREDICTED BY RF-SCORE:    0.00 PKD
ROOT
HETATM    1  C   UNL     1      -8.904   7.607  74.097  1.00  0.00    -0.280 C  
HETATM    2  C   UNL     1      -9.514   6.498  73.234  1.00  0.00    -0.143 C  
HETATM    3  C   UNL     1     -11.000   6.791  73.010  1.00  0.00    -0.293 C  
ENDROOT
BRANCH   2   4
HETATM    4  N   UNL     1      -8.764   6.431  71.974  1.00  0.00    -0.134 NA 
HETATM    5  H   UNL     1      -9.356   6.705  71.190  1.00  0.00     0.000 HD 
BRANCH   4   6
HETATM    6  C   UNL     1      -7.517   7.211  71.980  1.00  0.00    -0.085 C  
BRANCH   6   7
HETATM    7  C   UNL     1      -7.121   7.649  70.545  1.00  0.00    -0.051 C  
HETATM    8  H   UNL     1      -6.243   6.845  68.956  1.00  0.00     0.000 HD 
HETATM    9  O   UNL     1      -6.486   6.578  69.835  1.00  0.00    -0.040 OA 
BRANCH   7  10
HETATM   10  C   UNL     1      -8.321   8.145  69.763  1.00  0.00    -0.124 A  
HETATM   11  C   UNL     1      -8.907   7.384  68.737  1.00  0.00    -0.130 A  
HETATM   12  C   UNL     1     -10.012   7.879  68.053  1.00  0.00    -0.177 A  
HETATM   13  O   UNL     1     -10.606   7.181  67.036  1.00  0.00    -0.297 OA 
HETATM   14  C   UNL     1     -10.551   9.120  68.384  1.00  0.00    -0.172 A  
HETATM   15  H   UNL     1     -11.360   7.519  66.569  1.00  0.00     0.000 HD 
HETATM   16  C   UNL     1     -10.001   9.880  69.401  1.00  0.00    -0.227 A  
HETATM   17  O   UNL     1     -11.628   9.600  67.697  1.00  0.00    -0.302 OA 
HETATM   18  C   UNL     1      -8.888   9.393  70.091  1.00  0.00    -0.249 A  
HETATM   19  H   UNL     1     -11.995  10.446  67.923  1.00  0.00     0.000 HD 
ENDBRANCH   7  10
ENDBRANCH   6   7
ENDBRANCH   4   6
ENDBRANCH   2   4
TORSDOF 4
ENDMDL
MODEL      285
REMARK 921   NORMALIZED FREE ENERGY PREDICTED BY IDOCK:   -2.22 KCAL/MOL
REMARK 922        TOTAL FREE ENERGY PREDICTED BY IDOCK:   -3.03 KCAL/MOL
REMARK 923 INTER-LIGAND FREE ENERGY PREDICTED BY IDOCK:   -2.74 KCAL/MOL
REMARK 924 INTRA-LIGAND FREE ENERGY PREDICTED BY IDOCK:   -0.29 KCAL/MOL
REMARK 927      BINDING AFFINITY PREDICTED BY RF-SCORE:    0.00 PKD
ROOT
HETATM    1  C   UNL     1      -8.059   6.400  67.994  1.00  0.00    -0.116 C  
HETATM    2  C   UNL     1      -9.574   6.594  67.889  1.00  0.00    -0.119 C  
HETATM    3  C   UNL     1     -10.255   5.225  67.811  1.00  0.00    -0.211 C  
ENDROOT
BRANCH   2   4
HETATM    4  N   UNL     1     -10.020   7.372  69.050  1.00  0.00    -0.171 NA 
HETATM    5  H   UNL     1     -10.119   6.770  69.869  1.00  0.00     0.000 HD 
BRANCH   4   6
HETATM    6  C   UNL     1      -9.164   8.528  69.359  1.00  0.00    -0.153 C  
BRANCH   6   7
HETATM    7  C   UNL     1      -9.427   9.057  70.793  1.00  0.00    -0.251 C  
HETATM    8  H   UNL     1     -10.747  10.223  71.707  1.00  0.00     0.000 HD 
HETATM    9  O   UNL     1     -10.586   9.899  70.829  1.00  0.00    -0.304 OA 
BRANCH   7  10
HETATM   10  C   UNL     1      -9.585   7.921  71.785  1.00  0.00    -0.214 A  
HETATM   11  C   UNL     1      -8.494   7.138  72.199  1.00  0.00    -0.118 A  
HETATM   12  C   UNL     1      -8.687   6.111  73.118  1.00  0.00    -0.120 A  
HETATM   13  O   UNL     1      -7.658   5.313  73.538  1.00  0.00    -0.093 OA 
HETATM   14  C   UNL     1      -9.953   5.859  73.639  1.00  0.00    -0.192 A  
HETATM   15  H   UNL     1      -7.789   4.612  74.165  1.00  0.00     0.000 HD 
HETATM   16  C   UNL     1     -11.040   6.626  73.258  1.00  0.00    -0.152 A  
HETATM   17  O   UNL     1     -10.132   4.841  74.530  1.00  0.00    -0.188 OA 
HETATM   18  C   UNL     1     -10.856   7.657  72.333  1.00  0.00    -0.341 A  
HETATM   19  H   UNL     1     -10.996   4.669  74.885  1.00  0.00     0.000 HD 
ENDBRANCH   7  10
ENDBRANCH   6   7
ENDBRANCH   4   6
ENDBRANCH   2   4
TORSDOF 4
ENDMDL
MODEL      286
REMARK 921   NORMALIZED FREE ENERGY PREDICTED BY IDOCK:   -2.21 KCAL/MOL
REMARK 922        TOTAL FREE ENERGY PREDICTED BY IDOCK:   -3.02 KCAL/MOL
REMARK 923 INTER-LIGAND FREE ENERGY PREDICTED BY IDOCK:   -2.76 KCAL/MOL
REMARK 924 INTRA-LIGAND FREE ENERGY PREDICTED BY IDOCK:   -0.26 KCAL/MOL
REMARK 927      BINDING AFFINITY PREDICTED BY RF-SCORE:    0.00 PKD
ROOT
HETATM    1  C   UNL     1      -9.524   4.104  69.987  1.00  0.00    -0.260 C  
HETATM    2  C   UNL     1      -8.817   3.233  68.944  1.00  0.00    -0.114 C  
HETATM    3  C   UNL     1      -9.258   1.777  69.118  1.00  0.00    -0.188 C  
ENDROOT
BRANCH   2   4
HETATM    4  N   UNL     1      -9.138   3.756  67.612  1.00  0.00    -0.143 NA 
HETATM    5  H   UNL     1     -10.073   4.164  67.603  1.00  0.00     0.000 HD 
BRANCH   4   6
HETATM    6  C   UNL     1      -8.151   4.716  67.094  1.00  0.00    -0.102 C  
BRANCH   6   7
HETATM    7  C   UNL     1      -8.647   5.384  65.785  1.00  0.00    -0.139 C  
HETATM    8  H   UNL     1     -10.045   5.062  64.412  1.00  0.00     0.000 HD 
HETATM    9  O   UNL     1      -9.740   4.653  65.214  1.00  0.00    -0.169 OA 
BRANCH   7  10
HETATM   10  C   UNL     1      -9.057   6.825  66.016  1.00  0.00    -0.103 A  
HETATM   11  C   UNL     1      -8.309   7.902  65.508  1.00  0.00    -0.152 A  
HETATM   12  C   UNL     1      -8.730   9.208  65.740  1.00  0.00    -0.165 A  
HETATM   13  O   UNL     1      -8.025  10.287  65.279  1.00  0.00    -0.142 OA 
HETATM   14  C   UNL     1      -9.892   9.457  66.464  1.00  0.00    -0.258 A  
HETATM   15  H   UNL     1      -8.312  11.178  65.437  1.00  0.00     0.000 HD 
HETATM   16  C   UNL     1     -10.654   8.413  66.961  1.00  0.00    -0.316 A  
HETATM   17  O   UNL     1     -10.288  10.743  66.695  1.00  0.00    -0.225 OA 
HETATM   18  C   UNL     1     -10.237   7.099  66.737  1.00  0.00    -0.289 A  
HETATM   19  H   UNL     1     -11.081  10.913  67.190  1.00  0.00     0.000 HD 
ENDBRANCH   7  10
ENDBRANCH   6   7
ENDBRANCH   4   6
ENDBRANCH   2   4
TORSDOF 4
ENDMDL
MODEL      287
REMARK 921   NORMALIZED FREE ENERGY PREDICTED BY IDOCK:   -2.19 KCAL/MOL
REMARK 922        TOTAL FREE ENERGY PREDICTED BY IDOCK:   -2.99 KCAL/MOL
REMARK 923 INTER-LIGAND FREE ENERGY PREDICTED BY IDOCK:   -2.83 KCAL/MOL
REMARK 924 INTRA-LIGAND FREE ENERGY PREDICTED BY IDOCK:   -0.16 KCAL/MOL
REMARK 927      BINDING AFFINITY PREDICTED BY RF-SCORE:    0.00 PKD
ROOT
HETATM    1  C   UNL     1     -11.657  11.701  69.474  1.00  0.00    -0.397 C  
HETATM    2  C   UNL     1     -12.110  11.518  68.022  1.00  0.00     0.084 C  
HETATM    3  C   UNL     1     -11.654  12.723  67.194  1.00  0.00    -0.426 C  
ENDROOT
BRANCH   2   4
HETATM    4  N   UNL     1     -11.555  10.256  67.521  1.00  0.00    -0.454 NA 
HETATM    5  H   UNL     1     -12.072   9.937  66.702  1.00  0.00     0.000 HD 
BRANCH   4   6
HETATM    6  C   UNL     1     -10.113  10.312  67.234  1.00  0.00    -0.203 C  
BRANCH   6   7
HETATM    7  C   UNL     1      -9.752   9.449  65.996  1.00  0.00    -0.275 C  
HETATM    8  H   UNL     1      -8.591   9.597  64.392  1.00  0.00     0.000 HD 
HETATM    9  O   UNL     1      -8.813  10.125  65.151  1.00  0.00    -0.160 OA 
BRANCH   7  10
HETATM   10  C   UNL     1      -9.198   8.097  66.402  1.00  0.00    -0.250 A  
HETATM   11  C   UNL     1      -8.471   7.292  65.509  1.00  0.00    -0.119 A  
HETATM   12  C   UNL     1      -7.977   6.062  65.931  1.00  0.00    -0.111 A  
HETATM   13  O   UNL     1      -7.278   5.237  65.091  1.00  0.00    -0.064 OA 
HETATM   14  C   UNL     1      -8.186   5.626  67.236  1.00  0.00    -0.101 A  
HETATM   15  H   UNL     1      -6.940   4.398  65.379  1.00  0.00     0.000 HD 
HETATM   16  C   UNL     1      -8.885   6.409  68.139  1.00  0.00    -0.114 A  
HETATM   17  O   UNL     1      -7.706   4.412  67.634  1.00  0.00    -0.083 OA 
HETATM   18  C   UNL     1      -9.390   7.643  67.723  1.00  0.00    -0.153 A  
HETATM   19  H   UNL     1      -7.850   4.115  68.525  1.00  0.00     0.000 HD 
ENDBRANCH   7  10
ENDBRANCH   6   7
ENDBRANCH   4   6
ENDBRANCH   2   4
TORSDOF 4
ENDMDL
MODEL      288
REMARK 921   NORMALIZED FREE ENERGY PREDICTED BY IDOCK:   -2.18 KCAL/MOL
REMARK 922        TOTAL FREE ENERGY PREDICTED BY IDOCK:   -2.98 KCAL/MOL
REMARK 923 INTER-LIGAND FREE ENERGY PREDICTED BY IDOCK:   -2.64 KCAL/MOL
REMARK 924 INTRA-LIGAND FREE ENERGY PREDICTED BY IDOCK:   -0.33 KCAL/MOL
REMARK 927      BINDING AFFINITY PREDICTED BY RF-SCORE:    0.00 PKD
ROOT
HETATM    1  C   UNL     1      -6.886  12.727  67.893  1.00  0.00    -0.114 C  
HETATM    2  C   UNL     1      -7.922  11.841  67.195  1.00  0.00    -0.166 C  
HETATM    3  C   UNL     1      -7.241  11.054  66.072  1.00  0.00    -0.014 C  
ENDROOT
BRANCH   2   4
HETATM    4  N   UNL     1      -8.530  10.962  68.202  1.00  0.00    -0.126 NA 
HETATM    5  H   UNL     1      -9.490  11.248  68.394  1.00  0.00     0.000 HD 
BRANCH   4   6
HETATM    6  C   UNL     1      -8.474   9.533  67.857  1.00  0.00    -0.119 C  
BRANCH   6   7
HETATM    7  C   UNL     1      -7.947   8.687  69.045  1.00  0.00    -0.115 C  
HETATM    8  H   UNL     1      -6.523   8.818  70.422  1.00  0.00     0.000 HD 
HETATM    9  O   UNL     1      -6.846   9.336  69.693  1.00  0.00    -0.051 OA 
BRANCH   7  10
HETATM   10  C   UNL     1      -9.043   8.401  70.053  1.00  0.00    -0.150 A  
HETATM   11  C   UNL     1     -10.391   8.285  69.674  1.00  0.00    -0.218 A  
HETATM   12  C   UNL     1     -11.360   8.014  70.635  1.00  0.00    -0.252 A  
HETATM   13  O   UNL     1     -12.687   7.909  70.315  1.00  0.00    -0.016 OA 
HETATM   14  C   UNL     1     -11.004   7.845  71.970  1.00  0.00    -0.274 A  
HETATM   15  H   UNL     1     -13.348   7.724  70.970  1.00  0.00     0.000 HD 
HETATM   16  C   UNL     1      -9.680   7.939  72.365  1.00  0.00    -0.275 A  
HETATM   17  O   UNL     1     -11.965   7.591  72.905  1.00  0.00    -0.576 OA 
HETATM   18  C   UNL     1      -8.701   8.215  71.408  1.00  0.00    -0.179 A  
HETATM   19  H   UNL     1     -11.721   7.477  73.816  1.00  0.00     0.000 HD 
ENDBRANCH   7  10
ENDBRANCH   6   7
ENDBRANCH   4   6
ENDBRANCH   2   4
TORSDOF 4
ENDMDL
MODEL      289
REMARK 921   NORMALIZED FREE ENERGY PREDICTED BY IDOCK:   -2.17 KCAL/MOL
REMARK 922        TOTAL FREE ENERGY PREDICTED BY IDOCK:   -2.97 KCAL/MOL
REMARK 923 INTER-LIGAND FREE ENERGY PREDICTED BY IDOCK:   -2.74 KCAL/MOL
REMARK 924 INTRA-LIGAND FREE ENERGY PREDICTED BY IDOCK:   -0.22 KCAL/MOL
REMARK 927      BINDING AFFINITY PREDICTED BY RF-SCORE:    0.00 PKD
ROOT
HETATM    1  C   UNL     1      -6.855  13.027  68.804  1.00  0.00    -0.102 C  
HETATM    2  C   UNL     1      -7.157  11.526  68.790  1.00  0.00    -0.108 C  
HETATM    3  C   UNL     1      -6.431  10.852  69.958  1.00  0.00    -0.151 C  
ENDROOT
BRANCH   2   4
HETATM    4  N   UNL     1      -8.612  11.347  68.862  1.00  0.00    -0.354 NA 
HETATM    5  H   UNL     1      -9.091  12.132  68.420  1.00  0.00     0.000 HD 
BRANCH   4   6
HETATM    6  C   UNL     1      -9.085  10.071  68.304  1.00  0.00    -0.122 C  
BRANCH   6   7
HETATM    7  C   UNL     1     -10.352   9.567  69.044  1.00  0.00    -0.206 C  
HETATM    8  H   UNL     1     -12.311   9.513  68.728  1.00  0.00     0.000 HD 
HETATM    9  O   UNL     1     -11.534   9.821  68.275  1.00  0.00    -0.001 OA 
BRANCH   7  10
HETATM   10  C   UNL     1     -10.256   8.090  69.369  1.00  0.00    -0.210 A  
HETATM   11  C   UNL     1     -10.840   7.543  70.525  1.00  0.00    -0.252 A  
HETATM   12  C   UNL     1     -10.732   6.179  70.777  1.00  0.00    -0.266 A  
HETATM   13  O   UNL     1     -11.270   5.606  71.897  1.00  0.00    -0.249 OA 
HETATM   14  C   UNL     1     -10.058   5.348  69.886  1.00  0.00    -0.252 A  
HETATM   15  H   UNL     1     -11.196   4.675  72.069  1.00  0.00     0.000 HD 
HETATM   16  C   UNL     1      -9.489   5.860  68.733  1.00  0.00    -0.143 A  
HETATM   17  O   UNL     1      -9.949   4.013  70.150  1.00  0.00    -0.188 OA 
HETATM   18  C   UNL     1      -9.588   7.229  68.474  1.00  0.00    -0.140 A  
HETATM   19  H   UNL     1      -9.489   3.446  69.543  1.00  0.00     0.000 HD 
ENDBRANCH   7  10
ENDBRANCH   6   7
ENDBRANCH   4   6
ENDBRANCH   2   4
TORSDOF 4
ENDMDL
MODEL      290
REMARK 921   NORMALIZED FREE ENERGY PREDICTED BY IDOCK:   -2.16 KCAL/MOL
REMARK 922        TOTAL FREE ENERGY PREDICTED BY IDOCK:   -2.95 KCAL/MOL
REMARK 923 INTER-LIGAND FREE ENERGY PREDICTED BY IDOCK:   -2.60 KCAL/MOL
REMARK 924 INTRA-LIGAND FREE ENERGY PREDICTED BY IDOCK:   -0.34 KCAL/MOL
REMARK 927      BINDING AFFINITY PREDICTED BY RF-SCORE:    0.00 PKD
ROOT
HETATM    1  C   UNL     1     -10.711   7.149  70.815  1.00  0.00    -0.251 C  
HETATM    2  C   UNL     1      -9.365   6.946  71.517  1.00  0.00    -0.155 C  
HETATM    3  C   UNL     1      -9.399   5.635  72.307  1.00  0.00    -0.157 C  
ENDROOT
BRANCH   2   4
HETATM    4  N   UNL     1      -8.309   6.954  70.498  1.00  0.00    -0.127 NA 
HETATM    5  H   UNL     1      -7.855   6.042  70.445  1.00  0.00     0.000 HD 
BRANCH   4   6
HETATM    6  C   UNL     1      -8.767   7.382  69.167  1.00  0.00    -0.136 C  
BRANCH   6   7
HETATM    7  C   UNL     1      -7.781   6.927  68.059  1.00  0.00    -0.113 C  
HETATM    8  H   UNL     1      -5.958   6.149  67.946  1.00  0.00     0.000 HD 
HETATM    9  O   UNL     1      -6.563   6.428  68.624  1.00  0.00    -0.047 OA 
BRANCH   7  10
HETATM   10  C   UNL     1      -8.401   5.875  67.161  1.00  0.00    -0.105 A  
HETATM   11  C   UNL     1      -8.424   6.010  65.762  1.00  0.00    -0.146 A  
HETATM   12  C   UNL     1      -8.997   5.013  64.978  1.00  0.00    -0.130 A  
HETATM   13  O   UNL     1      -9.056   5.110  63.615  1.00  0.00    -0.348 OA 
HETATM   14  C   UNL     1      -9.539   3.876  65.569  1.00  0.00    -0.184 A  
HETATM   15  H   UNL     1      -9.447   4.430  63.080  1.00  0.00     0.000 HD 
HETATM   16  C   UNL     1      -9.515   3.712  66.943  1.00  0.00    -0.213 A  
HETATM   17  O   UNL     1     -10.109   2.910  64.790  1.00  0.00    -0.368 OA 
HETATM   18  C   UNL     1      -8.945   4.709  67.738  1.00  0.00    -0.126 A  
HETATM   19  H   UNL     1     -10.480   2.134  65.193  1.00  0.00     0.000 HD 
ENDBRANCH   7  10
ENDBRANCH   6   7
ENDBRANCH   4   6
ENDBRANCH   2   4
TORSDOF 4
ENDMDL
MODEL      291
REMARK 921   NORMALIZED FREE ENERGY PREDICTED BY IDOCK:   -2.15 KCAL/MOL
REMARK 922        TOTAL FREE ENERGY PREDICTED BY IDOCK:   -2.94 KCAL/MOL
REMARK 923 INTER-LIGAND FREE ENERGY PREDICTED BY IDOCK:   -2.86 KCAL/MOL
REMARK 924 INTRA-LIGAND FREE ENERGY PREDICTED BY IDOCK:   -0.09 KCAL/MOL
REMARK 927      BINDING AFFINITY PREDICTED BY RF-SCORE:    0.00 PKD
ROOT
HETATM    1  C   UNL     1      -8.749   6.546  70.641  1.00  0.00    -0.144 C  
HETATM    2  C   UNL     1      -7.568   7.075  69.822  1.00  0.00    -0.104 C  
HETATM    3  C   UNL     1      -7.333   6.156  68.621  1.00  0.00    -0.086 C  
ENDROOT
BRANCH   2   4
HETATM    4  N   UNL     1      -7.869   8.453  69.418  1.00  0.00    -0.101 NA 
HETATM    5  H   UNL     1      -8.095   8.494  68.424  1.00  0.00     0.000 HD 
BRANCH   4   6
HETATM    6  C   UNL     1      -8.928   9.091  70.215  1.00  0.00    -0.198 C  
BRANCH   6   7
HETATM    7  C   UNL     1     -10.220   9.290  69.380  1.00  0.00    -0.210 C  
HETATM    8  H   UNL     1     -12.170   9.461  69.713  1.00  0.00     0.000 HD 
HETATM    9  O   UNL     1     -11.378   9.339  70.224  1.00  0.00    -0.250 OA 
BRANCH   7  10
HETATM   10  C   UNL     1     -10.147  10.543  68.531  1.00  0.00    -0.187 A  
HETATM   11  C   UNL     1     -10.470  11.810  69.046  1.00  0.00    -0.131 A  
HETATM   12  C   UNL     1     -10.380  12.933  68.230  1.00  0.00    -0.244 A  
HETATM   13  O   UNL     1     -10.701  14.184  68.683  1.00  0.00    -0.241 OA 
HETATM   14  C   UNL     1      -9.962  12.814  66.907  1.00  0.00    -0.232 A  
HETATM   15  H   UNL     1     -10.639  14.951  68.126  1.00  0.00     0.000 HD 
HETATM   16  C   UNL     1      -9.623  11.579  66.382  1.00  0.00    -0.230 A  
HETATM   17  O   UNL     1      -9.889  13.921  66.113  1.00  0.00    -0.294 OA 
HETATM   18  C   UNL     1      -9.714  10.445  67.193  1.00  0.00    -0.206 A  
HETATM   19  H   UNL     1      -9.604  13.839  65.211  1.00  0.00     0.000 HD 
ENDBRANCH   7  10
ENDBRANCH   6   7
ENDBRANCH   4   6
ENDBRANCH   2   4
TORSDOF 4
ENDMDL
MODEL      292
REMARK 921   NORMALIZED FREE ENERGY PREDICTED BY IDOCK:   -2.12 KCAL/MOL
REMARK 922        TOTAL FREE ENERGY PREDICTED BY IDOCK:   -2.90 KCAL/MOL
REMARK 923 INTER-LIGAND FREE ENERGY PREDICTED BY IDOCK:   -2.72 KCAL/MOL
REMARK 924 INTRA-LIGAND FREE ENERGY PREDICTED BY IDOCK:   -0.18 KCAL/MOL
REMARK 927      BINDING AFFINITY PREDICTED BY RF-SCORE:    0.00 PKD
ROOT
HETATM    1  C   UNL     1     -10.620   8.199  69.949  1.00  0.00    -0.239 C  
HETATM    2  C   UNL     1      -9.582   9.281  69.637  1.00  0.00    -0.183 C  
HETATM    3  C   UNL     1      -8.178   8.721  69.879  1.00  0.00    -0.118 C  
ENDROOT
BRANCH   2   4
HETATM    4  N   UNL     1      -9.775   9.719  68.250  1.00  0.00    -0.144 NA 
HETATM    5  H   UNL     1     -10.455   9.123  67.777  1.00  0.00     0.000 HD 
BRANCH   4   6
HETATM    6  C   UNL     1     -10.148  11.136  68.118  1.00  0.00    -0.179 C  
BRANCH   6   7
HETATM    7  C   UNL     1      -9.323  11.834  67.005  1.00  0.00    -0.184 C  
HETATM    8  H   UNL     1      -9.473  12.162  65.053  1.00  0.00     0.000 HD 
HETATM    9  O   UNL     1      -9.979  11.734  65.735  1.00  0.00    -0.224 OA 
BRANCH   7  10
HETATM   10  C   UNL     1      -9.063  13.290  67.337  1.00  0.00    -0.216 A  
HETATM   11  C   UNL     1      -7.830  13.728  67.850  1.00  0.00    -0.159 A  
HETATM   12  C   UNL     1      -7.636  15.076  68.132  1.00  0.00    -0.111 A  
HETATM   13  O   UNL     1      -6.458  15.545  68.647  1.00  0.00    -0.099 OA 
HETATM   14  C   UNL     1      -8.651  16.000  67.900  1.00  0.00    -0.164 A  
HETATM   15  H   UNL     1      -6.325  16.466  68.839  1.00  0.00     0.000 HD 
HETATM   16  C   UNL     1      -9.869  15.595  67.380  1.00  0.00    -0.225 A  
HETATM   17  O   UNL     1      -8.453  17.318  68.191  1.00  0.00    -0.223 OA 
HETATM   18  C   UNL     1     -10.075  14.243  67.098  1.00  0.00    -0.254 A  
HETATM   19  H   UNL     1      -9.146  17.948  68.033  1.00  0.00     0.000 HD 
ENDBRANCH   7  10
ENDBRANCH   6   7
ENDBRANCH   4   6
ENDBRANCH   2   4
TORSDOF 4
ENDMDL
MODEL      293
REMARK 921   NORMALIZED FREE ENERGY PREDICTED BY IDOCK:   -2.08 KCAL/MOL
REMARK 922        TOTAL FREE ENERGY PREDICTED BY IDOCK:   -2.85 KCAL/MOL
REMARK 923 INTER-LIGAND FREE ENERGY PREDICTED BY IDOCK:   -3.00 KCAL/MOL
REMARK 924 INTRA-LIGAND FREE ENERGY PREDICTED BY IDOCK:    0.15 KCAL/MOL
REMARK 927      BINDING AFFINITY PREDICTED BY RF-SCORE:    0.00 PKD
ROOT
HETATM    1  C   UNL     1      -6.632  10.888  69.549  1.00  0.00    -0.109 C  
HETATM    2  C   UNL     1      -7.636   9.733  69.616  1.00  0.00    -0.120 C  
HETATM    3  C   UNL     1      -9.057  10.300  69.664  1.00  0.00    -0.149 C  
ENDROOT
BRANCH   2   4
HETATM    4  N   UNL     1      -7.421   8.868  68.451  1.00  0.00    -0.085 NA 
HETATM    5  H   UNL     1      -7.269   9.428  67.612  1.00  0.00     0.000 HD 
BRANCH   4   6
HETATM    6  C   UNL     1      -6.334   7.892  68.626  1.00  0.00    -0.048 C  
BRANCH   6   7
HETATM    7  C   UNL     1      -6.863   6.558  69.213  1.00  0.00    -0.065 C  
HETATM    8  H   UNL     1      -6.535   5.425  70.810  1.00  0.00     0.000 HD 
HETATM    9  O   UNL     1      -6.211   6.243  70.450  1.00  0.00    -0.033 OA 
BRANCH   7  10
HETATM   10  C   UNL     1      -8.365   6.597  69.418  1.00  0.00    -0.128 A  
HETATM   11  C   UNL     1      -9.265   6.521  68.342  1.00  0.00    -0.121 A  
HETATM   12  C   UNL     1     -10.635   6.554  68.581  1.00  0.00    -0.245 A  
HETATM   13  O   UNL     1     -11.548   6.499  67.563  1.00  0.00    -0.693 OA 
HETATM   14  C   UNL     1     -11.123   6.650  69.881  1.00  0.00    -0.348 A  
HETATM   15  H   UNL     1     -12.483   6.521  67.726  1.00  0.00     0.000 HD 
HETATM   16  C   UNL     1     -10.257   6.710  70.959  1.00  0.00    -0.214 A  
HETATM   17  O   UNL     1     -12.469   6.693  70.102  1.00  0.00    -0.500 OA 
HETATM   18  C   UNL     1      -8.879   6.683  70.728  1.00  0.00    -0.147 A  
HETATM   19  H   UNL     1     -12.802   6.759  70.989  1.00  0.00     0.000 HD 
ENDBRANCH   7  10
ENDBRANCH   6   7
ENDBRANCH   4   6
ENDBRANCH   2   4
TORSDOF 4
ENDMDL
MODEL      294
REMARK 921   NORMALIZED FREE ENERGY PREDICTED BY IDOCK:   -2.05 KCAL/MOL
REMARK 922        TOTAL FREE ENERGY PREDICTED BY IDOCK:   -2.82 KCAL/MOL
REMARK 923 INTER-LIGAND FREE ENERGY PREDICTED BY IDOCK:   -2.09 KCAL/MOL
REMARK 924 INTRA-LIGAND FREE ENERGY PREDICTED BY IDOCK:   -0.73 KCAL/MOL
REMARK 927      BINDING AFFINITY PREDICTED BY RF-SCORE:    0.00 PKD
ROOT
HETATM    1  C   UNL     1      -6.455   9.261  69.473  1.00  0.00    -0.043 C  
HETATM    2  C   UNL     1      -7.596   8.455  68.846  1.00  0.00    -0.096 C  
HETATM    3  C   UNL     1      -8.937   9.043  69.293  1.00  0.00    -0.144 C  
ENDROOT
BRANCH   2   4
HETATM    4  N   UNL     1      -7.434   8.484  67.388  1.00  0.00    -0.092 NA 
HETATM    5  H   UNL     1      -8.328   8.665  66.931  1.00  0.00     0.000 HD 
BRANCH   4   6
HETATM    6  C   UNL     1      -6.413   9.435  66.921  1.00  0.00    -0.067 C  
BRANCH   6   7
HETATM    7  C   UNL     1      -7.032  10.519  66.001  1.00  0.00    -0.134 C  
HETATM    8  H   UNL     1      -8.419  10.624  64.584  1.00  0.00     0.000 HD 
HETATM    9  O   UNL     1      -8.039   9.960  65.148  1.00  0.00    -0.125 OA 
BRANCH   7  10
HETATM   10  C   UNL     1      -7.616  11.664  66.805  1.00  0.00    -0.104 A  
HETATM   11  C   UNL     1      -9.002  11.881  66.893  1.00  0.00    -0.196 A  
HETATM   12  C   UNL     1      -9.491  12.941  67.650  1.00  0.00    -0.197 A  
HETATM   13  O   UNL     1     -10.831  13.199  67.751  1.00  0.00    -0.236 OA 
HETATM   14  C   UNL     1      -8.617  13.784  68.331  1.00  0.00    -0.156 A  
HETATM   15  H   UNL     1     -11.165  13.923  68.268  1.00  0.00     0.000 HD 
HETATM   16  C   UNL     1      -7.249  13.581  68.273  1.00  0.00    -0.111 A  
HETATM   17  O   UNL     1      -9.109  14.827  69.061  1.00  0.00    -0.241 OA 
HETATM   18  C   UNL     1      -6.749  12.522  67.512  1.00  0.00    -0.151 A  
HETATM   19  H   UNL     1      -8.512  15.403  69.526  1.00  0.00     0.000 HD 
ENDBRANCH   7  10
ENDBRANCH   6   7
ENDBRANCH   4   6
ENDBRANCH   2   4
TORSDOF 4
ENDMDL
MODEL      295
REMARK 921   NORMALIZED FREE ENERGY PREDICTED BY IDOCK:   -1.96 KCAL/MOL
REMARK 922        TOTAL FREE ENERGY PREDICTED BY IDOCK:   -2.71 KCAL/MOL
REMARK 923 INTER-LIGAND FREE ENERGY PREDICTED BY IDOCK:   -2.06 KCAL/MOL
REMARK 924 INTRA-LIGAND FREE ENERGY PREDICTED BY IDOCK:   -0.65 KCAL/MOL
REMARK 927      BINDING AFFINITY PREDICTED BY RF-SCORE:    0.00 PKD
ROOT
HETATM    1  C   UNL     1      -9.782   6.207  67.226  1.00  0.00    -0.146 C  
HETATM    2  C   UNL     1      -9.603   4.727  66.878  1.00  0.00    -0.172 C  
HETATM    3  C   UNL     1     -10.426   4.396  65.630  1.00  0.00    -0.224 C  
ENDROOT
BRANCH   2   4
HETATM    4  N   UNL     1      -8.171   4.469  66.685  1.00  0.00    -0.103 NA 
HETATM    5  H   UNL     1      -7.885   3.633  67.196  1.00  0.00     0.000 HD 
BRANCH   4   6
HETATM    6  C   UNL     1      -7.767   4.374  65.273  1.00  0.00    -0.086 C  
BRANCH   6   7
HETATM    7  C   UNL     1      -6.507   5.234  64.990  1.00  0.00    -0.039 C  
HETATM    8  H   UNL     1      -5.137   5.402  63.563  1.00  0.00     0.000 HD 
HETATM    9  O   UNL     1      -5.909   4.875  63.738  1.00  0.00    -0.017 OA 
BRANCH   7  10
HETATM   10  C   UNL     1      -6.830   6.715  65.001  1.00  0.00    -0.050 A  
HETATM   11  C   UNL     1      -7.898   7.249  64.262  1.00  0.00    -0.125 A  
HETATM   12  C   UNL     1      -8.160   8.615  64.310  1.00  0.00    -0.158 A  
HETATM   13  O   UNL     1      -9.179   9.182  63.595  1.00  0.00    -0.397 OA 
HETATM   14  C   UNL     1      -7.377   9.457  65.096  1.00  0.00    -0.104 A  
HETATM   15  H   UNL     1      -9.358  10.114  63.628  1.00  0.00     0.000 HD 
HETATM   16  C   UNL     1      -6.329   8.951  65.846  1.00  0.00    -0.056 A  
HETATM   17  O   UNL     1      -7.637  10.796  65.126  1.00  0.00    -0.342 OA 
HETATM   18  C   UNL     1      -6.056   7.582  65.799  1.00  0.00    -0.038 A  
HETATM   19  H   UNL     1      -7.102  11.370  65.662  1.00  0.00     0.000 HD 
ENDBRANCH   7  10
ENDBRANCH   6   7
ENDBRANCH   4   6
ENDBRANCH   2   4
TORSDOF 4
ENDMDL
MODEL      296
REMARK 921   NORMALIZED FREE ENERGY PREDICTED BY IDOCK:   -1.87 KCAL/MOL
REMARK 922        TOTAL FREE ENERGY PREDICTED BY IDOCK:   -2.60 KCAL/MOL
REMARK 923 INTER-LIGAND FREE ENERGY PREDICTED BY IDOCK:   -2.32 KCAL/MOL
REMARK 924 INTRA-LIGAND FREE ENERGY PREDICTED BY IDOCK:   -0.28 KCAL/MOL
REMARK 927      BINDING AFFINITY PREDICTED BY RF-SCORE:    0.00 PKD
ROOT
HETATM    1  C   UNL     1      -6.768  10.238  69.950  1.00  0.00    -0.125 C  
HETATM    2  C   UNL     1      -8.175   9.638  69.886  1.00  0.00    -0.174 C  
HETATM    3  C   UNL     1      -9.141  10.672  69.302  1.00  0.00    -0.117 C  
ENDROOT
BRANCH   2   4
HETATM    4  N   UNL     1      -8.118   8.413  69.079  1.00  0.00    -0.115 NA 
HETATM    5  H   UNL     1      -8.172   7.588  69.676  1.00  0.00     0.000 HD 
BRANCH   4   6
HETATM    6  C   UNL     1      -9.134   8.350  68.017  1.00  0.00    -0.137 C  
BRANCH   6   7
HETATM    7  C   UNL     1      -8.530   7.817  66.691  1.00  0.00    -0.129 C  
HETATM    8  H   UNL     1      -6.757   7.775  65.799  1.00  0.00     0.000 HD 
HETATM    9  O   UNL     1      -7.127   8.101  66.611  1.00  0.00    -0.074 OA 
BRANCH   7  10
HETATM   10  C   UNL     1      -8.764   6.328  66.532  1.00  0.00    -0.131 A  
HETATM   11  C   UNL     1      -9.855   5.820  65.807  1.00  0.00     0.151 A  
HETATM   12  C   UNL     1     -10.024   4.444  65.682  1.00  0.00    -0.236 A  
HETATM   13  O   UNL     1     -11.080   3.904  65.000  1.00  0.00    -0.545 OA 
HETATM   14  C   UNL     1      -9.113   3.565  66.261  1.00  0.00    -0.157 A  
HETATM   15  H   UNL     1     -11.195   2.966  64.914  1.00  0.00     0.000 HD 
HETATM   16  C   UNL     1      -8.021   4.042  66.967  1.00  0.00    -0.096 A  
HETATM   17  O   UNL     1      -9.296   2.218  66.142  1.00  0.00    -0.333 OA 
HETATM   18  C   UNL     1      -7.846   5.422  67.101  1.00  0.00    -0.101 A  
HETATM   19  H   UNL     1      -8.674   1.619  66.538  1.00  0.00     0.000 HD 
ENDBRANCH   7  10
ENDBRANCH   6   7
ENDBRANCH   4   6
ENDBRANCH   2   4
TORSDOF 4
ENDMDL
MODEL      297
REMARK 921   NORMALIZED FREE ENERGY PREDICTED BY IDOCK:   -1.85 KCAL/MOL
REMARK 922        TOTAL FREE ENERGY PREDICTED BY IDOCK:   -2.57 KCAL/MOL
REMARK 923 INTER-LIGAND FREE ENERGY PREDICTED BY IDOCK:   -2.51 KCAL/MOL
REMARK 924 INTRA-LIGAND FREE ENERGY PREDICTED BY IDOCK:   -0.06 KCAL/MOL
REMARK 927      BINDING AFFINITY PREDICTED BY RF-SCORE:    0.00 PKD
ROOT
HETATM    1  C   UNL     1      -6.325   5.515  72.184  1.00  0.00    -0.047 C  
HETATM    2  C   UNL     1      -6.142   6.031  70.754  1.00  0.00    -0.030 C  
HETATM    3  C   UNL     1      -5.740   4.867  69.843  1.00  0.00    -0.016 C  
ENDROOT
BRANCH   2   4
HETATM    4  N   UNL     1      -7.397   6.662  70.328  1.00  0.00    -0.083 NA 
HETATM    5  H   UNL     1      -7.246   7.648  70.111  1.00  0.00     0.000 HD 
BRANCH   4   6
HETATM    6  C   UNL     1      -8.058   5.980  69.205  1.00  0.00    -0.111 C  
BRANCH   6   7
HETATM    7  C   UNL     1      -9.561   6.354  69.124  1.00  0.00    -0.136 C  
HETATM    8  H   UNL     1     -11.226   5.960  70.130  1.00  0.00     0.000 HD 
HETATM    9  O   UNL     1     -10.305   5.732  70.179  1.00  0.00    -0.213 OA 
BRANCH   7  10
HETATM   10  C   UNL     1      -9.763   7.855  69.167  1.00  0.00    -0.162 A  
HETATM   11  C   UNL     1     -10.749   8.451  69.973  1.00  0.00    -0.236 A  
HETATM   12  C   UNL     1     -10.892   9.834  69.984  1.00  0.00    -0.278 A  
HETATM   13  O   UNL     1     -11.848  10.456  70.741  1.00  0.00    -0.312 OA 
HETATM   14  C   UNL     1     -10.058  10.637  69.211  1.00  0.00    -0.206 A  
HETATM   15  H   UNL     1     -11.945  11.401  70.749  1.00  0.00     0.000 HD 
HETATM   16  C   UNL     1      -9.069  10.075  68.421  1.00  0.00    -0.121 A  
HETATM   17  O   UNL     1     -10.216  11.993  69.222  1.00  0.00    -0.418 OA 
HETATM   18  C   UNL     1      -8.921   8.686  68.400  1.00  0.00    -0.142 A  
HETATM   19  H   UNL     1      -9.647  12.540  68.693  1.00  0.00     0.000 HD 
ENDBRANCH   7  10
ENDBRANCH   6   7
ENDBRANCH   4   6
ENDBRANCH   2   4
TORSDOF 4
ENDMDL
MODEL      298
REMARK 921   NORMALIZED FREE ENERGY PREDICTED BY IDOCK:   -1.72 KCAL/MOL
REMARK 922        TOTAL FREE ENERGY PREDICTED BY IDOCK:   -2.41 KCAL/MOL
REMARK 923 INTER-LIGAND FREE ENERGY PREDICTED BY IDOCK:   -2.17 KCAL/MOL
REMARK 924 INTRA-LIGAND FREE ENERGY PREDICTED BY IDOCK:   -0.24 KCAL/MOL
REMARK 927      BINDING AFFINITY PREDICTED BY RF-SCORE:    0.00 PKD
ROOT
HETATM    1  C   UNL     1     -10.717  14.533  68.647  1.00  0.00    -0.257 C  
HETATM    2  C   UNL     1     -11.530  13.273  68.335  1.00  0.00    -0.314 C  
HETATM    3  C   UNL     1     -12.020  13.332  66.886  1.00  0.00    -0.430 C  
ENDROOT
BRANCH   2   4
HETATM    4  N   UNL     1     -10.681  12.103  68.588  1.00  0.00    -0.229 NA 
HETATM    5  H   UNL     1     -11.155  11.247  68.297  1.00  0.00     0.000 HD 
BRANCH   4   6
HETATM    6  C   UNL     1      -9.347  12.190  67.975  1.00  0.00    -0.197 C  
BRANCH   6   7
HETATM    7  C   UNL     1      -8.317  11.318  68.740  1.00  0.00    -0.120 C  
HETATM    8  H   UNL     1      -8.327  10.000  70.224  1.00  0.00     0.000 HD 
HETATM    9  O   UNL     1      -8.957  10.534  69.755  1.00  0.00    -0.054 OA 
BRANCH   7  10
HETATM   10  C   UNL     1      -7.545  10.414  67.800  1.00  0.00    -0.089 A  
HETATM   11  C   UNL     1      -8.177   9.409  67.048  1.00  0.00    -0.116 A  
HETATM   12  C   UNL     1      -7.427   8.609  66.192  1.00  0.00    -0.086 A  
HETATM   13  O   UNL     1      -7.997   7.607  65.454  1.00  0.00    -0.108 OA 
HETATM   14  C   UNL     1      -6.054   8.803  66.066  1.00  0.00    -0.052 A  
HETATM   15  H   UNL     1      -7.485   7.061  64.869  1.00  0.00     0.000 HD 
HETATM   16  C   UNL     1      -5.412   9.797  66.783  1.00  0.00    -0.045 A  
HETATM   17  O   UNL     1      -5.328   8.003  65.232  1.00  0.00    -0.028 OA 
HETATM   18  C   UNL     1      -6.156  10.602  67.648  1.00  0.00    -0.048 A  
HETATM   19  H   UNL     1      -4.391   8.136  65.146  1.00  0.00     0.000 HD 
ENDBRANCH   7  10
ENDBRANCH   6   7
ENDBRANCH   4   6
ENDBRANCH   2   4
TORSDOF 4
ENDMDL
MODEL      299
REMARK 921   NORMALIZED FREE ENERGY PREDICTED BY IDOCK:   -1.69 KCAL/MOL
REMARK 922        TOTAL FREE ENERGY PREDICTED BY IDOCK:   -2.37 KCAL/MOL
REMARK 923 INTER-LIGAND FREE ENERGY PREDICTED BY IDOCK:   -2.15 KCAL/MOL
REMARK 924 INTRA-LIGAND FREE ENERGY PREDICTED BY IDOCK:   -0.22 KCAL/MOL
REMARK 927      BINDING AFFINITY PREDICTED BY RF-SCORE:    0.00 PKD
ROOT
HETATM    1  C   UNL     1     -10.540   5.157  73.714  1.00  0.00    -0.331 C  
HETATM    2  C   UNL     1      -9.744   6.199  72.924  1.00  0.00    -0.158 C  
HETATM    3  C   UNL     1      -8.276   6.149  73.358  1.00  0.00    -0.112 C  
ENDROOT
BRANCH   2   4
HETATM    4  N   UNL     1      -9.911   5.919  71.494  1.00  0.00    -0.165 NA 
HETATM    5  H   UNL     1     -10.696   6.449  71.114  1.00  0.00     0.000 HD 
BRANCH   4   6
HETATM    6  C   UNL     1      -8.697   6.150  70.695  1.00  0.00    -0.139 C  
BRANCH   6   7
HETATM    7  C   UNL     1      -9.016   6.168  69.177  1.00  0.00    -0.126 C  
HETATM    8  H   UNL     1     -10.607   5.950  68.010  1.00  0.00     0.000 HD 
HETATM    9  O   UNL     1     -10.411   5.939  68.940  1.00  0.00    -0.184 OA 
BRANCH   7  10
HETATM   10  C   UNL     1      -8.591   7.473  68.534  1.00  0.00    -0.129 A  
HETATM   11  C   UNL     1      -9.387   8.629  68.602  1.00  0.00    -0.142 A  
HETATM   12  C   UNL     1      -8.951   9.807  68.003  1.00  0.00    -0.118 A  
HETATM   13  O   UNL     1      -9.700  10.952  68.029  1.00  0.00    -0.159 OA 
HETATM   14  C   UNL     1      -7.725   9.853  67.345  1.00  0.00    -0.091 A  
HETATM   15  H   UNL     1      -9.402  11.756  67.621  1.00  0.00     0.000 HD 
HETATM   16  C   UNL     1      -6.916   8.731  67.279  1.00  0.00    -0.075 A  
HETATM   17  O   UNL     1      -7.314  11.010  66.751  1.00  0.00    -0.124 OA 
HETATM   18  C   UNL     1      -7.348   7.543  67.874  1.00  0.00    -0.099 A  
HETATM   19  H   UNL     1      -6.477  11.041  66.301  1.00  0.00     0.000 HD 
ENDBRANCH   7  10
ENDBRANCH   6   7
ENDBRANCH   4   6
ENDBRANCH   2   4
TORSDOF 4
ENDMDL
MODEL      300
REMARK 921   NORMALIZED FREE ENERGY PREDICTED BY IDOCK:   -1.62 KCAL/MOL
REMARK 922        TOTAL FREE ENERGY PREDICTED BY IDOCK:   -2.28 KCAL/MOL
REMARK 923 INTER-LIGAND FREE ENERGY PREDICTED BY IDOCK:   -1.93 KCAL/MOL
REMARK 924 INTRA-LIGAND FREE ENERGY PREDICTED BY IDOCK:   -0.36 KCAL/MOL
REMARK 927      BINDING AFFINITY PREDICTED BY RF-SCORE:    0.00 PKD
ROOT
HETATM    1  C   UNL     1      -6.771  10.755  69.489  1.00  0.00    -0.108 C  
HETATM    2  C   UNL     1      -7.642  10.247  68.337  1.00  0.00    -0.092 C  
HETATM    3  C   UNL     1      -8.943  11.053  68.292  1.00  0.00    -0.155 C  
ENDROOT
BRANCH   2   4
HETATM    4  N   UNL     1      -6.873  10.364  67.092  1.00  0.00    -0.081 NA 
HETATM    5  H   UNL     1      -6.057  10.961  67.230  1.00  0.00     0.000 HD 
BRANCH   4   6
HETATM    6  C   UNL     1      -6.476   9.071  66.513  1.00  0.00    -0.067 C  
BRANCH   6   7
HETATM    7  C   UNL     1      -7.516   8.575  65.475  1.00  0.00    -0.085 C  
HETATM    8  H   UNL     1      -7.567   8.153  63.536  1.00  0.00     0.000 HD 
HETATM    9  O   UNL     1      -6.930   8.457  64.173  1.00  0.00    -0.076 OA 
BRANCH   7  10
HETATM   10  C   UNL     1      -8.126   7.250  65.888  1.00  0.00    -0.125 A  
HETATM   11  C   UNL     1      -8.610   7.026  67.188  1.00  0.00    -0.121 A  
HETATM   12  C   UNL     1      -9.169   5.795  67.517  1.00  0.00    -0.108 A  
HETATM   13  O   UNL     1      -9.638   5.527  68.774  1.00  0.00    -0.124 OA 
HETATM   14  C   UNL     1      -9.262   4.785  66.564  1.00  0.00    -0.133 A  
HETATM   15  H   UNL     1     -10.019   4.687  68.999  1.00  0.00     0.000 HD 
HETATM   16  C   UNL     1      -8.807   4.986  65.273  1.00  0.00    -0.153 A  
HETATM   17  O   UNL     1      -9.802   3.577  66.903  1.00  0.00    -0.381 OA 
HETATM   18  C   UNL     1      -8.241   6.218  64.934  1.00  0.00    -0.119 A  
HETATM   19  H   UNL     1      -9.865   2.888  66.253  1.00  0.00     0.000 HD 
ENDBRANCH   7  10
ENDBRANCH   6   7
ENDBRANCH   4   6
ENDBRANCH   2   4
TORSDOF 4
ENDMDL
MODEL      301
REMARK 921   NORMALIZED FREE ENERGY PREDICTED BY IDOCK:   -1.58 KCAL/MOL
REMARK 922        TOTAL FREE ENERGY PREDICTED BY IDOCK:   -2.24 KCAL/MOL
REMARK 923 INTER-LIGAND FREE ENERGY PREDICTED BY IDOCK:   -2.03 KCAL/MOL
REMARK 924 INTRA-LIGAND FREE ENERGY PREDICTED BY IDOCK:   -0.21 KCAL/MOL
REMARK 927      BINDING AFFINITY PREDICTED BY RF-SCORE:    0.00 PKD
ROOT
HETATM    1  C   UNL     1      -9.965   6.583  72.306  1.00  0.00    -0.176 C  
HETATM    2  C   UNL     1      -9.308   6.986  70.982  1.00  0.00    -0.159 C  
HETATM    3  C   UNL     1      -7.844   6.539  70.987  1.00  0.00    -0.110 C  
ENDROOT
BRANCH   2   4
HETATM    4  N   UNL     1     -10.072   6.379  69.886  1.00  0.00    -0.167 NA 
HETATM    5  H   UNL     1     -10.702   7.062  69.467  1.00  0.00     0.000 HD 
BRANCH   4   6
HETATM    6  C   UNL     1      -9.234   5.747  68.854  1.00  0.00    -0.115 C  
BRANCH   6   7
HETATM    7  C   UNL     1     -10.098   5.176  67.699  1.00  0.00    -0.157 C  
HETATM    8  H   UNL     1     -11.628   5.766  66.581  1.00  0.00     0.000 HD 
HETATM    9  O   UNL     1     -11.098   6.116  67.288  1.00  0.00    -0.333 OA 
BRANCH   7  10
HETATM   10  C   UNL     1      -9.245   4.778  66.511  1.00  0.00    -0.133 A  
HETATM   11  C   UNL     1      -9.539   5.211  65.206  1.00  0.00     0.038 A  
HETATM   12  C   UNL     1      -8.722   4.826  64.148  1.00  0.00    -0.141 A  
HETATM   13  O   UNL     1      -8.978   5.210  62.860  1.00  0.00    -0.292 OA 
HETATM   14  C   UNL     1      -7.608   4.022  64.372  1.00  0.00    -0.076 A  
HETATM   15  H   UNL     1      -8.421   4.948  62.137  1.00  0.00     0.000 HD 
HETATM   16  C   UNL     1      -7.289   3.596  65.650  1.00  0.00    -0.076 A  
HETATM   17  O   UNL     1      -6.821   3.641  63.324  1.00  0.00    -0.040 OA 
HETATM   18  C   UNL     1      -8.106   3.974  66.718  1.00  0.00    -0.097 A  
HETATM   19  H   UNL     1      -6.061   3.093  63.477  1.00  0.00     0.000 HD 
ENDBRANCH   7  10
ENDBRANCH   6   7
ENDBRANCH   4   6
ENDBRANCH   2   4
TORSDOF 4
ENDMDL
