MODEL        1
REMARK 921   NORMALIZED FREE ENERGY PREDICTED BY IDOCK:   -6.35 KCAL/MOL
REMARK 922        TOTAL FREE ENERGY PREDICTED BY IDOCK:  -12.02 KCAL/MOL
REMARK 923 INTER-LIGAND FREE ENERGY PREDICTED BY IDOCK:   -9.70 KCAL/MOL
REMARK 924 INTRA-LIGAND FREE ENERGY PREDICTED BY IDOCK:   -2.33 KCAL/MOL
REMARK 927      BINDING AFFINITY PREDICTED BY RF-SCORE:    0.00 PKD
ROOT
HETATM    1  C   UNL     1      -6.987   6.296  66.234  1.00  0.00    -0.066 C  
HETATM    2  C   UNL     1      -6.197   6.818  65.045  1.00  0.00    -0.039 C  
ENDROOT
BRANCH   2   3
HETATM    3  N   UNL     1      -7.043   7.638  64.161  1.00  0.00    -0.064 NA 
BRANCH   3   4
HETATM    4  C   UNL     1      -7.707   8.737  64.698  1.00  0.00    -0.119 A  
HETATM    5  C   UNL     1      -9.102   8.851  64.756  1.00  0.00    -0.007 A  
HETATM    6  C   UNL     1      -6.989   9.807  65.257  1.00  0.00    -0.111 A  
HETATM    7  C   UNL     1      -9.732   9.906  65.455  1.00  0.00    -0.370 A  
HETATM    8  C   UNL     1      -7.604  10.872  65.941  1.00  0.00    -0.057 A  
HETATM    9  C   UNL     1      -8.989  10.903  66.101  1.00  0.00    -0.196 A  
BRANCH   9  10
HETATM   10  C   UNL     1      -9.657  11.909  67.002  1.00  0.00    -0.196 C  
BRANCH  10  11
HETATM   11  C   UNL     1      -9.710  13.352  66.567  1.00  0.00    -0.284 A  
HETATM   12  O   UNL     1     -12.410  11.996  65.883  1.00  0.00    -0.463 OA 
HETATM   13  O   UNL     1     -11.667  12.671  63.558  1.00  0.00    -0.472 OA 
HETATM   14  C   UNL     1      -8.842  14.256  67.212  1.00  0.00    -0.224 A  
HETATM   15  C   UNL     1      -8.903  15.634  66.935  1.00  0.00    -0.250 A  
HETATM   16  O   UNL     1     -13.153  14.098  64.875  1.00  0.00    -0.677 OA 
HETATM   17  C   UNL     1      -9.712  16.134  65.921  1.00  0.00    -0.374 A  
HETATM   18  S   UNL     1     -11.974  12.994  64.934  1.00  0.00    -0.425 S  
HETATM   19  S   UNL     1      -8.101  16.767  68.039  1.00  0.00    -0.192 S  
HETATM   20  C   UNL     1     -10.546  15.254  65.246  1.00  0.00    -0.438 A  
HETATM   21  O   UNL     1      -6.533  16.438  67.885  1.00  0.00    -0.120 OA 
HETATM   22  O   UNL     1      -8.270  18.108  67.522  1.00  0.00    -0.233 OA 
HETATM   23  O   UNL     1      -8.519  16.401  69.375  1.00  0.00    -0.166 OA 
HETATM   24  C   UNL     1     -10.593  13.890  65.605  1.00  0.00    -0.301 A  
ENDBRANCH  10  11
BRANCH  10  25
HETATM   25  C   UNL     1     -10.060  11.554  68.262  1.00  0.00    -0.205 A  
HETATM   26  C   UNL     1     -11.196  12.184  68.941  1.00  0.00    -0.320 A  
HETATM   27  C   UNL     1      -9.302  10.606  69.091  1.00  0.00    -0.174 A  
HETATM   28  C   UNL     1      -9.885   9.965  70.118  1.00  0.00    -0.272 A  
HETATM   29  C   UNL     1     -11.796  11.594  69.989  1.00  0.00    -0.435 A  
HETATM   30  C   UNL     1     -11.321  10.250  70.467  1.00  0.00    -0.341 A  
BRANCH  30  31
HETATM   31  N   UNL     1     -12.078   9.414  71.128  1.00  0.00    -0.313 NA 
BRANCH  31  32
HETATM   32  C   UNL     1     -11.696   7.960  71.354  1.00  0.00    -0.281 C  
HETATM   33  C   UNL     1     -11.074   7.751  72.721  1.00  0.00    -0.457 C  
ENDBRANCH  31  32
BRANCH  31  34
HETATM   34  C   UNL     1     -13.291   9.864  71.920  1.00  0.00    -0.424 C  
HETATM   35  C   UNL     1     -14.372   8.801  71.909  1.00  0.00    -0.441 C  
ENDBRANCH  31  34
ENDBRANCH  30  31
ENDBRANCH  10  25
ENDBRANCH   9  10
ENDBRANCH   3   4
BRANCH   3  36
HETATM   36  C   UNL     1      -7.345   7.072  62.840  1.00  0.00    -0.081 C  
HETATM   37  C   UNL     1      -7.956   5.687  62.991  1.00  0.00    -0.104 C  
ENDBRANCH   3  36
ENDBRANCH   2   3
TORSDOF 9
ENDMDL
MODEL        2
REMARK 921   NORMALIZED FREE ENERGY PREDICTED BY IDOCK:   -6.16 KCAL/MOL
REMARK 922        TOTAL FREE ENERGY PREDICTED BY IDOCK:  -11.73 KCAL/MOL
REMARK 923 INTER-LIGAND FREE ENERGY PREDICTED BY IDOCK:   -9.91 KCAL/MOL
REMARK 924 INTRA-LIGAND FREE ENERGY PREDICTED BY IDOCK:   -1.82 KCAL/MOL
REMARK 927      BINDING AFFINITY PREDICTED BY RF-SCORE:    0.00 PKD
ROOT
HETATM    1  C   UNL     1      -5.380  20.886  67.523  1.00  0.00    -0.272 C  
HETATM    2  C   UNL     1      -6.702  20.897  66.771  1.00  0.00    -0.297 C  
ENDROOT
BRANCH   2   3
HETATM    3  N   UNL     1      -6.785  19.774  65.822  1.00  0.00    -0.242 NA 
BRANCH   3   4
HETATM    4  C   UNL     1      -7.503  18.639  66.188  1.00  0.00    -0.255 A  
HETATM    5  C   UNL     1      -6.935  17.364  66.307  1.00  0.00    -0.319 A  
HETATM    6  C   UNL     1      -8.870  18.723  66.499  1.00  0.00    -0.315 A  
HETATM    7  C   UNL     1      -7.662  16.274  66.838  1.00  0.00    -0.278 A  
HETATM    8  C   UNL     1      -9.611  17.642  67.012  1.00  0.00    -0.276 A  
HETATM    9  C   UNL     1      -8.996  16.412  67.246  1.00  0.00    -0.208 A  
BRANCH   9  10
HETATM   10  C   UNL     1      -9.701  15.306  67.986  1.00  0.00    -0.211 C  
BRANCH  10  11
HETATM   11  C   UNL     1      -9.370  13.875  67.641  1.00  0.00    -0.205 A  
HETATM   12  O   UNL     1     -10.673  15.228  65.178  1.00  0.00    -0.376 OA 
HETATM   13  O   UNL     1     -12.353  13.379  65.591  1.00  0.00    -0.430 OA 
HETATM   14  C   UNL     1      -8.351  13.247  68.385  1.00  0.00    -0.131 A  
HETATM   15  C   UNL     1      -7.915  11.950  68.058  1.00  0.00    -0.147 A  
HETATM   16  O   UNL     1     -10.527  13.094  63.991  1.00  0.00    -0.405 OA 
HETATM   17  C   UNL     1      -8.564  11.191  67.090  1.00  0.00    -0.139 A  
HETATM   18  S   UNL     1     -11.002  13.832  65.348  1.00  0.00    -0.321 S  
HETATM   19  S   UNL     1      -6.385  11.364  68.735  1.00  0.00    -0.057 S  
HETATM   20  C   UNL     1      -9.596  11.777  66.372  1.00  0.00    -0.234 A  
HETATM   21  O   UNL     1      -6.657  11.262  70.318  1.00  0.00    -0.213 OA 
HETATM   22  O   UNL     1      -6.177  10.003  68.288  1.00  0.00    -0.049 OA 
HETATM   23  O   UNL     1      -5.408  12.406  68.502  1.00  0.00    -0.053 OA 
HETATM   24  C   UNL     1      -9.956  13.123  66.599  1.00  0.00    -0.270 A  
ENDBRANCH  10  11
BRANCH  10  25
HETATM   25  C   UNL     1     -10.739  15.587  68.834  1.00  0.00    -0.242 A  
HETATM   26  C   UNL     1     -12.106  15.110  68.605  1.00  0.00    -0.184 A  
HETATM   27  C   UNL     1     -10.595  16.504  69.973  1.00  0.00    -0.167 A  
HETATM   28  C   UNL     1     -11.454  16.465  71.006  1.00  0.00    -0.232 A  
HETATM   29  C   UNL     1     -13.008  15.077  69.600  1.00  0.00     0.303 A  
HETATM   30  C   UNL     1     -12.613  15.507  70.986  1.00  0.00    -0.454 A  
BRANCH  30  31
HETATM   31  N   UNL     1     -13.224  15.096  72.068  1.00  0.00    -0.348 NA 
BRANCH  31  32
HETATM   32  C   UNL     1     -13.344  15.950  73.318  1.00  0.00    -0.564 C  
HETATM   33  C   UNL     1     -12.416  15.468  74.417  1.00  0.00    -0.768 C  
ENDBRANCH  31  32
BRANCH  31  34
HETATM   34  C   UNL     1     -14.056  13.829  72.101  1.00  0.00    -0.511 C  
HETATM   35  C   UNL     1     -13.172  12.597  72.092  1.00  0.00    -0.527 C  
ENDBRANCH  31  34
ENDBRANCH  30  31
ENDBRANCH  10  25
ENDBRANCH   9  10
ENDBRANCH   3   4
BRANCH   3  36
HETATM   36  C   UNL     1      -5.871  19.822  64.673  1.00  0.00    -0.245 C  
HETATM   37  C   UNL     1      -6.325  20.889  63.689  1.00  0.00    -0.265 C  
ENDBRANCH   3  36
ENDBRANCH   2   3
TORSDOF 9
ENDMDL
MODEL        3
REMARK 921   NORMALIZED FREE ENERGY PREDICTED BY IDOCK:   -6.09 KCAL/MOL
REMARK 922        TOTAL FREE ENERGY PREDICTED BY IDOCK:  -11.61 KCAL/MOL
REMARK 923 INTER-LIGAND FREE ENERGY PREDICTED BY IDOCK:  -10.10 KCAL/MOL
REMARK 924 INTRA-LIGAND FREE ENERGY PREDICTED BY IDOCK:   -1.52 KCAL/MOL
REMARK 927      BINDING AFFINITY PREDICTED BY RF-SCORE:    0.00 PKD
ROOT
HETATM    1  C   UNL     1     -14.145   9.094  72.331  1.00  0.00    -0.434 C  
HETATM    2  C   UNL     1     -13.170  10.159  71.851  1.00  0.00    -0.452 C  
ENDROOT
BRANCH   2   3
HETATM    3  N   UNL     1     -11.932   9.553  71.332  1.00  0.00    -0.358 NA 
BRANCH   3   4
HETATM    4  C   UNL     1     -11.209  10.235  70.358  1.00  0.00    -0.332 A  
HETATM    5  C   UNL     1      -9.977   9.798  69.855  1.00  0.00    -0.282 A  
HETATM    6  C   UNL     1     -11.709  11.417  69.788  1.00  0.00    -0.418 A  
HETATM    7  C   UNL     1      -9.357  10.431  68.754  1.00  0.00    -0.175 A  
HETATM    8  C   UNL     1     -11.093  12.069  68.702  1.00  0.00    -0.298 A  
HETATM    9  C   UNL     1      -9.934  11.546  68.130  1.00  0.00    -0.197 A  
BRANCH   9  10
HETATM   10  C   UNL     1      -9.372  12.094  66.845  1.00  0.00    -0.203 C  
BRANCH  10  11
HETATM   11  C   UNL     1      -9.603  13.547  66.512  1.00  0.00    -0.284 A  
HETATM   12  O   UNL     1     -12.233  11.977  66.046  1.00  0.00    -0.546 OA 
HETATM   13  O   UNL     1     -11.828  12.844  63.700  1.00  0.00    -0.464 OA 
HETATM   14  C   UNL     1      -8.750  14.494  67.114  1.00  0.00    -0.237 A  
HETATM   15  C   UNL     1      -8.965  15.873  66.933  1.00  0.00    -0.231 A  
HETATM   16  O   UNL     1     -13.272  14.050  65.263  1.00  0.00    -0.782 OA 
HETATM   17  C   UNL     1      -9.928  16.346  66.050  1.00  0.00    -0.369 A  
HETATM   18  S   UNL     1     -12.001  13.062  65.120  1.00  0.00    -0.430 S  
HETATM   19  S   UNL     1      -8.144  17.016  68.013  1.00  0.00    -0.210 S  
HETATM   20  C   UNL     1     -10.753  15.429  65.416  1.00  0.00    -0.416 A  
HETATM   21  O   UNL     1      -6.581  16.848  67.665  1.00  0.00    -0.131 OA 
HETATM   22  O   UNL     1      -8.490  18.360  67.605  1.00  0.00    -0.251 OA 
HETATM   23  O   UNL     1      -8.370  16.540  69.360  1.00  0.00    -0.141 OA 
HETATM   24  C   UNL     1     -10.636  14.049  65.690  1.00  0.00    -0.307 A  
ENDBRANCH  10  11
BRANCH  10  25
HETATM   25  C   UNL     1      -8.808  11.257  65.919  1.00  0.00    -0.174 A  
HETATM   26  C   UNL     1      -7.381  10.924  65.911  1.00  0.00    -0.041 A  
HETATM   27  C   UNL     1      -9.565  10.730  64.774  1.00  0.00    -0.314 A  
HETATM   28  C   UNL     1      -9.156   9.629  64.122  1.00  0.00    -0.256 A  
HETATM   29  C   UNL     1      -6.920   9.848  65.251  1.00  0.00    -0.122 A  
HETATM   30  C   UNL     1      -7.879   8.943  64.527  1.00  0.00    -0.126 A  
BRANCH  30  31
HETATM   31  N   UNL     1      -7.625   7.687  64.268  1.00  0.00    -0.101 NA 
BRANCH  31  32
HETATM   32  C   UNL     1      -8.238   6.544  65.058  1.00  0.00    -0.115 C  
HETATM   33  C   UNL     1      -7.965   6.680  66.543  1.00  0.00    -0.106 C  
ENDBRANCH  31  32
BRANCH  31  34
HETATM   34  C   UNL     1      -6.879   7.248  63.023  1.00  0.00    -0.054 C  
HETATM   35  C   UNL     1      -5.411   7.014  63.323  1.00  0.00    -0.032 C  
ENDBRANCH  31  34
ENDBRANCH  30  31
ENDBRANCH  10  25
ENDBRANCH   9  10
ENDBRANCH   3   4
BRANCH   3  36
HETATM   36  C   UNL     1     -11.701   8.145  71.679  1.00  0.00    -0.287 C  
HETATM   37  C   UNL     1     -10.646   8.041  72.770  1.00  0.00    -0.420 C  
ENDBRANCH   3  36
ENDBRANCH   2   3
TORSDOF 9
ENDMDL
MODEL        4
REMARK 921   NORMALIZED FREE ENERGY PREDICTED BY IDOCK:   -6.08 KCAL/MOL
REMARK 922        TOTAL FREE ENERGY PREDICTED BY IDOCK:  -11.60 KCAL/MOL
REMARK 923 INTER-LIGAND FREE ENERGY PREDICTED BY IDOCK:   -9.65 KCAL/MOL
REMARK 924 INTRA-LIGAND FREE ENERGY PREDICTED BY IDOCK:   -1.96 KCAL/MOL
REMARK 927      BINDING AFFINITY PREDICTED BY RF-SCORE:    0.00 PKD
ROOT
HETATM    1  C   UNL     1      -6.061  20.434  68.845  1.00  0.00    -0.372 C  
HETATM    2  C   UNL     1      -6.577  21.042  67.550  1.00  0.00    -0.377 C  
ENDROOT
BRANCH   2   3
HETATM    3  N   UNL     1      -6.514  20.072  66.444  1.00  0.00    -0.196 NA 
BRANCH   3   4
HETATM    4  C   UNL     1      -7.289  18.918  66.519  1.00  0.00    -0.235 A  
HETATM    5  C   UNL     1      -6.771  17.624  66.382  1.00  0.00    -0.293 A  
HETATM    6  C   UNL     1      -8.667  18.993  66.777  1.00  0.00    -0.318 A  
HETATM    7  C   UNL     1      -7.562  16.478  66.628  1.00  0.00    -0.310 A  
HETATM    8  C   UNL     1      -9.471  17.860  67.006  1.00  0.00    -0.272 A  
HETATM    9  C   UNL     1      -8.911  16.583  66.993  1.00  0.00    -0.217 A  
BRANCH   9  10
HETATM   10  C   UNL     1      -9.691  15.375  67.440  1.00  0.00    -0.215 C  
BRANCH  10  11
HETATM   11  C   UNL     1      -9.713  14.155  66.553  1.00  0.00    -0.307 A  
HETATM   12  O   UNL     1      -8.023  13.536  69.075  1.00  0.00     0.025 OA 
HETATM   13  O   UNL     1      -6.260  13.210  67.286  1.00  0.00    -0.298 OA 
HETATM   14  C   UNL     1     -10.789  14.026  65.653  1.00  0.00    -0.295 A  
HETATM   15  C   UNL     1     -10.934  12.869  64.865  1.00  0.00    -0.301 A  
HETATM   16  O   UNL     1      -7.548  11.321  68.152  1.00  0.00    -0.095 OA 
HETATM   17  C   UNL     1      -9.954  11.883  64.840  1.00  0.00    -0.269 A  
HETATM   18  S   UNL     1      -7.552  12.910  67.861  1.00  0.00    -0.155 S  
HETATM   19  S   UNL     1     -12.487  12.567  64.065  1.00  0.00    -0.412 S  
HETATM   20  C   UNL     1      -8.866  12.009  65.691  1.00  0.00     0.266 A  
HETATM   21  O   UNL     1     -12.624  13.754  62.987  1.00  0.00    -0.721 OA 
HETATM   22  O   UNL     1     -12.374  11.349  63.290  1.00  0.00    -0.199 OA 
HETATM   23  O   UNL     1     -13.509  12.742  65.075  1.00  0.00    -0.532 OA 
HETATM   24  C   UNL     1      -8.775  13.099  66.583  1.00  0.00    -0.004 A  
ENDBRANCH  10  11
BRANCH  10  25
HETATM   25  C   UNL     1     -10.499  15.438  68.544  1.00  0.00    -0.234 A  
HETATM   26  C   UNL     1     -11.960  15.514  68.458  1.00  0.00    -0.179 A  
HETATM   27  C   UNL     1      -9.960  15.569  69.905  1.00  0.00    -0.243 A  
HETATM   28  C   UNL     1     -10.695  15.229  70.977  1.00  0.00    -0.058 A  
HETATM   29  C   UNL     1     -12.737  15.209  69.510  1.00  0.00     0.095 A  
HETATM   30  C   UNL     1     -12.111  14.751  70.799  1.00  0.00    -0.309 A  
BRANCH  30  31
HETATM   31  N   UNL     1     -12.737  14.018  71.682  1.00  0.00    -0.338 NA 
BRANCH  31  32
HETATM   32  C   UNL     1     -12.906  12.516  71.532  1.00  0.00    -0.265 C  
HETATM   33  C   UNL     1     -12.134  11.981  70.341  1.00  0.00    -0.407 C  
ENDBRANCH  31  32
BRANCH  31  34
HETATM   34  C   UNL     1     -13.155  14.555  73.037  1.00  0.00    -0.510 C  
HETATM   35  C   UNL     1     -13.276  16.066  73.009  1.00  0.00    -0.590 C  
ENDBRANCH  31  34
ENDBRANCH  30  31
ENDBRANCH  10  25
ENDBRANCH   9  10
ENDBRANCH   3   4
BRANCH   3  36
HETATM   36  C   UNL     1      -5.429  20.261  65.473  1.00  0.00    -0.169 C  
HETATM   37  C   UNL     1      -5.991  20.754  64.148  1.00  0.00    -0.338 C  
ENDBRANCH   3  36
ENDBRANCH   2   3
TORSDOF 9
ENDMDL
MODEL        5
REMARK 921   NORMALIZED FREE ENERGY PREDICTED BY IDOCK:   -5.71 KCAL/MOL
REMARK 922        TOTAL FREE ENERGY PREDICTED BY IDOCK:  -11.04 KCAL/MOL
REMARK 923 INTER-LIGAND FREE ENERGY PREDICTED BY IDOCK:   -9.15 KCAL/MOL
REMARK 924 INTRA-LIGAND FREE ENERGY PREDICTED BY IDOCK:   -1.88 KCAL/MOL
REMARK 927      BINDING AFFINITY PREDICTED BY RF-SCORE:    0.00 PKD
ROOT
HETATM    1  C   UNL     1     -11.886  14.496  64.721  1.00  0.00    -0.446 C  
HETATM    2  C   UNL     1     -12.656  13.792  65.828  1.00  0.00    -0.480 C  
ENDROOT
BRANCH   2   3
HETATM    3  N   UNL     1     -11.803  13.559  67.005  1.00  0.00    -0.388 NA 
BRANCH   3   4
HETATM    4  C   UNL     1     -11.517  12.248  67.377  1.00  0.00    -0.352 A  
HETATM    5  C   UNL     1     -10.852  11.333  66.550  1.00  0.00    -0.319 A  
HETATM    6  C   UNL     1     -11.862  11.772  68.652  1.00  0.00    -0.369 A  
HETATM    7  C   UNL     1     -10.438  10.068  67.026  1.00  0.00    -0.302 A  
HETATM    8  C   UNL     1     -11.471  10.508  69.133  1.00  0.00    -0.314 A  
HETATM    9  C   UNL     1     -10.698   9.659  68.342  1.00  0.00    -0.251 A  
BRANCH   9  10
HETATM   10  C   UNL     1     -10.089   8.399  68.898  1.00  0.00    -0.209 C  
BRANCH  10  11
HETATM   11  C   UNL     1      -9.631   8.386  70.335  1.00  0.00    -0.180 A  
HETATM   12  O   UNL     1     -12.012   6.429  70.019  1.00  0.00    -0.333 OA 
HETATM   13  O   UNL     1     -13.002   8.042  71.703  1.00  0.00    -0.321 OA 
HETATM   14  C   UNL     1      -8.303   8.776  70.597  1.00  0.00    -0.173 A  
HETATM   15  C   UNL     1      -7.771   8.694  71.897  1.00  0.00    -0.064 A  
HETATM   16  O   UNL     1     -11.899   5.982  72.422  1.00  0.00    -0.310 OA 
HETATM   17  C   UNL     1      -8.570   8.365  72.987  1.00  0.00    -0.217 A  
HETATM   18  S   UNL     1     -11.964   7.127  71.283  1.00  0.00    -0.355 S  
HETATM   19  S   UNL     1      -6.014   8.798  72.113  1.00  0.00    -0.068 S  
HETATM   20  C   UNL     1      -9.893   8.015  72.756  1.00  0.00    -0.351 A  
HETATM   21  O   UNL     1      -5.642  10.299  71.667  1.00  0.00    -0.256 OA 
HETATM   22  O   UNL     1      -5.721   8.729  73.528  1.00  0.00    -0.101 OA 
HETATM   23  O   UNL     1      -5.430   7.877  71.162  1.00  0.00    -0.033 OA 
HETATM   24  C   UNL     1     -10.403   7.964  71.441  1.00  0.00    -0.198 A  
ENDBRANCH  10  11
BRANCH  10  25
HETATM   25  C   UNL     1      -9.803   7.342  68.075  1.00  0.00    -0.172 A  
HETATM   26  C   UNL     1      -8.433   6.905  67.788  1.00  0.00    -0.123 A  
HETATM   27  C   UNL     1     -10.841   6.644  67.305  1.00  0.00    -0.456 A  
HETATM   28  C   UNL     1     -10.638   5.400  66.838  1.00  0.00    -0.320 A  
HETATM   29  C   UNL     1      -8.182   5.680  67.296  1.00  0.00    -0.101 A  
HETATM   30  C   UNL     1      -9.314   4.719  67.058  1.00  0.00    -0.134 A  
BRANCH  30  31
HETATM   31  N   UNL     1      -9.163   3.421  67.034  1.00  0.00    -0.174 NA 
BRANCH  31  32
HETATM   32  C   UNL     1      -8.598   2.680  65.834  1.00  0.00    -0.114 C  
HETATM   33  C   UNL     1      -9.354   3.016  64.563  1.00  0.00    -0.145 C  
ENDBRANCH  31  32
BRANCH  31  34
HETATM   34  C   UNL     1      -9.323   2.560  68.273  1.00  0.00    -0.205 C  
HETATM   35  C   UNL     1      -9.334   3.410  69.528  1.00  0.00    -0.240 C  
ENDBRANCH  31  34
ENDBRANCH  30  31
ENDBRANCH  10  25
ENDBRANCH   9  10
ENDBRANCH   3   4
BRANCH   3  36
HETATM   36  C   UNL     1     -11.544  14.722  67.863  1.00  0.00    -0.351 C  
HETATM   37  C   UNL     1     -10.047  14.970  67.972  1.00  0.00    -0.223 C  
ENDBRANCH   3  36
ENDBRANCH   2   3
TORSDOF 9
ENDMDL
MODEL        6
REMARK 921   NORMALIZED FREE ENERGY PREDICTED BY IDOCK:   -5.65 KCAL/MOL
REMARK 922        TOTAL FREE ENERGY PREDICTED BY IDOCK:  -10.95 KCAL/MOL
REMARK 923 INTER-LIGAND FREE ENERGY PREDICTED BY IDOCK:  -10.26 KCAL/MOL
REMARK 924 INTRA-LIGAND FREE ENERGY PREDICTED BY IDOCK:   -0.68 KCAL/MOL
REMARK 927      BINDING AFFINITY PREDICTED BY RF-SCORE:    0.00 PKD
ROOT
HETATM    1  C   UNL     1     -10.095  18.799  67.756  1.00  0.00    -0.417 C  
HETATM    2  C   UNL     1      -9.184  18.404  68.909  1.00  0.00    -0.178 C  
ENDROOT
BRANCH   2   3
HETATM    3  N   UNL     1      -8.331  17.260  68.546  1.00  0.00    -0.260 NA 
BRANCH   3   4
HETATM    4  C   UNL     1      -8.935  16.083  68.116  1.00  0.00    -0.183 A  
HETATM    5  C   UNL     1      -8.803  15.570  66.819  1.00  0.00    -0.297 A  
HETATM    6  C   UNL     1      -9.706  15.306  68.997  1.00  0.00    -0.234 A  
HETATM    7  C   UNL     1      -9.297  14.291  66.472  1.00  0.00    -0.292 A  
HETATM    8  C   UNL     1     -10.219  14.039  68.660  1.00  0.00    -0.233 A  
HETATM    9  C   UNL     1      -9.967  13.487  67.404  1.00  0.00    -0.234 A  
BRANCH   9  10
HETATM   10  C   UNL     1     -10.318  12.057  67.086  1.00  0.00    -0.235 C  
BRANCH  10  11
HETATM   11  C   UNL     1     -10.088  11.546  65.686  1.00  0.00    -0.278 A  
HETATM   12  O   UNL     1     -12.043  13.947  65.573  1.00  0.00    -0.363 OA 
HETATM   13  O   UNL     1     -13.525  12.139  64.599  1.00  0.00    -0.513 OA 
HETATM   14  C   UNL     1      -8.895  10.836  65.442  1.00  0.00    -0.202 A  
HETATM   15  C   UNL     1      -8.561  10.416  64.142  1.00  0.00    -0.181 A  
HETATM   16  O   UNL     1     -12.223  13.622  63.155  1.00  0.00    -0.622 OA 
HETATM   17  C   UNL     1      -9.451  10.558  63.083  1.00  0.00    -0.367 A  
HETATM   18  S   UNL     1     -12.301  12.908  64.603  1.00  0.00    -0.433 S  
HETATM   19  S   UNL     1      -6.897   9.899  63.809  1.00  0.00    -0.126 S  
HETATM   20  C   UNL     1     -10.649  11.221  63.310  1.00  0.00    -0.326 A  
HETATM   21  O   UNL     1      -6.711   8.557  64.679  1.00  0.00    -0.068 OA 
HETATM   22  O   UNL     1      -6.815   9.480  62.426  1.00  0.00    -0.099 OA 
HETATM   23  O   UNL     1      -6.034  10.924  64.354  1.00  0.00     0.059 OA 
HETATM   24  C   UNL     1     -10.939  11.765  64.580  1.00  0.00    -0.310 A  
ENDBRANCH  10  11
BRANCH  10  25
HETATM   25  C   UNL     1     -10.985  11.285  67.999  1.00  0.00    -0.302 A  
HETATM   26  C   UNL     1     -10.844   9.828  68.064  1.00  0.00    -0.276 A  
HETATM   27  C   UNL     1     -12.002  11.841  68.903  1.00  0.00    -0.332 A  
HETATM   28  C   UNL     1     -12.347  11.202  70.034  1.00  0.00    -0.351 A  
HETATM   29  C   UNL     1     -11.199   9.142  69.163  1.00  0.00     0.147 A  
HETATM   30  C   UNL     1     -11.727   9.872  70.367  1.00  0.00    -0.258 A  
BRANCH  30  31
HETATM   31  N   UNL     1     -11.661   9.396  71.583  1.00  0.00    -0.381 NA 
BRANCH  31  32
HETATM   32  C   UNL     1     -12.894   9.144  72.435  1.00  0.00    -0.367 C  
HETATM   33  C   UNL     1     -13.966   8.401  71.663  1.00  0.00    -0.460 C  
ENDBRANCH  31  32
BRANCH  31  34
HETATM   34  C   UNL     1     -10.378   8.842  72.173  1.00  0.00    -0.308 C  
HETATM   35  C   UNL     1     -10.669   7.709  73.139  1.00  0.00    -0.445 C  
ENDBRANCH  31  34
ENDBRANCH  30  31
ENDBRANCH  10  25
ENDBRANCH   9  10
ENDBRANCH   3   4
BRANCH   3  36
HETATM   36  C   UNL     1      -6.917  17.354  68.932  1.00  0.00    -0.244 C  
HETATM   37  C   UNL     1      -6.494  18.813  69.018  1.00  0.00    -0.293 C  
ENDBRANCH   3  36
ENDBRANCH   2   3
TORSDOF 9
ENDMDL
MODEL        7
REMARK 921   NORMALIZED FREE ENERGY PREDICTED BY IDOCK:   -5.64 KCAL/MOL
REMARK 922        TOTAL FREE ENERGY PREDICTED BY IDOCK:  -10.94 KCAL/MOL
REMARK 923 INTER-LIGAND FREE ENERGY PREDICTED BY IDOCK:   -9.06 KCAL/MOL
REMARK 924 INTRA-LIGAND FREE ENERGY PREDICTED BY IDOCK:   -1.88 KCAL/MOL
REMARK 927      BINDING AFFINITY PREDICTED BY RF-SCORE:    0.00 PKD
ROOT
HETATM    1  C   UNL     1     -11.305  16.076  68.591  1.00  0.00    -0.383 C  
HETATM    2  C   UNL     1     -12.142  14.809  68.687  1.00  0.00    -0.188 C  
ENDROOT
BRANCH   2   3
HETATM    3  N   UNL     1     -11.859  13.898  67.566  1.00  0.00    -0.378 NA 
BRANCH   3   4
HETATM    4  C   UNL     1     -11.580  12.562  67.841  1.00  0.00    -0.347 A  
HETATM    5  C   UNL     1     -10.949  11.697  66.938  1.00  0.00    -0.342 A  
HETATM    6  C   UNL     1     -11.899  12.004  69.090  1.00  0.00    -0.369 A  
HETATM    7  C   UNL     1     -10.539  10.398  67.316  1.00  0.00    -0.322 A  
HETATM    8  C   UNL     1     -11.512  10.706  69.474  1.00  0.00    -0.360 A  
HETATM    9  C   UNL     1     -10.770   9.904  68.607  1.00  0.00    -0.256 A  
BRANCH   9  10
HETATM   10  C   UNL     1     -10.164   8.603  69.062  1.00  0.00    -0.218 C  
BRANCH  10  11
HETATM   11  C   UNL     1      -9.766   8.452  70.509  1.00  0.00    -0.192 A  
HETATM   12  O   UNL     1     -12.256   6.692  69.960  1.00  0.00    -0.193 OA 
HETATM   13  O   UNL     1     -13.204   8.239  71.727  1.00  0.00    -0.333 OA 
HETATM   14  C   UNL     1      -8.426   8.730  70.846  1.00  0.00    -0.209 A  
HETATM   15  C   UNL     1      -7.954   8.516  72.154  1.00  0.00    -0.088 A  
HETATM   16  O   UNL     1     -12.268   6.061  72.324  1.00  0.00    -0.281 OA 
HETATM   17  C   UNL     1      -8.815   8.162  73.186  1.00  0.00    -0.325 A  
HETATM   18  S   UNL     1     -12.213   7.289  71.275  1.00  0.00    -0.359 S  
HETATM   19  S   UNL     1      -6.204   8.483  72.439  1.00  0.00    -0.070 S  
HETATM   20  C   UNL     1     -10.148   7.921  72.883  1.00  0.00    -0.376 A  
HETATM   21  O   UNL     1      -5.716   9.983  72.122  1.00  0.00    -0.293 OA 
HETATM   22  O   UNL     1      -5.973   8.289  73.854  1.00  0.00    -0.093 OA 
HETATM   23  O   UNL     1      -5.644   7.597  71.441  1.00  0.00    -0.035 OA 
HETATM   24  C   UNL     1     -10.607   8.003  71.551  1.00  0.00    -0.226 A  
ENDBRANCH  10  11
BRANCH  10  25
HETATM   25  C   UNL     1      -9.826   7.637  68.151  1.00  0.00    -0.186 A  
HETATM   26  C   UNL     1      -8.438   7.337  67.787  1.00  0.00    -0.121 A  
HETATM   27  C   UNL     1     -10.834   6.914  67.363  1.00  0.00    -0.396 A  
HETATM   28  C   UNL     1     -10.550   5.730  66.796  1.00  0.00    -0.373 A  
HETATM   29  C   UNL     1      -8.109   6.178  67.194  1.00  0.00    -0.106 A  
HETATM   30  C   UNL     1      -9.168   5.147  66.919  1.00  0.00    -0.118 A  
BRANCH  30  31
HETATM   31  N   UNL     1      -8.914   3.870  66.791  1.00  0.00    -0.127 NA 
BRANCH  31  32
HETATM   32  C   UNL     1      -9.226   2.856  67.878  1.00  0.00    -0.205 C  
HETATM   33  C   UNL     1      -9.034   3.444  69.263  1.00  0.00    -0.178 C  
ENDBRANCH  31  32
BRANCH  31  34
HETATM   34  C   UNL     1      -8.495   3.252  65.471  1.00  0.00    -0.106 C  
HETATM   35  C   UNL     1      -8.907   1.794  65.399  1.00  0.00    -0.120 C  
ENDBRANCH  31  34
ENDBRANCH  30  31
ENDBRANCH  10  25
ENDBRANCH   9  10
ENDBRANCH   3   4
BRANCH   3  36
HETATM   36  C   UNL     1     -11.617  14.526  66.261  1.00  0.00    -0.360 C  
HETATM   37  C   UNL     1     -12.746  14.186  65.299  1.00  0.00    -0.425 C  
ENDBRANCH   3  36
ENDBRANCH   2   3
TORSDOF 9
ENDMDL
MODEL        8
REMARK 921   NORMALIZED FREE ENERGY PREDICTED BY IDOCK:   -5.55 KCAL/MOL
REMARK 922        TOTAL FREE ENERGY PREDICTED BY IDOCK:  -10.80 KCAL/MOL
REMARK 923 INTER-LIGAND FREE ENERGY PREDICTED BY IDOCK:   -9.37 KCAL/MOL
REMARK 924 INTRA-LIGAND FREE ENERGY PREDICTED BY IDOCK:   -1.43 KCAL/MOL
REMARK 927      BINDING AFFINITY PREDICTED BY RF-SCORE:    0.00 PKD
ROOT
HETATM    1  C   UNL     1      -5.287  21.321  67.151  1.00  0.00    -0.335 C  
HETATM    2  C   UNL     1      -6.667  21.205  66.521  1.00  0.00    -0.172 C  
ENDROOT
BRANCH   2   3
HETATM    3  N   UNL     1      -6.722  20.088  65.563  1.00  0.00    -0.271 NA 
BRANCH   3   4
HETATM    4  C   UNL     1      -7.355  18.908  65.944  1.00  0.00    -0.228 A  
HETATM    5  C   UNL     1      -6.726  17.656  65.952  1.00  0.00    -0.250 A  
HETATM    6  C   UNL     1      -8.688  18.918  66.385  1.00  0.00    -0.308 A  
HETATM    7  C   UNL     1      -7.353  16.514  66.500  1.00  0.00    -0.229 A  
HETATM    8  C   UNL     1      -9.331  17.784  66.918  1.00  0.00    -0.272 A  
HETATM    9  C   UNL     1      -8.646  16.575  67.037  1.00  0.00    -0.219 A  
BRANCH   9  10
HETATM   10  C   UNL     1      -9.230  15.409  67.791  1.00  0.00    -0.183 C  
BRANCH  10  11
HETATM   11  C   UNL     1      -8.711  14.023  67.501  1.00  0.00    -0.201 A  
HETATM   12  O   UNL     1      -7.308  15.113  70.039  1.00  0.00    -0.147 OA 
HETATM   13  O   UNL     1      -5.291  14.777  68.544  1.00  0.00    -0.091 OA 
HETATM   14  C   UNL     1      -9.535  13.165  66.745  1.00  0.00    -0.252 A  
HETATM   15  C   UNL     1      -9.167  11.827  66.519  1.00  0.00    -0.201 A  
HETATM   16  O   UNL     1      -5.989  13.055  70.132  1.00  0.00    -0.143 OA 
HETATM   17  C   UNL     1      -7.922  11.343  66.906  1.00  0.00    -0.158 A  
HETATM   18  S   UNL     1      -6.480  14.279  69.199  1.00  0.00    -0.116 S  
HETATM   19  S   UNL     1     -10.392  10.688  65.930  1.00  0.00    -0.189 S  
HETATM   20  C   UNL     1      -7.078  12.183  67.618  1.00  0.00    -0.124 A  
HETATM   21  O   UNL     1     -10.754  11.215  64.452  1.00  0.00    -0.350 OA 
HETATM   22  O   UNL     1      -9.765   9.398  65.740  1.00  0.00    -0.267 OA 
HETATM   23  O   UNL     1     -11.552  10.861  66.777  1.00  0.00    -0.254 OA 
HETATM   24  C   UNL     1      -7.490  13.487  67.967  1.00  0.00    -0.140 A  
ENDBRANCH  10  11
BRANCH  10  25
HETATM   25  C   UNL     1     -10.323  15.579  68.599  1.00  0.00    -0.219 A  
HETATM   26  C   UNL     1     -11.649  15.052  68.266  1.00  0.00    -0.355 A  
HETATM   27  C   UNL     1     -10.284  16.422  69.803  1.00  0.00    -0.142 A  
HETATM   28  C   UNL     1     -11.191  16.269  70.783  1.00  0.00    -0.293 A  
HETATM   29  C   UNL     1     -12.597  14.906  69.207  1.00  0.00     0.094 A  
HETATM   30  C   UNL     1     -12.296  15.259  70.638  1.00  0.00    -0.377 A  
BRANCH  30  31
HETATM   31  N   UNL     1     -12.937  14.745  71.655  1.00  0.00    -0.314 NA 
BRANCH  31  32
HETATM   32  C   UNL     1     -13.544  15.594  72.758  1.00  0.00    -0.593 C  
HETATM   33  C   UNL     1     -12.604  15.731  73.941  1.00  0.00    -0.754 C  
ENDBRANCH  31  32
BRANCH  31  34
HETATM   34  C   UNL     1     -13.327  13.280  71.716  1.00  0.00    -0.393 C  
HETATM   35  C   UNL     1     -12.336  12.421  70.954  1.00  0.00    -0.358 C  
ENDBRANCH  31  34
ENDBRANCH  30  31
ENDBRANCH  10  25
ENDBRANCH   9  10
ENDBRANCH   3   4
BRANCH   3  36
HETATM   36  C   UNL     1      -5.863  20.203  64.377  1.00  0.00    -0.253 C  
HETATM   37  C   UNL     1      -6.403  21.274  63.442  1.00  0.00    -0.312 C  
ENDBRANCH   3  36
ENDBRANCH   2   3
TORSDOF 9
ENDMDL
MODEL        9
REMARK 921   NORMALIZED FREE ENERGY PREDICTED BY IDOCK:   -5.50 KCAL/MOL
REMARK 922        TOTAL FREE ENERGY PREDICTED BY IDOCK:  -10.72 KCAL/MOL
REMARK 923 INTER-LIGAND FREE ENERGY PREDICTED BY IDOCK:   -8.47 KCAL/MOL
REMARK 924 INTRA-LIGAND FREE ENERGY PREDICTED BY IDOCK:   -2.25 KCAL/MOL
REMARK 927      BINDING AFFINITY PREDICTED BY RF-SCORE:    0.00 PKD
ROOT
HETATM    1  C   UNL     1     -12.282  14.403  64.091  1.00  0.00    -0.393 C  
HETATM    2  C   UNL     1     -12.671  13.821  65.441  1.00  0.00    -0.472 C  
ENDROOT
BRANCH   2   3
HETATM    3  N   UNL     1     -11.479  13.479  66.237  1.00  0.00    -0.316 NA 
BRANCH   3   4
HETATM    4  C   UNL     1     -11.165  12.138  66.431  1.00  0.00    -0.331 A  
HETATM    5  C   UNL     1     -10.555  11.334  65.459  1.00  0.00    -0.306 A  
HETATM    6  C   UNL     1     -11.420  11.510  67.661  1.00  0.00    -0.357 A  
HETATM    7  C   UNL     1     -10.104  10.026  65.754  1.00  0.00    -0.320 A  
HETATM    8  C   UNL     1     -10.993  10.203  67.962  1.00  0.00    -0.326 A  
HETATM    9  C   UNL     1     -10.272   9.462  67.026  1.00  0.00    -0.322 A  
BRANCH   9  10
HETATM   10  C   UNL     1      -9.622   8.152  67.387  1.00  0.00    -0.204 C  
BRANCH  10  11
HETATM   11  C   UNL     1      -8.917   7.369  66.308  1.00  0.00    -0.192 A  
HETATM   12  O   UNL     1      -6.857   9.182  67.746  1.00  0.00    -0.074 OA 
HETATM   13  O   UNL     1      -6.672  10.104  65.395  1.00  0.00    -0.108 OA 
HETATM   14  C   UNL     1      -9.508   6.160  65.891  1.00  0.00     0.025 A  
HETATM   15  C   UNL     1      -8.860   5.324  64.964  1.00  0.00    -0.110 A  
HETATM   16  O   UNL     1      -5.142   8.375  66.200  1.00  0.00    -0.027 OA 
HETATM   17  C   UNL     1      -7.693   5.722  64.321  1.00  0.00    -0.097 A  
HETATM   18  S   UNL     1      -6.625   9.004  66.332  1.00  0.00    -0.067 S  
HETATM   19  S   UNL     1      -9.422   3.652  64.778  1.00  0.00    -0.169 S  
HETATM   20  C   UNL     1      -7.114   6.928  64.688  1.00  0.00    -0.061 A  
HETATM   21  O   UNL     1     -10.903   3.791  64.163  1.00  0.00    -0.285 OA 
HETATM   22  O   UNL     1      -8.631   3.014  63.748  1.00  0.00    -0.089 OA 
HETATM   23  O   UNL     1      -9.528   3.105  66.113  1.00  0.00    -0.132 OA 
HETATM   24  C   UNL     1      -7.683   7.715  65.714  1.00  0.00    -0.100 A  
ENDBRANCH  10  11
BRANCH  10  25
HETATM   25  C   UNL     1      -9.809   7.601  68.627  1.00  0.00    -0.175 A  
HETATM   26  C   UNL     1      -8.861   7.783  69.729  1.00  0.00    -0.139 A  
HETATM   27  C   UNL     1     -10.909   6.670  68.914  1.00  0.00    -0.326 A  
HETATM   28  C   UNL     1     -11.326   6.459  70.174  1.00  0.00    -0.485 A  
HETATM   29  C   UNL     1      -9.224   7.559  71.003  1.00  0.00    -0.153 A  
HETATM   30  C   UNL     1     -10.633   7.141  71.321  1.00  0.00    -0.213 A  
BRANCH  30  31
HETATM   31  N   UNL     1     -11.198   7.343  72.483  1.00  0.00    -0.296 NA 
BRANCH  31  32
HETATM   32  C   UNL     1     -10.637   6.783  73.779  1.00  0.00    -0.295 C  
HETATM   33  C   UNL     1     -10.615   5.267  73.771  1.00  0.00    -0.330 C  
ENDBRANCH  31  32
BRANCH  31  34
HETATM   34  C   UNL     1     -12.331   8.332  72.677  1.00  0.00    -0.196 C  
HETATM   35  C   UNL     1     -12.179   9.522  71.749  1.00  0.00    -0.465 C  
ENDBRANCH  31  34
ENDBRANCH  30  31
ENDBRANCH  10  25
ENDBRANCH   9  10
ENDBRANCH   3   4
BRANCH   3  36
HETATM   36  C   UNL     1     -10.869  14.576  66.999  1.00  0.00    -0.297 C  
HETATM   37  C   UNL     1     -11.832  15.068  68.070  1.00  0.00    -0.266 C  
ENDBRANCH   3  36
ENDBRANCH   2   3
TORSDOF 9
ENDMDL
MODEL       10
REMARK 921   NORMALIZED FREE ENERGY PREDICTED BY IDOCK:   -5.48 KCAL/MOL
REMARK 922        TOTAL FREE ENERGY PREDICTED BY IDOCK:  -10.68 KCAL/MOL
REMARK 923 INTER-LIGAND FREE ENERGY PREDICTED BY IDOCK:   -9.28 KCAL/MOL
REMARK 924 INTRA-LIGAND FREE ENERGY PREDICTED BY IDOCK:   -1.40 KCAL/MOL
REMARK 927      BINDING AFFINITY PREDICTED BY RF-SCORE:    0.00 PKD
ROOT
HETATM    1  C   UNL     1     -10.497   3.599  63.997  1.00  0.00    -0.271 C  
HETATM    2  C   UNL     1      -9.249   4.347  64.442  1.00  0.00    -0.149 C  
ENDROOT
BRANCH   2   3
HETATM    3  N   UNL     1      -9.105   4.319  65.907  1.00  0.00    -0.127 NA 
BRANCH   3   4
HETATM    4  C   UNL     1      -9.347   5.485  66.627  1.00  0.00    -0.141 A  
HETATM    5  C   UNL     1     -10.607   6.088  66.731  1.00  0.00    -0.359 A  
HETATM    6  C   UNL     1      -8.314   6.120  67.336  1.00  0.00    -0.108 A  
HETATM    7  C   UNL     1     -10.841   7.176  67.604  1.00  0.00    -0.279 A  
HETATM    8  C   UNL     1      -8.528   7.214  68.195  1.00  0.00    -0.123 A  
HETATM    9  C   UNL     1      -9.814   7.720  68.386  1.00  0.00    -0.180 A  
BRANCH   9  10
HETATM   10  C   UNL     1     -10.108   8.745  69.450  1.00  0.00    -0.203 C  
BRANCH  10  11
HETATM   11  C   UNL     1      -9.725   8.441  70.877  1.00  0.00    -0.212 A  
HETATM   12  O   UNL     1     -12.160   6.693  70.093  1.00  0.00    -0.323 OA 
HETATM   13  O   UNL     1     -13.173   8.006  72.008  1.00  0.00    -0.309 OA 
HETATM   14  C   UNL     1      -8.398   8.712  71.266  1.00  0.00    -0.211 A  
HETATM   15  C   UNL     1      -7.938   8.362  72.548  1.00  0.00    -0.106 A  
HETATM   16  O   UNL     1     -12.187   5.798  72.370  1.00  0.00    -0.207 OA 
HETATM   17  C   UNL     1      -8.803   7.872  73.520  1.00  0.00    -0.333 A  
HETATM   18  S   UNL     1     -12.150   7.138  71.468  1.00  0.00    -0.362 S  
HETATM   19  S   UNL     1      -6.191   8.341  72.856  1.00  0.00    -0.087 S  
HETATM   20  C   UNL     1     -10.125   7.635  73.170  1.00  0.00    -0.382 A  
HETATM   21  O   UNL     1      -5.739   9.879  72.719  1.00  0.00    -0.302 OA 
HETATM   22  O   UNL     1      -5.974   7.993  74.243  1.00  0.00    -0.083 OA 
HETATM   23  O   UNL     1      -5.595   7.588  71.773  1.00  0.00    -0.036 OA 
HETATM   24  C   UNL     1     -10.568   7.856  71.848  1.00  0.00    -0.231 A  
ENDBRANCH  10  11
BRANCH  10  25
HETATM   25  C   UNL     1     -10.855   9.855  69.160  1.00  0.00    -0.248 A  
HETATM   26  C   UNL     1     -11.648  10.567  70.166  1.00  0.00    -0.408 A  
HETATM   27  C   UNL     1     -11.030  10.345  67.785  1.00  0.00    -0.369 A  
HETATM   28  C   UNL     1     -11.402  11.614  67.545  1.00  0.00    -0.364 A  
HETATM   29  C   UNL     1     -12.064  11.828  69.960  1.00  0.00    -0.387 A  
HETATM   30  C   UNL     1     -11.694  12.544  68.691  1.00  0.00    -0.325 A  
BRANCH  30  31
HETATM   31  N   UNL     1     -11.639  13.847  68.590  1.00  0.00    -0.304 NA 
BRANCH  31  32
HETATM   32  C   UNL     1     -11.200  14.743  69.735  1.00  0.00    -0.273 C  
HETATM   33  C   UNL     1     -12.383  15.417  70.403  1.00  0.00    -0.443 C  
ENDBRANCH  31  32
BRANCH  31  34
HETATM   34  C   UNL     1     -11.791  14.568  67.264  1.00  0.00    -0.392 C  
HETATM   35  C   UNL     1     -10.549  15.376  66.940  1.00  0.00    -0.309 C  
ENDBRANCH  31  34
ENDBRANCH  30  31
ENDBRANCH  10  25
ENDBRANCH   9  10
ENDBRANCH   3   4
BRANCH   3  36
HETATM   36  C   UNL     1      -8.446   3.135  66.474  1.00  0.00    -0.109 C  
HETATM   37  C   UNL     1      -9.267   2.583  67.630  1.00  0.00    -0.225 C  
ENDBRANCH   3  36
ENDBRANCH   2   3
TORSDOF 9
ENDMDL
MODEL       11
REMARK 921   NORMALIZED FREE ENERGY PREDICTED BY IDOCK:   -5.42 KCAL/MOL
REMARK 922        TOTAL FREE ENERGY PREDICTED BY IDOCK:  -10.60 KCAL/MOL
REMARK 923 INTER-LIGAND FREE ENERGY PREDICTED BY IDOCK:   -8.87 KCAL/MOL
REMARK 924 INTRA-LIGAND FREE ENERGY PREDICTED BY IDOCK:   -1.73 KCAL/MOL
REMARK 927      BINDING AFFINITY PREDICTED BY RF-SCORE:    0.00 PKD
ROOT
HETATM    1  C   UNL     1     -10.528  14.438  67.104  1.00  0.00    -0.263 C  
HETATM    2  C   UNL     1     -11.948  14.098  66.678  1.00  0.00    -0.444 C  
ENDROOT
BRANCH   2   3
HETATM    3  N   UNL     1     -12.050  12.700  66.228  1.00  0.00    -0.568 NA 
BRANCH   3   4
HETATM    4  C   UNL     1     -11.441  11.705  66.988  1.00  0.00    -0.262 A  
HETATM    5  C   UNL     1     -11.756  11.449  68.329  1.00  0.00    -0.359 A  
HETATM    6  C   UNL     1     -10.475  10.858  66.422  1.00  0.00    -0.307 A  
HETATM    7  C   UNL     1     -11.234  10.327  69.013  1.00  0.00    -0.260 A  
HETATM    8  C   UNL     1      -9.934   9.747  67.096  1.00  0.00    -0.252 A  
HETATM    9  C   UNL     1     -10.355   9.432  68.388  1.00  0.00    -0.238 A  
BRANCH   9  10
HETATM   10  C   UNL     1      -9.958   8.141  69.054  1.00  0.00    -0.191 C  
BRANCH  10  11
HETATM   11  C   UNL     1      -9.694   8.141  70.539  1.00  0.00    -0.181 A  
HETATM   12  O   UNL     1     -12.159   6.358  69.955  1.00  0.00    -0.228 OA 
HETATM   13  O   UNL     1     -13.230   8.093  71.457  1.00  0.00    -0.322 OA 
HETATM   14  C   UNL     1      -8.384   8.439  70.966  1.00  0.00    -0.155 A  
HETATM   15  C   UNL     1      -8.034   8.360  72.326  1.00  0.00    -0.116 A  
HETATM   16  O   UNL     1     -12.394   5.981  72.361  1.00  0.00    -0.221 OA 
HETATM   17  C   UNL     1      -8.991   8.127  73.307  1.00  0.00    -0.332 A  
HETATM   18  S   UNL     1     -12.221   7.090  71.199  1.00  0.00    -0.371 S  
HETATM   19  S   UNL     1      -6.317   8.340  72.770  1.00  0.00    -0.088 S  
HETATM   20  C   UNL     1     -10.296   7.869  72.912  1.00  0.00    -0.413 A  
HETATM   21  O   UNL     1      -5.774   9.793  72.344  1.00  0.00    -0.282 OA 
HETATM   22  O   UNL     1      -6.217   8.295  74.213  1.00  0.00    -0.106 OA 
HETATM   23  O   UNL     1      -5.688   7.347  71.925  1.00  0.00    -0.036 OA 
HETATM   24  C   UNL     1     -10.633   7.813  71.542  1.00  0.00    -0.213 A  
ENDBRANCH  10  11
BRANCH  10  25
HETATM   25  C   UNL     1      -9.680   7.029  68.306  1.00  0.00    -0.136 A  
HETATM   26  C   UNL     1     -10.685   6.351  67.483  1.00  0.00    -0.396 A  
HETATM   27  C   UNL     1      -8.381   6.343  68.372  1.00  0.00    -0.116 A  
HETATM   28  C   UNL     1      -7.974   5.534  67.378  1.00  0.00    -0.101 A  
HETATM   29  C   UNL     1     -10.328   5.513  66.495  1.00  0.00    -0.309 A  
HETATM   30  C   UNL     1      -8.872   5.279  66.198  1.00  0.00    -0.135 A  
BRANCH  30  31
HETATM   31  N   UNL     1      -8.430   4.884  65.033  1.00  0.00    -0.135 NA 
BRANCH  31  32
HETATM   32  C   UNL     1      -9.050   3.728  64.266  1.00  0.00    -0.128 C  
HETATM   33  C   UNL     1      -9.761   4.204  63.014  1.00  0.00    -0.127 C  
ENDBRANCH  31  32
BRANCH  31  34
HETATM   34  C   UNL     1      -7.410   5.677  64.238  1.00  0.00    -0.062 C  
HETATM   35  C   UNL     1      -7.745   7.156  64.246  1.00  0.00    -0.117 C  
ENDBRANCH  31  34
ENDBRANCH  30  31
ENDBRANCH  10  25
ENDBRANCH   9  10
ENDBRANCH   3   4
BRANCH   3  36
HETATM   36  C   UNL     1     -12.548  12.490  64.863  1.00  0.00    -0.390 C  
HETATM   37  C   UNL     1     -11.544  13.021  63.851  1.00  0.00    -0.508 C  
ENDBRANCH   3  36
ENDBRANCH   2   3
TORSDOF 9
ENDMDL
MODEL       12
REMARK 921   NORMALIZED FREE ENERGY PREDICTED BY IDOCK:   -5.39 KCAL/MOL
REMARK 922        TOTAL FREE ENERGY PREDICTED BY IDOCK:  -10.56 KCAL/MOL
REMARK 923 INTER-LIGAND FREE ENERGY PREDICTED BY IDOCK:   -8.77 KCAL/MOL
REMARK 924 INTRA-LIGAND FREE ENERGY PREDICTED BY IDOCK:   -1.78 KCAL/MOL
REMARK 927      BINDING AFFINITY PREDICTED BY RF-SCORE:    0.00 PKD
ROOT
HETATM    1  C   UNL     1     -11.220  14.946  67.084  1.00  0.00    -0.345 C  
HETATM    2  C   UNL     1     -12.139  13.901  66.471  1.00  0.00    -0.449 C  
ENDROOT
BRANCH   2   3
HETATM    3  N   UNL     1     -11.371  12.773  65.919  1.00  0.00    -0.310 NA 
BRANCH   3   4
HETATM    4  C   UNL     1     -10.958  11.759  66.779  1.00  0.00    -0.288 A  
HETATM    5  C   UNL     1     -11.582  11.472  67.999  1.00  0.00    -0.370 A  
HETATM    6  C   UNL     1      -9.881  10.924  66.440  1.00  0.00    -0.249 A  
HETATM    7  C   UNL     1     -11.235  10.332  68.761  1.00  0.00    -0.260 A  
HETATM    8  C   UNL     1      -9.512   9.796  67.198  1.00  0.00    -0.189 A  
HETATM    9  C   UNL     1     -10.228   9.451  68.343  1.00  0.00    -0.224 A  
BRANCH   9  10
HETATM   10  C   UNL     1      -9.997   8.143  69.054  1.00  0.00    -0.191 C  
BRANCH  10  11
HETATM   11  C   UNL     1      -9.633   8.166  70.518  1.00  0.00    -0.177 A  
HETATM   12  O   UNL     1     -12.116   6.355  70.126  1.00  0.00    -0.266 OA 
HETATM   13  O   UNL     1     -13.100   8.103  71.673  1.00  0.00    -0.332 OA 
HETATM   14  C   UNL     1      -8.301   8.481  70.851  1.00  0.00    -0.166 A  
HETATM   15  C   UNL     1      -7.860   8.425  72.186  1.00  0.00    -0.119 A  
HETATM   16  O   UNL     1     -12.185   6.011  72.547  1.00  0.00    -0.199 OA 
HETATM   17  C   UNL     1      -8.746   8.197  73.232  1.00  0.00    -0.313 A  
HETATM   18  S   UNL     1     -12.101   7.104  71.361  1.00  0.00    -0.363 S  
HETATM   19  S   UNL     1      -6.117   8.425  72.513  1.00  0.00    -0.075 S  
HETATM   20  C   UNL     1     -10.072   7.923  72.929  1.00  0.00    -0.376 A  
HETATM   21  O   UNL     1      -5.616   9.877  72.031  1.00  0.00    -0.242 OA 
HETATM   22  O   UNL     1      -5.919   8.401  73.946  1.00  0.00    -0.102 OA 
HETATM   23  O   UNL     1      -5.537   7.426  71.642  1.00  0.00    -0.035 OA 
HETATM   24  C   UNL     1     -10.500   7.846  71.586  1.00  0.00    -0.209 A  
ENDBRANCH  10  11
BRANCH  10  25
HETATM   25  C   UNL     1      -9.953   6.968  68.353  1.00  0.00    -0.160 A  
HETATM   26  C   UNL     1     -10.970   6.590  67.367  1.00  0.00    -0.458 A  
HETATM   27  C   UNL     1      -8.953   5.926  68.629  1.00  0.00    -0.116 A  
HETATM   28  C   UNL     1      -8.656   4.992  67.710  1.00  0.00    -0.103 A  
HETATM   29  C   UNL     1     -10.728   5.643  66.446  1.00  0.00    -0.229 A  
HETATM   30  C   UNL     1      -9.385   4.969  66.394  1.00  0.00    -0.145 A  
BRANCH  30  31
HETATM   31  N   UNL     1      -8.901   4.411  65.316  1.00  0.00    -0.130 NA 
BRANCH  31  32
HETATM   32  C   UNL     1      -7.585   4.836  64.688  1.00  0.00    -0.076 C  
HETATM   33  C   UNL     1      -7.537   6.334  64.450  1.00  0.00    -0.100 C  
ENDBRANCH  31  32
BRANCH  31  34
HETATM   34  C   UNL     1      -9.489   3.146  64.720  1.00  0.00    -0.150 C  
HETATM   35  C   UNL     1     -10.510   3.474  63.647  1.00  0.00    -0.259 C  
ENDBRANCH  31  34
ENDBRANCH  30  31
ENDBRANCH  10  25
ENDBRANCH   9  10
ENDBRANCH   3   4
BRANCH   3  36
HETATM   36  C   UNL     1     -10.858  12.940  64.554  1.00  0.00    -0.363 C  
HETATM   37  C   UNL     1     -11.975  12.719  63.545  1.00  0.00    -0.633 C  
ENDBRANCH   3  36
ENDBRANCH   2   3
TORSDOF 9
ENDMDL
MODEL       13
REMARK 921   NORMALIZED FREE ENERGY PREDICTED BY IDOCK:   -5.38 KCAL/MOL
REMARK 922        TOTAL FREE ENERGY PREDICTED BY IDOCK:  -10.53 KCAL/MOL
REMARK 923 INTER-LIGAND FREE ENERGY PREDICTED BY IDOCK:   -8.60 KCAL/MOL
REMARK 924 INTRA-LIGAND FREE ENERGY PREDICTED BY IDOCK:   -1.93 KCAL/MOL
REMARK 927      BINDING AFFINITY PREDICTED BY RF-SCORE:    0.00 PKD
ROOT
HETATM    1  C   UNL     1     -12.134  14.483  64.342  1.00  0.00    -0.492 C  
HETATM    2  C   UNL     1     -12.824  13.979  65.600  1.00  0.00    -0.406 C  
ENDROOT
BRANCH   2   3
HETATM    3  N   UNL     1     -11.862  13.807  66.702  1.00  0.00    -0.388 NA 
BRANCH   3   4
HETATM    4  C   UNL     1     -11.578  12.520  67.150  1.00  0.00    -0.368 A  
HETATM    5  C   UNL     1     -10.957  11.542  66.363  1.00  0.00    -0.336 A  
HETATM    6  C   UNL     1     -11.880  12.134  68.466  1.00  0.00    -0.365 A  
HETATM    7  C   UNL     1     -10.540  10.305  66.907  1.00  0.00    -0.282 A  
HETATM    8  C   UNL     1     -11.486  10.900  69.016  1.00  0.00    -0.371 A  
HETATM    9  C   UNL     1     -10.755   9.989  68.255  1.00  0.00    -0.280 A  
BRANCH   9  10
HETATM   10  C   UNL     1     -10.140   8.759  68.872  1.00  0.00    -0.210 C  
BRANCH  10  11
HETATM   11  C   UNL     1      -9.124   7.978  68.077  1.00  0.00    -0.130 A  
HETATM   12  O   UNL     1      -7.643  10.027  69.868  1.00  0.00    -0.140 OA 
HETATM   13  O   UNL     1      -6.894  10.831  67.586  1.00  0.00    -0.071 OA 
HETATM   14  C   UNL     1      -9.504   6.704  67.610  1.00  0.00    -0.129 A  
HETATM   15  C   UNL     1      -8.580   5.874  66.949  1.00  0.00    -0.111 A  
HETATM   16  O   UNL     1      -5.529   9.278  68.891  1.00  0.00    -0.037 OA 
HETATM   17  C   UNL     1      -7.312   6.330  66.609  1.00  0.00    -0.078 A  
HETATM   18  S   UNL     1      -7.030   9.791  68.582  1.00  0.00    -0.063 S  
HETATM   19  S   UNL     1      -8.965   4.155  66.746  1.00  0.00    -0.136 S  
HETATM   20  C   UNL     1      -6.930   7.597  67.025  1.00  0.00    -0.080 A  
HETATM   21  O   UNL     1     -10.233   4.140  65.755  1.00  0.00    -0.199 OA 
HETATM   22  O   UNL     1      -7.889   3.528  66.010  1.00  0.00    -0.087 OA 
HETATM   23  O   UNL     1      -9.390   3.675  68.044  1.00  0.00    -0.163 OA 
HETATM   24  C   UNL     1      -7.800   8.389  67.804  1.00  0.00    -0.107 A  
ENDBRANCH  10  11
BRANCH  10  25
HETATM   25  C   UNL     1     -10.614   8.265  70.058  1.00  0.00    -0.235 A  
HETATM   26  C   UNL     1     -11.524   7.119  70.136  1.00  0.00    -0.245 A  
HETATM   27  C   UNL     1     -10.354   8.928  71.344  1.00  0.00    -0.377 A  
HETATM   28  C   UNL     1     -10.458   8.255  72.502  1.00  0.00    -0.406 A  
HETATM   29  C   UNL     1     -11.682   6.432  71.279  1.00  0.00    -0.359 A  
HETATM   30  C   UNL     1     -10.894   6.816  72.502  1.00  0.00    -0.239 A  
BRANCH  30  31
HETATM   31  N   UNL     1     -10.623   5.983  73.473  1.00  0.00    -0.257 NA 
BRANCH  31  32
HETATM   32  C   UNL     1     -11.169   4.567  73.519  1.00  0.00    -0.303 C  
HETATM   33  C   UNL     1     -10.195   3.571  72.920  1.00  0.00    -0.238 C  
ENDBRANCH  31  32
BRANCH  31  34
HETATM   34  C   UNL     1      -9.565   6.272  74.521  1.00  0.00    -0.264 C  
HETATM   35  C   UNL     1      -8.183   6.323  73.899  1.00  0.00    -0.108 C  
ENDBRANCH  31  34
ENDBRANCH  30  31
ENDBRANCH  10  25
ENDBRANCH   9  10
ENDBRANCH   3   4
BRANCH   3  36
HETATM   36  C   UNL     1     -11.484  15.023  67.432  1.00  0.00    -0.317 C  
HETATM   37  C   UNL     1      -9.969  15.136  67.513  1.00  0.00    -0.225 C  
ENDBRANCH   3  36
ENDBRANCH   2   3
TORSDOF 9
ENDMDL
MODEL       14
REMARK 921   NORMALIZED FREE ENERGY PREDICTED BY IDOCK:   -5.37 KCAL/MOL
REMARK 922        TOTAL FREE ENERGY PREDICTED BY IDOCK:  -10.52 KCAL/MOL
REMARK 923 INTER-LIGAND FREE ENERGY PREDICTED BY IDOCK:   -8.99 KCAL/MOL
REMARK 924 INTRA-LIGAND FREE ENERGY PREDICTED BY IDOCK:   -1.53 KCAL/MOL
REMARK 927      BINDING AFFINITY PREDICTED BY RF-SCORE:    0.00 PKD
ROOT
HETATM    1  C   UNL     1      -5.221   7.982  63.761  1.00  0.00    -0.041 C  
HETATM    2  C   UNL     1      -5.948   6.672  64.024  1.00  0.00    -0.034 C  
ENDROOT
BRANCH   2   3
HETATM    3  N   UNL     1      -7.397   6.813  63.805  1.00  0.00    -0.072 NA 
BRANCH   3   4
HETATM    4  C   UNL     1      -8.125   7.644  64.651  1.00  0.00    -0.112 A  
HETATM    5  C   UNL     1      -8.439   7.321  65.977  1.00  0.00    -0.148 A  
HETATM    6  C   UNL     1      -8.569   8.903  64.215  1.00  0.00    -0.133 A  
HETATM    7  C   UNL     1      -9.037   8.260  66.849  1.00  0.00    -0.181 A  
HETATM    8  C   UNL     1      -9.181   9.842  65.067  1.00  0.00    -0.307 A  
HETATM    9  C   UNL     1      -9.369   9.552  66.418  1.00  0.00    -0.231 A  
BRANCH   9  10
HETATM   10  C   UNL     1      -9.824  10.604  67.395  1.00  0.00    -0.198 C  
BRANCH  10  11
HETATM   11  C   UNL     1      -9.761  12.054  66.983  1.00  0.00    -0.204 A  
HETATM   12  O   UNL     1      -6.887  11.039  67.536  1.00  0.00    -0.078 OA 
HETATM   13  O   UNL     1      -7.033  12.881  69.269  1.00  0.00    -0.066 OA 
HETATM   14  C   UNL     1     -10.831  12.557  66.216  1.00  0.00    -0.299 A  
HETATM   15  C   UNL     1     -10.798  13.869  65.708  1.00  0.00    -0.289 A  
HETATM   16  O   UNL     1      -6.055  13.292  67.066  1.00  0.00    -0.180 OA 
HETATM   17  C   UNL     1      -9.786  14.756  66.059  1.00  0.00    -0.350 A  
HETATM   18  S   UNL     1      -7.125  12.416  67.902  1.00  0.00    -0.125 S  
HETATM   19  S   UNL     1     -11.942  14.323  64.432  1.00  0.00    -0.428 S  
HETATM   20  C   UNL     1      -8.742  14.292  66.846  1.00  0.00    -0.202 A  
HETATM   21  O   UNL     1     -13.385  14.249  65.139  1.00  0.00    -0.626 OA 
HETATM   22  O   UNL     1     -11.738  15.719  64.109  1.00  0.00    -0.455 OA 
HETATM   23  O   UNL     1     -11.868  13.284  63.427  1.00  0.00    -0.478 OA 
HETATM   24  C   UNL     1      -8.695  12.941  67.253  1.00  0.00    -0.204 A  
ENDBRANCH  10  11
BRANCH  10  25
HETATM   25  C   UNL     1     -10.130  10.268  68.687  1.00  0.00    -0.187 A  
HETATM   26  C   UNL     1     -11.387  10.655  69.333  1.00  0.00    -0.348 A  
HETATM   27  C   UNL     1      -9.163   9.608  69.576  1.00  0.00    -0.214 A  
HETATM   28  C   UNL     1      -9.573   8.932  70.662  1.00  0.00    -0.262 A  
HETATM   29  C   UNL     1     -11.824  10.026  70.437  1.00  0.00    -0.343 A  
HETATM   30  C   UNL     1     -11.035   8.883  71.014  1.00  0.00    -0.276 A  
BRANCH  30  31
HETATM   31  N   UNL     1     -11.564   7.945  71.755  1.00  0.00    -0.266 NA 
BRANCH  31  32
HETATM   32  C   UNL     1     -11.135   7.691  73.190  1.00  0.00    -0.317 C  
HETATM   33  C   UNL     1     -10.839   6.224  73.434  1.00  0.00    -0.238 C  
ENDBRANCH  31  32
BRANCH  31  34
HETATM   34  C   UNL     1     -12.801   7.175  71.334  1.00  0.00    -0.384 C  
HETATM   35  C   UNL     1     -14.058   7.981  71.596  1.00  0.00    -0.516 C  
ENDBRANCH  31  34
ENDBRANCH  30  31
ENDBRANCH  10  25
ENDBRANCH   9  10
ENDBRANCH   3   4
BRANCH   3  36
HETATM   36  C   UNL     1      -8.013   5.850  62.883  1.00  0.00    -0.108 C  
HETATM   37  C   UNL     1      -7.926   4.445  63.459  1.00  0.00    -0.086 C  
ENDBRANCH   3  36
ENDBRANCH   2   3
TORSDOF 9
ENDMDL
MODEL       15
REMARK 921   NORMALIZED FREE ENERGY PREDICTED BY IDOCK:   -5.32 KCAL/MOL
REMARK 922        TOTAL FREE ENERGY PREDICTED BY IDOCK:  -10.45 KCAL/MOL
REMARK 923 INTER-LIGAND FREE ENERGY PREDICTED BY IDOCK:   -8.39 KCAL/MOL
REMARK 924 INTRA-LIGAND FREE ENERGY PREDICTED BY IDOCK:   -2.06 KCAL/MOL
REMARK 927      BINDING AFFINITY PREDICTED BY RF-SCORE:    0.00 PKD
ROOT
HETATM    1  C   UNL     1      -6.364   6.852  65.542  1.00  0.00    -0.043 C  
HETATM    2  C   UNL     1      -6.100   7.656  64.278  1.00  0.00    -0.048 C  
ENDROOT
BRANCH   2   3
HETATM    3  N   UNL     1      -7.319   8.343  63.819  1.00  0.00    -0.101 NA 
BRANCH   3   4
HETATM    4  C   UNL     1      -8.055   9.087  64.737  1.00  0.00    -0.144 A  
HETATM    5  C   UNL     1      -9.269   8.660  65.289  1.00  0.00    -0.032 A  
HETATM    6  C   UNL     1      -7.586  10.329  65.195  1.00  0.00    -0.133 A  
HETATM    7  C   UNL     1      -9.899   9.370  66.337  1.00  0.00    -0.337 A  
HETATM    8  C   UNL     1      -8.212  11.056  66.226  1.00  0.00    -0.164 A  
HETATM    9  C   UNL     1      -9.351  10.552  66.854  1.00  0.00    -0.181 A  
BRANCH   9  10
HETATM   10  C   UNL     1      -9.919  11.195  68.092  1.00  0.00    -0.189 C  
BRANCH  10  11
HETATM   11  C   UNL     1     -10.069  10.362  69.340  1.00  0.00    -0.251 A  
HETATM   12  O   UNL     1      -7.158  11.407  69.173  1.00  0.00    -0.110 OA 
HETATM   13  O   UNL     1      -6.722   8.913  69.119  1.00  0.00    -0.049 OA 
HETATM   14  C   UNL     1     -11.365  10.222  69.875  1.00  0.00    -0.354 A  
HETATM   15  C   UNL     1     -11.573   9.546  71.091  1.00  0.00    -0.367 A  
HETATM   16  O   UNL     1      -6.647  10.165  71.218  1.00  0.00    -0.326 OA 
HETATM   17  C   UNL     1     -10.539   8.873  71.732  1.00  0.00    -0.432 A  
HETATM   18  S   UNL     1      -7.296  10.086  69.740  1.00  0.00    -0.157 S  
HETATM   19  S   UNL     1     -13.126   9.741  71.926  1.00  0.00    -0.459 S  
HETATM   20  C   UNL     1      -9.261   8.965  71.201  1.00  0.00    -0.324 A  
HETATM   21  O   UNL     1     -14.200   9.053  70.945  1.00  0.00    -0.060 OA 
HETATM   22  O   UNL     1     -13.110   8.924  73.120  1.00  0.00    -0.201 OA 
HETATM   23  O   UNL     1     -13.389  11.163  71.972  1.00  0.00    -0.454 OA 
HETATM   24  C   UNL     1      -9.014   9.751  70.054  1.00  0.00    -0.222 A  
ENDBRANCH  10  11
BRANCH  10  25
HETATM   25  C   UNL     1     -10.442  12.459  68.042  1.00  0.00    -0.227 A  
HETATM   26  C   UNL     1     -10.475  13.355  69.202  1.00  0.00     0.034 A  
HETATM   27  C   UNL     1     -11.137  12.974  66.853  1.00  0.00    -0.306 A  
HETATM   28  C   UNL     1     -11.282  14.295  66.654  1.00  0.00    -0.337 A  
HETATM   29  C   UNL     1     -10.643  14.679  69.055  1.00  0.00    -0.248 A  
HETATM   30  C   UNL     1     -10.773  15.272  67.679  1.00  0.00    -0.282 A  
BRANCH  30  31
HETATM   31  N   UNL     1     -10.482  16.516  67.402  1.00  0.00    -0.309 NA 
BRANCH  31  32
HETATM   32  C   UNL     1     -10.492  17.617  68.449  1.00  0.00    -0.359 C  
HETATM   33  C   UNL     1     -10.695  18.983  67.823  1.00  0.00    -0.441 C  
ENDBRANCH  31  32
BRANCH  31  34
HETATM   34  C   UNL     1      -9.893  16.937  66.069  1.00  0.00    -0.258 C  
HETATM   35  C   UNL     1      -8.378  16.882  66.102  1.00  0.00    -0.286 C  
ENDBRANCH  31  34
ENDBRANCH  30  31
ENDBRANCH  10  25
ENDBRANCH   9  10
ENDBRANCH   3   4
BRANCH   3  36
HETATM   36  C   UNL     1      -7.820   7.964  62.492  1.00  0.00    -0.141 C  
HETATM   37  C   UNL     1      -8.050   6.462  62.428  1.00  0.00    -0.097 C  
ENDBRANCH   3  36
ENDBRANCH   2   3
TORSDOF 9
ENDMDL
MODEL       16
REMARK 921   NORMALIZED FREE ENERGY PREDICTED BY IDOCK:   -5.30 KCAL/MOL
REMARK 922        TOTAL FREE ENERGY PREDICTED BY IDOCK:  -10.42 KCAL/MOL
REMARK 923 INTER-LIGAND FREE ENERGY PREDICTED BY IDOCK:   -8.31 KCAL/MOL
REMARK 924 INTRA-LIGAND FREE ENERGY PREDICTED BY IDOCK:   -2.11 KCAL/MOL
REMARK 927      BINDING AFFINITY PREDICTED BY RF-SCORE:    0.00 PKD
ROOT
HETATM    1  C   UNL     1     -11.498  15.185  64.568  1.00  0.00    -0.319 C  
HETATM    2  C   UNL     1     -10.463  14.142  64.959  1.00  0.00    -0.425 C  
ENDROOT
BRANCH   2   3
HETATM    3  N   UNL     1     -10.923  12.783  64.625  1.00  0.00    -0.310 NA 
BRANCH   3   4
HETATM    4  C   UNL     1     -10.607  11.737  65.487  1.00  0.00    -0.276 A  
HETATM    5  C   UNL     1     -10.926  11.730  66.851  1.00  0.00    -0.333 A  
HETATM    6  C   UNL     1      -9.959  10.585  65.011  1.00  0.00    -0.388 A  
HETATM    7  C   UNL     1     -10.733  10.581  67.652  1.00  0.00    -0.324 A  
HETATM    8  C   UNL     1      -9.745   9.441  65.803  1.00  0.00    -0.354 A  
HETATM    9  C   UNL     1     -10.187   9.403  67.125  1.00  0.00    -0.319 A  
BRANCH   9  10
HETATM   10  C   UNL     1     -10.163   8.130  67.929  1.00  0.00    -0.274 C  
BRANCH  10  11
HETATM   11  C   UNL     1     -10.325   8.213  69.426  1.00  0.00    -0.219 A  
HETATM   12  O   UNL     1      -7.616   9.490  68.634  1.00  0.00    -0.078 OA 
HETATM   13  O   UNL     1      -6.788   7.618  70.126  1.00  0.00    -0.048 OA 
HETATM   14  C   UNL     1     -11.636   8.174  69.941  1.00  0.00     0.282 A  
HETATM   15  C   UNL     1     -11.875   8.347  71.316  1.00  0.00    -0.289 A  
HETATM   16  O   UNL     1      -7.158   9.869  71.007  1.00  0.00    -0.339 OA 
HETATM   17  C   UNL     1     -10.829   8.420  72.230  1.00  0.00    -0.422 A  
HETATM   18  S   UNL     1      -7.609   8.786  69.895  1.00  0.00    -0.068 S  
HETATM   19  S   UNL     1     -13.525   8.698  71.862  1.00  0.00    -0.419 S  
HETATM   20  C   UNL     1      -9.528   8.420  71.747  1.00  0.00    -0.302 A  
HETATM   21  O   UNL     1     -14.356   7.363  71.520  1.00  0.00    -0.448 OA 
HETATM   22  O   UNL     1     -13.520   8.793  73.306  1.00  0.00    -0.081 OA 
HETATM   23  O   UNL     1     -14.014   9.772  71.024  1.00  0.00    -0.135 OA 
HETATM   24  C   UNL     1      -9.277   8.381  70.359  1.00  0.00    -0.153 A  
ENDBRANCH  10  11
BRANCH  10  25
HETATM   25  C   UNL     1      -9.836   6.939  67.337  1.00  0.00    -0.184 A  
HETATM   26  C   UNL     1     -10.839   6.021  66.788  1.00  0.00    -0.356 A  
HETATM   27  C   UNL     1      -8.461   6.420  67.324  1.00  0.00    -0.111 A  
HETATM   28  C   UNL     1      -8.078   5.498  66.426  1.00  0.00    -0.105 A  
HETATM   29  C   UNL     1     -10.499   5.065  65.907  1.00  0.00    -0.233 A  
HETATM   30  C   UNL     1      -9.074   4.942  65.444  1.00  0.00    -0.155 A  
BRANCH  30  31
HETATM   31  N   UNL     1      -8.732   4.397  64.306  1.00  0.00    -0.136 NA 
BRANCH  31  32
HETATM   32  C   UNL     1      -9.423   3.167  63.742  1.00  0.00    -0.115 C  
HETATM   33  C   UNL     1      -8.449   2.266  63.007  1.00  0.00    -0.077 C  
ENDBRANCH  31  32
BRANCH  31  34
HETATM   34  C   UNL     1      -7.772   5.064  63.339  1.00  0.00    -0.074 C  
HETATM   35  C   UNL     1      -7.998   6.563  63.297  1.00  0.00    -0.081 C  
ENDBRANCH  31  34
ENDBRANCH  30  31
ENDBRANCH  10  25
ENDBRANCH   9  10
ENDBRANCH   3   4
BRANCH   3  36
HETATM   36  C   UNL     1     -11.444  12.587  63.266  1.00  0.00    -0.341 C  
HETATM   37  C   UNL     1     -12.817  11.935  63.321  1.00  0.00    -0.303 C  
ENDBRANCH   3  36
ENDBRANCH   2   3
TORSDOF 9
ENDMDL
MODEL       17
REMARK 921   NORMALIZED FREE ENERGY PREDICTED BY IDOCK:   -5.28 KCAL/MOL
REMARK 922        TOTAL FREE ENERGY PREDICTED BY IDOCK:  -10.38 KCAL/MOL
REMARK 923 INTER-LIGAND FREE ENERGY PREDICTED BY IDOCK:   -7.85 KCAL/MOL
REMARK 924 INTRA-LIGAND FREE ENERGY PREDICTED BY IDOCK:   -2.54 KCAL/MOL
REMARK 927      BINDING AFFINITY PREDICTED BY RF-SCORE:    0.00 PKD
ROOT
HETATM    1  C   UNL     1      -9.300   3.570  62.770  1.00  0.00    -0.097 C  
HETATM    2  C   UNL     1      -9.913   3.074  64.070  1.00  0.00    -0.162 C  
ENDROOT
BRANCH   2   3
HETATM    3  N   UNL     1      -9.126   3.516  65.234  1.00  0.00    -0.138 NA 
BRANCH   3   4
HETATM    4  C   UNL     1      -9.351   4.787  65.752  1.00  0.00    -0.161 A  
HETATM    5  C   UNL     1     -10.576   5.201  66.292  1.00  0.00    -0.325 A  
HETATM    6  C   UNL     1      -8.321   5.741  65.793  1.00  0.00    -0.134 A  
HETATM    7  C   UNL     1     -10.714   6.442  66.956  1.00  0.00    -0.434 A  
HETATM    8  C   UNL     1      -8.449   6.987  66.434  1.00  0.00    -0.130 A  
HETATM    9  C   UNL     1      -9.637   7.330  67.080  1.00  0.00    -0.213 A  
BRANCH   9  10
HETATM   10  C   UNL     1      -9.737   8.556  67.949  1.00  0.00    -0.193 C  
BRANCH  10  11
HETATM   11  C   UNL     1     -10.069   8.385  69.411  1.00  0.00    -0.198 A  
HETATM   12  O   UNL     1      -7.005   8.723  69.108  1.00  0.00    -0.057 OA 
HETATM   13  O   UNL     1      -7.081   6.417  70.152  1.00  0.00    -0.069 OA 
HETATM   14  C   UNL     1     -11.374   8.721  69.824  1.00  0.00     0.095 A  
HETATM   15  C   UNL     1     -11.730   8.685  71.184  1.00  0.00    -0.288 A  
HETATM   16  O   UNL     1      -6.783   8.419  71.525  1.00  0.00    -0.057 OA 
HETATM   17  C   UNL     1     -10.861   8.185  72.147  1.00  0.00    -0.370 A  
HETATM   18  S   UNL     1      -7.414   7.824  70.162  1.00  0.00    -0.084 S  
HETATM   19  S   UNL     1     -13.222   9.492  71.701  1.00  0.00    -0.426 S  
HETATM   20  C   UNL     1      -9.584   7.811  71.756  1.00  0.00    -0.204 A  
HETATM   21  O   UNL     1     -14.400   8.649  71.000  1.00  0.00    -0.194 OA 
HETATM   22  O   UNL     1     -13.388   9.283  73.123  1.00  0.00    -0.101 OA 
HETATM   23  O   UNL     1     -13.194  10.816  71.118  1.00  0.00    -0.324 OA 
HETATM   24  C   UNL     1      -9.169   7.967  70.416  1.00  0.00    -0.155 A  
ENDBRANCH  10  11
BRANCH  10  25
HETATM   25  C   UNL     1      -9.693   9.807  67.396  1.00  0.00    -0.202 A  
HETATM   26  C   UNL     1     -10.140  10.089  66.028  1.00  0.00    -0.318 A  
HETATM   27  C   UNL     1      -9.068  10.947  68.081  1.00  0.00    -0.155 A  
HETATM   28  C   UNL     1      -9.374  12.211  67.742  1.00  0.00    -0.193 A  
HETATM   29  C   UNL     1     -10.432  11.340  65.635  1.00  0.00    -0.317 A  
HETATM   30  C   UNL     1     -10.331  12.478  66.613  1.00  0.00    -0.227 A  
BRANCH  30  31
HETATM   31  N   UNL     1     -11.003  13.593  66.490  1.00  0.00    -0.293 NA 
BRANCH  31  32
HETATM   32  C   UNL     1     -12.364  13.665  65.820  1.00  0.00    -0.482 C  
HETATM   33  C   UNL     1     -12.249  14.060  64.360  1.00  0.00    -0.457 C  
ENDBRANCH  31  32
BRANCH  31  34
HETATM   34  C   UNL     1     -10.594  14.872  67.197  1.00  0.00    -0.285 C  
HETATM   35  C   UNL     1     -11.502  15.154  68.378  1.00  0.00    -0.347 C  
ENDBRANCH  31  34
ENDBRANCH  30  31
ENDBRANCH  10  25
ENDBRANCH   9  10
ENDBRANCH   3   4
BRANCH   3  36
HETATM   36  C   UNL     1      -7.966   2.688  65.587  1.00  0.00    -0.082 C  
HETATM   37  C   UNL     1      -8.076   2.222  67.031  1.00  0.00    -0.073 C  
ENDBRANCH   3  36
ENDBRANCH   2   3
TORSDOF 9
ENDMDL
MODEL       18
REMARK 921   NORMALIZED FREE ENERGY PREDICTED BY IDOCK:   -5.26 KCAL/MOL
REMARK 922        TOTAL FREE ENERGY PREDICTED BY IDOCK:  -10.35 KCAL/MOL
REMARK 923 INTER-LIGAND FREE ENERGY PREDICTED BY IDOCK:  -10.12 KCAL/MOL
REMARK 924 INTRA-LIGAND FREE ENERGY PREDICTED BY IDOCK:   -0.23 KCAL/MOL
REMARK 927      BINDING AFFINITY PREDICTED BY RF-SCORE:    0.00 PKD
ROOT
HETATM    1  C   UNL     1      -7.326  20.068  68.376  1.00  0.00    -0.285 C  
HETATM    2  C   UNL     1      -7.913  20.371  67.006  1.00  0.00    -0.312 C  
ENDROOT
BRANCH   2   3
HETATM    3  N   UNL     1      -7.548  19.331  66.029  1.00  0.00    -0.312 NA 
BRANCH   3   4
HETATM    4  C   UNL     1      -8.114  18.066  66.154  1.00  0.00    -0.168 A  
HETATM    5  C   UNL     1      -7.375  16.876  66.110  1.00  0.00    -0.159 A  
HETATM    6  C   UNL     1      -9.493  17.913  66.370  1.00  0.00    -0.278 A  
HETATM    7  C   UNL     1      -7.964  15.625  66.405  1.00  0.00     0.057 A  
HETATM    8  C   UNL     1     -10.096  16.671  66.648  1.00  0.00    -0.305 A  
HETATM    9  C   UNL     1      -9.323  15.513  66.728  1.00  0.00    -0.267 A  
BRANCH   9  10
HETATM   10  C   UNL     1      -9.898  14.214  67.227  1.00  0.00    -0.238 C  
BRANCH  10  11
HETATM   11  C   UNL     1     -10.050  13.067  66.259  1.00  0.00    -0.283 A  
HETATM   12  O   UNL     1     -11.603  15.516  65.169  1.00  0.00    -0.201 OA 
HETATM   13  O   UNL     1     -13.512  13.868  65.409  1.00  0.00    -0.672 OA 
HETATM   14  C   UNL     1      -9.056  12.067  66.277  1.00  0.00    -0.165 A  
HETATM   15  C   UNL     1      -9.073  11.020  65.337  1.00  0.00    -0.195 A  
HETATM   16  O   UNL     1     -12.339  14.145  63.281  1.00  0.00    -0.680 OA 
HETATM   17  C   UNL     1     -10.136  10.853  64.457  1.00  0.00    -0.404 A  
HETATM   18  S   UNL     1     -12.213  14.237  64.889  1.00  0.00    -0.428 S  
HETATM   19  S   UNL     1      -7.614  10.032  65.129  1.00  0.00    -0.141 S  
HETATM   20  C   UNL     1     -11.145  11.805  64.450  1.00  0.00    -0.396 A  
HETATM   21  O   UNL     1      -7.450   9.256  66.529  1.00  0.00    -0.091 OA 
HETATM   22  O   UNL     1      -7.891   9.007  64.146  1.00  0.00    -0.118 OA 
HETATM   23  O   UNL     1      -6.511  10.958  64.984  1.00  0.00     0.072 OA 
HETATM   24  C   UNL     1     -11.074  12.933  65.296  1.00  0.00    -0.284 A  
ENDBRANCH  10  11
BRANCH  10  25
HETATM   25  C   UNL     1     -10.427  14.125  68.487  1.00  0.00    -0.252 A  
HETATM   26  C   UNL     1      -9.980  14.969  69.599  1.00  0.00    -0.117 A  
HETATM   27  C   UNL     1     -11.393  13.083  68.861  1.00  0.00    -0.333 A  
HETATM   28  C   UNL     1     -12.195  13.234  69.929  1.00  0.00    -0.313 A  
HETATM   29  C   UNL     1     -10.735  15.129  70.699  1.00  0.00    -0.160 A  
HETATM   30  C   UNL     1     -12.078  14.460  70.792  1.00  0.00    -0.338 A  
BRANCH  30  31
HETATM   31  N   UNL     1     -13.047  14.896  71.555  1.00  0.00    -0.330 NA 
BRANCH  31  32
HETATM   32  C   UNL     1     -14.337  14.122  71.769  1.00  0.00    -0.384 C  
HETATM   33  C   UNL     1     -14.103  12.854  72.566  1.00  0.00    -0.103 C  
ENDBRANCH  31  32
BRANCH  31  34
HETATM   34  C   UNL     1     -12.888  16.096  72.468  1.00  0.00    -0.310 C  
HETATM   35  C   UNL     1     -12.657  15.660  73.903  1.00  0.00    -0.767 C  
ENDBRANCH  31  34
ENDBRANCH  30  31
ENDBRANCH  10  25
ENDBRANCH   9  10
ENDBRANCH   3   4
BRANCH   3  36
HETATM   36  C   UNL     1      -6.402  19.627  65.160  1.00  0.00    -0.271 C  
HETATM   37  C   UNL     1      -6.630  20.938  64.421  1.00  0.00    -0.191 C  
ENDBRANCH   3  36
ENDBRANCH   2   3
TORSDOF 9
ENDMDL
MODEL       19
REMARK 921   NORMALIZED FREE ENERGY PREDICTED BY IDOCK:   -5.25 KCAL/MOL
REMARK 922        TOTAL FREE ENERGY PREDICTED BY IDOCK:  -10.34 KCAL/MOL
REMARK 923 INTER-LIGAND FREE ENERGY PREDICTED BY IDOCK:   -8.39 KCAL/MOL
REMARK 924 INTRA-LIGAND FREE ENERGY PREDICTED BY IDOCK:   -1.94 KCAL/MOL
REMARK 927      BINDING AFFINITY PREDICTED BY RF-SCORE:    0.00 PKD
ROOT
HETATM    1  C   UNL     1     -12.494  12.191  63.336  1.00  0.00    -0.625 C  
HETATM    2  C   UNL     1     -11.135  12.875  63.339  1.00  0.00    -0.109 C  
ENDROOT
BRANCH   2   3
HETATM    3  N   UNL     1     -10.506  12.806  64.669  1.00  0.00    -0.333 NA 
BRANCH   3   4
HETATM    4  C   UNL     1     -10.516  11.593  65.353  1.00  0.00    -0.275 A  
HETATM    5  C   UNL     1      -9.889  10.431  64.884  1.00  0.00    -0.400 A  
HETATM    6  C   UNL     1     -11.145  11.478  66.603  1.00  0.00    -0.355 A  
HETATM    7  C   UNL     1      -9.783   9.271  65.684  1.00  0.00    -0.302 A  
HETATM    8  C   UNL     1     -11.062  10.323  67.403  1.00  0.00    -0.261 A  
HETATM    9  C   UNL     1     -10.325   9.219  66.975  1.00  0.00    -0.325 A  
BRANCH   9  10
HETATM   10  C   UNL     1     -10.042   8.057  67.891  1.00  0.00    -0.243 C  
BRANCH  10  11
HETATM   11  C   UNL     1     -10.158   8.260  69.381  1.00  0.00    -0.198 A  
HETATM   12  O   UNL     1      -7.586   9.660  68.370  1.00  0.00    -0.080 OA 
HETATM   13  O   UNL     1      -6.564   7.996  69.983  1.00  0.00    -0.039 OA 
HETATM   14  C   UNL     1     -11.444   8.170  69.950  1.00  0.00     0.167 A  
HETATM   15  C   UNL     1     -11.648   8.447  71.315  1.00  0.00    -0.283 A  
HETATM   16  O   UNL     1      -7.077  10.282  70.681  1.00  0.00    -0.322 OA 
HETATM   17  C   UNL     1     -10.580   8.678  72.174  1.00  0.00    -0.411 A  
HETATM   18  S   UNL     1      -7.480   9.074  69.687  1.00  0.00    -0.080 S  
HETATM   19  S   UNL     1     -13.301   8.721  71.896  1.00  0.00    -0.414 S  
HETATM   20  C   UNL     1      -9.300   8.732  71.641  1.00  0.00    -0.345 A  
HETATM   21  O   UNL     1     -14.036   7.302  71.704  1.00  0.00    -0.395 OA 
HETATM   22  O   UNL     1     -13.253   8.944  73.325  1.00  0.00    -0.049 OA 
HETATM   23  O   UNL     1     -13.900   9.676  70.989  1.00  0.00    -0.219 OA 
HETATM   24  C   UNL     1      -9.095   8.588  70.251  1.00  0.00    -0.154 A  
ENDBRANCH  10  11
BRANCH  10  25
HETATM   25  C   UNL     1      -9.530   6.888  67.393  1.00  0.00    -0.151 A  
HETATM   26  C   UNL     1      -8.093   6.607  67.341  1.00  0.00    -0.121 A  
HETATM   27  C   UNL     1     -10.375   5.874  66.746  1.00  0.00    -0.302 A  
HETATM   28  C   UNL     1      -9.963   4.600  66.633  1.00  0.00    -0.260 A  
HETATM   29  C   UNL     1      -7.633   5.353  67.203  1.00  0.00    -0.092 A  
HETATM   30  C   UNL     1      -8.599   4.202  67.127  1.00  0.00    -0.104 A  
BRANCH  30  31
HETATM   31  N   UNL     1      -8.282   2.975  67.451  1.00  0.00    -0.081 NA 
BRANCH  31  32
HETATM   32  C   UNL     1      -6.968   2.330  67.046  1.00  0.00    -0.047 C  
HETATM   33  C   UNL     1      -6.171   1.878  68.254  1.00  0.00    -0.025 C  
ENDBRANCH  31  32
BRANCH  31  34
HETATM   34  C   UNL     1      -9.091   2.161  68.443  1.00  0.00    -0.164 C  
HETATM   35  C   UNL     1      -9.405   2.973  69.685  1.00  0.00    -0.214 C  
ENDBRANCH  31  34
ENDBRANCH  30  31
ENDBRANCH  10  25
ENDBRANCH   9  10
ENDBRANCH   3   4
BRANCH   3  36
HETATM   36  C   UNL     1     -10.162  14.089  65.294  1.00  0.00    -0.360 C  
HETATM   37  C   UNL     1     -11.192  15.145  64.924  1.00  0.00    -0.424 C  
ENDBRANCH   3  36
ENDBRANCH   2   3
TORSDOF 9
ENDMDL
MODEL       20
REMARK 921   NORMALIZED FREE ENERGY PREDICTED BY IDOCK:   -5.21 KCAL/MOL
REMARK 922        TOTAL FREE ENERGY PREDICTED BY IDOCK:  -10.28 KCAL/MOL
REMARK 923 INTER-LIGAND FREE ENERGY PREDICTED BY IDOCK:   -9.00 KCAL/MOL
REMARK 924 INTRA-LIGAND FREE ENERGY PREDICTED BY IDOCK:   -1.28 KCAL/MOL
REMARK 927      BINDING AFFINITY PREDICTED BY RF-SCORE:    0.00 PKD
ROOT
HETATM    1  C   UNL     1     -10.585   3.468  63.616  1.00  0.00    -0.275 C  
HETATM    2  C   UNL     1      -9.773   3.489  64.901  1.00  0.00    -0.157 C  
ENDROOT
BRANCH   2   3
HETATM    3  N   UNL     1      -9.021   4.748  65.036  1.00  0.00    -0.152 NA 
BRANCH   3   4
HETATM    4  C   UNL     1      -9.230   5.537  66.164  1.00  0.00    -0.158 A  
HETATM    5  C   UNL     1      -8.196   6.121  66.907  1.00  0.00    -0.106 A  
HETATM    6  C   UNL     1     -10.531   5.823  66.610  1.00  0.00    -0.330 A  
HETATM    7  C   UNL     1      -8.457   7.045  67.944  1.00  0.00    -0.124 A  
HETATM    8  C   UNL     1     -10.805   6.728  67.652  1.00  0.00    -0.361 A  
HETATM    9  C   UNL     1      -9.767   7.400  68.296  1.00  0.00    -0.159 A  
BRANCH   9  10
HETATM   10  C   UNL     1     -10.033   8.523  69.264  1.00  0.00    -0.195 C  
BRANCH  10  11
HETATM   11  C   UNL     1      -9.676   8.331  70.717  1.00  0.00    -0.197 A  
HETATM   12  O   UNL     1     -12.134   6.570  70.043  1.00  0.00    -0.282 OA 
HETATM   13  O   UNL     1     -13.146   8.055  71.828  1.00  0.00    -0.328 OA 
HETATM   14  C   UNL     1      -8.349   8.608  71.101  1.00  0.00    -0.201 A  
HETATM   15  C   UNL     1      -7.913   8.358  72.415  1.00  0.00    -0.105 A  
HETATM   16  O   UNL     1     -12.209   5.867  72.385  1.00  0.00    -0.239 OA 
HETATM   17  C   UNL     1      -8.801   7.966  73.410  1.00  0.00    -0.324 A  
HETATM   18  S   UNL     1     -12.134   7.126  71.376  1.00  0.00    -0.363 S  
HETATM   19  S   UNL     1      -6.171   8.329  72.749  1.00  0.00    -0.082 S  
HETATM   20  C   UNL     1     -10.122   7.725  73.062  1.00  0.00    -0.382 A  
HETATM   21  O   UNL     1      -5.687   9.843  72.493  1.00  0.00    -0.295 OA 
HETATM   22  O   UNL     1      -5.980   8.093  74.164  1.00  0.00    -0.091 OA 
HETATM   23  O   UNL     1      -5.575   7.479  71.741  1.00  0.00    -0.036 OA 
HETATM   24  C   UNL     1     -10.543   7.844  71.720  1.00  0.00    -0.226 A  
ENDBRANCH  10  11
BRANCH  10  25
HETATM   25  C   UNL     1     -10.736   9.630  68.868  1.00  0.00    -0.230 A  
HETATM   26  C   UNL     1     -11.525  10.445  69.796  1.00  0.00    -0.348 A  
HETATM   27  C   UNL     1     -10.867  10.013  67.455  1.00  0.00    -0.326 A  
HETATM   28  C   UNL     1     -11.190  11.270  67.107  1.00  0.00    -0.344 A  
HETATM   29  C   UNL     1     -11.895  11.698  69.481  1.00  0.00    -0.414 A  
HETATM   30  C   UNL     1     -11.474  12.298  68.168  1.00  0.00    -0.316 A  
BRANCH  30  31
HETATM   31  N   UNL     1     -11.374  13.586  67.965  1.00  0.00    -0.269 NA 
BRANCH  31  32
HETATM   32  C   UNL     1     -12.028  14.286  66.786  1.00  0.00    -0.436 C  
HETATM   33  C   UNL     1     -11.005  14.714  65.752  1.00  0.00    -0.330 C  
ENDBRANCH  31  32
BRANCH  31  34
HETATM   34  C   UNL     1     -10.789  14.530  68.998  1.00  0.00    -0.254 C  
HETATM   35  C   UNL     1     -11.738  15.677  69.285  1.00  0.00    -0.388 C  
ENDBRANCH  31  34
ENDBRANCH  30  31
ENDBRANCH  10  25
ENDBRANCH   9  10
ENDBRANCH   3   4
BRANCH   3  36
HETATM   36  C   UNL     1      -8.313   5.215  63.837  1.00  0.00    -0.131 C  
HETATM   37  C   UNL     1      -6.947   4.554  63.746  1.00  0.00    -0.045 C  
ENDBRANCH   3  36
ENDBRANCH   2   3
TORSDOF 9
ENDMDL
MODEL       21
REMARK 921   NORMALIZED FREE ENERGY PREDICTED BY IDOCK:   -5.21 KCAL/MOL
REMARK 922        TOTAL FREE ENERGY PREDICTED BY IDOCK:  -10.27 KCAL/MOL
REMARK 923 INTER-LIGAND FREE ENERGY PREDICTED BY IDOCK:   -7.92 KCAL/MOL
REMARK 924 INTRA-LIGAND FREE ENERGY PREDICTED BY IDOCK:   -2.35 KCAL/MOL
REMARK 927      BINDING AFFINITY PREDICTED BY RF-SCORE:    0.00 PKD
ROOT
HETATM    1  C   UNL     1      -8.433   3.362  71.833  1.00  0.00    -0.092 C  
HETATM    2  C   UNL     1      -9.754   4.104  71.698  1.00  0.00    -0.176 C  
ENDROOT
BRANCH   2   3
HETATM    3  N   UNL     1      -9.650   5.476  72.225  1.00  0.00    -0.151 NA 
BRANCH   3   4
HETATM    4  C   UNL     1      -9.621   6.538  71.327  1.00  0.00    -0.166 A  
HETATM    5  C   UNL     1     -10.647   6.813  70.414  1.00  0.00    -0.262 A  
HETATM    6  C   UNL     1      -8.541   7.437  71.311  1.00  0.00    -0.118 A  
HETATM    7  C   UNL     1     -10.652   7.994  69.635  1.00  0.00    -0.223 A  
HETATM    8  C   UNL     1      -8.525   8.607  70.529  1.00  0.00    -0.160 A  
HETATM    9  C   UNL     1      -9.614   8.932  69.721  1.00  0.00    -0.175 A  
BRANCH   9  10
HETATM   10  C   UNL     1      -9.719  10.271  69.039  1.00  0.00    -0.213 C  
BRANCH  10  11
HETATM   11  C   UNL     1      -8.546  10.770  68.233  1.00  0.00    -0.135 A  
HETATM   12  O   UNL     1     -10.363   9.048  66.407  1.00  0.00    -0.261 OA 
HETATM   13  O   UNL     1      -8.222   7.702  66.275  1.00  0.00    -0.109 OA 
HETATM   14  C   UNL     1      -7.898  11.938  68.684  1.00  0.00    -0.104 A  
HETATM   15  C   UNL     1      -6.862  12.522  67.932  1.00  0.00    -0.105 A  
HETATM   16  O   UNL     1      -8.764   9.384  64.586  1.00  0.00    -0.180 OA 
HETATM   17  C   UNL     1      -6.347  11.897  66.802  1.00  0.00    -0.039 A  
HETATM   18  S   UNL     1      -8.949   8.943  66.129  1.00  0.00    -0.191 S  
HETATM   19  S   UNL     1      -6.360  14.180  68.309  1.00  0.00    -0.133 S  
HETATM   20  C   UNL     1      -6.944  10.725  66.363  1.00  0.00    -0.134 A  
HETATM   21  O   UNL     1      -5.723  14.083  69.784  1.00  0.00    -0.097 OA 
HETATM   22  O   UNL     1      -5.264  14.537  67.435  1.00  0.00    -0.329 OA 
HETATM   23  O   UNL     1      -7.572  14.968  68.383  1.00  0.00    -0.107 OA 
HETATM   24  C   UNL     1      -8.071  10.199  67.032  1.00  0.00    -0.117 A  
ENDBRANCH  10  11
BRANCH  10  25
HETATM   25  C   UNL     1     -10.788  11.093  69.280  1.00  0.00    -0.277 A  
HETATM   26  C   UNL     1     -11.615  10.990  70.486  1.00  0.00    -0.344 A  
HETATM   27  C   UNL     1     -11.276  12.057  68.284  1.00  0.00    -0.315 A  
HETATM   28  C   UNL     1     -12.028  13.109  68.651  1.00  0.00    -0.319 A  
HETATM   29  C   UNL     1     -12.403  12.005  70.878  1.00  0.00    -0.384 A  
HETATM   30  C   UNL     1     -12.425  13.287  70.091  1.00  0.00    -0.140 A  
BRANCH  30  31
HETATM   31  N   UNL     1     -12.765  14.440  70.605  1.00  0.00    -0.350 NA 
BRANCH  31  32
HETATM   32  C   UNL     1     -13.847  14.584  71.661  1.00  0.00    -0.434 C  
HETATM   33  C   UNL     1     -13.477  15.619  72.705  1.00  0.00    -0.655 C  
ENDBRANCH  31  32
BRANCH  31  34
HETATM   34  C   UNL     1     -11.966  15.706  70.363  1.00  0.00    -0.376 C  
HETATM   35  C   UNL     1     -10.478  15.442  70.489  1.00  0.00    -0.140 C  
ENDBRANCH  31  34
ENDBRANCH  30  31
ENDBRANCH  10  25
ENDBRANCH   9  10
ENDBRANCH   3   4
BRANCH   3  36
HETATM   36  C   UNL     1      -9.305   5.603  73.647  1.00  0.00    -0.137 C  
HETATM   37  C   UNL     1     -10.401   6.357  74.385  1.00  0.00    -0.268 C  
ENDBRANCH   3  36
ENDBRANCH   2   3
TORSDOF 9
ENDMDL
MODEL       22
REMARK 921   NORMALIZED FREE ENERGY PREDICTED BY IDOCK:   -5.20 KCAL/MOL
REMARK 922        TOTAL FREE ENERGY PREDICTED BY IDOCK:  -10.26 KCAL/MOL
REMARK 923 INTER-LIGAND FREE ENERGY PREDICTED BY IDOCK:   -9.38 KCAL/MOL
REMARK 924 INTRA-LIGAND FREE ENERGY PREDICTED BY IDOCK:   -0.88 KCAL/MOL
REMARK 927      BINDING AFFINITY PREDICTED BY RF-SCORE:    0.00 PKD
ROOT
HETATM    1  C   UNL     1     -14.400   8.624  72.199  1.00  0.00    -0.518 C  
HETATM    2  C   UNL     1     -13.276   9.649  72.221  1.00  0.00    -0.404 C  
ENDROOT
BRANCH   2   3
HETATM    3  N   UNL     1     -12.006   9.056  71.769  1.00  0.00    -0.343 NA 
BRANCH   3   4
HETATM    4  C   UNL     1     -11.227   9.759  70.854  1.00  0.00    -0.359 A  
HETATM    5  C   UNL     1      -9.899   9.430  70.550  1.00  0.00    -0.331 A  
HETATM    6  C   UNL     1     -11.759  10.846  70.142  1.00  0.00    -0.433 A  
HETATM    7  C   UNL     1      -9.199  10.066  69.498  1.00  0.00    -0.238 A  
HETATM    8  C   UNL     1     -11.067  11.500  69.105  1.00  0.00    -0.316 A  
HETATM    9  C   UNL     1      -9.793  11.075  68.728  1.00  0.00    -0.206 A  
BRANCH   9  10
HETATM   10  C   UNL     1      -9.117  11.610  67.493  1.00  0.00    -0.172 C  
BRANCH  10  11
HETATM   11  C   UNL     1      -9.421  13.019  67.050  1.00  0.00    -0.237 A  
HETATM   12  O   UNL     1      -6.395  12.792  67.672  1.00  0.00    -0.123 OA 
HETATM   13  O   UNL     1      -7.049  14.563  69.361  1.00  0.00    -0.143 OA 
HETATM   14  C   UNL     1     -10.568  13.215  66.254  1.00  0.00    -0.292 A  
HETATM   15  C   UNL     1     -10.863  14.482  65.718  1.00  0.00    -0.315 A  
HETATM   16  O   UNL     1      -6.163  15.174  67.165  1.00  0.00    -0.279 OA 
HETATM   17  C   UNL     1     -10.123  15.606  66.065  1.00  0.00    -0.355 A  
HETATM   18  S   UNL     1      -6.989  14.066  68.004  1.00  0.00    -0.165 S  
HETATM   19  S   UNL     1     -12.058  14.603  64.413  1.00  0.00    -0.385 S  
HETATM   20  C   UNL     1      -9.012  15.441  66.880  1.00  0.00    -0.273 A  
HETATM   21  O   UNL     1     -13.449  14.170  65.098  1.00  0.00    -0.502 OA 
HETATM   22  O   UNL     1     -12.215  15.998  64.062  1.00  0.00    -0.792 OA 
HETATM   23  O   UNL     1     -11.696  13.601  63.433  1.00  0.00    -0.195 OA 
HETATM   24  C   UNL     1      -8.627  14.155  67.317  1.00  0.00    -0.218 A  
ENDBRANCH  10  11
BRANCH  10  25
HETATM   25  C   UNL     1      -8.371  10.783  66.696  1.00  0.00    -0.141 A  
HETATM   26  C   UNL     1      -7.270   9.962  67.208  1.00  0.00    -0.086 A  
HETATM   27  C   UNL     1      -8.525  10.754  65.234  1.00  0.00    -0.116 A  
HETATM   28  C   UNL     1      -8.110   9.697  64.516  1.00  0.00    -0.143 A  
HETATM   29  C   UNL     1      -6.803   8.911  66.514  1.00  0.00    -0.079 A  
HETATM   30  C   UNL     1      -7.430   8.541  65.198  1.00  0.00    -0.091 A  
BRANCH  30  31
HETATM   31  N   UNL     1      -7.383   7.337  64.692  1.00  0.00    -0.073 NA 
BRANCH  31  32
HETATM   32  C   UNL     1      -7.806   6.101  65.468  1.00  0.00    -0.103 C  
HETATM   33  C   UNL     1      -8.507   5.093  64.577  1.00  0.00    -0.141 C  
ENDBRANCH  31  32
BRANCH  31  34
HETATM   34  C   UNL     1      -7.116   7.081  63.221  1.00  0.00    -0.065 C  
HETATM   35  C   UNL     1      -5.641   6.831  62.972  1.00  0.00    -0.031 C  
ENDBRANCH  31  34
ENDBRANCH  30  31
ENDBRANCH  10  25
ENDBRANCH   9  10
ENDBRANCH   3   4
BRANCH   3  36
HETATM   36  C   UNL     1     -11.790   7.643  72.104  1.00  0.00    -0.309 C  
HETATM   37  C   UNL     1     -10.799   7.523  73.252  1.00  0.00    -0.409 C  
ENDBRANCH   3  36
ENDBRANCH   2   3
TORSDOF 9
ENDMDL
MODEL       23
REMARK 921   NORMALIZED FREE ENERGY PREDICTED BY IDOCK:   -5.18 KCAL/MOL
REMARK 922        TOTAL FREE ENERGY PREDICTED BY IDOCK:  -10.23 KCAL/MOL
REMARK 923 INTER-LIGAND FREE ENERGY PREDICTED BY IDOCK:   -7.79 KCAL/MOL
REMARK 924 INTRA-LIGAND FREE ENERGY PREDICTED BY IDOCK:   -2.45 KCAL/MOL
REMARK 927      BINDING AFFINITY PREDICTED BY RF-SCORE:    0.00 PKD
ROOT
HETATM    1  C   UNL     1      -5.558   5.462  64.365  1.00  0.00    -0.017 C  
HETATM    2  C   UNL     1      -6.764   4.907  65.107  1.00  0.00    -0.048 C  
ENDROOT
BRANCH   2   3
HETATM    3  N   UNL     1      -8.014   5.516  64.622  1.00  0.00    -0.108 NA 
BRANCH   3   4
HETATM    4  C   UNL     1      -8.605   6.525  65.377  1.00  0.00    -0.068 A  
HETATM    5  C   UNL     1      -9.586   6.295  66.350  1.00  0.00    -0.159 A  
HETATM    6  C   UNL     1      -8.213   7.864  65.220  1.00  0.00    -0.147 A  
HETATM    7  C   UNL     1     -10.040   7.325  67.206  1.00  0.00    -0.291 A  
HETATM    8  C   UNL     1      -8.669   8.903  66.053  1.00  0.00    -0.185 A  
HETATM    9  C   UNL     1      -9.548   8.634  67.101  1.00  0.00    -0.227 A  
BRANCH   9  10
HETATM   10  C   UNL     1      -9.888   9.676  68.133  1.00  0.00    -0.172 C  
BRANCH  10  11
HETATM   11  C   UNL     1     -10.142   9.236  69.554  1.00  0.00    -0.205 A  
HETATM   12  O   UNL     1      -7.173  10.078  69.275  1.00  0.00    -0.064 OA 
HETATM   13  O   UNL     1      -6.872   7.655  69.950  1.00  0.00    -0.045 OA 
HETATM   14  C   UNL     1     -11.468   9.305  70.028  1.00  0.00    -0.077 A  
HETATM   15  C   UNL     1     -11.769   9.009  71.370  1.00  0.00    -0.322 A  
HETATM   16  O   UNL     1      -6.827   9.446  71.614  1.00  0.00    -0.306 OA 
HETATM   17  C   UNL     1     -10.803   8.505  72.234  1.00  0.00    -0.418 A  
HETATM   18  S   UNL     1      -7.410   8.977  70.181  1.00  0.00    -0.076 S  
HETATM   19  S   UNL     1     -13.345   9.492  72.021  1.00  0.00    -0.462 S  
HETATM   20  C   UNL     1      -9.498   8.393  71.776  1.00  0.00    -0.302 A  
HETATM   21  O   UNL     1     -14.409   8.597  71.209  1.00  0.00    -0.340 OA 
HETATM   22  O   UNL     1     -13.430   9.046  73.395  1.00  0.00     0.129 OA 
HETATM   23  O   UNL     1     -13.533  10.879  71.651  1.00  0.00    -0.276 OA 
HETATM   24  C   UNL     1      -9.157   8.812  70.472  1.00  0.00    -0.177 A  
ENDBRANCH  10  11
BRANCH  10  25
HETATM   25  C   UNL     1     -10.127  10.972  67.761  1.00  0.00    -0.201 A  
HETATM   26  C   UNL     1     -11.377  11.402  67.129  1.00  0.00    -0.327 A  
HETATM   27  C   UNL     1      -9.094  12.015  67.843  1.00  0.00    -0.183 A  
HETATM   28  C   UNL     1      -9.425  13.317  67.871  1.00  0.00    -0.214 A  
HETATM   29  C   UNL     1     -11.739  12.696  67.108  1.00  0.00    -0.438 A  
HETATM   30  C   UNL     1     -10.869  13.730  67.768  1.00  0.00    -0.250 A  
BRANCH  30  31
HETATM   31  N   UNL     1     -11.319  14.878  68.201  1.00  0.00    -0.299 NA 
BRANCH  31  32
HETATM   32  C   UNL     1     -12.151  15.011  69.465  1.00  0.00    -0.276 C  
HETATM   33  C   UNL     1     -12.053  13.771  70.333  1.00  0.00    -0.421 C  
ENDBRANCH  31  32
BRANCH  31  34
HETATM   34  C   UNL     1     -10.870  16.203  67.614  1.00  0.00    -0.297 C  
HETATM   35  C   UNL     1     -10.646  16.087  66.119  1.00  0.00    -0.302 C  
ENDBRANCH  31  34
ENDBRANCH  30  31
ENDBRANCH  10  25
ENDBRANCH   9  10
ENDBRANCH   3   4
BRANCH   3  36
HETATM   36  C   UNL     1      -8.693   4.822  63.520  1.00  0.00    -0.126 C  
HETATM   37  C   UNL     1      -8.692   3.321  63.768  1.00  0.00    -0.089 C  
ENDBRANCH   3  36
ENDBRANCH   2   3
TORSDOF 9
ENDMDL
MODEL       24
REMARK 921   NORMALIZED FREE ENERGY PREDICTED BY IDOCK:   -5.18 KCAL/MOL
REMARK 922        TOTAL FREE ENERGY PREDICTED BY IDOCK:  -10.23 KCAL/MOL
REMARK 923 INTER-LIGAND FREE ENERGY PREDICTED BY IDOCK:   -8.81 KCAL/MOL
REMARK 924 INTRA-LIGAND FREE ENERGY PREDICTED BY IDOCK:   -1.41 KCAL/MOL
REMARK 927      BINDING AFFINITY PREDICTED BY RF-SCORE:    0.00 PKD
ROOT
HETATM    1  C   UNL     1     -10.160  19.020  68.029  1.00  0.00    -0.458 C  
HETATM    2  C   UNL     1     -10.096  17.581  68.517  1.00  0.00    -0.363 C  
ENDROOT
BRANCH   2   3
HETATM    3  N   UNL     1     -10.330  16.634  67.415  1.00  0.00    -0.288 NA 
BRANCH   3   4
HETATM    4  C   UNL     1     -10.368  15.272  67.698  1.00  0.00    -0.250 A  
HETATM    5  C   UNL     1     -11.486  14.460  67.469  1.00  0.00    -0.370 A  
HETATM    6  C   UNL     1      -9.239  14.613  68.213  1.00  0.00    -0.198 A  
HETATM    7  C   UNL     1     -11.428  13.055  67.616  1.00  0.00    -0.369 A  
HETATM    8  C   UNL     1      -9.172  13.217  68.381  1.00  0.00    -0.145 A  
HETATM    9  C   UNL     1     -10.253  12.410  68.026  1.00  0.00    -0.219 A  
BRANCH   9  10
HETATM   10  C   UNL     1     -10.140  10.909  67.994  1.00  0.00    -0.197 C  
BRANCH  10  11
HETATM   11  C   UNL     1     -10.227  10.146  69.293  1.00  0.00    -0.238 A  
HETATM   12  O   UNL     1      -7.324  11.161  68.914  1.00  0.00    -0.094 OA 
HETATM   13  O   UNL     1      -6.902   8.664  68.975  1.00  0.00    -0.054 OA 
HETATM   14  C   UNL     1     -11.493  10.045  69.903  1.00  0.00    -0.274 A  
HETATM   15  C   UNL     1     -11.638   9.438  71.163  1.00  0.00    -0.345 A  
HETATM   16  O   UNL     1      -6.710  10.029  70.994  1.00  0.00    -0.325 OA 
HETATM   17  C   UNL     1     -10.574   8.794  71.784  1.00  0.00    -0.417 A  
HETATM   18  S   UNL     1      -7.437   9.873  69.560  1.00  0.00    -0.129 S  
HETATM   19  S   UNL     1     -13.143   9.689  72.067  1.00  0.00    -0.448 S  
HETATM   20  C   UNL     1      -9.325   8.848  71.182  1.00  0.00    -0.326 A  
HETATM   21  O   UNL     1     -14.271   8.956  71.184  1.00  0.00    -0.238 OA 
HETATM   22  O   UNL     1     -13.068   8.938  73.302  1.00  0.00    -0.014 OA 
HETATM   23  O   UNL     1     -13.399  11.113  72.049  1.00  0.00    -0.454 OA 
HETATM   24  C   UNL     1      -9.138   9.568  69.982  1.00  0.00    -0.227 A  
ENDBRANCH  10  11
BRANCH  10  25
HETATM   25  C   UNL     1      -9.798  10.261  66.837  1.00  0.00    -0.244 A  
HETATM   26  C   UNL     1      -9.529  10.965  65.580  1.00  0.00    -0.252 A  
HETATM   27  C   UNL     1      -9.806   8.795  66.727  1.00  0.00    -0.316 A  
HETATM   28  C   UNL     1      -9.105   8.170  65.766  1.00  0.00    -0.139 A  
HETATM   29  C   UNL     1      -8.855  10.372  64.581  1.00  0.00    -0.216 A  
HETATM   30  C   UNL     1      -8.336   8.971  64.751  1.00  0.00    -0.173 A  
BRANCH  30  31
HETATM   31  N   UNL     1      -7.322   8.493  64.078  1.00  0.00    -0.099 NA 
BRANCH  31  32
HETATM   32  C   UNL     1      -6.870   7.046  64.189  1.00  0.00    -0.050 C  
HETATM   33  C   UNL     1      -7.310   6.230  62.988  1.00  0.00    -0.062 C  
ENDBRANCH  31  32
BRANCH  31  34
HETATM   34  C   UNL     1      -6.646   9.268  62.964  1.00  0.00    -0.094 C  
HETATM   35  C   UNL     1      -5.182   9.508  63.280  1.00  0.00    -0.070 C  
ENDBRANCH  31  34
ENDBRANCH  30  31
ENDBRANCH  10  25
ENDBRANCH   9  10
ENDBRANCH   3   4
BRANCH   3  36
HETATM   36  C   UNL     1     -10.229  17.179  66.055  1.00  0.00    -0.321 C  
HETATM   37  C   UNL     1     -10.899  16.240  65.063  1.00  0.00    -0.337 C  
ENDBRANCH   3  36
ENDBRANCH   2   3
TORSDOF 9
ENDMDL
MODEL       25
REMARK 921   NORMALIZED FREE ENERGY PREDICTED BY IDOCK:   -5.14 KCAL/MOL
REMARK 922        TOTAL FREE ENERGY PREDICTED BY IDOCK:  -10.18 KCAL/MOL
REMARK 923 INTER-LIGAND FREE ENERGY PREDICTED BY IDOCK:   -8.24 KCAL/MOL
REMARK 924 INTRA-LIGAND FREE ENERGY PREDICTED BY IDOCK:   -1.93 KCAL/MOL
REMARK 927      BINDING AFFINITY PREDICTED BY RF-SCORE:    0.00 PKD
ROOT
HETATM    1  C   UNL     1     -11.102  15.017  66.227  1.00  0.00    -0.334 C  
HETATM    2  C   UNL     1     -12.131  13.897  66.261  1.00  0.00    -0.451 C  
ENDROOT
BRANCH   2   3
HETATM    3  N   UNL     1     -11.702  12.754  65.438  1.00  0.00    -0.365 NA 
BRANCH   3   4
HETATM    4  C   UNL     1     -11.075  11.678  66.060  1.00  0.00    -0.270 A  
HETATM    5  C   UNL     1     -11.201  11.388  67.425  1.00  0.00    -0.370 A  
HETATM    6  C   UNL     1     -10.287  10.780  65.322  1.00  0.00    -0.327 A  
HETATM    7  C   UNL     1     -10.683  10.196  67.982  1.00  0.00    -0.305 A  
HETATM    8  C   UNL     1      -9.750   9.598  65.867  1.00  0.00    -0.343 A  
HETATM    9  C   UNL     1      -9.994   9.260  67.197  1.00  0.00    -0.276 A  
BRANCH   9  10
HETATM   10  C   UNL     1      -9.616   7.911  67.750  1.00  0.00    -0.174 C  
BRANCH  10  11
HETATM   11  C   UNL     1      -9.207   7.808  69.198  1.00  0.00    -0.144 A  
HETATM   12  O   UNL     1      -7.158   9.581  67.696  1.00  0.00    -0.080 OA 
HETATM   13  O   UNL     1      -5.626   7.720  68.475  1.00  0.00    -0.026 OA 
HETATM   14  C   UNL     1     -10.213   7.505  70.138  1.00  0.00    -0.206 A  
HETATM   15  C   UNL     1      -9.930   7.491  71.516  1.00  0.00    -0.177 A  
HETATM   16  O   UNL     1      -5.880   9.776  69.773  1.00  0.00    -0.039 OA 
HETATM   17  C   UNL     1      -8.631   7.634  71.990  1.00  0.00    -0.136 A  
HETATM   18  S   UNL     1      -6.596   8.759  68.743  1.00  0.00    -0.054 S  
HETATM   19  S   UNL     1     -11.278   7.512  72.667  1.00  0.00    -0.351 S  
HETATM   20  C   UNL     1      -7.618   7.894  71.079  1.00  0.00    -0.082 A  
HETATM   21  O   UNL     1     -12.024   6.104  72.440  1.00  0.00    -0.290 OA 
HETATM   22  O   UNL     1     -10.737   7.453  74.008  1.00  0.00    -0.254 OA 
HETATM   23  O   UNL     1     -12.163   8.575  72.242  1.00  0.00    -0.357 OA 
HETATM   24  C   UNL     1      -7.909   8.043  69.705  1.00  0.00    -0.106 A  
ENDBRANCH  10  11
BRANCH  10  25
HETATM   25  C   UNL     1      -9.486   6.830  66.920  1.00  0.00    -0.189 A  
HETATM   26  C   UNL     1      -8.215   6.458  66.292  1.00  0.00    -0.118 A  
HETATM   27  C   UNL     1     -10.640   6.033  66.481  1.00  0.00    -0.238 A  
HETATM   28  C   UNL     1     -10.482   4.780  66.023  1.00  0.00    -0.332 A  
HETATM   29  C   UNL     1      -8.018   5.225  65.795  1.00  0.00    -0.105 A  
HETATM   30  C   UNL     1      -9.103   4.189  65.904  1.00  0.00    -0.136 A  
BRANCH  30  31
HETATM   31  N   UNL     1      -8.873   2.902  65.887  1.00  0.00    -0.136 NA 
BRANCH  31  32
HETATM   32  C   UNL     1      -8.346   2.176  64.661  1.00  0.00    -0.087 C  
HETATM   33  C   UNL     1      -9.286   2.318  63.480  1.00  0.00    -0.098 C  
ENDBRANCH  31  32
BRANCH  31  34
HETATM   34  C   UNL     1      -8.896   2.055  67.145  1.00  0.00    -0.131 C  
HETATM   35  C   UNL     1      -8.968   2.925  68.385  1.00  0.00    -0.192 C  
ENDBRANCH  31  34
ENDBRANCH  30  31
ENDBRANCH  10  25
ENDBRANCH   9  10
ENDBRANCH   3   4
BRANCH   3  36
HETATM   36  C   UNL     1     -11.717  12.956  63.984  1.00  0.00    -0.434 C  
HETATM   37  C   UNL     1     -12.784  12.081  63.345  1.00  0.00    -0.527 C  
ENDBRANCH   3  36
ENDBRANCH   2   3
TORSDOF 9
ENDMDL
MODEL       26
REMARK 921   NORMALIZED FREE ENERGY PREDICTED BY IDOCK:   -5.14 KCAL/MOL
REMARK 922        TOTAL FREE ENERGY PREDICTED BY IDOCK:  -10.16 KCAL/MOL
REMARK 923 INTER-LIGAND FREE ENERGY PREDICTED BY IDOCK:   -8.82 KCAL/MOL
REMARK 924 INTRA-LIGAND FREE ENERGY PREDICTED BY IDOCK:   -1.34 KCAL/MOL
REMARK 927      BINDING AFFINITY PREDICTED BY RF-SCORE:    0.00 PKD
ROOT
HETATM    1  C   UNL     1      -9.966  11.412  63.002  1.00  0.00    -0.354 C  
HETATM    2  C   UNL     1      -9.227  10.249  62.359  1.00  0.00    -0.287 C  
ENDROOT
BRANCH   2   3
HETATM    3  N   UNL     1      -8.230   9.676  63.279  1.00  0.00    -0.145 NA 
BRANCH   3   4
HETATM    4  C   UNL     1      -8.444   9.784  64.650  1.00  0.00    -0.172 A  
HETATM    5  C   UNL     1      -7.931  10.823  65.438  1.00  0.00    -0.027 A  
HETATM    6  C   UNL     1      -9.237   8.845  65.330  1.00  0.00    -0.202 A  
HETATM    7  C   UNL     1      -8.307  10.984  66.791  1.00  0.00    -0.147 A  
HETATM    8  C   UNL     1      -9.605   8.983  66.682  1.00  0.00    -0.274 A  
HETATM    9  C   UNL     1      -9.190  10.093  67.417  1.00  0.00    -0.156 A  
BRANCH   9  10
HETATM   10  C   UNL     1      -9.736  10.378  68.792  1.00  0.00    -0.184 C  
BRANCH  10  11
HETATM   11  C   UNL     1      -9.308   9.497  69.940  1.00  0.00    -0.247 A  
HETATM   12  O   UNL     1      -7.268  11.808  69.630  1.00  0.00     0.065 OA 
HETATM   13  O   UNL     1      -5.738   9.828  69.237  1.00  0.00    -0.035 OA 
HETATM   14  C   UNL     1     -10.304   8.725  70.571  1.00  0.00    -0.241 A  
HETATM   15  C   UNL     1     -10.005   7.957  71.711  1.00  0.00    -0.177 A  
HETATM   16  O   UNL     1      -5.963  10.832  71.455  1.00  0.00    -0.320 OA 
HETATM   17  C   UNL     1      -8.699   7.818  72.168  1.00  0.00    -0.169 A  
HETATM   18  S   UNL     1      -6.698  10.547  70.045  1.00  0.00    -0.147 S  
HETATM   19  S   UNL     1     -11.338   7.339  72.703  1.00  0.00    -0.267 S  
HETATM   20  C   UNL     1      -7.696   8.539  71.536  1.00  0.00    -0.146 A  
HETATM   21  O   UNL     1     -12.095   6.286  71.750  1.00  0.00    -0.323 OA 
HETATM   22  O   UNL     1     -10.781   6.555  73.784  1.00  0.00    -0.283 OA 
HETATM   23  O   UNL     1     -12.222   8.460  72.944  1.00  0.00    -0.274 OA 
HETATM   24  C   UNL     1      -8.004   9.417  70.474  1.00  0.00    -0.174 A  
ENDBRANCH  10  11
BRANCH  10  25
HETATM   25  C   UNL     1     -10.725  11.308  68.970  1.00  0.00    -0.257 A  
HETATM   26  C   UNL     1     -11.542  11.379  70.184  1.00  0.00    -0.368 A  
HETATM   27  C   UNL     1     -11.139  12.227  67.900  1.00  0.00    -0.290 A  
HETATM   28  C   UNL     1     -11.791  13.368  68.182  1.00  0.00    -0.396 A  
HETATM   29  C   UNL     1     -12.233  12.488  70.495  1.00  0.00    -0.382 A  
HETATM   30  C   UNL     1     -12.153  13.698  69.604  1.00  0.00    -0.321 A  
BRANCH  30  31
HETATM   31  N   UNL     1     -12.383  14.915  70.022  1.00  0.00    -0.325 NA 
BRANCH  31  32
HETATM   32  C   UNL     1     -13.423  15.238  71.082  1.00  0.00    -0.489 C  
HETATM   33  C   UNL     1     -12.781  15.752  72.356  1.00  0.00    -0.537 C  
ENDBRANCH  31  32
BRANCH  31  34
HETATM   34  C   UNL     1     -11.489  16.084  69.658  1.00  0.00    -0.326 C  
HETATM   35  C   UNL     1     -10.025  15.700  69.757  1.00  0.00    -0.281 C  
ENDBRANCH  31  34
ENDBRANCH  30  31
ENDBRANCH  10  25
ENDBRANCH   9  10
ENDBRANCH   3   4
BRANCH   3  36
HETATM   36  C   UNL     1      -6.947   9.279  62.685  1.00  0.00    -0.094 C  
HETATM   37  C   UNL     1      -6.332   8.138  63.482  1.00  0.00    -0.072 C  
ENDBRANCH   3  36
ENDBRANCH   2   3
TORSDOF 9
ENDMDL
MODEL       27
REMARK 921   NORMALIZED FREE ENERGY PREDICTED BY IDOCK:   -5.12 KCAL/MOL
REMARK 922        TOTAL FREE ENERGY PREDICTED BY IDOCK:  -10.13 KCAL/MOL
REMARK 923 INTER-LIGAND FREE ENERGY PREDICTED BY IDOCK:   -8.29 KCAL/MOL
REMARK 924 INTRA-LIGAND FREE ENERGY PREDICTED BY IDOCK:   -1.84 KCAL/MOL
REMARK 927      BINDING AFFINITY PREDICTED BY RF-SCORE:    0.00 PKD
ROOT
HETATM    1  C   UNL     1      -5.906   9.680  62.473  1.00  0.00    -0.090 C  
HETATM    2  C   UNL     1      -5.860   8.200  62.819  1.00  0.00    -0.073 C  
ENDROOT
BRANCH   2   3
HETATM    3  N   UNL     1      -7.139   7.746  63.390  1.00  0.00    -0.072 NA 
BRANCH   3   4
HETATM    4  C   UNL     1      -7.662   8.425  64.487  1.00  0.00    -0.121 A  
HETATM    5  C   UNL     1      -6.927   8.716  65.644  1.00  0.00    -0.075 A  
HETATM    6  C   UNL     1      -8.985   8.897  64.476  1.00  0.00     0.001 A  
HETATM    7  C   UNL     1      -7.446   9.548  66.663  1.00  0.00    -0.093 A  
HETATM    8  C   UNL     1      -9.520   9.712  65.491  1.00  0.00    -0.330 A  
HETATM    9  C   UNL     1      -8.732  10.099  66.575  1.00  0.00    -0.139 A  
BRANCH   9  10
HETATM   10  C   UNL     1      -9.203  11.133  67.563  1.00  0.00    -0.155 C  
BRANCH  10  11
HETATM   11  C   UNL     1      -9.097  12.592  67.194  1.00  0.00    -0.210 A  
HETATM   12  O   UNL     1     -12.033  11.672  66.831  1.00  0.00    -0.567 OA 
HETATM   13  O   UNL     1     -11.503  12.365  64.453  1.00  0.00    -0.316 OA 
HETATM   14  C   UNL     1      -8.030  13.327  67.749  1.00  0.00    -0.166 A  
HETATM   15  C   UNL     1      -7.922  14.713  67.533  1.00  0.00    -0.190 A  
HETATM   16  O   UNL     1     -12.581  13.911  66.011  1.00  0.00    -0.467 OA 
HETATM   17  C   UNL     1      -8.772  15.378  66.658  1.00  0.00    -0.332 A  
HETATM   18  S   UNL     1     -11.581  12.650  65.869  1.00  0.00    -0.416 S  
HETATM   19  S   UNL     1      -6.827  15.657  68.561  1.00  0.00    -0.119 S  
HETATM   20  C   UNL     1      -9.806  14.665  66.069  1.00  0.00    -0.347 A  
HETATM   21  O   UNL     1      -5.357  15.119  68.184  1.00  0.00    -0.112 OA 
HETATM   22  O   UNL     1      -6.861  17.035  68.122  1.00  0.00    -0.152 OA 
HETATM   23  O   UNL     1      -7.119  15.278  69.926  1.00  0.00    -0.177 OA 
HETATM   24  C   UNL     1     -10.007  13.303  66.380  1.00  0.00    -0.288 A  
ENDBRANCH  10  11
BRANCH  10  25
HETATM   25  C   UNL     1      -9.563  10.770  68.833  1.00  0.00    -0.204 A  
HETATM   26  C   UNL     1     -10.866  11.101  69.417  1.00  0.00    -0.264 A  
HETATM   27  C   UNL     1      -8.621  10.133  69.764  1.00  0.00    -0.148 A  
HETATM   28  C   UNL     1      -9.061   9.428  70.820  1.00  0.00    -0.268 A  
HETATM   29  C   UNL     1     -11.337  10.442  70.488  1.00  0.00    -0.424 A  
HETATM   30  C   UNL     1     -10.537   9.322  71.093  1.00  0.00    -0.332 A  
BRANCH  30  31
HETATM   31  N   UNL     1     -11.069   8.355  71.795  1.00  0.00    -0.269 NA 
BRANCH  31  32
HETATM   32  C   UNL     1     -12.563   8.247  72.046  1.00  0.00    -0.349 C  
HETATM   33  C   UNL     1     -13.210   7.220  71.136  1.00  0.00    -0.273 C  
ENDBRANCH  31  32
BRANCH  31  34
HETATM   34  C   UNL     1     -10.278   7.137  72.233  1.00  0.00    -0.190 C  
HETATM   35  C   UNL     1      -9.815   7.277  73.671  1.00  0.00    -0.353 C  
ENDBRANCH  31  34
ENDBRANCH  30  31
ENDBRANCH  10  25
ENDBRANCH   9  10
ENDBRANCH   3   4
BRANCH   3  36
HETATM   36  C   UNL     1      -7.628   6.438  62.935  1.00  0.00    -0.080 C  
HETATM   37  C   UNL     1      -8.160   5.639  64.114  1.00  0.00    -0.129 C  
ENDBRANCH   3  36
ENDBRANCH   2   3
TORSDOF 9
ENDMDL
MODEL       28
REMARK 921   NORMALIZED FREE ENERGY PREDICTED BY IDOCK:   -5.07 KCAL/MOL
REMARK 922        TOTAL FREE ENERGY PREDICTED BY IDOCK:  -10.06 KCAL/MOL
REMARK 923 INTER-LIGAND FREE ENERGY PREDICTED BY IDOCK:   -7.91 KCAL/MOL
REMARK 924 INTRA-LIGAND FREE ENERGY PREDICTED BY IDOCK:   -2.16 KCAL/MOL
REMARK 927      BINDING AFFINITY PREDICTED BY RF-SCORE:    0.00 PKD
ROOT
HETATM    1  C   UNL     1     -10.006   1.966  71.713  1.00  0.00    -0.219 C  
HETATM    2  C   UNL     1      -9.376   3.057  70.861  1.00  0.00    -0.150 C  
ENDROOT
BRANCH   2   3
HETATM    3  N   UNL     1      -9.834   4.392  71.281  1.00  0.00    -0.185 NA 
BRANCH   3   4
HETATM    4  C   UNL     1      -9.777   5.439  70.366  1.00  0.00    -0.192 A  
HETATM    5  C   UNL     1     -10.810   5.747  69.471  1.00  0.00    -0.410 A  
HETATM    6  C   UNL     1      -8.660   6.289  70.314  1.00  0.00    -0.138 A  
HETATM    7  C   UNL     1     -10.780   6.915  68.675  1.00  0.00    -0.256 A  
HETATM    8  C   UNL     1      -8.608   7.446  69.513  1.00  0.00    -0.134 A  
HETATM    9  C   UNL     1      -9.700   7.807  68.724  1.00  0.00    -0.157 A  
BRANCH   9  10
HETATM   10  C   UNL     1      -9.760   9.139  68.024  1.00  0.00    -0.177 C  
BRANCH  10  11
HETATM   11  C   UNL     1      -8.683   9.485  67.025  1.00  0.00    -0.135 A  
HETATM   12  O   UNL     1      -7.806  10.464  69.830  1.00  0.00    -0.146 OA 
HETATM   13  O   UNL     1      -7.851  12.676  68.598  1.00  0.00    -0.118 OA 
HETATM   14  C   UNL     1      -8.623   8.717  65.844  1.00  0.00    -0.174 A  
HETATM   15  C   UNL     1      -7.587   8.912  64.912  1.00  0.00    -0.108 A  
HETATM   16  O   UNL     1      -5.782  11.392  68.818  1.00  0.00    -0.043 OA 
HETATM   17  C   UNL     1      -6.675   9.952  65.049  1.00  0.00    -0.121 A  
HETATM   18  S   UNL     1      -7.393  11.311  68.736  1.00  0.00    -0.115 S  
HETATM   19  S   UNL     1      -7.311   7.678  63.668  1.00  0.00    -0.100 S  
HETATM   20  C   UNL     1      -6.741  10.745  66.185  1.00  0.00    -0.126 A  
HETATM   21  O   UNL     1      -8.633   7.728  62.751  1.00  0.00     0.032 OA 
HETATM   22  O   UNL     1      -6.229   8.121  62.816  1.00  0.00    -0.080 OA 
HETATM   23  O   UNL     1      -7.276   6.405  64.355  1.00  0.00    -0.057 OA 
HETATM   24  C   UNL     1      -7.693  10.478  67.193  1.00  0.00    -0.101 A  
ENDBRANCH  10  11
BRANCH  10  25
HETATM   25  C   UNL     1     -10.674  10.085  68.404  1.00  0.00    -0.271 A  
HETATM   26  C   UNL     1     -11.307  10.093  69.726  1.00  0.00    -0.312 A  
HETATM   27  C   UNL     1     -11.198  11.091  67.470  1.00  0.00    -0.372 A  
HETATM   28  C   UNL     1     -11.756  12.228  67.919  1.00  0.00    -0.410 A  
HETATM   29  C   UNL     1     -11.900  11.199  70.207  1.00  0.00    -0.455 A  
HETATM   30  C   UNL     1     -11.898  12.466  69.397  1.00  0.00    -0.304 A  
BRANCH  30  31
HETATM   31  N   UNL     1     -12.016  13.657  69.925  1.00  0.00    -0.330 NA 
BRANCH  31  32
HETATM   32  C   UNL     1     -11.615  14.925  69.191  1.00  0.00    -0.307 C  
HETATM   33  C   UNL     1     -10.224  15.383  69.584  1.00  0.00    -0.283 C  
ENDBRANCH  31  32
BRANCH  31  34
HETATM   34  C   UNL     1     -12.766  13.903  71.220  1.00  0.00    -0.367 C  
HETATM   35  C   UNL     1     -13.478  15.242  71.189  1.00  0.00    -0.559 C  
ENDBRANCH  31  34
ENDBRANCH  30  31
ENDBRANCH  10  25
ENDBRANCH   9  10
ENDBRANCH   3   4
BRANCH   3  36
HETATM   36  C   UNL     1     -10.056   4.582  72.720  1.00  0.00    -0.166 C  
HETATM   37  C   UNL     1     -11.250   5.496  72.949  1.00  0.00    -0.358 C  
ENDBRANCH   3  36
ENDBRANCH   2   3
TORSDOF 9
ENDMDL
MODEL       29
REMARK 921   NORMALIZED FREE ENERGY PREDICTED BY IDOCK:   -5.04 KCAL/MOL
REMARK 922        TOTAL FREE ENERGY PREDICTED BY IDOCK:  -10.02 KCAL/MOL
REMARK 923 INTER-LIGAND FREE ENERGY PREDICTED BY IDOCK:   -8.41 KCAL/MOL
REMARK 924 INTRA-LIGAND FREE ENERGY PREDICTED BY IDOCK:   -1.62 KCAL/MOL
REMARK 927      BINDING AFFINITY PREDICTED BY RF-SCORE:    0.00 PKD
ROOT
HETATM    1  C   UNL     1     -14.300  13.694  71.861  1.00  0.00    -0.151 C  
HETATM    2  C   UNL     1     -13.439  12.645  72.547  1.00  0.00    -0.176 C  
ENDROOT
BRANCH   2   3
HETATM    3  N   UNL     1     -13.041  11.584  71.607  1.00  0.00    -0.439 NA 
BRANCH   3   4
HETATM    4  C   UNL     1     -12.058  11.860  70.662  1.00  0.00    -0.294 A  
HETATM    5  C   UNL     1     -11.295  10.873  70.023  1.00  0.00    -0.386 A  
HETATM    6  C   UNL     1     -11.794  13.180  70.263  1.00  0.00    -0.299 A  
HETATM    7  C   UNL     1     -10.424  11.185  68.954  1.00  0.00    -0.233 A  
HETATM    8  C   UNL     1     -10.917  13.506  69.212  1.00  0.00    -0.169 A  
HETATM    9  C   UNL     1     -10.262  12.501  68.500  1.00  0.00    -0.210 A  
BRANCH   9  10
HETATM   10  C   UNL     1      -9.488  12.800  67.243  1.00  0.00    -0.204 C  
BRANCH  10  11
HETATM   11  C   UNL     1      -9.839  14.033  66.449  1.00  0.00    -0.306 A  
HETATM   12  O   UNL     1     -12.278  12.123  66.474  1.00  0.00    -0.584 OA 
HETATM   13  O   UNL     1     -11.836  12.222  63.982  1.00  0.00    -0.377 OA 
HETATM   14  C   UNL     1      -9.114  15.210  66.723  1.00  0.00    -0.282 A  
HETATM   15  C   UNL     1      -9.450  16.425  66.098  1.00  0.00    -0.329 A  
HETATM   16  O   UNL     1     -13.469  13.705  65.037  1.00  0.00    -0.385 OA 
HETATM   17  C   UNL     1     -10.407  16.480  65.090  1.00  0.00    -0.049 A  
HETATM   18  S   UNL     1     -12.103  12.867  65.249  1.00  0.00    -0.475 S  
HETATM   19  S   UNL     1      -8.802  17.937  66.758  1.00  0.00    -0.264 S  
HETATM   20  C   UNL     1     -11.106  15.323  64.777  1.00  0.00    -0.407 A  
HETATM   21  O   UNL     1      -7.214  17.835  66.514  1.00  0.00    -0.200 OA 
HETATM   22  O   UNL     1      -9.254  19.032  65.926  1.00  0.00    -0.450 OA 
HETATM   23  O   UNL     1      -9.051  17.902  68.183  1.00  0.00    -0.264 OA 
HETATM   24  C   UNL     1     -10.871  14.127  65.490  1.00  0.00    -0.310 A  
ENDBRANCH  10  11
BRANCH  10  25
HETATM   25  C   UNL     1      -8.598  11.889  66.741  1.00  0.00    -0.181 A  
HETATM   26  C   UNL     1      -7.149  11.999  66.937  1.00  0.00    -0.033 A  
HETATM   27  C   UNL     1      -9.012  10.796  65.849  1.00  0.00    -0.200 A  
HETATM   28  C   UNL     1      -8.248   9.702  65.693  1.00  0.00    -0.121 A  
HETATM   29  C   UNL     1      -6.341  10.940  66.767  1.00  0.00    -0.097 A  
HETATM   30  C   UNL     1      -6.922   9.602  66.397  1.00  0.00    -0.088 A  
BRANCH  30  31
HETATM   31  N   UNL     1      -6.330   8.465  66.654  1.00  0.00    -0.054 NA 
BRANCH  31  32
HETATM   32  C   UNL     1      -6.195   7.907  68.060  1.00  0.00    -0.046 C  
HETATM   33  C   UNL     1      -7.344   8.345  68.948  1.00  0.00    -0.090 C  
ENDBRANCH  31  32
BRANCH  31  34
HETATM   34  C   UNL     1      -5.922   7.494  65.562  1.00  0.00    -0.038 C  
HETATM   35  C   UNL     1      -6.420   6.094  65.866  1.00  0.00    -0.046 C  
ENDBRANCH  31  34
ENDBRANCH  30  31
ENDBRANCH  10  25
ENDBRANCH   9  10
ENDBRANCH   3   4
BRANCH   3  36
HETATM   36  C   UNL     1     -13.909  10.400  71.556  1.00  0.00     0.264 C  
HETATM   37  C   UNL     1     -13.423   9.352  72.546  1.00  0.00    -0.437 C  
ENDBRANCH   3  36
ENDBRANCH   2   3
TORSDOF 9
ENDMDL
MODEL       30
REMARK 921   NORMALIZED FREE ENERGY PREDICTED BY IDOCK:   -4.99 KCAL/MOL
REMARK 922        TOTAL FREE ENERGY PREDICTED BY IDOCK:   -9.95 KCAL/MOL
REMARK 923 INTER-LIGAND FREE ENERGY PREDICTED BY IDOCK:   -9.12 KCAL/MOL
REMARK 924 INTRA-LIGAND FREE ENERGY PREDICTED BY IDOCK:   -0.83 KCAL/MOL
REMARK 927      BINDING AFFINITY PREDICTED BY RF-SCORE:    0.00 PKD
ROOT
HETATM    1  C   UNL     1      -6.483  17.441  69.217  1.00  0.00    -0.245 C  
HETATM    2  C   UNL     1      -7.362  18.099  68.165  1.00  0.00    -0.251 C  
ENDROOT
BRANCH   2   3
HETATM    3  N   UNL     1      -8.764  17.666  68.295  1.00  0.00    -0.269 NA 
BRANCH   3   4
HETATM    4  C   UNL     1      -9.105  16.373  67.910  1.00  0.00    -0.201 A  
HETATM    5  C   UNL     1      -8.594  15.741  66.768  1.00  0.00    -0.306 A  
HETATM    6  C   UNL     1      -9.980  15.598  68.689  1.00  0.00    -0.208 A  
HETATM    7  C   UNL     1      -8.838  14.374  66.504  1.00  0.00    -0.122 A  
HETATM    8  C   UNL     1     -10.246  14.240  68.427  1.00  0.00    -0.245 A  
HETATM    9  C   UNL     1      -9.627  13.592  67.359  1.00  0.00    -0.226 A  
BRANCH   9  10
HETATM   10  C   UNL     1      -9.723  12.100  67.179  1.00  0.00    -0.203 C  
BRANCH  10  11
HETATM   11  C   UNL     1      -9.629  11.529  65.785  1.00  0.00    -0.259 A  
HETATM   12  O   UNL     1     -11.555  13.955  65.751  1.00  0.00    -0.322 OA 
HETATM   13  O   UNL     1     -13.144  12.134  64.993  1.00  0.00    -0.373 OA 
HETATM   14  C   UNL     1      -8.474  10.789  65.464  1.00  0.00    -0.153 A  
HETATM   15  C   UNL     1      -8.266  10.311  64.157  1.00  0.00    -0.152 A  
HETATM   16  O   UNL     1     -11.961  13.535  63.375  1.00  0.00    -0.434 OA 
HETATM   17  C   UNL     1      -9.247  10.425  63.179  1.00  0.00    -0.314 A  
HETATM   18  S   UNL     1     -11.915  12.882  64.853  1.00  0.00    -0.420 S  
HETATM   19  S   UNL     1      -6.647   9.753  63.696  1.00  0.00    -0.123 S  
HETATM   20  C   UNL     1     -10.410  11.116  63.487  1.00  0.00    -0.446 A  
HETATM   21  O   UNL     1      -6.398   8.445  64.601  1.00  0.00    -0.063 OA 
HETATM   22  O   UNL     1      -6.697   9.278  62.331  1.00  0.00    -0.094 OA 
HETATM   23  O   UNL     1      -5.723  10.785  64.116  1.00  0.00    -0.084 OA 
HETATM   24  C   UNL     1     -10.575  11.716  64.754  1.00  0.00    -0.304 A  
ENDBRANCH  10  11
BRANCH  10  25
HETATM   25  C   UNL     1     -10.056  11.291  68.233  1.00  0.00    -0.198 A  
HETATM   26  C   UNL     1     -11.442  10.960  68.576  1.00  0.00    -0.380 A  
HETATM   27  C   UNL     1      -9.055  10.798  69.190  1.00  0.00    -0.109 A  
HETATM   28  C   UNL     1      -9.298   9.717  69.950  1.00  0.00    -0.262 A  
HETATM   29  C   UNL     1     -11.733   9.904  69.354  1.00  0.00     0.073 A  
HETATM   30  C   UNL     1     -10.629   9.021  69.866  1.00  0.00    -0.228 A  
BRANCH  30  31
HETATM   31  N   UNL     1     -10.809   7.773  70.214  1.00  0.00    -0.247 NA 
BRANCH  31  32
HETATM   32  C   UNL     1     -11.132   7.354  71.638  1.00  0.00    -0.236 C  
HETATM   33  C   UNL     1     -12.446   6.600  71.715  1.00  0.00    -0.360 C  
ENDBRANCH  31  32
BRANCH  31  34
HETATM   34  C   UNL     1     -10.935   6.655  69.197  1.00  0.00    -0.287 C  
HETATM   35  C   UNL     1     -10.088   6.937  67.970  1.00  0.00    -0.193 C  
ENDBRANCH  31  34
ENDBRANCH  30  31
ENDBRANCH  10  25
ENDBRANCH   9  10
ENDBRANCH   3   4
BRANCH   3  36
HETATM   36  C   UNL     1      -9.750  18.721  68.562  1.00  0.00    -0.380 C  
HETATM   37  C   UNL     1     -10.120  19.430  67.267  1.00  0.00    -0.497 C  
ENDBRANCH   3  36
ENDBRANCH   2   3
TORSDOF 9
ENDMDL
MODEL       31
REMARK 921   NORMALIZED FREE ENERGY PREDICTED BY IDOCK:   -4.96 KCAL/MOL
REMARK 922        TOTAL FREE ENERGY PREDICTED BY IDOCK:   -9.90 KCAL/MOL
REMARK 923 INTER-LIGAND FREE ENERGY PREDICTED BY IDOCK:   -8.29 KCAL/MOL
REMARK 924 INTRA-LIGAND FREE ENERGY PREDICTED BY IDOCK:   -1.61 KCAL/MOL
REMARK 927      BINDING AFFINITY PREDICTED BY RF-SCORE:    0.00 PKD
ROOT
HETATM    1  C   UNL     1     -10.745   2.940  73.941  1.00  0.00    -0.281 C  
HETATM    2  C   UNL     1     -11.170   4.400  73.947  1.00  0.00    -0.103 C  
ENDROOT
BRANCH   2   3
HETATM    3  N   UNL     1     -10.047   5.283  73.589  1.00  0.00    -0.178 NA 
BRANCH   3   4
HETATM    4  C   UNL     1     -10.260   6.295  72.658  1.00  0.00    -0.185 A  
HETATM    5  C   UNL     1      -9.425   7.411  72.517  1.00  0.00    -0.192 A  
HETATM    6  C   UNL     1     -11.338   6.230  71.760  1.00  0.00    -0.346 A  
HETATM    7  C   UNL     1      -9.584   8.328  71.453  1.00  0.00    -0.231 A  
HETATM    8  C   UNL     1     -11.519   7.146  70.706  1.00  0.00    -0.342 A  
HETATM    9  C   UNL     1     -10.604   8.178  70.503  1.00  0.00    -0.228 A  
BRANCH   9  10
HETATM   10  C   UNL     1     -10.650   9.041  69.269  1.00  0.00    -0.226 C  
BRANCH  10  11
HETATM   11  C   UNL     1      -9.825   8.641  68.071  1.00  0.00    -0.201 A  
HETATM   12  O   UNL     1      -8.265  10.763  69.702  1.00  0.00    -0.040 OA 
HETATM   13  O   UNL     1      -8.500  11.998  67.503  1.00  0.00    -0.149 OA 
HETATM   14  C   UNL     1     -10.081   7.378  67.501  1.00  0.00    -0.250 A  
HETATM   15  C   UNL     1      -9.288   6.891  66.446  1.00  0.00    -0.141 A  
HETATM   16  O   UNL     1      -6.498  10.690  68.011  1.00  0.00    -0.061 OA 
HETATM   17  C   UNL     1      -8.323   7.686  65.838  1.00  0.00    -0.140 A  
HETATM   18  S   UNL     1      -8.085  10.845  68.271  1.00  0.00    -0.131 S  
HETATM   19  S   UNL     1      -9.371   5.167  66.036  1.00  0.00    -0.160 S  
HETATM   20  C   UNL     1      -8.082   8.949  66.359  1.00  0.00    -0.110 A  
HETATM   21  O   UNL     1     -10.868   4.956  65.486  1.00  0.00    -0.171 OA 
HETATM   22  O   UNL     1      -8.502   4.922  64.905  1.00  0.00    -0.131 OA 
HETATM   23  O   UNL     1      -9.232   4.443  67.281  1.00  0.00    -0.125 OA 
HETATM   24  C   UNL     1      -8.779   9.399  67.501  1.00  0.00    -0.122 A  
ENDBRANCH  10  11
BRANCH  10  25
HETATM   25  C   UNL     1     -11.291  10.251  69.290  1.00  0.00    -0.253 A  
HETATM   26  C   UNL     1     -11.828  10.847  70.517  1.00  0.00    -0.457 A  
HETATM   27  C   UNL     1     -11.615  10.989  68.060  1.00  0.00    -0.326 A  
HETATM   28  C   UNL     1     -11.861  12.309  68.090  1.00  0.00    -0.372 A  
HETATM   29  C   UNL     1     -12.114  12.157  70.587  1.00  0.00    -0.344 A  
HETATM   30  C   UNL     1     -11.858  13.047  69.402  1.00  0.00    -0.322 A  
BRANCH  30  31
HETATM   31  N   UNL     1     -11.662  14.336  69.499  1.00  0.00    -0.295 NA 
BRANCH  31  32
HETATM   32  C   UNL     1     -12.487  15.227  70.412  1.00  0.00    -0.381 C  
HETATM   33  C   UNL     1     -11.641  15.835  71.514  1.00  0.00    -0.531 C  
ENDBRANCH  31  32
BRANCH  31  34
HETATM   34  C   UNL     1     -10.457  15.024  68.887  1.00  0.00    -0.241 C  
HETATM   35  C   UNL     1     -10.876  15.975  67.783  1.00  0.00    -0.324 C  
ENDBRANCH  31  34
ENDBRANCH  30  31
ENDBRANCH  10  25
ENDBRANCH   9  10
ENDBRANCH   3   4
BRANCH   3  36
HETATM   36  C   UNL     1      -8.714   4.855  74.034  1.00  0.00    -0.111 C  
HETATM   37  C   UNL     1      -7.833   4.553  72.832  1.00  0.00    -0.088 C  
ENDBRANCH   3  36
ENDBRANCH   2   3
TORSDOF 9
ENDMDL
MODEL       32
REMARK 921   NORMALIZED FREE ENERGY PREDICTED BY IDOCK:   -4.95 KCAL/MOL
REMARK 922        TOTAL FREE ENERGY PREDICTED BY IDOCK:   -9.89 KCAL/MOL
REMARK 923 INTER-LIGAND FREE ENERGY PREDICTED BY IDOCK:   -8.91 KCAL/MOL
REMARK 924 INTRA-LIGAND FREE ENERGY PREDICTED BY IDOCK:   -0.97 KCAL/MOL
REMARK 927      BINDING AFFINITY PREDICTED BY RF-SCORE:    0.00 PKD
ROOT
HETATM    1  C   UNL     1      -6.394  19.950  69.833  1.00  0.00    -0.395 C  
HETATM    2  C   UNL     1      -6.484  18.651  69.047  1.00  0.00    -0.258 C  
ENDROOT
BRANCH   2   3
HETATM    3  N   UNL     1      -7.869  18.375  68.629  1.00  0.00    -0.308 NA 
BRANCH   3   4
HETATM    4  C   UNL     1      -8.251  17.056  68.404  1.00  0.00    -0.250 A  
HETATM    5  C   UNL     1      -7.993  16.008  69.297  1.00  0.00    -0.217 A  
HETATM    6  C   UNL     1      -8.967  16.703  67.249  1.00  0.00    -0.211 A  
HETATM    7  C   UNL     1      -8.540  14.719  69.107  1.00  0.00    -0.089 A  
HETATM    8  C   UNL     1      -9.503  15.418  67.038  1.00  0.00    -0.232 A  
HETATM    9  C   UNL     1      -9.346  14.421  68.000  1.00  0.00    -0.200 A  
BRANCH   9  10
HETATM   10  C   UNL     1     -10.081  13.110  67.904  1.00  0.00    -0.232 C  
BRANCH  10  11
HETATM   11  C   UNL     1     -10.978  12.695  69.043  1.00  0.00    -0.240 A  
HETATM   12  O   UNL     1      -8.546  10.779  68.929  1.00  0.00    -0.151 OA 
HETATM   13  O   UNL     1     -10.420   9.117  68.555  1.00  0.00    -0.210 OA 
HETATM   14  C   UNL     1     -11.828  13.676  69.591  1.00  0.00    -0.396 A  
HETATM   15  C   UNL     1     -12.620  13.395  70.719  1.00  0.00    -0.294 A  
HETATM   16  O   UNL     1      -9.514   9.520  70.790  1.00  0.00    -0.251 OA 
HETATM   17  C   UNL     1     -12.702  12.110  71.244  1.00  0.00    -0.363 A  
HETATM   18  S   UNL     1      -9.787  10.160  69.332  1.00  0.00    -0.231 S  
HETATM   19  S   UNL     1     -13.349  14.742  71.612  1.00  0.00    -0.394 S  
HETATM   20  C   UNL     1     -11.902  11.118  70.694  1.00  0.00    -0.403 A  
HETATM   21  O   UNL     1     -14.407  15.383  70.583  1.00  0.00    -0.151 OA 
HETATM   22  O   UNL     1     -14.140  14.199  72.695  1.00  0.00    -0.617 OA 
HETATM   23  O   UNL     1     -12.290  15.702  71.841  1.00  0.00    -0.354 OA 
HETATM   24  C   UNL     1     -11.004  11.418  69.647  1.00  0.00    -0.110 A  
ENDBRANCH  10  11
BRANCH  10  25
HETATM   25  C   UNL     1      -9.814  12.235  66.885  1.00  0.00    -0.216 A  
HETATM   26  C   UNL     1      -8.476  12.068  66.309  1.00  0.00     0.086 A  
HETATM   27  C   UNL     1     -10.874  11.489  66.192  1.00  0.00    -0.330 A  
HETATM   28  C   UNL     1     -10.596  10.370  65.502  1.00  0.00    -0.088 A  
HETATM   29  C   UNL     1      -8.158  10.978  65.590  1.00  0.00     0.004 A  
HETATM   30  C   UNL     1      -9.175   9.889  65.388  1.00  0.00    -0.211 A  
BRANCH  30  31
HETATM   31  N   UNL     1      -8.857   8.647  65.129  1.00  0.00    -0.149 NA 
BRANCH  31  32
HETATM   32  C   UNL     1      -7.999   8.248  63.940  1.00  0.00    -0.146 C  
HETATM   33  C   UNL     1      -8.419   8.978  62.678  1.00  0.00    -0.210 C  
ENDBRANCH  31  32
BRANCH  31  34
HETATM   34  C   UNL     1      -9.121   7.518  66.106  1.00  0.00    -0.137 C  
HETATM   35  C   UNL     1      -8.594   6.201  65.570  1.00  0.00    -0.133 C  
ENDBRANCH  31  34
ENDBRANCH  30  31
ENDBRANCH  10  25
ENDBRANCH   9  10
ENDBRANCH   3   4
BRANCH   3  36
HETATM   36  C   UNL     1      -8.667  19.536  68.213  1.00  0.00    -0.336 C  
HETATM   37  C   UNL     1      -9.966  19.587  69.002  1.00  0.00    -0.490 C  
ENDBRANCH   3  36
ENDBRANCH   2   3
TORSDOF 9
ENDMDL
MODEL       33
REMARK 921   NORMALIZED FREE ENERGY PREDICTED BY IDOCK:   -4.90 KCAL/MOL
REMARK 922        TOTAL FREE ENERGY PREDICTED BY IDOCK:   -9.81 KCAL/MOL
REMARK 923 INTER-LIGAND FREE ENERGY PREDICTED BY IDOCK:   -7.77 KCAL/MOL
REMARK 924 INTRA-LIGAND FREE ENERGY PREDICTED BY IDOCK:   -2.04 KCAL/MOL
REMARK 927      BINDING AFFINITY PREDICTED BY RF-SCORE:    0.00 PKD
ROOT
HETATM    1  C   UNL     1     -11.707  15.340  68.320  1.00  0.00    -0.320 C  
HETATM    2  C   UNL     1     -10.993  14.699  67.141  1.00  0.00    -0.316 C  
ENDROOT
BRANCH   2   3
HETATM    3  N   UNL     1     -11.817  13.642  66.529  1.00  0.00    -0.381 NA 
BRANCH   3   4
HETATM    4  C   UNL     1     -11.466  12.312  66.741  1.00  0.00    -0.361 A  
HETATM    5  C   UNL     1     -10.890  11.494  65.760  1.00  0.00    -0.319 A  
HETATM    6  C   UNL     1     -11.648  11.712  67.998  1.00  0.00    -0.383 A  
HETATM    7  C   UNL     1     -10.400  10.203  66.064  1.00  0.00    -0.234 A  
HETATM    8  C   UNL     1     -11.181  10.421  68.309  1.00  0.00    -0.330 A  
HETATM    9  C   UNL     1     -10.494   9.669  67.357  1.00  0.00    -0.319 A  
BRANCH   9  10
HETATM   10  C   UNL     1      -9.801   8.381  67.717  1.00  0.00    -0.218 C  
BRANCH  10  11
HETATM   11  C   UNL     1      -8.978   7.680  66.666  1.00  0.00    -0.181 A  
HETATM   12  O   UNL     1      -7.225   9.827  68.050  1.00  0.00    -0.079 OA 
HETATM   13  O   UNL     1      -7.164  10.691  65.670  1.00  0.00    -0.144 OA 
HETATM   14  C   UNL     1      -9.377   6.382  66.288  1.00  0.00    -0.149 A  
HETATM   15  C   UNL     1      -8.605   5.624  65.389  1.00  0.00    -0.150 A  
HETATM   16  O   UNL     1      -5.397   9.239  66.534  1.00  0.00    -0.043 OA 
HETATM   17  C   UNL     1      -7.506   6.173  64.737  1.00  0.00    -0.084 A  
HETATM   18  S   UNL     1      -6.958   9.641  66.642  1.00  0.00    -0.086 S  
HETATM   19  S   UNL     1      -8.907   3.882  65.256  1.00  0.00    -0.133 S  
HETATM   20  C   UNL     1      -7.118   7.464  65.066  1.00  0.00    -0.064 A  
HETATM   21  O   UNL     1     -10.388   3.776  64.633  1.00  0.00    -0.206 OA 
HETATM   22  O   UNL     1      -8.022   3.338  64.249  1.00  0.00    -0.081 OA 
HETATM   23  O   UNL     1      -8.939   3.368  66.609  1.00  0.00    -0.132 OA 
HETATM   24  C   UNL     1      -7.806   8.188  66.064  1.00  0.00    -0.093 A  
ENDBRANCH  10  11
BRANCH  10  25
HETATM   25  C   UNL     1     -10.047   7.772  68.919  1.00  0.00    -0.201 A  
HETATM   26  C   UNL     1     -11.116   6.788  69.109  1.00  0.00    -0.270 A  
HETATM   27  C   UNL     1      -9.343   8.156  70.151  1.00  0.00    -0.159 A  
HETATM   28  C   UNL     1      -9.282   7.320  71.202  1.00  0.00    -0.156 A  
HETATM   29  C   UNL     1     -11.112   5.949  70.158  1.00  0.00    -0.395 A  
HETATM   30  C   UNL     1      -9.980   5.988  71.148  1.00  0.00    -0.186 A  
BRANCH  30  31
HETATM   31  N   UNL     1      -9.642   4.970  71.894  1.00  0.00    -0.148 NA 
BRANCH  31  32
HETATM   32  C   UNL     1     -10.652   4.163  72.692  1.00  0.00    -0.122 C  
HETATM   33  C   UNL     1     -10.252   2.703  72.788  1.00  0.00    -0.234 C  
ENDBRANCH  31  32
BRANCH  31  34
HETATM   34  C   UNL     1      -8.253   4.361  71.860  1.00  0.00    -0.102 C  
HETATM   35  C   UNL     1      -7.790   4.142  70.432  1.00  0.00    -0.051 C  
ENDBRANCH  31  34
ENDBRANCH  30  31
ENDBRANCH  10  25
ENDBRANCH   9  10
ENDBRANCH   3   4
BRANCH   3  36
HETATM   36  C   UNL     1     -12.784  14.076  65.513  1.00  0.00    -0.486 C  
HETATM   37  C   UNL     1     -12.064  14.786  64.376  1.00  0.00    -0.457 C  
ENDBRANCH   3  36
ENDBRANCH   2   3
TORSDOF 9
ENDMDL
MODEL       34
REMARK 921   NORMALIZED FREE ENERGY PREDICTED BY IDOCK:   -4.87 KCAL/MOL
REMARK 922        TOTAL FREE ENERGY PREDICTED BY IDOCK:   -9.76 KCAL/MOL
REMARK 923 INTER-LIGAND FREE ENERGY PREDICTED BY IDOCK:   -7.84 KCAL/MOL
REMARK 924 INTRA-LIGAND FREE ENERGY PREDICTED BY IDOCK:   -1.92 KCAL/MOL
REMARK 927      BINDING AFFINITY PREDICTED BY RF-SCORE:    0.00 PKD
ROOT
HETATM    1  C   UNL     1     -10.760  15.417  65.048  1.00  0.00    -0.460 C  
HETATM    2  C   UNL     1     -10.380  15.389  66.520  1.00  0.00    -0.289 C  
ENDROOT
BRANCH   2   3
HETATM    3  N   UNL     1      -9.097  14.695  66.726  1.00  0.00    -0.254 NA 
BRANCH   3   4
HETATM    4  C   UNL     1      -9.108  13.328  66.987  1.00  0.00    -0.232 A  
HETATM    5  C   UNL     1      -8.418  12.734  68.052  1.00  0.00    -0.177 A  
HETATM    6  C   UNL     1      -9.862  12.450  66.191  1.00  0.00    -0.263 A  
HETATM    7  C   UNL     1      -8.588  11.368  68.377  1.00  0.00    -0.156 A  
HETATM    8  C   UNL     1     -10.026  11.085  66.493  1.00  0.00    -0.253 A  
HETATM    9  C   UNL     1      -9.436  10.538  67.631  1.00  0.00    -0.164 A  
BRANCH   9  10
HETATM   10  C   UNL     1      -9.761   9.142  68.096  1.00  0.00    -0.174 C  
BRANCH  10  11
HETATM   11  C   UNL     1      -9.966   8.896  69.570  1.00  0.00    -0.191 A  
HETATM   12  O   UNL     1     -12.392  10.476  68.467  1.00  0.00    -0.180 OA 
HETATM   13  O   UNL     1     -11.543  12.135  70.182  1.00  0.00    -0.248 OA 
HETATM   14  C   UNL     1      -9.286   7.804  70.146  1.00  0.00    -0.153 A  
HETATM   15  C   UNL     1      -9.504   7.449  71.490  1.00  0.00    -0.151 A  
HETATM   16  O   UNL     1     -13.315  10.542  70.732  1.00  0.00    -0.273 OA 
HETATM   17  C   UNL     1     -10.280   8.239  72.331  1.00  0.00    -0.397 A  
HETATM   18  S   UNL     1     -12.010  10.816  69.818  1.00  0.00    -0.318 S  
HETATM   19  S   UNL     1      -8.960   5.859  72.055  1.00  0.00    -0.136 S  
HETATM   20  C   UNL     1     -10.927   9.341  71.793  1.00  0.00    -0.383 A  
HETATM   21  O   UNL     1      -7.354   5.923  71.956  1.00  0.00    -0.090 OA 
HETATM   22  O   UNL     1      -9.258   5.747  73.466  1.00  0.00    -0.132 OA 
HETATM   23  O   UNL     1      -9.442   4.895  71.089  1.00  0.00    -0.143 OA 
HETATM   24  C   UNL     1     -10.824   9.633  70.416  1.00  0.00    -0.295 A  
ENDBRANCH  10  11
BRANCH  10  25
HETATM   25  C   UNL     1      -9.709   8.089  67.223  1.00  0.00    -0.232 A  
HETATM   26  C   UNL     1      -8.586   7.868  66.307  1.00  0.00    -0.160 A  
HETATM   27  C   UNL     1     -10.838   7.166  67.038  1.00  0.00    -0.382 A  
HETATM   28  C   UNL     1     -10.653   5.942  66.514  1.00  0.00    -0.266 A  
HETATM   29  C   UNL     1      -8.376   6.669  65.739  1.00  0.00    -0.143 A  
HETATM   30  C   UNL     1      -9.284   5.515  66.061  1.00  0.00    -0.158 A  
BRANCH  30  31
HETATM   31  N   UNL     1      -8.923   4.263  65.951  1.00  0.00    -0.120 NA 
BRANCH  31  32
HETATM   32  C   UNL     1      -8.063   3.753  64.807  1.00  0.00    -0.090 C  
HETATM   33  C   UNL     1      -8.840   3.697  63.505  1.00  0.00    -0.097 C  
ENDBRANCH  31  32
BRANCH  31  34
HETATM   34  C   UNL     1      -9.136   3.253  67.062  1.00  0.00    -0.174 C  
HETATM   35  C   UNL     1      -8.126   3.450  68.176  1.00  0.00    -0.079 C  
ENDBRANCH  31  34
ENDBRANCH  30  31
ENDBRANCH  10  25
ENDBRANCH   9  10
ENDBRANCH   3   4
BRANCH   3  36
HETATM   36  C   UNL     1      -7.918  15.549  66.917  1.00  0.00    -0.229 C  
HETATM   37  C   UNL     1      -8.301  16.808  67.679  1.00  0.00    -0.191 C  
ENDBRANCH   3  36
ENDBRANCH   2   3
TORSDOF 9
ENDMDL
MODEL       35
REMARK 921   NORMALIZED FREE ENERGY PREDICTED BY IDOCK:   -4.85 KCAL/MOL
REMARK 922        TOTAL FREE ENERGY PREDICTED BY IDOCK:   -9.72 KCAL/MOL
REMARK 923 INTER-LIGAND FREE ENERGY PREDICTED BY IDOCK:   -8.30 KCAL/MOL
REMARK 924 INTRA-LIGAND FREE ENERGY PREDICTED BY IDOCK:   -1.43 KCAL/MOL
REMARK 927      BINDING AFFINITY PREDICTED BY RF-SCORE:    0.00 PKD
ROOT
HETATM    1  C   UNL     1     -13.897   8.345  71.801  1.00  0.00    -0.458 C  
HETATM    2  C   UNL     1     -13.545   6.866  71.768  1.00  0.00    -0.145 C  
ENDROOT
BRANCH   2   3
HETATM    3  N   UNL     1     -12.087   6.665  71.739  1.00  0.00    -0.344 NA 
BRANCH   3   4
HETATM    4  C   UNL     1     -11.379   7.056  70.606  1.00  0.00    -0.307 A  
HETATM    5  C   UNL     1     -11.409   6.359  69.392  1.00  0.00    -0.443 A  
HETATM    6  C   UNL     1     -10.599   8.224  70.614  1.00  0.00    -0.235 A  
HETATM    7  C   UNL     1     -10.808   6.879  68.222  1.00  0.00    -0.244 A  
HETATM    8  C   UNL     1      -9.980   8.744  69.461  1.00  0.00    -0.195 A  
HETATM    9  C   UNL     1     -10.129   8.105  68.230  1.00  0.00    -0.230 A  
BRANCH   9  10
HETATM   10  C   UNL     1      -9.661   8.743  66.948  1.00  0.00    -0.273 C  
BRANCH  10  11
HETATM   11  C   UNL     1      -8.470   8.153  66.236  1.00  0.00    -0.136 A  
HETATM   12  O   UNL     1      -7.468  10.070  68.453  1.00  0.00    -0.080 OA 
HETATM   13  O   UNL     1      -6.485  11.215  66.419  1.00  0.00    -0.128 OA 
HETATM   14  C   UNL     1      -8.653   6.921  65.575  1.00  0.00    -0.087 A  
HETATM   15  C   UNL     1      -7.568   6.258  64.974  1.00  0.00    -0.090 A  
HETATM   16  O   UNL     1      -5.173   9.623  67.733  1.00  0.00    -0.036 OA 
HETATM   17  C   UNL     1      -6.314   6.854  64.886  1.00  0.00    -0.039 A  
HETATM   18  S   UNL     1      -6.658  10.049  67.257  1.00  0.00    -0.070 S  
HETATM   19  S   UNL     1      -7.749   4.553  64.521  1.00  0.00    -0.083 S  
HETATM   20  C   UNL     1      -6.122   8.085  65.496  1.00  0.00    -0.038 A  
HETATM   21  O   UNL     1      -8.855   4.563  63.352  1.00  0.00    -0.127 OA 
HETATM   22  O   UNL     1      -6.522   4.113  63.892  1.00  0.00    -0.035 OA 
HETATM   23  O   UNL     1      -8.305   3.880  65.675  1.00  0.00    -0.107 OA 
HETATM   24  C   UNL     1      -7.168   8.700  66.217  1.00  0.00    -0.079 A  
ENDBRANCH  10  11
BRANCH  10  25
HETATM   25  C   UNL     1     -10.198   9.929  66.525  1.00  0.00    -0.292 A  
HETATM   26  C   UNL     1     -11.117  10.724  67.345  1.00  0.00    -0.363 A  
HETATM   27  C   UNL     1     -10.003  10.436  65.160  1.00  0.00    -0.390 A  
HETATM   28  C   UNL     1     -10.171  11.739  64.874  1.00  0.00    -0.315 A  
HETATM   29  C   UNL     1     -11.337  12.023  67.083  1.00  0.00    -0.396 A  
HETATM   30  C   UNL     1     -10.613  12.695  65.949  1.00  0.00    -0.273 A  
BRANCH  30  31
HETATM   31  N   UNL     1     -10.396  13.983  65.896  1.00  0.00    -0.308 NA 
BRANCH  31  32
HETATM   32  C   UNL     1     -11.058  14.887  64.870  1.00  0.00    -0.414 C  
HETATM   33  C   UNL     1     -12.330  14.272  64.320  1.00  0.00    -0.407 C  
ENDBRANCH  31  32
BRANCH  31  34
HETATM   34  C   UNL     1      -9.646  14.728  66.984  1.00  0.00    -0.241 C  
HETATM   35  C   UNL     1     -10.594  15.556  67.829  1.00  0.00    -0.281 C  
ENDBRANCH  31  34
ENDBRANCH  30  31
ENDBRANCH  10  25
ENDBRANCH   9  10
ENDBRANCH   3   4
BRANCH   3  36
HETATM   36  C   UNL     1     -11.525   5.813  72.795  1.00  0.00    -0.255 C  
HETATM   37  C   UNL     1     -10.504   6.593  73.609  1.00  0.00    -0.353 C  
ENDBRANCH   3  36
ENDBRANCH   2   3
TORSDOF 9
ENDMDL
MODEL       36
REMARK 921   NORMALIZED FREE ENERGY PREDICTED BY IDOCK:   -4.84 KCAL/MOL
REMARK 922        TOTAL FREE ENERGY PREDICTED BY IDOCK:   -9.71 KCAL/MOL
REMARK 923 INTER-LIGAND FREE ENERGY PREDICTED BY IDOCK:   -7.32 KCAL/MOL
REMARK 924 INTRA-LIGAND FREE ENERGY PREDICTED BY IDOCK:   -2.40 KCAL/MOL
REMARK 927      BINDING AFFINITY PREDICTED BY RF-SCORE:    0.00 PKD
ROOT
HETATM    1  C   UNL     1     -11.063  14.920  66.537  1.00  0.00    -0.341 C  
HETATM    2  C   UNL     1     -12.211  14.374  67.373  1.00  0.00    -0.195 C  
ENDROOT
BRANCH   2   3
HETATM    3  N   UNL     1     -11.730  13.854  68.664  1.00  0.00    -0.339 NA 
BRANCH   3   4
HETATM    4  C   UNL     1     -11.281  12.538  68.732  1.00  0.00    -0.273 A  
HETATM    5  C   UNL     1      -9.975  12.145  68.416  1.00  0.00    -0.206 A  
HETATM    6  C   UNL     1     -12.134  11.510  69.166  1.00  0.00    -0.329 A  
HETATM    7  C   UNL     1      -9.517  10.829  68.656  1.00  0.00    -0.188 A  
HETATM    8  C   UNL     1     -11.696  10.191  69.392  1.00  0.00    -0.096 A  
HETATM    9  C   UNL     1     -10.359   9.847  69.195  1.00  0.00    -0.225 A  
BRANCH   9  10
HETATM   10  C   UNL     1      -9.817   8.509  69.626  1.00  0.00    -0.183 C  
BRANCH  10  11
HETATM   11  C   UNL     1      -9.467   8.301  71.078  1.00  0.00    -0.197 A  
HETATM   12  O   UNL     1     -11.847   6.459  70.342  1.00  0.00    -0.382 OA 
HETATM   13  O   UNL     1     -12.934   7.865  72.146  1.00  0.00    -0.267 OA 
HETATM   14  C   UNL     1      -8.156   8.622  71.482  1.00  0.00    -0.188 A  
HETATM   15  C   UNL     1      -7.723   8.361  72.795  1.00  0.00    -0.071 A  
HETATM   16  O   UNL     1     -11.916   5.704  72.669  1.00  0.00    -0.252 OA 
HETATM   17  C   UNL     1      -8.604   7.914  73.773  1.00  0.00    -0.323 A  
HETATM   18  S   UNL     1     -11.881   6.987  71.687  1.00  0.00    -0.332 S  
HETATM   19  S   UNL     1      -5.985   8.395  73.147  1.00  0.00    -0.084 S  
HETATM   20  C   UNL     1      -9.911   7.628  73.406  1.00  0.00    -0.373 A  
HETATM   21  O   UNL     1      -5.559   9.931  72.928  1.00  0.00    -0.314 OA 
HETATM   22  O   UNL     1      -5.798   8.137  74.559  1.00  0.00    -0.094 OA 
HETATM   23  O   UNL     1      -5.346   7.590  72.129  1.00  0.00    -0.036 OA 
HETATM   24  C   UNL     1     -10.324   7.759  72.062  1.00  0.00    -0.214 A  
ENDBRANCH  10  11
BRANCH  10  25
HETATM   25  C   UNL     1      -9.492   7.558  68.696  1.00  0.00    -0.146 A  
HETATM   26  C   UNL     1     -10.132   7.479  67.381  1.00  0.00    -0.282 A  
HETATM   27  C   UNL     1      -8.567   6.455  68.993  1.00  0.00    -0.124 A  
HETATM   28  C   UNL     1      -7.948   5.786  68.006  1.00  0.00    -0.101 A  
HETATM   29  C   UNL     1      -9.565   6.800  66.370  1.00  0.00    -0.149 A  
HETATM   30  C   UNL     1      -8.235   6.128  66.569  1.00  0.00    -0.111 A  
BRANCH  30  31
HETATM   31  N   UNL     1      -7.411   5.859  65.589  1.00  0.00    -0.079 NA 
BRANCH  31  32
HETATM   32  C   UNL     1      -7.249   4.464  65.011  1.00  0.00    -0.071 C  
HETATM   33  C   UNL     1      -5.918   3.848  65.399  1.00  0.00    -0.023 C  
ENDBRANCH  31  32
BRANCH  31  34
HETATM   34  C   UNL     1      -6.711   6.943  64.793  1.00  0.00    -0.043 C  
HETATM   35  C   UNL     1      -6.013   7.928  65.713  1.00  0.00    -0.038 C  
ENDBRANCH  31  34
ENDBRANCH  30  31
ENDBRANCH  10  25
ENDBRANCH   9  10
ENDBRANCH   3   4
BRANCH   3  36
HETATM   36  C   UNL     1     -12.019  14.676  69.846  1.00  0.00    -0.329 C  
HETATM   37  C   UNL     1     -10.761  15.401  70.300  1.00  0.00    -0.320 C  
ENDBRANCH   3  36
ENDBRANCH   2   3
TORSDOF 9
ENDMDL
MODEL       37
REMARK 921   NORMALIZED FREE ENERGY PREDICTED BY IDOCK:   -4.76 KCAL/MOL
REMARK 922        TOTAL FREE ENERGY PREDICTED BY IDOCK:   -9.59 KCAL/MOL
REMARK 923 INTER-LIGAND FREE ENERGY PREDICTED BY IDOCK:   -7.58 KCAL/MOL
REMARK 924 INTRA-LIGAND FREE ENERGY PREDICTED BY IDOCK:   -2.00 KCAL/MOL
REMARK 927      BINDING AFFINITY PREDICTED BY RF-SCORE:    0.00 PKD
ROOT
HETATM    1  C   UNL     1      -8.575   3.893  66.793  1.00  0.00    -0.107 C  
HETATM    2  C   UNL     1      -7.527   4.313  65.774  1.00  0.00    -0.081 C  
ENDROOT
BRANCH   2   3
HETATM    3  N   UNL     1      -7.935   5.536  65.062  1.00  0.00    -0.106 NA 
BRANCH   3   4
HETATM    4  C   UNL     1      -8.295   6.656  65.806  1.00  0.00    -0.143 A  
HETATM    5  C   UNL     1      -9.620   7.069  65.998  1.00  0.00     0.095 A  
HETATM    6  C   UNL     1      -7.320   7.435  66.450  1.00  0.00    -0.083 A  
HETATM    7  C   UNL     1      -9.950   8.113  66.893  1.00  0.00    -0.343 A  
HETATM    8  C   UNL     1      -7.633   8.488  67.330  1.00  0.00    -0.097 A  
HETATM    9  C   UNL     1      -8.963   8.803  67.610  1.00  0.00    -0.141 A  
BRANCH   9  10
HETATM   10  C   UNL     1      -9.331   9.776  68.699  1.00  0.00    -0.147 C  
BRANCH  10  11
HETATM   11  C   UNL     1      -9.795   9.236  70.029  1.00  0.00    -0.232 A  
HETATM   12  O   UNL     1      -6.826  10.088  70.270  1.00  0.00    -0.118 OA 
HETATM   13  O   UNL     1      -6.611   7.623  70.808  1.00  0.00    -0.038 OA 
HETATM   14  C   UNL     1     -11.178   9.273  70.298  1.00  0.00    -0.267 A  
HETATM   15  C   UNL     1     -11.678   8.883  71.553  1.00  0.00    -0.324 A  
HETATM   16  O   UNL     1      -6.837   9.290  72.583  1.00  0.00    -0.256 OA 
HETATM   17  C   UNL     1     -10.852   8.316  72.518  1.00  0.00    -0.421 A  
HETATM   18  S   UNL     1      -7.189   8.926  71.048  1.00  0.00    -0.101 S  
HETATM   19  S   UNL     1     -13.340   9.322  71.988  1.00  0.00    -0.483 S  
HETATM   20  C   UNL     1      -9.492   8.234  72.259  1.00  0.00    -0.341 A  
HETATM   21  O   UNL     1     -14.259   8.490  70.961  1.00  0.00    -0.164 OA 
HETATM   22  O   UNL     1     -13.631   8.779  73.298  1.00  0.00    -0.082 OA 
HETATM   23  O   UNL     1     -13.481  10.732  71.693  1.00  0.00    -0.289 OA 
HETATM   24  C   UNL     1      -8.958   8.745  71.055  1.00  0.00    -0.217 A  
ENDBRANCH  10  11
BRANCH  10  25
HETATM   25  C   UNL     1      -9.403  11.118  68.438  1.00  0.00    -0.185 A  
HETATM   26  C   UNL     1      -8.307  11.869  67.820  1.00  0.00    -0.149 A  
HETATM   27  C   UNL     1     -10.536  11.944  68.881  1.00  0.00    -0.205 A  
HETATM   28  C   UNL     1     -10.803  13.124  68.296  1.00  0.00    -0.274 A  
HETATM   29  C   UNL     1      -8.520  13.065  67.246  1.00  0.00    -0.199 A  
HETATM   30  C   UNL     1      -9.907  13.643  67.204  1.00  0.00    -0.242 A  
BRANCH  30  31
HETATM   31  N   UNL     1     -10.296  14.517  66.313  1.00  0.00    -0.285 NA 
BRANCH  31  32
HETATM   32  C   UNL     1     -10.164  16.017  66.519  1.00  0.00    -0.293 C  
HETATM   33  C   UNL     1     -10.577  16.790  65.282  1.00  0.00    -0.185 C  
ENDBRANCH  31  32
BRANCH  31  34
HETATM   34  C   UNL     1     -10.705  14.121  64.907  1.00  0.00    -0.428 C  
HETATM   35  C   UNL     1     -12.048  13.416  64.911  1.00  0.00    -0.430 C  
ENDBRANCH  31  34
ENDBRANCH  30  31
ENDBRANCH  10  25
ENDBRANCH   9  10
ENDBRANCH   3   4
BRANCH   3  36
HETATM   36  C   UNL     1      -8.200   5.396  63.625  1.00  0.00    -0.121 C  
HETATM   37  C   UNL     1      -7.745   6.644  62.884  1.00  0.00    -0.098 C  
ENDBRANCH   3  36
ENDBRANCH   2   3
TORSDOF 9
ENDMDL
MODEL       38
REMARK 921   NORMALIZED FREE ENERGY PREDICTED BY IDOCK:   -4.74 KCAL/MOL
REMARK 922        TOTAL FREE ENERGY PREDICTED BY IDOCK:   -9.56 KCAL/MOL
REMARK 923 INTER-LIGAND FREE ENERGY PREDICTED BY IDOCK:   -7.74 KCAL/MOL
REMARK 924 INTRA-LIGAND FREE ENERGY PREDICTED BY IDOCK:   -1.82 KCAL/MOL
REMARK 927      BINDING AFFINITY PREDICTED BY RF-SCORE:    0.00 PKD
ROOT
HETATM    1  C   UNL     1      -7.661   2.663  65.775  1.00  0.00    -0.073 C  
HETATM    2  C   UNL     1      -9.123   2.860  66.144  1.00  0.00    -0.130 C  
ENDROOT
BRANCH   2   3
HETATM    3  N   UNL     1      -9.719   3.971  65.384  1.00  0.00    -0.186 NA 
BRANCH   3   4
HETATM    4  C   UNL     1      -9.733   5.241  65.953  1.00  0.00    -0.105 A  
HETATM    5  C   UNL     1     -10.833   5.775  66.637  1.00  0.00    -0.290 A  
HETATM    6  C   UNL     1      -8.597   6.066  65.898  1.00  0.00    -0.150 A  
HETATM    7  C   UNL     1     -10.748   7.000  67.339  1.00  0.00    -0.383 A  
HETATM    8  C   UNL     1      -8.505   7.295  66.578  1.00  0.00    -0.125 A  
HETATM    9  C   UNL     1      -9.565   7.751  67.360  1.00  0.00    -0.192 A  
BRANCH   9  10
HETATM   10  C   UNL     1      -9.422   8.949  68.262  1.00  0.00    -0.150 C  
BRANCH  10  11
HETATM   11  C   UNL     1      -9.855   8.829  69.702  1.00  0.00    -0.183 A  
HETATM   12  O   UNL     1     -12.021  10.386  68.125  1.00  0.00    -0.263 OA 
HETATM   13  O   UNL     1     -11.370  12.153  69.819  1.00  0.00    -0.209 OA 
HETATM   14  C   UNL     1      -9.315   7.769  70.457  1.00  0.00    -0.163 A  
HETATM   15  C   UNL     1      -9.746   7.531  71.775  1.00  0.00    -0.160 A  
HETATM   16  O   UNL     1     -13.269  10.663  70.212  1.00  0.00    -0.156 OA 
HETATM   17  C   UNL     1     -10.606   8.408  72.425  1.00  0.00    -0.405 A  
HETATM   18  S   UNL     1     -11.832  10.823  69.489  1.00  0.00    -0.294 S  
HETATM   19  S   UNL     1      -9.359   5.976  72.535  1.00  0.00    -0.139 S  
HETATM   20  C   UNL     1     -11.119   9.482  71.713  1.00  0.00    -0.214 A  
HETATM   21  O   UNL     1      -7.756   5.984  72.678  1.00  0.00    -0.098 OA 
HETATM   22  O   UNL     1      -9.871   5.988  73.889  1.00  0.00    -0.164 OA 
HETATM   23  O   UNL     1      -9.731   4.951  71.583  1.00  0.00    -0.158 OA 
HETATM   24  C   UNL     1     -10.799   9.658  70.349  1.00  0.00    -0.295 A  
ENDBRANCH  10  11
BRANCH  10  25
HETATM   25  C   UNL     1      -9.064  10.167  67.750  1.00  0.00    -0.135 A  
HETATM   26  C   UNL     1      -9.254  10.526  66.342  1.00  0.00    -0.190 A  
HETATM   27  C   UNL     1      -8.335  11.168  68.542  1.00  0.00    -0.154 A  
HETATM   28  C   UNL     1      -8.344  12.466  68.195  1.00  0.00    -0.178 A  
HETATM   29  C   UNL     1      -9.245  11.808  65.942  1.00  0.00    -0.178 A  
HETATM   30  C   UNL     1      -9.067  12.909  66.952  1.00  0.00    -0.224 A  
BRANCH  30  31
HETATM   31  N   UNL     1      -9.490  14.132  66.765  1.00  0.00    -0.269 NA 
BRANCH  31  32
HETATM   32  C   UNL     1     -10.862  14.450  66.195  1.00  0.00    -0.309 C  
HETATM   33  C   UNL     1     -11.969  13.814  67.014  1.00  0.00    -0.452 C  
ENDBRANCH  31  32
BRANCH  31  34
HETATM   34  C   UNL     1      -8.749  15.341  67.302  1.00  0.00    -0.197 C  
HETATM   35  C   UNL     1      -8.587  16.400  66.229  1.00  0.00    -0.375 C  
ENDBRANCH  31  34
ENDBRANCH  30  31
ENDBRANCH  10  25
ENDBRANCH   9  10
ENDBRANCH   3   4
BRANCH   3  36
HETATM   36  C   UNL     1     -10.505   3.602  64.200  1.00  0.00    -0.247 C  
HETATM   37  C   UNL     1      -9.756   3.988  62.934  1.00  0.00    -0.147 C  
ENDBRANCH   3  36
ENDBRANCH   2   3
TORSDOF 9
ENDMDL
MODEL       39
REMARK 921   NORMALIZED FREE ENERGY PREDICTED BY IDOCK:   -4.71 KCAL/MOL
REMARK 922        TOTAL FREE ENERGY PREDICTED BY IDOCK:   -9.51 KCAL/MOL
REMARK 923 INTER-LIGAND FREE ENERGY PREDICTED BY IDOCK:   -7.52 KCAL/MOL
REMARK 924 INTRA-LIGAND FREE ENERGY PREDICTED BY IDOCK:   -1.99 KCAL/MOL
REMARK 927      BINDING AFFINITY PREDICTED BY RF-SCORE:    0.00 PKD
ROOT
HETATM    1  C   UNL     1      -9.246  11.398  62.970  1.00  0.00    -0.281 C  
HETATM    2  C   UNL     1     -10.487  11.906  63.688  1.00  0.00    -0.447 C  
ENDROOT
BRANCH   2   3
HETATM    3  N   UNL     1     -10.217  12.141  65.116  1.00  0.00    -0.274 NA 
BRANCH   3   4
HETATM    4  C   UNL     1      -9.859  11.062  65.918  1.00  0.00    -0.232 A  
HETATM    5  C   UNL     1      -9.317  11.193  67.203  1.00  0.00    -0.176 A  
HETATM    6  C   UNL     1     -10.060   9.743  65.479  1.00  0.00    -0.242 A  
HETATM    7  C   UNL     1      -9.122  10.074  68.045  1.00  0.00    -0.132 A  
HETATM    8  C   UNL     1      -9.853   8.618  66.300  1.00  0.00    -0.320 A  
HETATM    9  C   UNL     1      -9.436   8.775  67.622  1.00  0.00    -0.168 A  
BRANCH   9  10
HETATM   10  C   UNL     1      -9.408   7.617  68.584  1.00  0.00    -0.147 C  
BRANCH  10  11
HETATM   11  C   UNL     1      -9.875   7.838  70.001  1.00  0.00    -0.181 A  
HETATM   12  O   UNL     1      -6.889   8.637  69.788  1.00  0.00    -0.041 OA 
HETATM   13  O   UNL     1      -6.717   6.785  71.507  1.00  0.00    -0.058 OA 
HETATM   14  C   UNL     1     -11.255   8.033  70.207  1.00  0.00    -0.192 A  
HETATM   15  C   UNL     1     -11.755   8.345  71.484  1.00  0.00    -0.290 A  
HETATM   16  O   UNL     1      -6.901   9.127  72.185  1.00  0.00    -0.309 OA 
HETATM   17  C   UNL     1     -10.934   8.333  72.606  1.00  0.00    -0.386 A  
HETATM   18  S   UNL     1      -7.269   8.040  71.047  1.00  0.00    -0.058 S  
HETATM   19  S   UNL     1     -13.406   8.977  71.628  1.00  0.00    -0.378 S  
HETATM   20  C   UNL     1      -9.577   8.105  72.431  1.00  0.00    -0.335 A  
HETATM   21  O   UNL     1     -14.346   7.756  71.164  1.00  0.00    -0.332 OA 
HETATM   22  O   UNL     1     -13.699   9.181  73.030  1.00  0.00    -0.259 OA 
HETATM   23  O   UNL     1     -13.523  10.042  70.656  1.00  0.00    -0.260 OA 
HETATM   24  C   UNL     1      -9.041   7.922  71.138  1.00  0.00    -0.143 A  
ENDBRANCH  10  11
BRANCH  10  25
HETATM   25  C   UNL     1      -8.819   6.433  68.230  1.00  0.00    -0.115 A  
HETATM   26  C   UNL     1      -9.278   5.134  68.731  1.00  0.00    -0.152 A  
HETATM   27  C   UNL     1      -7.590   6.377  67.426  1.00  0.00    -0.100 A  
HETATM   28  C   UNL     1      -7.251   5.263  66.755  1.00  0.00    -0.078 A  
HETATM   29  C   UNL     1      -8.944   3.990  68.109  1.00  0.00    -0.156 A  
HETATM   30  C   UNL     1      -8.108   4.031  66.860  1.00  0.00    -0.097 A  
BRANCH  30  31
HETATM   31  N   UNL     1      -8.116   3.084  65.958  1.00  0.00    -0.085 NA 
BRANCH  31  32
HETATM   32  C   UNL     1      -9.342   2.753  65.124  1.00  0.00    -0.111 C  
HETATM   33  C   UNL     1     -10.028   4.007  64.616  1.00  0.00    -0.205 C  
ENDBRANCH  31  32
BRANCH  31  34
HETATM   34  C   UNL     1      -6.852   2.381  65.503  1.00  0.00    -0.043 C  
HETATM   35  C   UNL     1      -6.511   2.747  64.071  1.00  0.00    -0.030 C  
ENDBRANCH  31  34
ENDBRANCH  30  31
ENDBRANCH  10  25
ENDBRANCH   9  10
ENDBRANCH   3   4
BRANCH   3  36
HETATM   36  C   UNL     1     -10.615  13.451  65.647  1.00  0.00    -0.282 C  
HETATM   37  C   UNL     1     -12.097  13.689  65.396  1.00  0.00    -0.429 C  
ENDBRANCH   3  36
ENDBRANCH   2   3
TORSDOF 9
ENDMDL
MODEL       40
REMARK 921   NORMALIZED FREE ENERGY PREDICTED BY IDOCK:   -4.70 KCAL/MOL
REMARK 922        TOTAL FREE ENERGY PREDICTED BY IDOCK:   -9.50 KCAL/MOL
REMARK 923 INTER-LIGAND FREE ENERGY PREDICTED BY IDOCK:   -7.15 KCAL/MOL
REMARK 924 INTRA-LIGAND FREE ENERGY PREDICTED BY IDOCK:   -2.35 KCAL/MOL
REMARK 927      BINDING AFFINITY PREDICTED BY RF-SCORE:    0.00 PKD
ROOT
HETATM    1  C   UNL     1      -5.751   9.815  69.502  1.00  0.00    -0.033 C  
HETATM    2  C   UNL     1      -6.059   9.458  68.056  1.00  0.00    -0.052 C  
ENDROOT
BRANCH   2   3
HETATM    3  N   UNL     1      -6.157  10.665  67.218  1.00  0.00    -0.053 NA 
BRANCH   3   4
HETATM    4  C   UNL     1      -7.072  11.653  67.570  1.00  0.00    -0.111 A  
HETATM    5  C   UNL     1      -6.778  13.022  67.564  1.00  0.00    -0.156 A  
HETATM    6  C   UNL     1      -8.389  11.319  67.928  1.00  0.00    -0.131 A  
HETATM    7  C   UNL     1      -7.781  13.998  67.768  1.00  0.00    -0.178 A  
HETATM    8  C   UNL     1      -9.393  12.279  68.151  1.00  0.00    -0.205 A  
HETATM    9  C   UNL     1      -9.113  13.639  68.014  1.00  0.00    -0.192 A  
BRANCH   9  10
HETATM   10  C   UNL     1     -10.206  14.675  68.038  1.00  0.00    -0.231 C  
BRANCH  10  11
HETATM   11  C   UNL     1     -10.506  15.444  66.775  1.00  0.00    -0.299 A  
HETATM   12  O   UNL     1     -12.340  12.951  66.894  1.00  0.00    -0.384 OA 
HETATM   13  O   UNL     1     -11.081  12.456  64.753  1.00  0.00    -0.287 OA 
HETATM   14  C   UNL     1     -10.187  16.817  66.760  1.00  0.00    -0.304 A  
HETATM   15  C   UNL     1     -10.528  17.623  65.659  1.00  0.00    -0.144 A  
HETATM   16  O   UNL     1     -13.252  13.580  64.713  1.00  0.00    -0.555 OA 
HETATM   17  C   UNL     1     -11.058  17.075  64.496  1.00  0.00     0.578 A  
HETATM   18  S   UNL     1     -11.905  13.321  65.567  1.00  0.00    -0.395 S  
HETATM   19  S   UNL     1     -10.484  19.387  65.841  1.00  0.00    -0.390 S  
HETATM   20  C   UNL     1     -11.343  15.717  64.475  1.00  0.00    -0.324 A  
HETATM   21  O   UNL     1      -8.928  19.730  66.069  1.00  0.00    -0.364 OA 
HETATM   22  O   UNL     1     -10.833  19.988  64.572  1.00  0.00     0.456 OA 
HETATM   23  O   UNL     1     -11.205  19.690  67.059  1.00  0.00    -0.319 OA 
HETATM   24  C   UNL     1     -11.130  14.921  65.621  1.00  0.00    -0.348 A  
ENDBRANCH  10  11
BRANCH  10  25
HETATM   25  C   UNL     1     -10.802  15.032  69.218  1.00  0.00    -0.263 A  
HETATM   26  C   UNL     1     -12.201  15.459  69.307  1.00  0.00    -0.219 A  
HETATM   27  C   UNL     1     -10.048  15.144  70.475  1.00  0.00     0.274 A  
HETATM   28  C   UNL     1     -10.672  15.091  71.664  1.00  0.00     0.538 A  
HETATM   29  C   UNL     1     -12.860  15.448  70.478  1.00  0.00    -0.425 A  
HETATM   30  C   UNL     1     -12.170  14.963  71.723  1.00  0.00    -0.348 A  
BRANCH  30  31
HETATM   31  N   UNL     1     -12.809  14.487  72.760  1.00  0.00    -0.423 NA 
BRANCH  31  32
HETATM   32  C   UNL     1     -13.697  13.257  72.685  1.00  0.00    -0.353 C  
HETATM   33  C   UNL     1     -13.055  12.152  71.869  1.00  0.00    -0.475 C  
ENDBRANCH  31  32
BRANCH  31  34
HETATM   34  C   UNL     1     -12.550  14.977  74.172  1.00  0.00    -0.343 C  
HETATM   35  C   UNL     1     -12.255  16.465  74.185  1.00  0.00    -0.537 C  
ENDBRANCH  31  34
ENDBRANCH  30  31
ENDBRANCH  10  25
ENDBRANCH   9  10
ENDBRANCH   3   4
BRANCH   3  36
HETATM   36  C   UNL     1      -5.479  10.611  65.917  1.00  0.00    -0.114 C  
HETATM   37  C   UNL     1      -5.508   9.192  65.369  1.00  0.00    -0.038 C  
ENDBRANCH   3  36
ENDBRANCH   2   3
TORSDOF 9
ENDMDL
MODEL       41
REMARK 921   NORMALIZED FREE ENERGY PREDICTED BY IDOCK:   -4.68 KCAL/MOL
REMARK 922        TOTAL FREE ENERGY PREDICTED BY IDOCK:   -9.47 KCAL/MOL
REMARK 923 INTER-LIGAND FREE ENERGY PREDICTED BY IDOCK:   -6.90 KCAL/MOL
REMARK 924 INTRA-LIGAND FREE ENERGY PREDICTED BY IDOCK:   -2.56 KCAL/MOL
REMARK 927      BINDING AFFINITY PREDICTED BY RF-SCORE:    0.00 PKD
ROOT
HETATM    1  C   UNL     1      -6.314  19.985  70.179  1.00  0.00    -0.368 C  
HETATM    2  C   UNL     1      -6.056  18.854  69.196  1.00  0.00    -0.246 C  
ENDROOT
BRANCH   2   3
HETATM    3  N   UNL     1      -7.317  18.329  68.645  1.00  0.00    -0.284 NA 
BRANCH   3   4
HETATM    4  C   UNL     1      -7.417  16.967  68.377  1.00  0.00    -0.213 A  
HETATM    5  C   UNL     1      -7.257  15.970  69.347  1.00  0.00    -0.213 A  
HETATM    6  C   UNL     1      -7.724  16.510  67.085  1.00  0.00    -0.214 A  
HETATM    7  C   UNL     1      -7.527  14.610  69.067  1.00  0.00    -0.136 A  
HETATM    8  C   UNL     1      -7.980  15.158  66.787  1.00  0.00    -0.047 A  
HETATM    9  C   UNL     1      -7.942  14.194  67.794  1.00  0.00    -0.175 A  
BRANCH   9  10
HETATM   10  C   UNL     1      -8.413  12.783  67.554  1.00  0.00    -0.181 C  
BRANCH  10  11
HETATM   11  C   UNL     1      -9.603  12.273  68.328  1.00  0.00    -0.212 A  
HETATM   12  O   UNL     1     -10.607  13.745  65.794  1.00  0.00    -0.281 OA 
HETATM   13  O   UNL     1     -11.695  15.174  67.580  1.00  0.00    -0.322 OA 
HETATM   14  C   UNL     1      -9.394  11.179  69.192  1.00  0.00     0.019 A  
HETATM   15  C   UNL     1     -10.472  10.582  69.871  1.00  0.00    -0.164 A  
HETATM   16  O   UNL     1     -12.905  13.330  66.525  1.00  0.00    -0.080 OA 
HETATM   17  C   UNL     1     -11.749  11.131  69.827  1.00  0.00    -0.419 A  
HETATM   18  S   UNL     1     -11.453  13.892  66.956  1.00  0.00    -0.366 S  
HETATM   19  S   UNL     1     -10.241   8.987  70.611  1.00  0.00    -0.250 S  
HETATM   20  C   UNL     1     -11.968  12.232  69.012  1.00  0.00    -0.300 A  
HETATM   21  O   UNL     1      -9.173   9.240  71.788  1.00  0.00    -0.306 OA 
HETATM   22  O   UNL     1     -11.470   8.608  71.276  1.00  0.00    -0.259 OA 
HETATM   23  O   UNL     1      -9.626   8.153  69.602  1.00  0.00    -0.166 OA 
HETATM   24  C   UNL     1     -10.924  12.760  68.222  1.00  0.00    -0.252 A  
ENDBRANCH  10  11
BRANCH  10  25
HETATM   25  C   UNL     1      -7.680  11.928  66.776  1.00  0.00    -0.051 A  
HETATM   26  C   UNL     1      -6.222  11.813  66.875  1.00  0.00    -0.134 A  
HETATM   27  C   UNL     1      -8.280  11.152  65.682  1.00  0.00     0.047 A  
HETATM   28  C   UNL     1      -7.679  10.049  65.204  1.00  0.00    -0.137 A  
HETATM   29  C   UNL     1      -5.573  10.742  66.389  1.00  0.00    -0.094 A  
HETATM   30  C   UNL     1      -6.346   9.619  65.754  1.00  0.00    -0.075 A  
BRANCH  30  31
HETATM   31  N   UNL     1      -5.902   8.392  65.679  1.00  0.00    -0.044 NA 
BRANCH  31  32
HETATM   32  C   UNL     1      -5.133   7.867  64.478  1.00  0.00    -0.029 C  
HETATM   33  C   UNL     1      -6.066   7.433  63.363  1.00  0.00    -0.053 C  
ENDBRANCH  31  32
BRANCH  31  34
HETATM   34  C   UNL     1      -5.913   7.447  66.866  1.00  0.00    -0.038 C  
HETATM   35  C   UNL     1      -7.326   7.009  67.198  1.00  0.00    -0.090 C  
ENDBRANCH  31  34
ENDBRANCH  30  31
ENDBRANCH  10  25
ENDBRANCH   9  10
ENDBRANCH   3   4
BRANCH   3  36
HETATM   36  C   UNL     1      -8.280  19.326  68.160  1.00  0.00    -0.318 C  
HETATM   37  C   UNL     1      -9.659  19.048  68.740  1.00  0.00    -0.451 C  
ENDBRANCH   3  36
ENDBRANCH   2   3
TORSDOF 9
ENDMDL
MODEL       42
REMARK 921   NORMALIZED FREE ENERGY PREDICTED BY IDOCK:   -4.65 KCAL/MOL
REMARK 922        TOTAL FREE ENERGY PREDICTED BY IDOCK:   -9.42 KCAL/MOL
REMARK 923 INTER-LIGAND FREE ENERGY PREDICTED BY IDOCK:   -8.88 KCAL/MOL
REMARK 924 INTRA-LIGAND FREE ENERGY PREDICTED BY IDOCK:   -0.54 KCAL/MOL
REMARK 927      BINDING AFFINITY PREDICTED BY RF-SCORE:    0.00 PKD
ROOT
HETATM    1  C   UNL     1      -7.415  10.018  62.332  1.00  0.00    -0.134 C  
HETATM    2  C   UNL     1      -8.614   9.141  62.657  1.00  0.00    -0.215 C  
ENDROOT
BRANCH   2   3
HETATM    3  N   UNL     1      -8.743   8.931  64.109  1.00  0.00    -0.112 NA 
BRANCH   3   4
HETATM    4  C   UNL     1      -8.968  10.033  64.929  1.00  0.00    -0.205 A  
HETATM    5  C   UNL     1     -10.234  10.584  65.161  1.00  0.00    -0.358 A  
HETATM    6  C   UNL     1      -7.907  10.647  65.614  1.00  0.00    -0.123 A  
HETATM    7  C   UNL     1     -10.438  11.597  66.126  1.00  0.00    -0.289 A  
HETATM    8  C   UNL     1      -8.093  11.668  66.565  1.00  0.00    -0.075 A  
HETATM    9  C   UNL     1      -9.376  12.117  66.878  1.00  0.00    -0.203 A  
BRANCH   9  10
HETATM   10  C   UNL     1      -9.625  13.050  68.033  1.00  0.00    -0.224 C  
BRANCH  10  11
HETATM   11  C   UNL     1     -10.621  12.647  69.091  1.00  0.00     0.008 A  
HETATM   12  O   UNL     1      -8.276  10.623  69.092  1.00  0.00    -0.146 OA 
HETATM   13  O   UNL     1     -10.190   9.062  68.535  1.00  0.00    -0.189 OA 
HETATM   14  C   UNL     1     -11.463  13.652  69.607  1.00  0.00    -0.286 A  
HETATM   15  C   UNL     1     -12.347  13.377  70.667  1.00  0.00    -0.348 A  
HETATM   16  O   UNL     1      -9.432   9.360  70.840  1.00  0.00    -0.257 OA 
HETATM   17  C   UNL     1     -12.525  12.084  71.144  1.00  0.00    -0.353 A  
HETATM   18  S   UNL     1      -9.570  10.052  69.386  1.00  0.00    -0.230 S  
HETATM   19  S   UNL     1     -13.078  14.732  71.547  1.00  0.00    -0.384 S  
HETATM   20  C   UNL     1     -11.733  11.071  70.623  1.00  0.00    -0.371 A  
HETATM   21  O   UNL     1     -14.028  15.450  70.464  1.00  0.00    -0.154 OA 
HETATM   22  O   UNL     1     -13.970  14.197  72.553  1.00  0.00    -0.562 OA 
HETATM   23  O   UNL     1     -11.997  15.634  71.881  1.00  0.00    -0.356 OA 
HETATM   24  C   UNL     1     -10.748  11.357  69.653  1.00  0.00     0.034 A  
ENDBRANCH  10  11
BRANCH  10  25
HETATM   25  C   UNL     1      -9.088  14.310  68.038  1.00  0.00    -0.191 A  
HETATM   26  C   UNL     1      -8.742  15.033  66.811  1.00  0.00    -0.293 A  
HETATM   27  C   UNL     1      -8.687  14.987  69.280  1.00  0.00    -0.161 A  
HETATM   28  C   UNL     1      -8.551  16.323  69.327  1.00  0.00    -0.148 A  
HETATM   29  C   UNL     1      -8.569  16.365  66.813  1.00  0.00    -0.270 A  
HETATM   30  C   UNL     1      -8.760  17.146  68.085  1.00  0.00    -0.232 A  
BRANCH  30  31
HETATM   31  N   UNL     1      -9.068  18.416  68.109  1.00  0.00    -0.300 NA 
BRANCH  31  32
HETATM   32  C   UNL     1      -8.031  19.511  68.297  1.00  0.00    -0.333 C  
HETATM   33  C   UNL     1      -6.629  19.009  68.009  1.00  0.00    -0.244 C  
ENDBRANCH  31  32
BRANCH  31  34
HETATM   34  C   UNL     1     -10.445  18.928  67.731  1.00  0.00    -0.416 C  
HETATM   35  C   UNL     1     -10.409  19.655  66.401  1.00  0.00    -0.609 C  
ENDBRANCH  31  34
ENDBRANCH  30  31
ENDBRANCH  10  25
ENDBRANCH   9  10
ENDBRANCH   3   4
BRANCH   3  36
HETATM   36  C   UNL     1      -8.347   7.610  64.613  1.00  0.00     0.003 C  
HETATM   37  C   UNL     1      -9.004   7.345  65.959  1.00  0.00    -0.156 C  
ENDBRANCH   3  36
ENDBRANCH   2   3
TORSDOF 9
ENDMDL
MODEL       43
REMARK 921   NORMALIZED FREE ENERGY PREDICTED BY IDOCK:   -4.63 KCAL/MOL
REMARK 922        TOTAL FREE ENERGY PREDICTED BY IDOCK:   -9.39 KCAL/MOL
REMARK 923 INTER-LIGAND FREE ENERGY PREDICTED BY IDOCK:   -7.33 KCAL/MOL
REMARK 924 INTRA-LIGAND FREE ENERGY PREDICTED BY IDOCK:   -2.07 KCAL/MOL
REMARK 927      BINDING AFFINITY PREDICTED BY RF-SCORE:    0.00 PKD
ROOT
HETATM    1  C   UNL     1     -12.510  14.739  65.019  1.00  0.00    -0.150 C  
HETATM    2  C   UNL     1     -11.377  13.936  65.641  1.00  0.00    -0.309 C  
ENDROOT
BRANCH   2   3
HETATM    3  N   UNL     1     -11.303  12.584  65.063  1.00  0.00    -0.303 NA 
BRANCH   3   4
HETATM    4  C   UNL     1     -10.981  11.516  65.896  1.00  0.00    -0.243 A  
HETATM    5  C   UNL     1     -10.244  10.400  65.480  1.00  0.00    -0.316 A  
HETATM    6  C   UNL     1     -11.363  11.518  67.248  1.00  0.00    -0.359 A  
HETATM    7  C   UNL     1      -9.800   9.419  66.396  1.00  0.00    -0.337 A  
HETATM    8  C   UNL     1     -10.944  10.539  68.168  1.00  0.00    -0.330 A  
HETATM    9  C   UNL     1     -10.102   9.503  67.763  1.00  0.00    -0.244 A  
BRANCH   9  10
HETATM   10  C   UNL     1      -9.468   8.567  68.757  1.00  0.00    -0.143 C  
BRANCH  10  11
HETATM   11  C   UNL     1      -8.166   7.896  68.397  1.00  0.00    -0.124 A  
HETATM   12  O   UNL     1      -7.577  10.768  69.400  1.00  0.00    -0.133 OA 
HETATM   13  O   UNL     1      -6.647  10.934  67.050  1.00  0.00    -0.076 OA 
HETATM   14  C   UNL     1      -8.134   6.488  68.414  1.00  0.00    -0.111 A  
HETATM   15  C   UNL     1      -6.932   5.792  68.188  1.00  0.00    -0.069 A  
HETATM   16  O   UNL     1      -5.203  10.386  68.945  1.00  0.00    -0.042 OA 
HETATM   17  C   UNL     1      -5.773   6.455  67.803  1.00  0.00    -0.009 A  
HETATM   18  S   UNL     1      -6.702  10.301  68.348  1.00  0.00    -0.057 S  
HETATM   19  S   UNL     1      -6.844   4.073  68.615  1.00  0.00    -0.047 S  
HETATM   20  C   UNL     1      -5.792   7.841  67.742  1.00  0.00    -0.040 A  
HETATM   21  O   UNL     1      -7.870   3.353  67.605  1.00  0.00    -0.075 OA 
HETATM   22  O   UNL     1      -5.533   3.578  68.256  1.00  0.00    -0.012 OA 
HETATM   23  O   UNL     1      -7.366   3.958  69.960  1.00  0.00    -0.042 OA 
HETATM   24  C   UNL     1      -6.955   8.559  68.095  1.00  0.00    -0.074 A  
ENDBRANCH  10  11
BRANCH  10  25
HETATM   25  C   UNL     1     -10.139   8.200  69.894  1.00  0.00    -0.195 A  
HETATM   26  C   UNL     1     -11.245   7.239  69.890  1.00  0.00    -0.195 A  
HETATM   27  C   UNL     1      -9.893   8.844  71.192  1.00  0.00    -0.345 A  
HETATM   28  C   UNL     1     -10.232   8.236  72.341  1.00  0.00    -0.397 A  
HETATM   29  C   UNL     1     -11.637   6.625  71.019  1.00  0.00    -0.399 A  
HETATM   30  C   UNL     1     -10.919   6.898  72.312  1.00  0.00    -0.242 A  
BRANCH  30  31
HETATM   31  N   UNL     1     -10.901   6.060  73.315  1.00  0.00    -0.261 NA 
BRANCH  31  32
HETATM   32  C   UNL     1     -11.640   4.733  73.293  1.00  0.00    -0.194 C  
HETATM   33  C   UNL     1     -10.688   3.565  73.122  1.00  0.00    -0.267 C  
ENDBRANCH  31  32
BRANCH  31  34
HETATM   34  C   UNL     1      -9.966   6.226  74.498  1.00  0.00    -0.341 C  
HETATM   35  C   UNL     1      -8.528   5.958  74.097  1.00  0.00    -0.112 C  
ENDBRANCH  31  34
ENDBRANCH  30  31
ENDBRANCH  10  25
ENDBRANCH   9  10
ENDBRANCH   3   4
BRANCH   3  36
HETATM   36  C   UNL     1     -11.300  12.501  63.597  1.00  0.00    -0.485 C  
HETATM   37  C   UNL     1     -12.549  11.781  63.112  1.00  0.00    -0.247 C  
ENDBRANCH   3  36
ENDBRANCH   2   3
TORSDOF 9
ENDMDL
MODEL       44
REMARK 921   NORMALIZED FREE ENERGY PREDICTED BY IDOCK:   -4.62 KCAL/MOL
REMARK 922        TOTAL FREE ENERGY PREDICTED BY IDOCK:   -9.38 KCAL/MOL
REMARK 923 INTER-LIGAND FREE ENERGY PREDICTED BY IDOCK:   -7.63 KCAL/MOL
REMARK 924 INTRA-LIGAND FREE ENERGY PREDICTED BY IDOCK:   -1.74 KCAL/MOL
REMARK 927      BINDING AFFINITY PREDICTED BY RF-SCORE:    0.00 PKD
ROOT
HETATM    1  C   UNL     1      -7.311   8.799  68.787  1.00  0.00    -0.083 C  
HETATM    2  C   UNL     1      -7.680   8.405  67.365  1.00  0.00    -0.098 C  
ENDROOT
BRANCH   2   3
HETATM    3  N   UNL     1      -8.800   9.217  66.861  1.00  0.00    -0.126 NA 
BRANCH   3   4
HETATM    4  C   UNL     1      -8.939  10.525  67.316  1.00  0.00    -0.139 A  
HETATM    5  C   UNL     1      -8.074  11.568  66.958  1.00  0.00    -0.161 A  
HETATM    6  C   UNL     1     -10.004  10.885  68.156  1.00  0.00    -0.188 A  
HETATM    7  C   UNL     1      -8.345  12.911  67.309  1.00  0.00    -0.185 A  
HETATM    8  C   UNL     1     -10.276  12.215  68.528  1.00  0.00    -0.214 A  
HETATM    9  C   UNL     1      -9.479  13.258  68.057  1.00  0.00    -0.219 A  
BRANCH   9  10
HETATM   10  C   UNL     1      -9.863  14.700  68.261  1.00  0.00    -0.222 C  
BRANCH  10  11
HETATM   11  C   UNL     1      -9.183  15.758  67.428  1.00  0.00    -0.208 A  
HETATM   12  O   UNL     1     -11.830  14.936  66.045  1.00  0.00    -0.257 OA 
HETATM   13  O   UNL     1     -10.181  14.291  64.234  1.00  0.00    -0.090 OA 
HETATM   14  C   UNL     1      -8.277  16.616  68.083  1.00  0.00    -0.192 A  
HETATM   15  C   UNL     1      -7.680  17.690  67.399  1.00  0.00    -0.200 A  
HETATM   16  O   UNL     1     -11.292  16.469  64.216  1.00  0.00    -1.020 OA 
HETATM   17  C   UNL     1      -7.848  17.859  66.029  1.00  0.00    -0.189 A  
HETATM   18  S   UNL     1     -10.750  15.261  65.143  1.00  0.00    -0.444 S  
HETATM   19  S   UNL     1      -6.883  18.968  68.336  1.00  0.00    -0.266 S  
HETATM   20  C   UNL     1      -8.706  17.001  65.357  1.00  0.00     1.293 A  
HETATM   21  O   UNL     1      -5.625  18.238  69.024  1.00  0.00    -0.193 OA 
HETATM   22  O   UNL     1      -6.319  19.929  67.414  1.00  0.00    -0.191 OA 
HETATM   23  O   UNL     1      -7.815  19.355  69.374  1.00  0.00    -0.229 OA 
HETATM   24  C   UNL     1      -9.415  16.001  66.057  1.00  0.00    -0.349 A  
ENDBRANCH  10  11
BRANCH  10  25
HETATM   25  C   UNL     1     -10.687  15.061  69.293  1.00  0.00    -0.250 A  
HETATM   26  C   UNL     1     -12.141  15.177  69.147  1.00  0.00    -0.258 A  
HETATM   27  C   UNL     1     -10.168  15.493  70.598  1.00  0.00     0.229 A  
HETATM   28  C   UNL     1     -10.939  15.452  71.698  1.00  0.00    -0.122 A  
HETATM   29  C   UNL     1     -12.952  15.167  70.219  1.00  0.00    -0.220 A  
HETATM   30  C   UNL     1     -12.373  15.007  71.597  1.00  0.00    -0.342 A  
BRANCH  30  31
HETATM   31  N   UNL     1     -13.050  14.535  72.611  1.00  0.00    -0.434 NA 
BRANCH  31  32
HETATM   32  C   UNL     1     -14.025  13.376  72.482  1.00  0.00    -0.413 C  
HETATM   33  C   UNL     1     -13.348  12.135  71.933  1.00  0.00    -0.421 C  
ENDBRANCH  31  32
BRANCH  31  34
HETATM   34  C   UNL     1     -12.765  14.945  74.043  1.00  0.00    -0.145 C  
HETATM   35  C   UNL     1     -12.650  16.453  74.164  1.00  0.00    -0.519 C  
ENDBRANCH  31  34
ENDBRANCH  30  31
ENDBRANCH  10  25
ENDBRANCH   9  10
ENDBRANCH   3   4
BRANCH   3  36
HETATM   36  C   UNL     1      -9.849   8.496  66.128  1.00  0.00    -0.157 C  
HETATM   37  C   UNL     1     -10.531   7.492  67.044  1.00  0.00    -0.409 C  
ENDBRANCH   3  36
ENDBRANCH   2   3
TORSDOF 9
ENDMDL
MODEL       45
REMARK 921   NORMALIZED FREE ENERGY PREDICTED BY IDOCK:   -4.60 KCAL/MOL
REMARK 922        TOTAL FREE ENERGY PREDICTED BY IDOCK:   -9.35 KCAL/MOL
REMARK 923 INTER-LIGAND FREE ENERGY PREDICTED BY IDOCK:   -8.06 KCAL/MOL
REMARK 924 INTRA-LIGAND FREE ENERGY PREDICTED BY IDOCK:   -1.28 KCAL/MOL
REMARK 927      BINDING AFFINITY PREDICTED BY RF-SCORE:    0.00 PKD
ROOT
HETATM    1  C   UNL     1      -8.052  18.090  68.193  1.00  0.00    -0.276 C  
HETATM    2  C   UNL     1      -6.598  17.669  68.046  1.00  0.00    -0.182 C  
ENDROOT
BRANCH   2   3
HETATM    3  N   UNL     1      -6.265  16.573  68.971  1.00  0.00    -0.152 NA 
BRANCH   3   4
HETATM    4  C   UNL     1      -6.855  15.328  68.776  1.00  0.00    -0.109 A  
HETATM    5  C   UNL     1      -8.121  14.982  69.265  1.00  0.00    -0.178 A  
HETATM    6  C   UNL     1      -6.205  14.334  68.025  1.00  0.00    -0.158 A  
HETATM    7  C   UNL     1      -8.750  13.768  68.906  1.00  0.00     0.146 A  
HETATM    8  C   UNL     1      -6.813  13.114  67.674  1.00  0.00    -0.160 A  
HETATM    9  C   UNL     1      -8.124  12.840  68.063  1.00  0.00    -0.162 A  
BRANCH   9  10
HETATM   10  C   UNL     1      -8.871  11.646  67.530  1.00  0.00    -0.158 C  
BRANCH  10  11
HETATM   11  C   UNL     1      -9.304  11.645  66.085  1.00  0.00    -0.237 A  
HETATM   12  O   UNL     1      -7.785   9.012  66.682  1.00  0.00    -0.095 OA 
HETATM   13  O   UNL     1      -6.284   9.976  64.884  1.00  0.00    -0.101 OA 
HETATM   14  C   UNL     1     -10.405  12.454  65.737  1.00  0.00    -0.289 A  
HETATM   15  C   UNL     1     -10.931  12.430  64.432  1.00  0.00    -0.334 A  
HETATM   16  O   UNL     1      -8.055   8.383  64.333  1.00  0.00    -0.151 OA 
HETATM   17  C   UNL     1     -10.305  11.724  63.411  1.00  0.00    -0.481 A  
HETATM   18  S   UNL     1      -7.581   9.542  65.354  1.00  0.00    -0.110 S  
HETATM   19  S   UNL     1     -12.534  13.132  64.142  1.00  0.00    -0.230 S  
HETATM   20  C   UNL     1      -9.197  10.951  63.725  1.00  0.00    -0.233 A  
HETATM   21  O   UNL     1     -12.341  14.705  64.422  1.00  0.00    -0.553 OA 
HETATM   22  O   UNL     1     -12.833  13.022  62.731  1.00  0.00    -0.094 OA 
HETATM   23  O   UNL     1     -13.409  12.587  65.157  1.00  0.00    -0.448 OA 
HETATM   24  C   UNL     1      -8.737  10.860  65.057  1.00  0.00    -0.101 A  
ENDBRANCH  10  11
BRANCH  10  25
HETATM   25  C   UNL     1      -9.296  10.656  68.376  1.00  0.00    -0.163 A  
HETATM   26  C   UNL     1      -8.517  10.211  69.535  1.00  0.00    -0.179 A  
HETATM   27  C   UNL     1     -10.507   9.865  68.114  1.00  0.00    -0.256 A  
HETATM   28  C   UNL     1     -11.130   9.205  69.104  1.00  0.00     0.036 A  
HETATM   29  C   UNL     1      -9.090   9.525  70.538  1.00  0.00    -0.276 A  
HETATM   30  C   UNL     1     -10.563   9.226  70.498  1.00  0.00    -0.252 A  
BRANCH  30  31
HETATM   31  N   UNL     1     -11.280   8.999  71.567  1.00  0.00    -0.320 NA 
BRANCH  31  32
HETATM   32  C   UNL     1     -12.367   9.946  72.046  1.00  0.00    -0.204 C  
HETATM   33  C   UNL     1     -13.746   9.329  71.910  1.00  0.00    -0.464 C  
ENDBRANCH  31  32
BRANCH  31  34
HETATM   34  C   UNL     1     -11.251   7.671  72.300  1.00  0.00    -0.293 C  
HETATM   35  C   UNL     1     -10.109   7.625  73.297  1.00  0.00    -0.393 C  
ENDBRANCH  31  34
ENDBRANCH  30  31
ENDBRANCH  10  25
ENDBRANCH   9  10
ENDBRANCH   3   4
BRANCH   3  36
HETATM   36  C   UNL     1      -5.549  16.950  70.197  1.00  0.00    -0.222 C  
HETATM   37  C   UNL     1      -5.164  18.421  70.147  1.00  0.00    -0.229 C  
ENDBRANCH   3  36
ENDBRANCH   2   3
TORSDOF 9
ENDMDL
MODEL       46
REMARK 921   NORMALIZED FREE ENERGY PREDICTED BY IDOCK:   -4.58 KCAL/MOL
REMARK 922        TOTAL FREE ENERGY PREDICTED BY IDOCK:   -9.31 KCAL/MOL
REMARK 923 INTER-LIGAND FREE ENERGY PREDICTED BY IDOCK:   -8.05 KCAL/MOL
REMARK 924 INTRA-LIGAND FREE ENERGY PREDICTED BY IDOCK:   -1.26 KCAL/MOL
REMARK 927      BINDING AFFINITY PREDICTED BY RF-SCORE:    0.00 PKD
ROOT
HETATM    1  C   UNL     1     -14.011  13.176  71.977  1.00  0.00    -0.275 C  
HETATM    2  C   UNL     1     -13.352  11.940  72.570  1.00  0.00     0.470 C  
ENDROOT
BRANCH   2   3
HETATM    3  N   UNL     1     -13.055  10.943  71.527  1.00  0.00    -0.415 NA 
BRANCH   3   4
HETATM    4  C   UNL     1     -12.056  11.221  70.599  1.00  0.00    -0.383 A  
HETATM    5  C   UNL     1     -11.073  10.299  70.216  1.00  0.00    -0.388 A  
HETATM    6  C   UNL     1     -12.000  12.467  69.955  1.00  0.00    -0.371 A  
HETATM    7  C   UNL     1     -10.180  10.565  69.153  1.00  0.00    -0.241 A  
HETATM    8  C   UNL     1     -11.104  12.753  68.907  1.00  0.00    -0.310 A  
HETATM    9  C   UNL     1     -10.218  11.778  68.450  1.00  0.00    -0.208 A  
BRANCH   9  10
HETATM   10  C   UNL     1      -9.399  11.978  67.202  1.00  0.00    -0.187 C  
BRANCH  10  11
HETATM   11  C   UNL     1      -9.536  13.275  66.443  1.00  0.00    -0.260 A  
HETATM   12  O   UNL     1     -12.209  11.717  66.265  1.00  0.00    -0.344 OA 
HETATM   13  O   UNL     1     -11.619  11.842  63.805  1.00  0.00    -0.414 OA 
HETATM   14  C   UNL     1      -8.676  14.331  66.802  1.00  0.00    -0.161 A  
HETATM   15  C   UNL     1      -8.809  15.601  66.212  1.00  0.00    -0.329 A  
HETATM   16  O   UNL     1     -13.093  13.497  64.838  1.00  0.00    -0.718 OA 
HETATM   17  C   UNL     1      -9.692  15.822  65.161  1.00  0.00     0.187 A  
HETATM   18  S   UNL     1     -11.867  12.473  65.082  1.00  0.00    -0.413 S  
HETATM   19  S   UNL     1      -8.000  16.987  66.967  1.00  0.00    -0.222 S  
HETATM   20  C   UNL     1     -10.522  14.784  64.765  1.00  0.00    -0.317 A  
HETATM   21  O   UNL     1      -6.429  16.677  66.799  1.00  0.00    -0.191 OA 
HETATM   22  O   UNL     1      -8.253  18.161  66.161  1.00  0.00    -0.428 OA 
HETATM   23  O   UNL     1      -8.330  16.936  68.375  1.00  0.00    -0.218 OA 
HETATM   24  C   UNL     1     -10.491  13.543  65.438  1.00  0.00    -0.315 A  
ENDBRANCH  10  11
BRANCH  10  25
HETATM   25  C   UNL     1      -8.673  10.945  66.673  1.00  0.00    -0.156 A  
HETATM   26  C   UNL     1      -9.292   9.733  66.128  1.00  0.00    -0.243 A  
HETATM   27  C   UNL     1      -7.204  10.908  66.731  1.00  0.00    -0.134 A  
HETATM   28  C   UNL     1      -6.498  10.137  65.887  1.00  0.00    -0.104 A  
HETATM   29  C   UNL     1      -8.616   8.918  65.301  1.00  0.00    -0.209 A  
HETATM   30  C   UNL     1      -7.208   9.257  64.895  1.00  0.00    -0.102 A  
BRANCH  30  31
HETATM   31  N   UNL     1      -6.653   8.823  63.794  1.00  0.00    -0.087 NA 
BRANCH  31  32
HETATM   32  C   UNL     1      -5.760   9.692  62.925  1.00  0.00    -0.091 C  
HETATM   33  C   UNL     1      -6.519  10.867  62.341  1.00  0.00    -0.059 C  
ENDBRANCH  31  32
BRANCH  31  34
HETATM   34  C   UNL     1      -6.664   7.359  63.399  1.00  0.00    -0.054 C  
HETATM   35  C   UNL     1      -5.340   6.696  63.730  1.00  0.00    -0.027 C  
ENDBRANCH  31  34
ENDBRANCH  30  31
ENDBRANCH  10  25
ENDBRANCH   9  10
ENDBRANCH   3   4
BRANCH   3  36
HETATM   36  C   UNL     1     -14.025   9.850  71.375  1.00  0.00     0.110 C  
HETATM   37  C   UNL     1     -13.668   8.701  72.306  1.00  0.00    -0.445 C  
ENDBRANCH   3  36
ENDBRANCH   2   3
TORSDOF 9
ENDMDL
MODEL       47
REMARK 921   NORMALIZED FREE ENERGY PREDICTED BY IDOCK:   -4.55 KCAL/MOL
REMARK 922        TOTAL FREE ENERGY PREDICTED BY IDOCK:   -9.27 KCAL/MOL
REMARK 923 INTER-LIGAND FREE ENERGY PREDICTED BY IDOCK:   -6.83 KCAL/MOL
REMARK 924 INTRA-LIGAND FREE ENERGY PREDICTED BY IDOCK:   -2.43 KCAL/MOL
REMARK 927      BINDING AFFINITY PREDICTED BY RF-SCORE:    0.00 PKD
ROOT
HETATM    1  C   UNL     1      -7.185  17.829  69.011  1.00  0.00    -0.207 C  
HETATM    2  C   UNL     1      -7.788  17.074  67.837  1.00  0.00    -0.184 C  
ENDROOT
BRANCH   2   3
HETATM    3  N   UNL     1      -8.969  16.299  68.251  1.00  0.00    -0.188 NA 
BRANCH   3   4
HETATM    4  C   UNL     1      -8.966  14.920  68.064  1.00  0.00    -0.172 A  
HETATM    5  C   UNL     1      -7.930  14.080  68.492  1.00  0.00    -0.141 A  
HETATM    6  C   UNL     1     -10.050  14.275  67.446  1.00  0.00    -0.247 A  
HETATM    7  C   UNL     1      -8.041  12.672  68.429  1.00  0.00    -0.137 A  
HETATM    8  C   UNL     1     -10.166  12.875  67.360  1.00  0.00    -0.230 A  
HETATM    9  C   UNL     1      -9.184  12.050  67.908  1.00  0.00    -0.190 A  
BRANCH   9  10
HETATM   10  C   UNL     1      -9.378  10.560  68.021  1.00  0.00    -0.150 C  
BRANCH  10  11
HETATM   11  C   UNL     1      -9.528   9.949  69.392  1.00  0.00    -0.226 A  
HETATM   12  O   UNL     1     -12.326  10.765  68.342  1.00  0.00    -0.396 OA 
HETATM   13  O   UNL     1     -12.208  12.209  70.419  1.00  0.00    -0.341 OA 
HETATM   14  C   UNL     1      -8.514   9.072  69.826  1.00  0.00    -0.132 A  
HETATM   15  C   UNL     1      -8.631   8.384  71.047  1.00  0.00    -0.155 A  
HETATM   16  O   UNL     1     -13.286  10.015  70.464  1.00  0.00    -0.232 OA 
HETATM   17  C   UNL     1      -9.672   8.649  71.930  1.00  0.00    -0.383 A  
HETATM   18  S   UNL     1     -12.144  10.921  69.766  1.00  0.00    -0.314 S  
HETATM   19  S   UNL     1      -7.558   7.008  71.363  1.00  0.00    -0.086 S  
HETATM   20  C   UNL     1     -10.662   9.539  71.539  1.00  0.00    -0.269 A  
HETATM   21  O   UNL     1      -6.088   7.655  71.455  1.00  0.00    -0.036 OA 
HETATM   22  O   UNL     1      -7.843   6.498  72.687  1.00  0.00    -0.102 OA 
HETATM   23  O   UNL     1      -7.617   6.166  70.187  1.00  0.00    -0.091 OA 
HETATM   24  C   UNL     1     -10.626  10.135  70.260  1.00  0.00    -0.264 A  
ENDBRANCH  10  11
BRANCH  10  25
HETATM   25  C   UNL     1      -9.254   9.757  66.919  1.00  0.00    -0.174 A  
HETATM   26  C   UNL     1      -8.599  10.196  65.683  1.00  0.00    -0.166 A  
HETATM   27  C   UNL     1      -9.888   8.434  66.837  1.00  0.00    -0.313 A  
HETATM   28  C   UNL     1      -9.449   7.508  65.968  1.00  0.00    -0.011 A  
HETATM   29  C   UNL     1      -8.166   9.309  64.772  1.00  0.00    -0.149 A  
HETATM   30  C   UNL     1      -8.324   7.835  65.024  1.00  0.00    -0.086 A  
BRANCH  30  31
HETATM   31  N   UNL     1      -7.564   6.926  64.470  1.00  0.00    -0.100 NA 
BRANCH  31  32
HETATM   32  C   UNL     1      -6.085   6.785  64.786  1.00  0.00    -0.036 C  
HETATM   33  C   UNL     1      -5.820   6.881  66.276  1.00  0.00    -0.030 C  
ENDBRANCH  31  32
BRANCH  31  34
HETATM   34  C   UNL     1      -8.129   5.790  63.637  1.00  0.00    -0.107 C  
HETATM   35  C   UNL     1      -7.957   4.460  64.345  1.00  0.00    -0.091 C  
ENDBRANCH  31  34
ENDBRANCH  30  31
ENDBRANCH  10  25
ENDBRANCH   9  10
ENDBRANCH   3   4
BRANCH   3  36
HETATM   36  C   UNL     1     -10.175  17.072  68.575  1.00  0.00    -0.324 C  
HETATM   37  C   UNL     1     -10.553  17.968  67.405  1.00  0.00    -0.378 C  
ENDBRANCH   3  36
ENDBRANCH   2   3
TORSDOF 9
ENDMDL
MODEL       48
REMARK 921   NORMALIZED FREE ENERGY PREDICTED BY IDOCK:   -4.46 KCAL/MOL
REMARK 922        TOTAL FREE ENERGY PREDICTED BY IDOCK:   -9.13 KCAL/MOL
REMARK 923 INTER-LIGAND FREE ENERGY PREDICTED BY IDOCK:   -6.97 KCAL/MOL
REMARK 924 INTRA-LIGAND FREE ENERGY PREDICTED BY IDOCK:   -2.16 KCAL/MOL
REMARK 927      BINDING AFFINITY PREDICTED BY RF-SCORE:    0.00 PKD
ROOT
HETATM    1  C   UNL     1      -9.580   2.799  71.003  1.00  0.00    -0.215 C  
HETATM    2  C   UNL     1      -9.499   3.881  72.069  1.00  0.00    -0.136 C  
ENDROOT
BRANCH   2   3
HETATM    3  N   UNL     1     -10.375   5.019  71.740  1.00  0.00    -0.209 NA 
BRANCH   3   4
HETATM    4  C   UNL     1     -10.150   5.718  70.557  1.00  0.00    -0.208 A  
HETATM    5  C   UNL     1     -11.119   5.890  69.560  1.00  0.00    -0.403 A  
HETATM    6  C   UNL     1      -8.912   6.333  70.309  1.00  0.00    -0.154 A  
HETATM    7  C   UNL     1     -10.903   6.742  68.453  1.00  0.00    -0.284 A  
HETATM    8  C   UNL     1      -8.676   7.170  69.202  1.00  0.00    -0.133 A  
HETATM    9  C   UNL     1      -9.695   7.434  68.287  1.00  0.00    -0.159 A  
BRANCH   9  10
HETATM   10  C   UNL     1      -9.542   8.484  67.217  1.00  0.00    -0.220 C  
BRANCH  10  11
HETATM   11  C   UNL     1      -8.446   8.323  66.193  1.00  0.00    -0.141 A  
HETATM   12  O   UNL     1      -7.395  10.070  68.526  1.00  0.00    -0.075 OA 
HETATM   13  O   UNL     1      -7.162  11.718  66.616  1.00  0.00    -0.089 OA 
HETATM   14  C   UNL     1      -8.510   7.200  65.345  1.00  0.00    -0.090 A  
HETATM   15  C   UNL     1      -7.474   6.926  64.433  1.00  0.00    -0.100 A  
HETATM   16  O   UNL     1      -5.282  10.321  67.319  1.00  0.00    -0.040 OA 
HETATM   17  C   UNL     1      -6.428   7.820  64.236  1.00  0.00    -0.056 A  
HETATM   18  S   UNL     1      -6.891  10.433  67.222  1.00  0.00    -0.083 S  
HETATM   19  S   UNL     1      -7.390   5.318  63.689  1.00  0.00    -0.055 S  
HETATM   20  C   UNL     1      -6.366   8.953  65.034  1.00  0.00    -0.065 A  
HETATM   21  O   UNL     1      -8.709   5.230  62.770  1.00  0.00    -0.119 OA 
HETATM   22  O   UNL     1      -6.273   5.297  62.769  1.00  0.00    -0.020 OA 
HETATM   23  O   UNL     1      -7.515   4.361  64.767  1.00  0.00    -0.070 OA 
HETATM   24  C   UNL     1      -7.327   9.173  66.045  1.00  0.00    -0.094 A  
ENDBRANCH  10  11
BRANCH  10  25
HETATM   25  C   UNL     1     -10.270   9.642  67.270  1.00  0.00    -0.292 A  
HETATM   26  C   UNL     1     -10.870  10.150  68.507  1.00  0.00    -0.278 A  
HETATM   27  C   UNL     1     -10.625  10.401  66.062  1.00  0.00    -0.136 A  
HETATM   28  C   UNL     1     -10.967  11.699  66.136  1.00  0.00    -0.339 A  
HETATM   29  C   UNL     1     -11.253  11.433  68.619  1.00  0.00    -0.303 A  
HETATM   30  C   UNL     1     -11.042  12.384  67.474  1.00  0.00    -0.266 A  
BRANCH  30  31
HETATM   31  N   UNL     1     -10.941  13.679  67.623  1.00  0.00    -0.263 NA 
BRANCH  31  32
HETATM   32  C   UNL     1     -10.458  14.599  66.516  1.00  0.00    -0.290 C  
HETATM   33  C   UNL     1      -8.957  14.810  66.578  1.00  0.00    -0.267 C  
ENDBRANCH  31  32
BRANCH  31  34
HETATM   34  C   UNL     1     -11.504  14.405  68.829  1.00  0.00    -0.289 C  
HETATM   35  C   UNL     1     -11.476  15.907  68.621  1.00  0.00    -0.391 C  
ENDBRANCH  31  34
ENDBRANCH  30  31
ENDBRANCH  10  25
ENDBRANCH   9  10
ENDBRANCH   3   4
BRANCH   3  36
HETATM   36  C   UNL     1     -11.244   5.506  72.819  1.00  0.00    -0.305 C  
HETATM   37  C   UNL     1     -10.612   6.713  73.496  1.00  0.00    -0.334 C  
ENDBRANCH   3  36
ENDBRANCH   2   3
TORSDOF 9
ENDMDL
MODEL       49
REMARK 921   NORMALIZED FREE ENERGY PREDICTED BY IDOCK:   -4.46 KCAL/MOL
REMARK 922        TOTAL FREE ENERGY PREDICTED BY IDOCK:   -9.13 KCAL/MOL
REMARK 923 INTER-LIGAND FREE ENERGY PREDICTED BY IDOCK:   -6.64 KCAL/MOL
REMARK 924 INTRA-LIGAND FREE ENERGY PREDICTED BY IDOCK:   -2.48 KCAL/MOL
REMARK 927      BINDING AFFINITY PREDICTED BY RF-SCORE:    0.00 PKD
ROOT
HETATM    1  C   UNL     1     -10.796  19.112  67.571  1.00  0.00    -0.512 C  
HETATM    2  C   UNL     1     -10.427  17.775  66.947  1.00  0.00    -0.307 C  
ENDROOT
BRANCH   2   3
HETATM    3  N   UNL     1      -9.244  17.190  67.600  1.00  0.00    -0.236 NA 
BRANCH   3   4
HETATM    4  C   UNL     1      -9.003  15.827  67.455  1.00  0.00    -0.193 A  
HETATM    5  C   UNL     1      -8.255  15.068  68.365  1.00  0.00    -0.151 A  
HETATM    6  C   UNL     1      -9.542  15.113  66.372  1.00  0.00    -0.309 A  
HETATM    7  C   UNL     1      -8.173  13.660  68.267  1.00  0.00    -0.156 A  
HETATM    8  C   UNL     1      -9.453  13.713  66.252  1.00  0.00    -0.209 A  
HETATM    9  C   UNL     1      -8.815  12.959  67.237  1.00  0.00    -0.206 A  
BRANCH   9  10
HETATM   10  C   UNL     1      -8.885  11.454  67.248  1.00  0.00    -0.153 C  
BRANCH  10  11
HETATM   11  C   UNL     1      -9.137  10.748  68.557  1.00  0.00    -0.170 A  
HETATM   12  O   UNL     1     -11.856  11.538  67.300  1.00  0.00    -0.609 OA 
HETATM   13  O   UNL     1     -11.989  12.844  69.466  1.00  0.00    -0.312 OA 
HETATM   14  C   UNL     1      -8.133   9.879  69.029  1.00  0.00    -0.111 A  
HETATM   15  C   UNL     1      -8.335   9.108  70.188  1.00  0.00    -0.165 A  
HETATM   16  O   UNL     1     -12.977  10.616  69.270  1.00  0.00     0.019 OA 
HETATM   17  C   UNL     1      -9.463   9.278  70.983  1.00  0.00    -0.313 A  
HETATM   18  S   UNL     1     -11.812  11.604  68.742  1.00  0.00    -0.284 S  
HETATM   19  S   UNL     1      -7.243   7.750  70.516  1.00  0.00    -0.058 S  
HETATM   20  C   UNL     1     -10.447  10.158  70.557  1.00  0.00    -0.173 A  
HETATM   21  O   UNL     1      -5.814   8.440  70.788  1.00  0.00    -0.032 OA 
HETATM   22  O   UNL     1      -7.628   7.145  71.772  1.00  0.00    -0.085 OA 
HETATM   23  O   UNL     1      -7.159   6.987  69.289  1.00  0.00    -0.077 OA 
HETATM   24  C   UNL     1     -10.317  10.839  69.327  1.00  0.00    -0.205 A  
ENDBRANCH  10  11
BRANCH  10  25
HETATM   25  C   UNL     1      -8.563  10.735  66.128  1.00  0.00    -0.171 A  
HETATM   26  C   UNL     1      -7.198  10.655  65.599  1.00  0.00    -0.084 A  
HETATM   27  C   UNL     1      -9.583  10.092  65.288  1.00  0.00    -0.355 A  
HETATM   28  C   UNL     1      -9.263   9.083  64.460  1.00  0.00     0.144 A  
HETATM   29  C   UNL     1      -6.838   9.680  64.748  1.00  0.00    -0.111 A  
HETATM   30  C   UNL     1      -7.833   8.627  64.346  1.00  0.00    -0.138 A  
BRANCH  30  31
HETATM   31  N   UNL     1      -7.492   7.436  63.928  1.00  0.00    -0.093 NA 
BRANCH  31  32
HETATM   32  C   UNL     1      -8.011   6.837  62.632  1.00  0.00    -0.100 C  
HETATM   33  C   UNL     1      -8.367   5.372  62.795  1.00  0.00    -0.109 C  
ENDBRANCH  31  32
BRANCH  31  34
HETATM   34  C   UNL     1      -6.380   6.634  64.577  1.00  0.00    -0.038 C  
HETATM   35  C   UNL     1      -6.865   5.958  65.846  1.00  0.00    -0.060 C  
ENDBRANCH  31  34
ENDBRANCH  30  31
ENDBRANCH  10  25
ENDBRANCH   9  10
ENDBRANCH   3   4
BRANCH   3  36
HETATM   36  C   UNL     1      -8.558  18.036  68.585  1.00  0.00    -0.264 C  
HETATM   37  C   UNL     1      -7.237  18.533  68.019  1.00  0.00    -0.257 C  
ENDBRANCH   3  36
ENDBRANCH   2   3
TORSDOF 9
ENDMDL
MODEL       50
REMARK 921   NORMALIZED FREE ENERGY PREDICTED BY IDOCK:   -4.44 KCAL/MOL
REMARK 922        TOTAL FREE ENERGY PREDICTED BY IDOCK:   -9.11 KCAL/MOL
REMARK 923 INTER-LIGAND FREE ENERGY PREDICTED BY IDOCK:   -7.16 KCAL/MOL
REMARK 924 INTRA-LIGAND FREE ENERGY PREDICTED BY IDOCK:   -1.95 KCAL/MOL
REMARK 927      BINDING AFFINITY PREDICTED BY RF-SCORE:    0.00 PKD
ROOT
HETATM    1  C   UNL     1     -10.405   4.653  66.647  1.00  0.00    -0.205 C  
HETATM    2  C   UNL     1      -9.063   4.195  66.098  1.00  0.00    -0.137 C  
ENDROOT
BRANCH   2   3
HETATM    3  N   UNL     1      -8.365   5.293  65.409  1.00  0.00    -0.130 NA 
BRANCH   3   4
HETATM    4  C   UNL     1      -8.285   6.534  66.035  1.00  0.00    -0.127 A  
HETATM    5  C   UNL     1      -9.019   7.657  65.632  1.00  0.00    -0.036 A  
HETATM    6  C   UNL     1      -7.463   6.720  67.159  1.00  0.00    -0.091 A  
HETATM    7  C   UNL     1      -9.031   8.848  66.394  1.00  0.00    -0.193 A  
HETATM    8  C   UNL     1      -7.452   7.906  67.917  1.00  0.00    -0.104 A  
HETATM    9  C   UNL     1      -8.287   8.970  67.575  1.00  0.00    -0.116 A  
BRANCH   9  10
HETATM   10  C   UNL     1      -8.454  10.163  68.479  1.00  0.00    -0.121 C  
BRANCH  10  11
HETATM   11  C   UNL     1      -9.775  10.364  69.180  1.00  0.00    -0.234 A  
HETATM   12  O   UNL     1      -9.889  11.737  66.405  1.00  0.00    -0.204 OA 
HETATM   13  O   UNL     1     -10.266  13.749  67.896  1.00  0.00    -0.235 OA 
HETATM   14  C   UNL     1     -10.127   9.435  70.180  1.00  0.00    -0.273 A  
HETATM   15  C   UNL     1     -11.384   9.496  70.808  1.00  0.00    -0.321 A  
HETATM   16  O   UNL     1     -12.146  12.514  66.939  1.00  0.00    -0.537 OA 
HETATM   17  C   UNL     1     -12.263  10.547  70.571  1.00  0.00    -0.435 A  
HETATM   18  S   UNL     1     -10.617  12.419  67.450  1.00  0.00    -0.218 S  
HETATM   19  S   UNL     1     -11.943   8.097  71.745  1.00  0.00    -0.325 S  
HETATM   20  C   UNL     1     -11.919  11.495  69.618  1.00  0.00    -0.407 A  
HETATM   21  O   UNL     1     -10.925   8.013  72.989  1.00  0.00    -0.374 OA 
HETATM   22  O   UNL     1     -13.232   8.415  72.319  1.00  0.00    -0.321 OA 
HETATM   23  O   UNL     1     -11.741   6.936  70.906  1.00  0.00    -0.322 OA 
HETATM   24  C   UNL     1     -10.718  11.372  68.884  1.00  0.00    -0.210 A  
ENDBRANCH  10  11
BRANCH  10  25
HETATM   25  C   UNL     1      -7.491  11.134  68.536  1.00  0.00    -0.112 A  
HETATM   26  C   UNL     1      -6.882  11.722  67.339  1.00  0.00    -0.122 A  
HETATM   27  C   UNL     1      -6.891  11.572  69.804  1.00  0.00     0.010 A  
HETATM   28  C   UNL     1      -6.273  12.761  69.904  1.00  0.00    -0.084 A  
HETATM   29  C   UNL     1      -6.231  12.896  67.394  1.00  0.00    -0.109 A  
HETATM   30  C   UNL     1      -6.142  13.646  68.694  1.00  0.00    -0.087 A  
BRANCH  30  31
HETATM   31  N   UNL     1      -5.961  14.939  68.767  1.00  0.00    -0.083 NA 
BRANCH  31  32
HETATM   32  C   UNL     1      -6.229  15.875  67.601  1.00  0.00    -0.156 C  
HETATM   33  C   UNL     1      -7.712  15.993  67.307  1.00  0.00    -0.215 C  
ENDBRANCH  31  32
BRANCH  31  34
HETATM   34  C   UNL     1      -5.684  15.649  70.079  1.00  0.00    -0.146 C  
HETATM   35  C   UNL     1      -5.460  17.133  69.856  1.00  0.00    -0.216 C  
ENDBRANCH  31  34
ENDBRANCH  30  31
ENDBRANCH  10  25
ENDBRANCH   9  10
ENDBRANCH   3   4
BRANCH   3  36
HETATM   36  C   UNL     1      -8.048   5.076  63.992  1.00  0.00    -0.119 C  
HETATM   37  C   UNL     1      -6.726   4.335  63.859  1.00  0.00    -0.043 C  
ENDBRANCH   3  36
ENDBRANCH   2   3
TORSDOF 9
ENDMDL
MODEL       51
REMARK 921   NORMALIZED FREE ENERGY PREDICTED BY IDOCK:   -4.39 KCAL/MOL
REMARK 922        TOTAL FREE ENERGY PREDICTED BY IDOCK:   -9.02 KCAL/MOL
REMARK 923 INTER-LIGAND FREE ENERGY PREDICTED BY IDOCK:   -8.52 KCAL/MOL
REMARK 924 INTRA-LIGAND FREE ENERGY PREDICTED BY IDOCK:   -0.50 KCAL/MOL
REMARK 927      BINDING AFFINITY PREDICTED BY RF-SCORE:    0.00 PKD
ROOT
HETATM    1  C   UNL     1      -8.844  10.964  62.652  1.00  0.00    -0.333 C  
HETATM    2  C   UNL     1      -7.849   9.827  62.819  1.00  0.00    -0.127 C  
ENDROOT
BRANCH   2   3
HETATM    3  N   UNL     1      -7.036  10.005  64.034  1.00  0.00    -0.126 NA 
BRANCH   3   4
HETATM    4  C   UNL     1      -7.682  10.191  65.253  1.00  0.00    -0.144 A  
HETATM    5  C   UNL     1      -7.451  11.286  66.095  1.00  0.00     0.045 A  
HETATM    6  C   UNL     1      -8.653   9.280  65.698  1.00  0.00    -0.172 A  
HETATM    7  C   UNL     1      -8.246  11.522  67.241  1.00  0.00    -0.155 A  
HETATM    8  C   UNL     1      -9.440   9.493  66.846  1.00  0.00    -0.204 A  
HETATM    9  C   UNL     1      -9.285  10.654  67.603  1.00  0.00    -0.153 A  
BRANCH   9  10
HETATM   10  C   UNL     1     -10.246  11.010  68.706  1.00  0.00    -0.211 C  
BRANCH  10  11
HETATM   11  C   UNL     1     -10.931  12.354  68.668  1.00  0.00    -0.283 A  
HETATM   12  O   UNL     1     -11.623  10.798  66.080  1.00  0.00     0.186 OA 
HETATM   13  O   UNL     1     -10.459  12.810  65.074  1.00  0.00    -0.297 OA 
HETATM   14  C   UNL     1     -11.178  12.992  69.900  1.00  0.00     0.082 A  
HETATM   15  C   UNL     1     -11.901  14.197  69.954  1.00  0.00    -0.325 A  
HETATM   16  O   UNL     1     -12.892  12.742  65.310  1.00  0.00    -0.674 OA 
HETATM   17  C   UNL     1     -12.271  14.873  68.796  1.00  0.00    -0.122 A  
HETATM   18  S   UNL     1     -11.484  12.226  65.911  1.00  0.00    -0.379 S  
HETATM   19  S   UNL     1     -12.537  14.746  71.516  1.00  0.00    -0.359 S  
HETATM   20  C   UNL     1     -12.002  14.281  67.571  1.00  0.00    -0.411 A  
HETATM   21  O   UNL     1     -11.227  15.074  72.392  1.00  0.00    -0.273 OA 
HETATM   22  O   UNL     1     -13.201  16.017  71.320  1.00  0.00    -0.398 OA 
HETATM   23  O   UNL     1     -13.212  13.610  72.105  1.00  0.00    -0.393 OA 
HETATM   24  C   UNL     1     -11.396  13.008  67.506  1.00  0.00    -0.305 A  
ENDBRANCH  10  11
BRANCH  10  25
HETATM   25  C   UNL     1     -10.372  10.205  69.807  1.00  0.00    -0.297 A  
HETATM   26  C   UNL     1     -11.669   9.829  70.374  1.00  0.00    -0.301 A  
HETATM   27  C   UNL     1      -9.210   9.763  70.592  1.00  0.00     0.001 A  
HETATM   28  C   UNL     1      -9.285   8.684  71.390  1.00  0.00    -0.303 A  
HETATM   29  C   UNL     1     -11.790   8.774  71.198  1.00  0.00    -0.345 A  
HETATM   30  C   UNL     1     -10.584   7.939  71.531  1.00  0.00    -0.222 A  
BRANCH  30  31
HETATM   31  N   UNL     1     -10.658   6.691  71.913  1.00  0.00    -0.209 NA 
BRANCH  31  32
HETATM   32  C   UNL     1     -10.349   6.245  73.332  1.00  0.00    -0.242 C  
HETATM   33  C   UNL     1     -10.869   4.847  73.605  1.00  0.00    -0.374 C  
ENDBRANCH  31  32
BRANCH  31  34
HETATM   34  C   UNL     1     -11.269   5.608  71.045  1.00  0.00    -0.050 C  
HETATM   35  C   UNL     1     -10.825   5.753  69.602  1.00  0.00    -0.418 C  
ENDBRANCH  31  34
ENDBRANCH  30  31
ENDBRANCH  10  25
ENDBRANCH   9  10
ENDBRANCH   3   4
BRANCH   3  36
HETATM   36  C   UNL     1      -5.602  10.250  63.829  1.00  0.00    -0.143 C  
HETATM   37  C   UNL     1      -5.233  10.006  62.373  1.00  0.00    -0.089 C  
ENDBRANCH   3  36
ENDBRANCH   2   3
TORSDOF 9
ENDMDL
MODEL       52
REMARK 921   NORMALIZED FREE ENERGY PREDICTED BY IDOCK:   -4.35 KCAL/MOL
REMARK 922        TOTAL FREE ENERGY PREDICTED BY IDOCK:   -8.97 KCAL/MOL
REMARK 923 INTER-LIGAND FREE ENERGY PREDICTED BY IDOCK:   -6.56 KCAL/MOL
REMARK 924 INTRA-LIGAND FREE ENERGY PREDICTED BY IDOCK:   -2.41 KCAL/MOL
REMARK 927      BINDING AFFINITY PREDICTED BY RF-SCORE:    0.00 PKD
ROOT
HETATM    1  C   UNL     1     -11.821  14.693  69.108  1.00  0.00    -0.347 C  
HETATM    2  C   UNL     1     -11.718  13.326  68.449  1.00  0.00    -0.354 C  
ENDROOT
BRANCH   2   3
HETATM    3  N   UNL     1     -11.422  12.278  69.440  1.00  0.00    -0.282 NA 
BRANCH   3   4
HETATM    4  C   UNL     1     -10.718  11.149  69.032  1.00  0.00    -0.225 A  
HETATM    5  C   UNL     1      -9.658  10.590  69.758  1.00  0.00     0.025 A  
HETATM    6  C   UNL     1     -11.065  10.473  67.852  1.00  0.00    -0.367 A  
HETATM    7  C   UNL     1      -9.079   9.352  69.393  1.00  0.00    -0.162 A  
HETATM    8  C   UNL     1     -10.486   9.249  67.466  1.00  0.00    -0.338 A  
HETATM    9  C   UNL     1      -9.521   8.641  68.269  1.00  0.00    -0.150 A  
BRANCH   9  10
HETATM   10  C   UNL     1      -9.038   7.240  67.997  1.00  0.00    -0.133 C  
BRANCH  10  11
HETATM   11  C   UNL     1      -8.678   6.857  66.583  1.00  0.00    -0.129 A  
HETATM   12  O   UNL     1      -6.335   8.465  67.818  1.00  0.00    -0.051 OA 
HETATM   13  O   UNL     1      -6.925   9.985  65.879  1.00  0.00    -0.100 OA 
HETATM   14  C   UNL     1      -9.328   5.737  66.029  1.00  0.00    -0.134 A  
HETATM   15  C   UNL     1      -8.975   5.257  64.755  1.00  0.00    -0.008 A  
HETATM   16  O   UNL     1      -5.162   8.303  65.676  1.00  0.00    -0.031 OA 
HETATM   17  C   UNL     1      -8.081   5.946  63.943  1.00  0.00    -0.098 A  
HETATM   18  S   UNL     1      -6.550   8.692  66.407  1.00  0.00    -0.063 S  
HETATM   19  S   UNL     1      -9.510   3.637  64.270  1.00  0.00    -0.163 S  
HETATM   20  C   UNL     1      -7.458   7.075  64.455  1.00  0.00    -0.099 A  
HETATM   21  O   UNL     1     -11.112   3.752  64.178  1.00  0.00    -0.334 OA 
HETATM   22  O   UNL     1      -9.059   3.390  62.918  1.00  0.00    -0.092 OA 
HETATM   23  O   UNL     1      -9.175   2.751  65.364  1.00  0.00    -0.151 OA 
HETATM   24  C   UNL     1      -7.704   7.492  65.781  1.00  0.00    -0.098 A  
ENDBRANCH  10  11
BRANCH  10  25
HETATM   25  C   UNL     1      -9.081   6.286  68.979  1.00  0.00    -0.129 A  
HETATM   26  C   UNL     1      -7.878   5.666  69.540  1.00  0.00    -0.092 A  
HETATM   27  C   UNL     1     -10.346   5.708  69.455  1.00  0.00    -0.345 A  
HETATM   28  C   UNL     1     -10.422   5.102  70.652  1.00  0.00    -0.269 A  
HETATM   29  C   UNL     1      -7.910   5.026  70.721  1.00  0.00    -0.083 A  
HETATM   30  C   UNL     1      -9.191   4.962  71.506  1.00  0.00    -0.145 A  
BRANCH  30  31
HETATM   31  N   UNL     1      -9.232   4.794  72.802  1.00  0.00    -0.128 NA 
BRANCH  31  32
HETATM   32  C   UNL     1      -9.268   3.421  73.452  1.00  0.00    -0.100 C  
HETATM   33  C   UNL     1     -10.689   2.973  73.735  1.00  0.00    -0.287 C  
ENDBRANCH  31  32
BRANCH  31  34
HETATM   34  C   UNL     1      -9.024   5.935  73.779  1.00  0.00    -0.127 C  
HETATM   35  C   UNL     1     -10.309   6.714  73.987  1.00  0.00    -0.377 C  
ENDBRANCH  31  34
ENDBRANCH  30  31
ENDBRANCH  10  25
ENDBRANCH   9  10
ENDBRANCH   3   4
BRANCH   3  36
HETATM   36  C   UNL     1     -12.134  12.373  70.721  1.00  0.00    -0.149 C  
HETATM   37  C   UNL     1     -12.906  11.090  70.987  1.00  0.00    -0.442 C  
ENDBRANCH   3  36
ENDBRANCH   2   3
TORSDOF 9
ENDMDL
MODEL       53
REMARK 921   NORMALIZED FREE ENERGY PREDICTED BY IDOCK:   -4.34 KCAL/MOL
REMARK 922        TOTAL FREE ENERGY PREDICTED BY IDOCK:   -8.95 KCAL/MOL
REMARK 923 INTER-LIGAND FREE ENERGY PREDICTED BY IDOCK:   -7.76 KCAL/MOL
REMARK 924 INTRA-LIGAND FREE ENERGY PREDICTED BY IDOCK:   -1.20 KCAL/MOL
REMARK 927      BINDING AFFINITY PREDICTED BY RF-SCORE:    0.00 PKD
ROOT
HETATM    1  C   UNL     1      -8.606   2.031  66.123  1.00  0.00    -0.112 C  
HETATM    2  C   UNL     1      -7.605   3.129  65.797  1.00  0.00    -0.074 C  
ENDROOT
BRANCH   2   3
HETATM    3  N   UNL     1      -8.288   4.376  65.411  1.00  0.00    -0.110 NA 
BRANCH   3   4
HETATM    4  C   UNL     1      -8.648   5.279  66.407  1.00  0.00    -0.114 A  
HETATM    5  C   UNL     1      -7.967   5.406  67.625  1.00  0.00    -0.100 A  
HETATM    6  C   UNL     1      -9.727   6.159  66.223  1.00  0.00    -0.106 A  
HETATM    7  C   UNL     1      -8.265   6.445  68.536  1.00  0.00    -0.113 A  
HETATM    8  C   UNL     1     -10.045   7.187  67.130  1.00  0.00    -0.293 A  
HETATM    9  C   UNL     1      -9.275   7.381  68.276  1.00  0.00    -0.137 A  
BRANCH   9  10
HETATM   10  C   UNL     1      -9.456   8.592  69.153  1.00  0.00    -0.157 C  
BRANCH  10  11
HETATM   11  C   UNL     1      -9.264   8.447  70.642  1.00  0.00    -0.177 A  
HETATM   12  O   UNL     1     -11.601   6.621  69.746  1.00  0.00    -0.351 OA 
HETATM   13  O   UNL     1     -12.833   8.135  71.360  1.00  0.00    -0.308 OA 
HETATM   14  C   UNL     1      -7.994   8.760  71.166  1.00  0.00    -0.170 A  
HETATM   15  C   UNL     1      -7.706   8.553  72.528  1.00  0.00    -0.030 A  
HETATM   16  O   UNL     1     -11.931   5.981  72.084  1.00  0.00    -0.309 OA 
HETATM   17  C   UNL     1      -8.695   8.172  73.427  1.00  0.00    -0.318 A  
HETATM   18  S   UNL     1     -11.761   7.214  71.054  1.00  0.00    -0.334 S  
HETATM   19  S   UNL     1      -6.013   8.567  73.058  1.00  0.00    -0.082 S  
HETATM   20  C   UNL     1      -9.964   7.896  72.938  1.00  0.00    -0.360 A  
HETATM   21  O   UNL     1      -5.527  10.082  72.814  1.00  0.00    -0.312 OA 
HETATM   22  O   UNL     1      -5.981   8.374  74.491  1.00  0.00    -0.104 OA 
HETATM   23  O   UNL     1      -5.293   7.701  72.149  1.00  0.00    -0.036 OA 
HETATM   24  C   UNL     1     -10.232   7.971  71.554  1.00  0.00    -0.194 A  
ENDBRANCH  10  11
BRANCH  10  25
HETATM   25  C   UNL     1      -9.947   9.760  68.634  1.00  0.00    -0.181 A  
HETATM   26  C   UNL     1      -9.144  10.662  67.803  1.00  0.00    -0.144 A  
HETATM   27  C   UNL     1     -11.281  10.273  68.978  1.00  0.00    -0.260 A  
HETATM   28  C   UNL     1     -11.906  11.162  68.188  1.00  0.00    -0.238 A  
HETATM   29  C   UNL     1      -9.722  11.585  67.016  1.00  0.00    -0.202 A  
HETATM   30  C   UNL     1     -11.222  11.687  66.955  1.00  0.00    -0.314 A  
BRANCH  30  31
HETATM   31  N   UNL     1     -11.867  12.190  65.936  1.00  0.00    -0.546 NA 
BRANCH  31  32
HETATM   32  C   UNL     1     -12.589  13.526  65.997  1.00  0.00    -0.348 C  
HETATM   33  C   UNL     1     -12.326  14.245  67.306  1.00  0.00    -0.140 C  
ENDBRANCH  31  32
BRANCH  31  34
HETATM   34  C   UNL     1     -11.770  11.604  64.540  1.00  0.00    -0.111 C  
HETATM   35  C   UNL     1     -11.097  12.575  63.589  1.00  0.00    -0.523 C  
ENDBRANCH  31  34
ENDBRANCH  30  31
ENDBRANCH  10  25
ENDBRANCH   9  10
ENDBRANCH   3   4
BRANCH   3  36
HETATM   36  C   UNL     1      -8.786   4.445  64.032  1.00  0.00    -0.142 C  
HETATM   37  C   UNL     1     -10.115   3.714  63.918  1.00  0.00    -0.208 C  
ENDBRANCH   3  36
ENDBRANCH   2   3
TORSDOF 9
ENDMDL
MODEL       54
REMARK 921   NORMALIZED FREE ENERGY PREDICTED BY IDOCK:   -4.20 KCAL/MOL
REMARK 922        TOTAL FREE ENERGY PREDICTED BY IDOCK:   -8.73 KCAL/MOL
REMARK 923 INTER-LIGAND FREE ENERGY PREDICTED BY IDOCK:   -6.76 KCAL/MOL
REMARK 924 INTRA-LIGAND FREE ENERGY PREDICTED BY IDOCK:   -1.98 KCAL/MOL
REMARK 927      BINDING AFFINITY PREDICTED BY RF-SCORE:    0.00 PKD
ROOT
HETATM    1  C   UNL     1     -10.220  16.351  67.118  1.00  0.00    -0.282 C  
HETATM    2  C   UNL     1      -9.625  15.088  66.516  1.00  0.00    -0.277 C  
ENDROOT
BRANCH   2   3
HETATM    3  N   UNL     1     -10.676  14.120  66.162  1.00  0.00    -0.293 NA 
BRANCH   3   4
HETATM    4  C   UNL     1     -10.511  12.787  66.527  1.00  0.00    -0.263 A  
HETATM    5  C   UNL     1     -10.196  11.766  65.621  1.00  0.00    -0.284 A  
HETATM    6  C   UNL     1     -10.623  12.390  67.869  1.00  0.00    -0.231 A  
HETATM    7  C   UNL     1      -9.877  10.459  66.056  1.00  0.00    -0.289 A  
HETATM    8  C   UNL     1     -10.325  11.088  68.315  1.00  0.00    -0.197 A  
HETATM    9  C   UNL     1      -9.888  10.117  67.415  1.00  0.00    -0.225 A  
BRANCH   9  10
HETATM   10  C   UNL     1      -9.362   8.786  67.885  1.00  0.00    -0.155 C  
BRANCH  10  11
HETATM   11  C   UNL     1      -9.151   8.568  69.363  1.00  0.00    -0.150 A  
HETATM   12  O   UNL     1      -7.198  10.763  68.380  1.00  0.00    -0.079 OA 
HETATM   13  O   UNL     1      -5.532   9.044  69.207  1.00  0.00    -0.035 OA 
HETATM   14  C   UNL     1     -10.224   8.026  70.099  1.00  0.00    -0.203 A  
HETATM   15  C   UNL     1     -10.141   7.887  71.496  1.00  0.00    -0.180 A  
HETATM   16  O   UNL     1      -6.271  10.880  70.641  1.00  0.00    -0.289 OA 
HETATM   17  C   UNL     1      -8.958   8.145  72.181  1.00  0.00    -0.246 A  
HETATM   18  S   UNL     1      -6.674   9.905  69.417  1.00  0.00    -0.063 S  
HETATM   19  S   UNL     1     -11.627   7.593  72.418  1.00  0.00    -0.330 S  
HETATM   20  C   UNL     1      -7.877   8.643  71.469  1.00  0.00    -0.163 A  
HETATM   21  O   UNL     1     -12.114   6.134  71.941  1.00  0.00    -0.304 OA 
HETATM   22  O   UNL     1     -11.279   7.449  73.815  1.00  0.00    -0.074 OA 
HETATM   23  O   UNL     1     -12.591   8.571  71.963  1.00  0.00    -0.324 OA 
HETATM   24  C   UNL     1      -7.989   8.913  70.088  1.00  0.00    -0.111 A  
ENDBRANCH  10  11
BRANCH  10  25
HETATM   25  C   UNL     1      -8.926   7.852  66.983  1.00  0.00    -0.145 A  
HETATM   26  C   UNL     1      -7.616   7.926  66.331  1.00  0.00    -0.091 A  
HETATM   27  C   UNL     1      -9.793   6.771  66.493  1.00  0.00    -0.167 A  
HETATM   28  C   UNL     1      -9.271   5.658  65.951  1.00  0.00    -0.145 A  
HETATM   29  C   UNL     1      -7.065   6.846  65.752  1.00  0.00    -0.072 A  
HETATM   30  C   UNL     1      -7.781   5.524  65.791  1.00  0.00    -0.088 A  
BRANCH  30  31
HETATM   31  N   UNL     1      -7.170   4.372  65.688  1.00  0.00    -0.071 NA 
BRANCH  31  32
HETATM   32  C   UNL     1      -7.042   3.402  66.849  1.00  0.00    -0.058 C  
HETATM   33  C   UNL     1      -6.851   4.129  68.167  1.00  0.00    -0.048 C  
ENDBRANCH  31  32
BRANCH  31  34
HETATM   34  C   UNL     1      -6.732   3.800  64.353  1.00  0.00    -0.044 C  
HETATM   35  C   UNL     1      -7.617   4.303  63.229  1.00  0.00    -0.058 C  
ENDBRANCH  31  34
ENDBRANCH  30  31
ENDBRANCH  10  25
ENDBRANCH   9  10
ENDBRANCH   3   4
BRANCH   3  36
HETATM   36  C   UNL     1     -11.692  14.581  65.206  1.00  0.00    -0.361 C  
HETATM   37  C   UNL     1     -12.979  13.792  65.388  1.00  0.00    -0.361 C  
ENDBRANCH   3  36
ENDBRANCH   2   3
TORSDOF 9
ENDMDL
MODEL       55
REMARK 921   NORMALIZED FREE ENERGY PREDICTED BY IDOCK:   -4.19 KCAL/MOL
REMARK 922        TOTAL FREE ENERGY PREDICTED BY IDOCK:   -8.73 KCAL/MOL
REMARK 923 INTER-LIGAND FREE ENERGY PREDICTED BY IDOCK:   -6.60 KCAL/MOL
REMARK 924 INTRA-LIGAND FREE ENERGY PREDICTED BY IDOCK:   -2.13 KCAL/MOL
REMARK 927      BINDING AFFINITY PREDICTED BY RF-SCORE:    0.00 PKD
ROOT
HETATM    1  C   UNL     1      -5.126   8.875  62.442  1.00  0.00    -0.070 C  
HETATM    2  C   UNL     1      -6.340   8.366  63.203  1.00  0.00    -0.086 C  
ENDROOT
BRANCH   2   3
HETATM    3  N   UNL     1      -6.139   8.470  64.658  1.00  0.00    -0.064 NA 
BRANCH   3   4
HETATM    4  C   UNL     1      -6.675   9.563  65.333  1.00  0.00    -0.081 A  
HETATM    5  C   UNL     1      -7.918  10.132  65.026  1.00  0.00    -0.146 A  
HETATM    6  C   UNL     1      -5.992  10.148  66.412  1.00  0.00    -0.064 A  
HETATM    7  C   UNL     1      -8.497  11.133  65.840  1.00  0.00    -0.105 A  
HETATM    8  C   UNL     1      -6.549  11.157  67.220  1.00  0.00    -0.083 A  
HETATM    9  C   UNL     1      -7.841  11.623  66.978  1.00  0.00    -0.164 A  
BRANCH   9  10
HETATM   10  C   UNL     1      -8.542  12.542  67.943  1.00  0.00    -0.179 C  
BRANCH  10  11
HETATM   11  C   UNL     1      -9.853  12.102  68.545  1.00  0.00    -0.167 A  
HETATM   12  O   UNL     1     -10.426  13.792  66.012  1.00  0.00    -0.285 OA 
HETATM   13  O   UNL     1     -11.590  15.217  67.752  1.00  0.00    -0.332 OA 
HETATM   14  C   UNL     1      -9.840  10.950  69.357  1.00  0.00    -0.055 A  
HETATM   15  C   UNL     1     -11.036  10.418  69.871  1.00  0.00    -0.305 A  
HETATM   16  O   UNL     1     -12.820  13.549  66.454  1.00  0.00    -0.151 OA 
HETATM   17  C   UNL     1     -12.248  11.082  69.719  1.00  0.00    -0.388 A  
HETATM   18  S   UNL     1     -11.386  13.953  67.080  1.00  0.00    -0.342 S  
HETATM   19  S   UNL     1     -11.029   8.772  70.530  1.00  0.00    -0.241 S  
HETATM   20  C   UNL     1     -12.277  12.240  68.956  1.00  0.00    -0.047 A  
HETATM   21  O   UNL     1     -10.088   8.863  71.833  1.00  0.00    -0.321 OA 
HETATM   22  O   UNL     1     -12.354   8.471  71.028  1.00  0.00    -0.250 OA 
HETATM   23  O   UNL     1     -10.372   7.940  69.545  1.00  0.00    -0.208 OA 
HETATM   24  C   UNL     1     -11.107  12.712  68.323  1.00  0.00    -0.261 A  
ENDBRANCH  10  11
BRANCH  10  25
HETATM   25  C   UNL     1      -8.087  13.819  68.143  1.00  0.00    -0.155 A  
HETATM   26  C   UNL     1      -7.140  14.477  67.239  1.00  0.00    -0.002 A  
HETATM   27  C   UNL     1      -8.408  14.585  69.355  1.00  0.00     0.164 A  
HETATM   28  C   UNL     1      -8.315  15.926  69.371  1.00  0.00    -0.180 A  
HETATM   29  C   UNL     1      -6.992  15.812  67.236  1.00  0.00    -0.232 A  
HETATM   30  C   UNL     1      -7.829  16.662  68.152  1.00  0.00    -0.175 A  
BRANCH  30  31
HETATM   31  N   UNL     1      -8.101  17.920  67.918  1.00  0.00    -0.239 NA 
BRANCH  31  32
HETATM   32  C   UNL     1      -7.446  19.059  68.681  1.00  0.00    -0.326 C  
HETATM   33  C   UNL     1      -6.593  19.923  67.773  1.00  0.00    -0.271 C  
ENDBRANCH  31  32
BRANCH  31  34
HETATM   34  C   UNL     1      -8.918  18.367  66.721  1.00  0.00    -0.288 C  
HETATM   35  C   UNL     1     -10.342  18.697  67.128  1.00  0.00    -0.442 C  
ENDBRANCH  31  34
ENDBRANCH  30  31
ENDBRANCH  10  25
ENDBRANCH   9  10
ENDBRANCH   3   4
BRANCH   3  36
HETATM   36  C   UNL     1      -5.149   7.558  65.246  1.00  0.00    -0.028 C  
HETATM   37  C   UNL     1      -5.791   6.729  66.348  1.00  0.00    -0.025 C  
ENDBRANCH   3  36
ENDBRANCH   2   3
TORSDOF 9
ENDMDL
MODEL       56
REMARK 921   NORMALIZED FREE ENERGY PREDICTED BY IDOCK:   -4.15 KCAL/MOL
REMARK 922        TOTAL FREE ENERGY PREDICTED BY IDOCK:   -8.66 KCAL/MOL
REMARK 923 INTER-LIGAND FREE ENERGY PREDICTED BY IDOCK:   -7.13 KCAL/MOL
REMARK 924 INTRA-LIGAND FREE ENERGY PREDICTED BY IDOCK:   -1.52 KCAL/MOL
REMARK 927      BINDING AFFINITY PREDICTED BY RF-SCORE:    0.00 PKD
ROOT
HETATM    1  C   UNL     1      -7.643  18.013  68.320  1.00  0.00    -0.278 C  
HETATM    2  C   UNL     1      -6.261  17.399  68.156  1.00  0.00    -0.155 C  
ENDROOT
BRANCH   2   3
HETATM    3  N   UNL     1      -6.065  16.272  69.083  1.00  0.00    -0.145 NA 
BRANCH   3   4
HETATM    4  C   UNL     1      -6.723  15.072  68.829  1.00  0.00    -0.099 A  
HETATM    5  C   UNL     1      -8.067  14.840  69.149  1.00  0.00    -0.119 A  
HETATM    6  C   UNL     1      -6.062  14.011  68.190  1.00  0.00    -0.129 A  
HETATM    7  C   UNL     1      -8.739  13.670  68.727  1.00  0.00     0.070 A  
HETATM    8  C   UNL     1      -6.714  12.833  67.779  1.00  0.00    -0.134 A  
HETATM    9  C   UNL     1      -8.083  12.673  67.991  1.00  0.00    -0.161 A  
BRANCH   9  10
HETATM   10  C   UNL     1      -8.847  11.527  67.381  1.00  0.00    -0.157 C  
BRANCH  10  11
HETATM   11  C   UNL     1      -9.286  11.631  65.941  1.00  0.00    -0.232 A  
HETATM   12  O   UNL     1      -7.790   8.949  66.347  1.00  0.00    -0.100 OA 
HETATM   13  O   UNL     1      -6.286  10.022  64.614  1.00  0.00    -0.111 OA 
HETATM   14  C   UNL     1     -10.380  12.473  65.655  1.00  0.00    -0.294 A  
HETATM   15  C   UNL     1     -10.912  12.545  64.355  1.00  0.00    -0.340 A  
HETATM   16  O   UNL     1      -8.074   8.488  63.961  1.00  0.00    -0.153 OA 
HETATM   17  C   UNL     1     -10.297  11.905  63.285  1.00  0.00    -0.432 A  
HETATM   18  S   UNL     1      -7.586   9.569  65.058  1.00  0.00    -0.119 S  
HETATM   19  S   UNL     1     -12.509  13.280  64.122  1.00  0.00    -0.209 S  
HETATM   20  C   UNL     1      -9.194  11.102  63.538  1.00  0.00    -0.195 A  
HETATM   21  O   UNL     1     -12.301  14.828  64.510  1.00  0.00    -0.479 OA 
HETATM   22  O   UNL     1     -12.815  13.271  62.708  1.00  0.00    -0.245 OA 
HETATM   23  O   UNL     1     -13.385  12.673  65.101  1.00  0.00    -0.526 OA 
HETATM   24  C   UNL     1      -8.730  10.915  64.858  1.00  0.00    -0.067 A  
ENDBRANCH  10  11
BRANCH  10  25
HETATM   25  C   UNL     1      -9.280  10.487  68.159  1.00  0.00    -0.148 A  
HETATM   26  C   UNL     1     -10.481   9.707  67.848  1.00  0.00    -0.296 A  
HETATM   27  C   UNL     1      -8.651  10.154  69.445  1.00  0.00    -0.183 A  
HETATM   28  C   UNL     1      -8.796   8.935  69.991  1.00  0.00    -0.165 A  
HETATM   29  C   UNL     1     -10.683   8.494  68.390  1.00  0.00    -0.084 A  
HETATM   30  C   UNL     1      -9.653   7.902  69.312  1.00  0.00    -0.157 A  
BRANCH  30  31
HETATM   31  N   UNL     1      -9.521   6.616  69.510  1.00  0.00    -0.148 NA 
BRANCH  31  32
HETATM   32  C   UNL     1      -8.200   5.887  69.327  1.00  0.00    -0.113 C  
HETATM   33  C   UNL     1      -7.588   6.172  67.969  1.00  0.00    -0.101 C  
ENDBRANCH  31  32
BRANCH  31  34
HETATM   34  C   UNL     1     -10.607   5.775  70.154  1.00  0.00    -0.307 C  
HETATM   35  C   UNL     1     -10.802   6.160  71.608  1.00  0.00    -0.308 C  
ENDBRANCH  31  34
ENDBRANCH  30  31
ENDBRANCH  10  25
ENDBRANCH   9  10
ENDBRANCH   3   4
BRANCH   3  36
HETATM   36  C   UNL     1      -5.409  16.585  70.359  1.00  0.00    -0.200 C  
HETATM   37  C   UNL     1      -5.162  15.308  71.148  1.00  0.00    -0.116 C  
ENDBRANCH   3  36
ENDBRANCH   2   3
TORSDOF 9
ENDMDL
MODEL       57
REMARK 921   NORMALIZED FREE ENERGY PREDICTED BY IDOCK:   -4.12 KCAL/MOL
REMARK 922        TOTAL FREE ENERGY PREDICTED BY IDOCK:   -8.61 KCAL/MOL
REMARK 923 INTER-LIGAND FREE ENERGY PREDICTED BY IDOCK:   -6.80 KCAL/MOL
REMARK 924 INTRA-LIGAND FREE ENERGY PREDICTED BY IDOCK:   -1.81 KCAL/MOL
REMARK 927      BINDING AFFINITY PREDICTED BY RF-SCORE:    0.00 PKD
ROOT
HETATM    1  C   UNL     1     -13.426  12.958  72.276  1.00  0.00    -0.631 C  
HETATM    2  C   UNL     1     -13.241  11.652  71.520  1.00  0.00    -0.201 C  
ENDROOT
BRANCH   2   3
HETATM    3  N   UNL     1     -12.184  11.771  70.501  1.00  0.00    -0.365 NA 
BRANCH   3   4
HETATM    4  C   UNL     1     -11.390  10.662  70.225  1.00  0.00    -0.319 A  
HETATM    5  C   UNL     1     -10.936   9.768  71.204  1.00  0.00    -0.386 A  
HETATM    6  C   UNL     1     -11.019  10.353  68.906  1.00  0.00    -0.289 A  
HETATM    7  C   UNL     1     -10.272   8.567  70.862  1.00  0.00    -0.246 A  
HETATM    8  C   UNL     1     -10.343   9.170  68.553  1.00  0.00    -0.236 A  
HETATM    9  C   UNL     1     -10.012   8.228  69.527  1.00  0.00    -0.187 A  
BRANCH   9  10
HETATM   10  C   UNL     1      -9.482   6.867  69.160  1.00  0.00    -0.142 C  
BRANCH  10  11
HETATM   11  C   UNL     1      -8.731   6.075  70.201  1.00  0.00    -0.139 A  
HETATM   12  O   UNL     1      -7.080   8.591  69.464  1.00  0.00    -0.051 OA 
HETATM   13  O   UNL     1      -5.441   6.786  68.778  1.00  0.00    -0.015 OA 
HETATM   14  C   UNL     1      -9.480   5.215  71.029  1.00  0.00    -0.214 A  
HETATM   15  C   UNL     1      -8.867   4.521  72.087  1.00  0.00    -0.121 A  
HETATM   16  O   UNL     1      -5.326   7.825  70.988  1.00  0.00    -0.026 OA 
HETATM   17  C   UNL     1      -7.489   4.544  72.267  1.00  0.00    -0.081 A  
HETATM   18  S   UNL     1      -6.295   7.416  69.761  1.00  0.00    -0.031 S  
HETATM   19  S   UNL     1      -9.890   3.786  73.337  1.00  0.00    -0.118 S  
HETATM   20  C   UNL     1      -6.727   5.354  71.438  1.00  0.00    -0.052 A  
HETATM   21  O   UNL     1     -10.696   2.626  72.566  1.00  0.00    -0.078 OA 
HETATM   22  O   UNL     1      -9.036   3.103  74.284  1.00  0.00    -0.082 OA 
HETATM   23  O   UNL     1     -10.830   4.806  73.747  1.00  0.00    -0.270 OA 
HETATM   24  C   UNL     1      -7.344   6.160  70.456  1.00  0.00    -0.085 A  
ENDBRANCH  10  11
BRANCH  10  25
HETATM   25  C   UNL     1      -9.534   6.426  67.865  1.00  0.00    -0.115 A  
HETATM   26  C   UNL     1      -8.425   6.593  66.922  1.00  0.00    -0.115 A  
HETATM   27  C   UNL     1     -10.759   5.868  67.274  1.00  0.00    -0.380 A  
HETATM   28  C   UNL     1     -10.707   5.086  66.183  1.00  0.00    -0.264 A  
HETATM   29  C   UNL     1      -8.343   5.853  65.804  1.00  0.00    -0.140 A  
HETATM   30  C   UNL     1      -9.387   4.809  65.516  1.00  0.00    -0.159 A  
BRANCH  30  31
HETATM   31  N   UNL     1      -9.173   3.768  64.754  1.00  0.00    -0.137 NA 
BRANCH  31  32
HETATM   32  C   UNL     1      -9.678   3.677  63.324  1.00  0.00    -0.136 C  
HETATM   33  C   UNL     1     -10.855   2.728  63.206  1.00  0.00    -0.230 C  
ENDBRANCH  31  32
BRANCH  31  34
HETATM   34  C   UNL     1      -8.216   2.657  65.143  1.00  0.00    -0.091 C  
HETATM   35  C   UNL     1      -8.694   1.942  66.392  1.00  0.00    -0.118 C  
ENDBRANCH  31  34
ENDBRANCH  30  31
ENDBRANCH  10  25
ENDBRANCH   9  10
ENDBRANCH   3   4
BRANCH   3  36
HETATM   36  C   UNL     1     -11.863  13.132  70.051  1.00  0.00    -0.290 C  
HETATM   37  C   UNL     1     -12.111  13.260  68.556  1.00  0.00    -0.256 C  
ENDBRANCH   3  36
ENDBRANCH   2   3
TORSDOF 9
ENDMDL
MODEL       58
REMARK 921   NORMALIZED FREE ENERGY PREDICTED BY IDOCK:   -4.11 KCAL/MOL
REMARK 922        TOTAL FREE ENERGY PREDICTED BY IDOCK:   -8.60 KCAL/MOL
REMARK 923 INTER-LIGAND FREE ENERGY PREDICTED BY IDOCK:   -6.60 KCAL/MOL
REMARK 924 INTRA-LIGAND FREE ENERGY PREDICTED BY IDOCK:   -2.00 KCAL/MOL
REMARK 927      BINDING AFFINITY PREDICTED BY RF-SCORE:    0.00 PKD
ROOT
HETATM    1  C   UNL     1      -5.133   2.609  65.511  1.00  0.00    -0.008 C  
HETATM    2  C   UNL     1      -5.854   2.825  66.832  1.00  0.00    -0.023 C  
ENDROOT
BRANCH   2   3
HETATM    3  N   UNL     1      -7.302   3.001  66.627  1.00  0.00    -0.069 NA 
BRANCH   3   4
HETATM    4  C   UNL     1      -7.896   4.192  67.034  1.00  0.00    -0.096 A  
HETATM    5  C   UNL     1      -9.062   4.253  67.809  1.00  0.00    -0.157 A  
HETATM    6  C   UNL     1      -7.322   5.431  66.708  1.00  0.00    -0.086 A  
HETATM    7  C   UNL     1      -9.539   5.475  68.337  1.00  0.00    -0.155 A  
HETATM    8  C   UNL     1      -7.797   6.657  67.212  1.00  0.00    -0.112 A  
HETATM    9  C   UNL     1      -8.882   6.687  68.087  1.00  0.00    -0.119 A  
BRANCH   9  10
HETATM   10  C   UNL     1      -9.280   7.950  68.806  1.00  0.00    -0.143 C  
BRANCH  10  11
HETATM   11  C   UNL     1      -9.844   7.844  70.202  1.00  0.00    -0.184 A  
HETATM   12  O   UNL     1      -6.750   7.791  70.359  1.00  0.00    -0.038 OA 
HETATM   13  O   UNL     1      -7.271   5.529  71.372  1.00  0.00    -0.069 OA 
HETATM   14  C   UNL     1     -11.142   8.348  70.417  1.00  0.00    -0.240 A  
HETATM   15  C   UNL     1     -11.697   8.378  71.710  1.00  0.00    -0.310 A  
HETATM   16  O   UNL     1      -6.928   7.497  72.781  1.00  0.00    -0.066 OA 
HETATM   17  C   UNL     1     -11.050   7.787  72.789  1.00  0.00    -0.457 A  
HETATM   18  S   UNL     1      -7.421   6.966  71.337  1.00  0.00    -0.083 S  
HETATM   19  S   UNL     1     -13.135   9.374  72.002  1.00  0.00    -0.452 S  
HETATM   20  C   UNL     1      -9.787   7.250  72.591  1.00  0.00    -0.207 A  
HETATM   21  O   UNL     1     -14.293   8.674  71.130  1.00  0.00    -0.277 OA 
HETATM   22  O   UNL     1     -13.534   9.208  73.383  1.00  0.00     0.196 OA 
HETATM   23  O   UNL     1     -12.854  10.675  71.434  1.00  0.00    -0.382 OA 
HETATM   24  C   UNL     1      -9.162   7.332  71.328  1.00  0.00    -0.150 A  
ENDBRANCH  10  11
BRANCH  10  25
HETATM   25  C   UNL     1      -9.288   9.151  68.150  1.00  0.00    -0.147 A  
HETATM   26  C   UNL     1     -10.050   9.382  66.920  1.00  0.00    -0.314 A  
HETATM   27  C   UNL     1      -8.424  10.271  68.552  1.00  0.00    -0.121 A  
HETATM   28  C   UNL     1      -8.713  11.532  68.190  1.00  0.00    -0.157 A  
HETATM   29  C   UNL     1     -10.341  10.625  66.503  1.00  0.00    -0.299 A  
HETATM   30  C   UNL     1      -9.907  11.812  67.319  1.00  0.00    -0.185 A  
BRANCH  30  31
HETATM   31  N   UNL     1     -10.503  12.975  67.270  1.00  0.00    -0.238 NA 
BRANCH  31  32
HETATM   32  C   UNL     1     -10.454  13.973  68.414  1.00  0.00    -0.253 C  
HETATM   33  C   UNL     1      -9.629  15.195  68.055  1.00  0.00    -0.204 C  
ENDBRANCH  31  32
BRANCH  31  34
HETATM   34  C   UNL     1     -11.106  13.528  65.993  1.00  0.00    -0.293 C  
HETATM   35  C   UNL     1     -12.262  12.666  65.520  1.00  0.00    -0.501 C  
ENDBRANCH  31  34
ENDBRANCH  30  31
ENDBRANCH  10  25
ENDBRANCH   9  10
ENDBRANCH   3   4
BRANCH   3  36
HETATM   36  C   UNL     1      -8.059   1.798  66.261  1.00  0.00    -0.080 C  
HETATM   37  C   UNL     1      -8.848   2.044  64.984  1.00  0.00    -0.120 C  
ENDBRANCH   3  36
ENDBRANCH   2   3
TORSDOF 9
ENDMDL
MODEL       59
REMARK 921   NORMALIZED FREE ENERGY PREDICTED BY IDOCK:   -4.08 KCAL/MOL
REMARK 922        TOTAL FREE ENERGY PREDICTED BY IDOCK:   -8.55 KCAL/MOL
REMARK 923 INTER-LIGAND FREE ENERGY PREDICTED BY IDOCK:   -8.29 KCAL/MOL
REMARK 924 INTRA-LIGAND FREE ENERGY PREDICTED BY IDOCK:   -0.27 KCAL/MOL
REMARK 927      BINDING AFFINITY PREDICTED BY RF-SCORE:    0.00 PKD
ROOT
HETATM    1  C   UNL     1     -14.279   8.704  71.630  1.00  0.00    -0.463 C  
HETATM    2  C   UNL     1     -13.100   9.119  72.497  1.00  0.00    -0.377 C  
ENDROOT
BRANCH   2   3
HETATM    3  N   UNL     1     -11.833   8.593  71.961  1.00  0.00    -0.347 NA 
BRANCH   3   4
HETATM    4  C   UNL     1     -11.246   9.236  70.875  1.00  0.00    -0.306 A  
HETATM    5  C   UNL     1     -11.751  10.410  70.301  1.00  0.00    -0.406 A  
HETATM    6  C   UNL     1     -10.062   8.745  70.303  1.00  0.00    -0.214 A  
HETATM    7  C   UNL     1     -11.036  11.119  69.309  1.00  0.00    -0.300 A  
HETATM    8  C   UNL     1      -9.347   9.431  69.302  1.00  0.00    -0.167 A  
HETATM    9  C   UNL     1      -9.798  10.664  68.833  1.00  0.00    -0.210 A  
BRANCH   9  10
HETATM   10  C   UNL     1      -8.954  11.518  67.923  1.00  0.00    -0.159 C  
BRANCH  10  11
HETATM   11  C   UNL     1      -9.315  11.599  66.461  1.00  0.00    -0.216 A  
HETATM   12  O   UNL     1      -8.135   8.797  67.053  1.00  0.00    -0.098 OA 
HETATM   13  O   UNL     1      -6.450   9.622  65.352  1.00  0.00    -0.072 OA 
HETATM   14  C   UNL     1     -10.298  12.537  66.086  1.00  0.00    -0.274 A  
HETATM   15  C   UNL     1     -10.762  12.602  64.759  1.00  0.00    -0.308 A  
HETATM   16  O   UNL     1      -8.362   8.255  64.678  1.00  0.00    -0.159 OA 
HETATM   17  C   UNL     1     -10.172  11.852  63.748  1.00  0.00    -0.442 A  
HETATM   18  S   UNL     1      -7.809   9.329  65.750  1.00  0.00    -0.100 S  
HETATM   19  S   UNL     1     -12.258  13.490  64.417  1.00  0.00    -0.369 S  
HETATM   20  C   UNL     1      -9.175  10.950  64.090  1.00  0.00    -0.216 A  
HETATM   21  O   UNL     1     -11.902  15.024  64.748  1.00  0.00    -0.387 OA 
HETATM   22  O   UNL     1     -12.501  13.446  62.991  1.00  0.00    -0.667 OA 
HETATM   23  O   UNL     1     -13.237  13.026  65.376  1.00  0.00    -0.538 OA 
HETATM   24  C   UNL     1      -8.793  10.778  65.438  1.00  0.00    -0.189 A  
ENDBRANCH  10  11
BRANCH  10  25
HETATM   25  C   UNL     1      -7.789  12.076  68.376  1.00  0.00    -0.147 A  
HETATM   26  C   UNL     1      -7.257  13.340  67.858  1.00  0.00    -0.137 A  
HETATM   27  C   UNL     1      -6.904  11.384  69.325  1.00  0.00    -0.119 A  
HETATM   28  C   UNL     1      -6.010  12.065  70.060  1.00  0.00    -0.159 A  
HETATM   29  C   UNL     1      -6.342  14.044  68.545  1.00  0.00    -0.093 A  
HETATM   30  C   UNL     1      -5.866  13.553  69.885  1.00  0.00    -0.124 A  
BRANCH  30  31
HETATM   31  N   UNL     1      -5.369  14.339  70.804  1.00  0.00    -0.121 NA 
BRANCH  31  32
HETATM   32  C   UNL     1      -5.194  15.834  70.601  1.00  0.00    -0.168 C  
HETATM   33  C   UNL     1      -6.452  16.474  70.045  1.00  0.00     0.070 C  
ENDBRANCH  31  32
BRANCH  31  34
HETATM   34  C   UNL     1      -5.129  13.877  72.228  1.00  0.00    -0.197 C  
HETATM   35  C   UNL     1      -5.625  14.907  73.225  1.00  0.00     0.244 C  
ENDBRANCH  31  34
ENDBRANCH  30  31
ENDBRANCH  10  25
ENDBRANCH   9  10
ENDBRANCH   3   4
BRANCH   3  36
HETATM   36  C   UNL     1     -11.427   7.263  72.434  1.00  0.00    -0.287 C  
HETATM   37  C   UNL     1     -10.694   7.382  73.762  1.00  0.00    -0.063 C  
ENDBRANCH   3  36
ENDBRANCH   2   3
TORSDOF 9
ENDMDL
MODEL       60
REMARK 921   NORMALIZED FREE ENERGY PREDICTED BY IDOCK:   -4.03 KCAL/MOL
REMARK 922        TOTAL FREE ENERGY PREDICTED BY IDOCK:   -8.47 KCAL/MOL
REMARK 923 INTER-LIGAND FREE ENERGY PREDICTED BY IDOCK:   -6.38 KCAL/MOL
REMARK 924 INTRA-LIGAND FREE ENERGY PREDICTED BY IDOCK:   -2.09 KCAL/MOL
REMARK 927      BINDING AFFINITY PREDICTED BY RF-SCORE:    0.00 PKD
ROOT
HETATM    1  C   UNL     1     -10.282  16.882  66.912  1.00  0.00    -0.296 C  
HETATM    2  C   UNL     1     -11.160  15.782  67.488  1.00  0.00    -0.258 C  
ENDROOT
BRANCH   2   3
HETATM    3  N   UNL     1     -10.481  15.082  68.592  1.00  0.00    -0.232 NA 
BRANCH   3   4
HETATM    4  C   UNL     1     -10.397  13.693  68.554  1.00  0.00    -0.243 A  
HETATM    5  C   UNL     1      -9.238  12.994  68.192  1.00  0.00    -0.212 A  
HETATM    6  C   UNL     1     -11.494  12.896  68.919  1.00  0.00    -0.350 A  
HETATM    7  C   UNL     1      -9.147  11.589  68.325  1.00  0.00    -0.185 A  
HETATM    8  C   UNL     1     -11.423  11.495  69.039  1.00  0.00    -0.355 A  
HETATM    9  C   UNL     1     -10.223  10.826  68.799  1.00  0.00    -0.207 A  
BRANCH   9  10
HETATM   10  C   UNL     1     -10.056   9.364  69.120  1.00  0.00    -0.200 C  
BRANCH  10  11
HETATM   11  C   UNL     1      -9.619   8.970  70.509  1.00  0.00    -0.264 A  
HETATM   12  O   UNL     1     -12.696   8.677  70.302  1.00  0.00     0.601 OA 
HETATM   13  O   UNL     1     -12.553  10.405  72.148  1.00  0.00    -0.281 OA 
HETATM   14  C   UNL     1      -8.287   8.543  70.674  1.00  0.00    -0.141 A  
HETATM   15  C   UNL     1      -7.832   8.064  71.916  1.00  0.00    -0.106 A  
HETATM   16  O   UNL     1     -12.743   8.021  72.658  1.00  0.00    -0.129 OA 
HETATM   17  C   UNL     1      -8.631   8.127  73.052  1.00  0.00    -0.284 A  
HETATM   18  S   UNL     1     -12.214   9.114  71.591  1.00  0.00    -0.385 S  
HETATM   19  S   UNL     1      -6.303   7.168  71.982  1.00  0.00    -0.044 S  
HETATM   20  C   UNL     1      -9.935   8.582  72.921  1.00  0.00    -0.086 A  
HETATM   21  O   UNL     1      -5.183   8.253  71.584  1.00  0.00    -0.033 OA 
HETATM   22  O   UNL     1      -6.035   6.819  73.360  1.00  0.00    -0.056 OA 
HETATM   23  O   UNL     1      -6.369   6.169  70.936  1.00  0.00    -0.037 OA 
HETATM   24  C   UNL     1     -10.446   8.940  71.655  1.00  0.00    -0.338 A  
ENDBRANCH  10  11
BRANCH  10  25
HETATM   25  C   UNL     1     -10.137   8.421  68.131  1.00  0.00    -0.239 A  
HETATM   26  C   UNL     1      -9.479   8.573  66.831  1.00  0.00    -0.237 A  
HETATM   27  C   UNL     1     -11.004   7.238  68.243  1.00  0.00    -0.041 A  
HETATM   28  C   UNL     1     -10.784   6.146  67.491  1.00  0.00    -0.393 A  
HETATM   29  C   UNL     1      -9.261   7.514  66.032  1.00  0.00    -0.102 A  
HETATM   30  C   UNL     1      -9.669   6.138  66.481  1.00  0.00    -0.145 A  
BRANCH  30  31
HETATM   31  N   UNL     1      -9.117   5.042  66.031  1.00  0.00    -0.141 NA 
BRANCH  31  32
HETATM   32  C   UNL     1      -8.760   4.841  64.568  1.00  0.00    -0.153 C  
HETATM   33  C   UNL     1      -7.274   4.600  64.383  1.00  0.00    -0.055 C  
ENDBRANCH  31  32
BRANCH  31  34
HETATM   34  C   UNL     1      -8.578   3.964  66.952  1.00  0.00    -0.107 C  
HETATM   35  C   UNL     1      -9.274   2.639  66.704  1.00  0.00    -0.094 C  
ENDBRANCH  31  34
ENDBRANCH  30  31
ENDBRANCH  10  25
ENDBRANCH   9  10
ENDBRANCH   3   4
BRANCH   3  36
HETATM   36  C   UNL     1     -10.189  15.881  69.788  1.00  0.00    -0.268 C  
HETATM   37  C   UNL     1     -11.481  16.253  70.499  1.00  0.00    -0.282 C  
ENDBRANCH   3  36
ENDBRANCH   2   3
TORSDOF 9
ENDMDL
MODEL       61
REMARK 921   NORMALIZED FREE ENERGY PREDICTED BY IDOCK:   -4.01 KCAL/MOL
REMARK 922        TOTAL FREE ENERGY PREDICTED BY IDOCK:   -8.44 KCAL/MOL
REMARK 923 INTER-LIGAND FREE ENERGY PREDICTED BY IDOCK:   -6.35 KCAL/MOL
REMARK 924 INTRA-LIGAND FREE ENERGY PREDICTED BY IDOCK:   -2.09 KCAL/MOL
REMARK 927      BINDING AFFINITY PREDICTED BY RF-SCORE:    0.00 PKD
ROOT
HETATM    1  C   UNL     1      -5.919   8.312  67.930  1.00  0.00    -0.047 C  
HETATM    2  C   UNL     1      -5.564   8.842  69.310  1.00  0.00    -0.035 C  
ENDROOT
BRANCH   2   3
HETATM    3  N   UNL     1      -6.710   9.531  69.927  1.00  0.00    -0.056 NA 
BRANCH   3   4
HETATM    4  C   UNL     1      -7.078  10.784  69.447  1.00  0.00    -0.122 A  
HETATM    5  C   UNL     1      -8.329  11.064  68.882  1.00  0.00    -0.123 A  
HETATM    6  C   UNL     1      -6.198  11.875  69.537  1.00  0.00    -0.117 A  
HETATM    7  C   UNL     1      -8.719  12.384  68.558  1.00  0.00    -0.060 A  
HETATM    8  C   UNL     1      -6.567  13.192  69.201  1.00  0.00    -0.104 A  
HETATM    9  C   UNL     1      -7.860  13.472  68.762  1.00  0.00    -0.029 A  
BRANCH   9  10
HETATM   10  C   UNL     1      -8.348  14.888  68.598  1.00  0.00    -0.164 C  
BRANCH  10  11
HETATM   11  C   UNL     1      -9.830  15.159  68.672  1.00  0.00    -0.218 A  
HETATM   12  O   UNL     1      -9.200  13.738  65.993  1.00  0.00    -0.091 OA 
HETATM   13  O   UNL     1     -10.160  15.910  65.112  1.00  0.00    -0.451 OA 
HETATM   14  C   UNL     1     -10.398  15.315  69.953  1.00  0.00    -0.258 A  
HETATM   15  C   UNL     1     -11.787  15.469  70.110  1.00  0.00    -0.356 A  
HETATM   16  O   UNL     1     -11.564  13.928  65.394  1.00  0.00    -0.312 OA 
HETATM   17  C   UNL     1     -12.628  15.616  69.012  1.00  0.00     0.422 A  
HETATM   18  S   UNL     1     -10.259  14.718  65.925  1.00  0.00    -0.334 S  
HETATM   19  S   UNL     1     -12.497  15.253  71.720  1.00  0.00    -0.398 S  
HETATM   20  C   UNL     1     -12.083  15.505  67.741  1.00  0.00     0.375 A  
HETATM   21  O   UNL     1     -11.900  16.469  72.590  1.00  0.00    -0.541 OA 
HETATM   22  O   UNL     1     -13.920  15.500  71.631  1.00  0.00    -0.488 OA 
HETATM   23  O   UNL     1     -11.964  14.011  72.239  1.00  0.00     0.141 OA 
HETATM   24  C   UNL     1     -10.712  15.218  67.571  1.00  0.00    -0.285 A  
ENDBRANCH  10  11
BRANCH  10  25
HETATM   25  C   UNL     1      -7.484  15.883  68.224  1.00  0.00    -0.128 A  
HETATM   26  C   UNL     1      -6.973  16.022  66.857  1.00  0.00    -0.139 A  
HETATM   27  C   UNL     1      -6.891  16.814  69.195  1.00  0.00    -0.227 A  
HETATM   28  C   UNL     1      -6.392  17.998  68.802  1.00  0.00    -0.219 A  
HETATM   29  C   UNL     1      -6.441  17.177  66.427  1.00  0.00    -0.236 A  
HETATM   30  C   UNL     1      -6.387  18.368  67.344  1.00  0.00    -0.182 A  
BRANCH  30  31
HETATM   31  N   UNL     1      -6.333  19.603  66.917  1.00  0.00    -0.184 NA 
BRANCH  31  32
HETATM   32  C   UNL     1      -5.285  20.087  65.930  1.00  0.00    -0.160 C  
HETATM   33  C   UNL     1      -5.916  20.596  64.649  1.00  0.00    -0.312 C  
ENDBRANCH  31  32
BRANCH  31  34
HETATM   34  C   UNL     1      -7.436  20.608  67.190  1.00  0.00    -0.330 C  
HETATM   35  C   UNL     1      -8.803  19.983  66.986  1.00  0.00    -0.433 C  
ENDBRANCH  31  34
ENDBRANCH  30  31
ENDBRANCH  10  25
ENDBRANCH   9  10
ENDBRANCH   3   4
BRANCH   3  36
HETATM   36  C   UNL     1      -7.207   8.966  71.189  1.00  0.00    -0.102 C  
HETATM   37  C   UNL     1      -6.114   8.152  71.864  1.00  0.00    -0.045 C  
ENDBRANCH   3  36
ENDBRANCH   2   3
TORSDOF 9
ENDMDL
MODEL       62
REMARK 921   NORMALIZED FREE ENERGY PREDICTED BY IDOCK:   -3.99 KCAL/MOL
REMARK 922        TOTAL FREE ENERGY PREDICTED BY IDOCK:   -8.41 KCAL/MOL
REMARK 923 INTER-LIGAND FREE ENERGY PREDICTED BY IDOCK:   -7.27 KCAL/MOL
REMARK 924 INTRA-LIGAND FREE ENERGY PREDICTED BY IDOCK:   -1.15 KCAL/MOL
REMARK 927      BINDING AFFINITY PREDICTED BY RF-SCORE:    0.00 PKD
ROOT
HETATM    1  C   UNL     1      -8.860   2.020  64.530  1.00  0.00    -0.106 C  
HETATM    2  C   UNL     1      -9.373   3.373  64.060  1.00  0.00    -0.129 C  
ENDROOT
BRANCH   2   3
HETATM    3  N   UNL     1      -8.312   4.393  64.116  1.00  0.00    -0.105 NA 
BRANCH   3   4
HETATM    4  C   UNL     1      -8.410   5.412  65.058  1.00  0.00    -0.145 A  
HETATM    5  C   UNL     1      -8.233   6.769  64.758  1.00  0.00    -0.052 A  
HETATM    6  C   UNL     1      -8.734   5.127  66.395  1.00  0.00    -0.113 A  
HETATM    7  C   UNL     1      -8.502   7.781  65.708  1.00  0.00    -0.155 A  
HETATM    8  C   UNL     1      -8.988   6.123  67.355  1.00  0.00    -0.112 A  
HETATM    9  C   UNL     1      -8.933   7.472  67.005  1.00  0.00    -0.143 A  
BRANCH   9  10
HETATM   10  C   UNL     1      -9.402   8.551  67.946  1.00  0.00    -0.148 C  
BRANCH  10  11
HETATM   11  C   UNL     1      -9.081   8.426  69.414  1.00  0.00    -0.154 A  
HETATM   12  O   UNL     1      -7.623  10.910  68.274  1.00  0.00    -0.092 OA 
HETATM   13  O   UNL     1      -5.626   9.557  69.046  1.00  0.00    -0.036 OA 
HETATM   14  C   UNL     1      -9.995   7.718  70.220  1.00  0.00    -0.189 A  
HETATM   15  C   UNL     1      -9.818   7.644  71.614  1.00  0.00    -0.162 A  
HETATM   16  O   UNL     1      -6.622  11.272  70.477  1.00  0.00    -0.239 OA 
HETATM   17  C   UNL     1      -8.671   8.138  72.226  1.00  0.00    -0.243 A  
HETATM   18  S   UNL     1      -6.897  10.199  69.300  1.00  0.00    -0.072 S  
HETATM   19  S   UNL     1     -11.175   7.109  72.623  1.00  0.00    -0.280 S  
HETATM   20  C   UNL     1      -7.739   8.805  71.444  1.00  0.00    -0.148 A  
HETATM   21  O   UNL     1     -11.404   5.571  72.208  1.00  0.00    -0.255 OA 
HETATM   22  O   UNL     1     -10.737   7.079  74.002  1.00  0.00    -0.263 OA 
HETATM   23  O   UNL     1     -12.326   7.877  72.200  1.00  0.00    -0.308 OA 
HETATM   24  C   UNL     1      -7.968   9.003  70.065  1.00  0.00    -0.113 A  
ENDBRANCH  10  11
BRANCH  10  25
HETATM   25  C   UNL     1     -10.243   9.539  67.507  1.00  0.00    -0.283 A  
HETATM   26  C   UNL     1     -11.310  10.103  68.339  1.00  0.00    -0.179 A  
HETATM   27  C   UNL     1     -10.232  10.021  66.119  1.00  0.00    -0.283 A  
HETATM   28  C   UNL     1     -10.743  11.222  65.799  1.00  0.00    -0.284 A  
HETATM   29  C   UNL     1     -11.870  11.288  68.044  1.00  0.00    -0.244 A  
HETATM   30  C   UNL     1     -11.383  12.075  66.859  1.00  0.00    -0.341 A  
BRANCH  30  31
HETATM   31  N   UNL     1     -11.512  13.372  66.755  1.00  0.00    -0.328 NA 
BRANCH  31  32
HETATM   32  C   UNL     1     -10.533  14.349  67.384  1.00  0.00    -0.261 C  
HETATM   33  C   UNL     1      -9.254  14.457  66.576  1.00  0.00    -0.269 C  
ENDBRANCH  31  32
BRANCH  31  34
HETATM   34  C   UNL     1     -12.514  14.019  65.818  1.00  0.00    -0.494 C  
HETATM   35  C   UNL     1     -12.042  13.938  64.379  1.00  0.00    -0.477 C  
ENDBRANCH  31  34
ENDBRANCH  30  31
ENDBRANCH  10  25
ENDBRANCH   9  10
ENDBRANCH   3   4
BRANCH   3  36
HETATM   36  C   UNL     1      -7.372   4.417  62.988  1.00  0.00    -0.049 C  
HETATM   37  C   UNL     1      -5.958   4.143  63.478  1.00  0.00    -0.017 C  
ENDBRANCH   3  36
ENDBRANCH   2   3
TORSDOF 9
ENDMDL
MODEL       63
REMARK 921   NORMALIZED FREE ENERGY PREDICTED BY IDOCK:   -3.93 KCAL/MOL
REMARK 922        TOTAL FREE ENERGY PREDICTED BY IDOCK:   -8.32 KCAL/MOL
REMARK 923 INTER-LIGAND FREE ENERGY PREDICTED BY IDOCK:   -6.65 KCAL/MOL
REMARK 924 INTRA-LIGAND FREE ENERGY PREDICTED BY IDOCK:   -1.67 KCAL/MOL
REMARK 927      BINDING AFFINITY PREDICTED BY RF-SCORE:    0.00 PKD
ROOT
HETATM    1  C   UNL     1     -11.255   5.004  73.272  1.00  0.00    -0.411 C  
HETATM    2  C   UNL     1      -9.921   5.248  73.960  1.00  0.00    -0.197 C  
ENDROOT
BRANCH   2   3
HETATM    3  N   UNL     1      -8.801   5.114  73.014  1.00  0.00    -0.120 NA 
BRANCH   3   4
HETATM    4  C   UNL     1      -8.744   5.967  71.916  1.00  0.00    -0.138 A  
HETATM    5  C   UNL     1      -7.918   5.751  70.806  1.00  0.00    -0.113 A  
HETATM    6  C   UNL     1      -9.562   7.106  71.848  1.00  0.00    -0.161 A  
HETATM    7  C   UNL     1      -8.012   6.551  69.644  1.00  0.00    -0.120 A  
HETATM    8  C   UNL     1      -9.653   7.922  70.705  1.00  0.00    -0.167 A  
HETATM    9  C   UNL     1      -8.918   7.617  69.560  1.00  0.00    -0.139 A  
BRANCH   9  10
HETATM   10  C   UNL     1      -9.149   8.340  68.258  1.00  0.00    -0.135 C  
BRANCH  10  11
HETATM   11  C   UNL     1      -8.654   7.710  66.980  1.00  0.00    -0.122 A  
HETATM   12  O   UNL     1     -11.377   6.441  67.738  1.00  0.00    -0.266 OA 
HETATM   13  O   UNL     1      -9.909   4.378  67.800  1.00  0.00    -0.156 OA 
HETATM   14  C   UNL     1      -7.745   8.453  66.201  1.00  0.00    -0.097 A  
HETATM   15  C   UNL     1      -7.316   7.979  64.948  1.00  0.00    -0.084 A  
HETATM   16  O   UNL     1     -11.175   4.970  65.794  1.00  0.00    -0.057 OA 
HETATM   17  C   UNL     1      -7.657   6.708  64.499  1.00  0.00    -0.103 A  
HETATM   18  S   UNL     1     -10.438   5.537  67.115  1.00  0.00    -0.244 S  
HETATM   19  S   UNL     1      -6.513   9.102  63.835  1.00  0.00    -0.090 S  
HETATM   20  C   UNL     1      -8.521   5.944  65.269  1.00  0.00    -0.144 A  
HETATM   21  O   UNL     1      -5.130   9.477  64.569  1.00  0.00    -0.047 OA 
HETATM   22  O   UNL     1      -6.135   8.375  62.642  1.00  0.00    -0.085 OA 
HETATM   23  O   UNL     1      -7.341  10.287  63.782  1.00  0.00    -0.134 OA 
HETATM   24  C   UNL     1      -9.065   6.461  66.465  1.00  0.00    -0.151 A  
ENDBRANCH  10  11
BRANCH  10  25
HETATM   25  C   UNL     1      -9.647   9.615  68.249  1.00  0.00    -0.153 A  
HETATM   26  C   UNL     1      -8.792  10.805  68.288  1.00  0.00    -0.139 A  
HETATM   27  C   UNL     1     -11.088   9.896  68.337  1.00  0.00    -0.193 A  
HETATM   28  C   UNL     1     -11.589  11.074  67.929  1.00  0.00    -0.306 A  
HETATM   29  C   UNL     1      -9.256  12.009  67.915  1.00  0.00    -0.190 A  
HETATM   30  C   UNL     1     -10.668  12.149  67.419  1.00  0.00    -0.234 A  
BRANCH  30  31
HETATM   31  N   UNL     1     -11.061  13.115  66.630  1.00  0.00    -0.286 NA 
BRANCH  31  32
HETATM   32  C   UNL     1     -12.174  12.944  65.610  1.00  0.00    -0.463 C  
HETATM   33  C   UNL     1     -11.730  12.093  64.436  1.00  0.00    -0.430 C  
ENDBRANCH  31  32
BRANCH  31  34
HETATM   34  C   UNL     1     -10.603  14.550  66.809  1.00  0.00    -0.276 C  
HETATM   35  C   UNL     1      -9.879  15.047  65.572  1.00  0.00    -0.352 C  
ENDBRANCH  31  34
ENDBRANCH  30  31
ENDBRANCH  10  25
ENDBRANCH   9  10
ENDBRANCH   3   4
BRANCH   3  36
HETATM   36  C   UNL     1      -7.977   3.906  73.148  1.00  0.00    -0.087 C  
HETATM   37  C   UNL     1      -6.806   4.172  74.083  1.00  0.00    -0.059 C  
ENDBRANCH   3  36
ENDBRANCH   2   3
TORSDOF 9
ENDMDL
MODEL       64
REMARK 921   NORMALIZED FREE ENERGY PREDICTED BY IDOCK:   -3.87 KCAL/MOL
REMARK 922        TOTAL FREE ENERGY PREDICTED BY IDOCK:   -8.24 KCAL/MOL
REMARK 923 INTER-LIGAND FREE ENERGY PREDICTED BY IDOCK:   -6.89 KCAL/MOL
REMARK 924 INTRA-LIGAND FREE ENERGY PREDICTED BY IDOCK:   -1.35 KCAL/MOL
REMARK 927      BINDING AFFINITY PREDICTED BY RF-SCORE:    0.00 PKD
ROOT
HETATM    1  C   UNL     1     -12.625   7.499  71.992  1.00  0.00    -0.268 C  
HETATM    2  C   UNL     1     -11.981   6.122  71.975  1.00  0.00    -0.253 C  
ENDROOT
BRANCH   2   3
HETATM    3  N   UNL     1     -10.557   6.203  71.608  1.00  0.00    -0.222 NA 
BRANCH   3   4
HETATM    4  C   UNL     1     -10.184   7.025  70.549  1.00  0.00    -0.196 A  
HETATM    5  C   UNL     1     -10.752   6.954  69.271  1.00  0.00    -0.265 A  
HETATM    6  C   UNL     1      -9.210   8.023  70.722  1.00  0.00    -0.165 A  
HETATM    7  C   UNL     1     -10.461   7.913  68.274  1.00  0.00    -0.212 A  
HETATM    8  C   UNL     1      -8.898   8.974  69.733  1.00  0.00    -0.155 A  
HETATM    9  C   UNL     1      -9.567   8.967  68.510  1.00  0.00    -0.165 A  
BRANCH   9  10
HETATM   10  C   UNL     1      -9.410  10.089  67.517  1.00  0.00    -0.162 C  
BRANCH  10  11
HETATM   11  C   UNL     1      -8.257  10.044  66.546  1.00  0.00    -0.119 A  
HETATM   12  O   UNL     1      -7.326  11.439  69.151  1.00  0.00    -0.116 OA 
HETATM   13  O   UNL     1      -6.956  13.322  67.499  1.00  0.00    -0.152 OA 
HETATM   14  C   UNL     1      -8.285   9.046  65.551  1.00  0.00    -0.124 A  
HETATM   15  C   UNL     1      -7.199   8.875  64.673  1.00  0.00    -0.096 A  
HETATM   16  O   UNL     1      -5.140  11.805  68.114  1.00  0.00    -0.043 OA 
HETATM   17  C   UNL     1      -6.131   9.765  64.659  1.00  0.00    -0.095 A  
HETATM   18  S   UNL     1      -6.739  11.962  67.939  1.00  0.00    -0.088 S  
HETATM   19  S   UNL     1      -7.092   7.381  63.724  1.00  0.00    -0.071 S  
HETATM   20  C   UNL     1      -6.103  10.779  65.606  1.00  0.00    -0.097 A  
HETATM   21  O   UNL     1      -8.353   7.445  62.727  1.00  0.00    -0.063 OA 
HETATM   22  O   UNL     1      -5.922   7.459  62.876  1.00  0.00    -0.048 OA 
HETATM   23  O   UNL     1      -7.295   6.291  64.653  1.00  0.00    -0.064 OA 
HETATM   24  C   UNL     1      -7.120  10.881  66.579  1.00  0.00    -0.139 A  
ENDBRANCH  10  11
BRANCH  10  25
HETATM   25  C   UNL     1     -10.196  11.207  67.602  1.00  0.00    -0.208 A  
HETATM   26  C   UNL     1     -11.101  11.462  68.726  1.00  0.00    -0.290 A  
HETATM   27  C   UNL     1     -10.295  12.181  66.505  1.00  0.00    -0.239 A  
HETATM   28  C   UNL     1     -10.719  13.436  66.730  1.00  0.00    -0.277 A  
HETATM   29  C   UNL     1     -11.572  12.695  68.975  1.00  0.00    -0.367 A  
HETATM   30  C   UNL     1     -11.149  13.850  68.111  1.00  0.00    -0.256 A  
BRANCH  30  31
HETATM   31  N   UNL     1     -11.161  15.093  68.515  1.00  0.00    -0.277 NA 
BRANCH  31  32
HETATM   32  C   UNL     1     -11.330  15.482  69.974  1.00  0.00    -0.321 C  
HETATM   33  C   UNL     1     -12.643  14.976  70.540  1.00  0.00    -0.420 C  
ENDBRANCH  31  32
BRANCH  31  34
HETATM   34  C   UNL     1     -10.787  16.249  67.608  1.00  0.00    -0.293 C  
HETATM   35  C   UNL     1      -9.411  16.787  67.951  1.00  0.00    -0.229 C  
ENDBRANCH  31  34
ENDBRANCH  30  31
ENDBRANCH  10  25
ENDBRANCH   9  10
ENDBRANCH   3   4
BRANCH   3  36
HETATM   36  C   UNL     1      -9.672   5.197  72.208  1.00  0.00    -0.163 C  
HETATM   37  C   UNL     1      -9.892   5.135  73.712  1.00  0.00    -0.173 C  
ENDBRANCH   3  36
ENDBRANCH   2   3
TORSDOF 9
ENDMDL
MODEL       65
REMARK 921   NORMALIZED FREE ENERGY PREDICTED BY IDOCK:   -3.59 KCAL/MOL
REMARK 922        TOTAL FREE ENERGY PREDICTED BY IDOCK:   -7.80 KCAL/MOL
REMARK 923 INTER-LIGAND FREE ENERGY PREDICTED BY IDOCK:   -6.34 KCAL/MOL
REMARK 924 INTRA-LIGAND FREE ENERGY PREDICTED BY IDOCK:   -1.46 KCAL/MOL
REMARK 927      BINDING AFFINITY PREDICTED BY RF-SCORE:    0.00 PKD
ROOT
HETATM    1  C   UNL     1     -12.320  13.860  64.099  1.00  0.00    -0.380 C  
HETATM    2  C   UNL     1     -11.086  14.674  64.457  1.00  0.00    -0.257 C  
ENDROOT
BRANCH   2   3
HETATM    3  N   UNL     1     -10.613  14.355  65.815  1.00  0.00    -0.305 NA 
BRANCH   3   4
HETATM    4  C   UNL     1     -10.405  13.022  66.157  1.00  0.00    -0.278 A  
HETATM    5  C   UNL     1      -9.412  12.218  65.581  1.00  0.00    -0.078 A  
HETATM    6  C   UNL     1     -11.182  12.405  67.151  1.00  0.00    -0.353 A  
HETATM    7  C   UNL     1      -9.129  10.923  66.073  1.00  0.00    -0.208 A  
HETATM    8  C   UNL     1     -10.922  11.110  67.638  1.00  0.00    -0.323 A  
HETATM    9  C   UNL     1      -9.847  10.372  67.142  1.00  0.00    -0.221 A  
BRANCH   9  10
HETATM   10  C   UNL     1      -9.416   9.079  67.784  1.00  0.00    -0.162 C  
BRANCH  10  11
HETATM   11  C   UNL     1      -9.556   8.927  69.278  1.00  0.00    -0.162 A  
HETATM   12  O   UNL     1      -7.135  10.764  68.675  1.00  0.00    -0.069 OA 
HETATM   13  O   UNL     1      -5.955   8.885  69.897  1.00  0.00    -0.031 OA 
HETATM   14  C   UNL     1     -10.827   8.585  69.779  1.00  0.00    -0.177 A  
HETATM   15  C   UNL     1     -11.062   8.523  71.165  1.00  0.00    -0.260 A  
HETATM   16  O   UNL     1      -6.698  10.892  71.079  1.00  0.00     0.020 OA 
HETATM   17  C   UNL     1     -10.025   8.656  72.082  1.00  0.00    -0.386 A  
HETATM   18  S   UNL     1      -6.975   9.908  69.828  1.00  0.00    -0.113 S  
HETATM   19  S   UNL     1     -12.736   8.495  71.750  1.00  0.00    -0.364 S  
HETATM   20  C   UNL     1      -8.757   8.955  71.607  1.00  0.00    -0.186 A  
HETATM   21  O   UNL     1     -13.323   7.092  71.225  1.00  0.00    -0.368 OA 
HETATM   22  O   UNL     1     -12.715   8.392  73.193  1.00  0.00    -0.069 OA 
HETATM   23  O   UNL     1     -13.426   9.568  71.067  1.00  0.00    -0.296 OA 
HETATM   24  C   UNL     1      -8.534   9.151  70.227  1.00  0.00    -0.191 A  
ENDBRANCH  10  11
BRANCH  10  25
HETATM   25  C   UNL     1      -8.757   8.126  67.054  1.00  0.00    -0.136 A  
HETATM   26  C   UNL     1      -9.247   7.632  65.763  1.00  0.00     0.025 A  
HETATM   27  C   UNL     1      -7.574   7.422  67.568  1.00  0.00    -0.106 A  
HETATM   28  C   UNL     1      -6.715   6.812  66.735  1.00  0.00    -0.056 A  
HETATM   29  C   UNL     1      -8.432   6.993  64.908  1.00  0.00     0.061 A  
HETATM   30  C   UNL     1      -6.981   6.799  65.254  1.00  0.00    -0.055 A  
BRANCH  30  31
HETATM   31  N   UNL     1      -6.045   6.628  64.358  1.00  0.00    -0.034 NA 
BRANCH  31  32
HETATM   32  C   UNL     1      -5.839   5.314  63.624  1.00  0.00    -0.017 C  
HETATM   33  C   UNL     1      -5.627   4.162  64.588  1.00  0.00    -0.014 C  
ENDBRANCH  31  32
BRANCH  31  34
HETATM   34  C   UNL     1      -5.225   7.778  63.806  1.00  0.00    -0.037 C  
HETATM   35  C   UNL     1      -6.004   8.545  62.754  1.00  0.00    -0.086 C  
ENDBRANCH  31  34
ENDBRANCH  30  31
ENDBRANCH  10  25
ENDBRANCH   9  10
ENDBRANCH   3   4
BRANCH   3  36
HETATM   36  C   UNL     1     -10.663  15.447  66.796  1.00  0.00    -0.310 C  
HETATM   37  C   UNL     1     -10.100  16.723  66.187  1.00  0.00    -0.360 C  
ENDBRANCH   3  36
ENDBRANCH   2   3
TORSDOF 9
ENDMDL
MODEL       66
REMARK 921   NORMALIZED FREE ENERGY PREDICTED BY IDOCK:   -3.55 KCAL/MOL
REMARK 922        TOTAL FREE ENERGY PREDICTED BY IDOCK:   -7.74 KCAL/MOL
REMARK 923 INTER-LIGAND FREE ENERGY PREDICTED BY IDOCK:   -6.26 KCAL/MOL
REMARK 924 INTRA-LIGAND FREE ENERGY PREDICTED BY IDOCK:   -1.48 KCAL/MOL
REMARK 927      BINDING AFFINITY PREDICTED BY RF-SCORE:    0.00 PKD
ROOT
HETATM    1  C   UNL     1      -6.807   8.183  65.658  1.00  0.00    -0.066 C  
HETATM    2  C   UNL     1      -7.956   7.614  66.476  1.00  0.00    -0.106 C  
ENDROOT
BRANCH   2   3
HETATM    3  N   UNL     1      -8.095   8.317  67.762  1.00  0.00    -0.125 NA 
BRANCH   3   4
HETATM    4  C   UNL     1      -8.284   9.696  67.755  1.00  0.00    -0.114 A  
HETATM    5  C   UNL     1      -9.543  10.307  67.694  1.00  0.00    -0.173 A  
HETATM    6  C   UNL     1      -7.191  10.573  67.846  1.00  0.00    -0.084 A  
HETATM    7  C   UNL     1      -9.700  11.703  67.855  1.00  0.00    -0.181 A  
HETATM    8  C   UNL     1      -7.331  11.966  67.989  1.00  0.00    -0.100 A  
HETATM    9  C   UNL     1      -8.597  12.546  68.055  1.00  0.00    -0.185 A  
BRANCH   9  10
HETATM   10  C   UNL     1      -8.784  13.996  68.417  1.00  0.00    -0.179 C  
BRANCH  10  11
HETATM   11  C   UNL     1     -10.183  14.518  68.630  1.00  0.00    -0.243 A  
HETATM   12  O   UNL     1      -9.798  13.866  65.626  1.00  0.00    -0.276 OA 
HETATM   13  O   UNL     1     -10.288  16.346  65.468  1.00  0.00    -0.472 OA 
HETATM   14  C   UNL     1     -10.733  14.392  69.922  1.00  0.00     0.049 A  
HETATM   15  C   UNL     1     -12.066  14.762  70.175  1.00  0.00    -0.327 A  
HETATM   16  O   UNL     1     -12.065  14.687  65.209  1.00  0.00    -0.347 OA 
HETATM   17  C   UNL     1     -12.840  15.392  69.206  1.00  0.00     0.494 A  
HETATM   18  S   UNL     1     -10.638  15.010  65.896  1.00  0.00    -0.349 S  
HETATM   19  S   UNL     1     -12.836  14.219  71.678  1.00  0.00    -0.367 S  
HETATM   20  C   UNL     1     -12.303  15.561  67.938  1.00  0.00     0.749 A  
HETATM   21  O   UNL     1     -12.025  14.978  72.843  1.00  0.00    -0.343 OA 
HETATM   22  O   UNL     1     -14.179  14.755  71.725  1.00  0.00    -0.441 OA 
HETATM   23  O   UNL     1     -12.572  12.800  71.782  1.00  0.00    -0.168 OA 
HETATM   24  C   UNL     1     -11.014  15.074  67.633  1.00  0.00    -0.305 A  
ENDBRANCH  10  11
BRANCH  10  25
HETATM   25  C   UNL     1      -7.723  14.861  68.391  1.00  0.00    -0.115 A  
HETATM   26  C   UNL     1      -7.306  15.573  67.179  1.00  0.00    -0.226 A  
HETATM   27  C   UNL     1      -6.830  15.045  69.544  1.00  0.00    -0.174 A  
HETATM   28  C   UNL     1      -6.071  16.147  69.664  1.00  0.00    -0.181 A  
HETATM   29  C   UNL     1      -6.526  16.665  67.246  1.00  0.00    -0.215 A  
HETATM   30  C   UNL     1      -6.089  17.195  68.584  1.00  0.00    -0.153 A  
BRANCH  30  31
HETATM   31  N   UNL     1      -5.748  18.441  68.787  1.00  0.00    -0.193 NA 
BRANCH  31  32
HETATM   32  C   UNL     1      -6.133  19.564  67.840  1.00  0.00    -0.209 C  
HETATM   33  C   UNL     1      -7.635  19.764  67.791  1.00  0.00    -0.321 C  
ENDBRANCH  31  32
BRANCH  31  34
HETATM   34  C   UNL     1      -5.134  18.914  70.091  1.00  0.00    -0.200 C  
HETATM   35  C   UNL     1      -5.884  20.112  70.642  1.00  0.00    -0.372 C  
ENDBRANCH  31  34
ENDBRANCH  30  31
ENDBRANCH  10  25
ENDBRANCH   9  10
ENDBRANCH   3   4
BRANCH   3  36
HETATM   36  C   UNL     1      -7.744   7.551  68.965  1.00  0.00    -0.117 C  
HETATM   37  C   UNL     1      -8.537   8.060  70.159  1.00  0.00    -0.130 C  
ENDBRANCH   3  36
ENDBRANCH   2   3
TORSDOF 9
ENDMDL
MODEL       67
REMARK 921   NORMALIZED FREE ENERGY PREDICTED BY IDOCK:   -3.55 KCAL/MOL
REMARK 922        TOTAL FREE ENERGY PREDICTED BY IDOCK:   -7.74 KCAL/MOL
REMARK 923 INTER-LIGAND FREE ENERGY PREDICTED BY IDOCK:   -7.62 KCAL/MOL
REMARK 924 INTRA-LIGAND FREE ENERGY PREDICTED BY IDOCK:   -0.12 KCAL/MOL
REMARK 927      BINDING AFFINITY PREDICTED BY RF-SCORE:    0.00 PKD
ROOT
HETATM    1  C   UNL     1      -9.164   4.611  74.100  1.00  0.00    -0.116 C  
HETATM    2  C   UNL     1     -10.002   4.519  72.835  1.00  0.00    -0.152 C  
ENDROOT
BRANCH   2   3
HETATM    3  N   UNL     1     -10.438   5.852  72.386  1.00  0.00    -0.200 NA 
BRANCH   3   4
HETATM    4  C   UNL     1     -10.172   6.239  71.076  1.00  0.00    -0.192 A  
HETATM    5  C   UNL     1     -11.027   5.974  69.999  1.00  0.00    -0.450 A  
HETATM    6  C   UNL     1      -9.013   6.967  70.762  1.00  0.00    -0.150 A  
HETATM    7  C   UNL     1     -10.800   6.526  68.717  1.00  0.00    -0.357 A  
HETATM    8  C   UNL     1      -8.764   7.507  69.487  1.00  0.00    -0.137 A  
HETATM    9  C   UNL     1      -9.691   7.343  68.457  1.00  0.00    -0.152 A  
BRANCH   9  10
HETATM   10  C   UNL     1      -9.558   8.081  67.151  1.00  0.00    -0.227 C  
BRANCH  10  11
HETATM   11  C   UNL     1      -8.540   7.603  66.146  1.00  0.00    -0.160 A  
HETATM   12  O   UNL     1     -10.834   5.529  66.318  1.00  0.00    -0.232 OA 
HETATM   13  O   UNL     1      -8.889   4.078  67.043  1.00  0.00    -0.112 OA 
HETATM   14  C   UNL     1      -7.716   8.576  65.544  1.00  0.00    -0.093 A  
HETATM   15  C   UNL     1      -6.813   8.223  64.525  1.00  0.00    -0.068 A  
HETATM   16  O   UNL     1      -9.625   4.134  64.712  1.00  0.00    -0.159 OA 
HETATM   17  C   UNL     1      -6.597   6.894  64.177  1.00  0.00    -0.042 A  
HETATM   18  S   UNL     1      -9.523   4.966  66.093  1.00  0.00    -0.174 S  
HETATM   19  S   UNL     1      -6.105   9.505  63.526  1.00  0.00    -0.100 S  
HETATM   20  C   UNL     1      -7.370   5.916  64.786  1.00  0.00    -0.069 A  
HETATM   21  O   UNL     1      -5.186  10.349  64.543  1.00  0.00    -0.107 OA 
HETATM   22  O   UNL     1      -5.187   8.899  62.585  1.00  0.00    -0.069 OA 
HETATM   23  O   UNL     1      -7.204  10.342  63.096  1.00  0.00    -0.135 OA 
HETATM   24  C   UNL     1      -8.374   6.269  65.714  1.00  0.00    -0.145 A  
ENDBRANCH  10  11
BRANCH  10  25
HETATM   25  C   UNL     1     -10.228   9.258  66.946  1.00  0.00    -0.327 A  
HETATM   26  C   UNL     1     -11.115   9.854  67.948  1.00  0.00    -0.216 A  
HETATM   27  C   UNL     1     -10.216   9.952  65.650  1.00  0.00    -0.229 A  
HETATM   28  C   UNL     1     -10.514  11.259  65.563  1.00  0.00    -0.323 A  
HETATM   29  C   UNL     1     -11.463  11.150  67.888  1.00  0.00    -0.359 A  
HETATM   30  C   UNL     1     -10.915  12.025  66.794  1.00  0.00    -0.285 A  
BRANCH  30  31
HETATM   31  N   UNL     1     -10.807  13.324  66.898  1.00  0.00    -0.275 NA 
BRANCH  31  32
HETATM   32  C   UNL     1      -9.561  14.082  66.470  1.00  0.00    -0.293 C  
HETATM   33  C   UNL     1      -8.391  13.802  67.393  1.00  0.00    -0.201 C  
ENDBRANCH  31  32
BRANCH  31  34
HETATM   34  C   UNL     1     -11.985  14.215  67.242  1.00  0.00    -0.414 C  
HETATM   35  C   UNL     1     -11.866  14.752  68.656  1.00  0.00    -0.334 C  
ENDBRANCH  31  34
ENDBRANCH  30  31
ENDBRANCH  10  25
ENDBRANCH   9  10
ENDBRANCH   3   4
BRANCH   3  36
HETATM   36  C   UNL     1     -10.874   6.782  73.436  1.00  0.00    -0.253 C  
HETATM   37  C   UNL     1     -11.190   8.142  72.832  1.00  0.00    -0.312 C  
ENDBRANCH   3  36
ENDBRANCH   2   3
TORSDOF 9
ENDMDL
MODEL       68
REMARK 921   NORMALIZED FREE ENERGY PREDICTED BY IDOCK:   -3.46 KCAL/MOL
REMARK 922        TOTAL FREE ENERGY PREDICTED BY IDOCK:   -7.60 KCAL/MOL
REMARK 923 INTER-LIGAND FREE ENERGY PREDICTED BY IDOCK:   -8.19 KCAL/MOL
REMARK 924 INTRA-LIGAND FREE ENERGY PREDICTED BY IDOCK:    0.60 KCAL/MOL
REMARK 927      BINDING AFFINITY PREDICTED BY RF-SCORE:    0.00 PKD
ROOT
HETATM    1  C   UNL     1      -5.916   7.372  66.253  1.00  0.00    -0.037 C  
HETATM    2  C   UNL     1      -5.134   8.037  65.131  1.00  0.00    -0.028 C  
ENDROOT
BRANCH   2   3
HETATM    3  N   UNL     1      -5.942   9.067  64.456  1.00  0.00    -0.065 NA 
BRANCH   3   4
HETATM    4  C   UNL     1      -7.080   9.551  65.094  1.00  0.00    -0.104 A  
HETATM    5  C   UNL     1      -8.322   8.904  65.066  1.00  0.00    -0.174 A  
HETATM    6  C   UNL     1      -7.032  10.734  65.850  1.00  0.00    -0.079 A  
HETATM    7  C   UNL     1      -9.406   9.343  65.861  1.00  0.00    -0.290 A  
HETATM    8  C   UNL     1      -8.109  11.192  66.633  1.00  0.00    -0.159 A  
HETATM    9  C   UNL     1      -9.297  10.464  66.694  1.00  0.00    -0.185 A  
BRANCH   9  10
HETATM   10  C   UNL     1     -10.384  10.810  67.678  1.00  0.00    -0.236 C  
BRANCH  10  11
HETATM   11  C   UNL     1     -10.934  12.215  67.688  1.00  0.00    -0.289 A  
HETATM   12  O   UNL     1     -11.632  10.880  64.981  1.00  0.00     0.397 OA 
HETATM   13  O   UNL     1     -10.231  12.822  64.155  1.00  0.00    -0.384 OA 
HETATM   14  C   UNL     1     -11.185  12.804  68.944  1.00  0.00    -0.332 A  
HETATM   15  C   UNL     1     -11.792  14.070  69.036  1.00  0.00    -0.354 A  
HETATM   16  O   UNL     1     -12.668  12.980  64.271  1.00  0.00    -0.653 OA 
HETATM   17  C   UNL     1     -12.034  14.842  67.905  1.00  0.00    -0.260 A  
HETATM   18  S   UNL     1     -11.350  12.295  64.905  1.00  0.00    -0.331 S  
HETATM   19  S   UNL     1     -12.455  14.591  70.596  1.00  0.00    -0.363 S  
HETATM   20  C   UNL     1     -11.758  14.296  66.660  1.00  0.00    -0.417 A  
HETATM   21  O   UNL     1     -11.168  14.739  71.552  1.00  0.00    -0.182 OA 
HETATM   22  O   UNL     1     -12.984  15.929  70.446  1.00  0.00    -0.383 OA 
HETATM   23  O   UNL     1     -13.265  13.495  71.083  1.00  0.00    -0.254 OA 
HETATM   24  C   UNL     1     -11.273  12.975  66.547  1.00  0.00    -0.302 A  
ENDBRANCH  10  11
BRANCH  10  25
HETATM   25  C   UNL     1     -10.749   9.921  68.653  1.00  0.00    -0.256 A  
HETATM   26  C   UNL     1     -10.730   8.469  68.453  1.00  0.00    -0.084 A  
HETATM   27  C   UNL     1     -11.319  10.354  69.936  1.00  0.00    -0.370 A  
HETATM   28  C   UNL     1     -11.295   9.548  71.011  1.00  0.00    -0.423 A  
HETATM   29  C   UNL     1     -10.731   7.623  69.497  1.00  0.00    -0.211 A  
HETATM   30  C   UNL     1     -10.723   8.161  70.901  1.00  0.00    -0.221 A  
BRANCH  30  31
HETATM   31  N   UNL     1     -10.271   7.487  71.927  1.00  0.00    -0.186 NA 
BRANCH  31  32
HETATM   32  C   UNL     1     -11.093   6.427  72.641  1.00  0.00    -0.261 C  
HETATM   33  C   UNL     1     -10.464   6.027  73.961  1.00  0.00    -0.272 C  
ENDBRANCH  31  32
BRANCH  31  34
HETATM   34  C   UNL     1      -8.818   7.538  72.359  1.00  0.00    -0.127 C  
HETATM   35  C   UNL     1      -7.928   7.990  71.218  1.00  0.00    -0.097 C  
ENDBRANCH  31  34
ENDBRANCH  30  31
ENDBRANCH  10  25
ENDBRANCH   9  10
ENDBRANCH   3   4
BRANCH   3  36
HETATM   36  C   UNL     1      -5.641   9.305  63.039  1.00  0.00    -0.080 C  
HETATM   37  C   UNL     1      -6.315  10.585  62.569  1.00  0.00    -0.143 C  
ENDBRANCH   3  36
ENDBRANCH   2   3
TORSDOF 9
ENDMDL
MODEL       69
REMARK 921   NORMALIZED FREE ENERGY PREDICTED BY IDOCK:   -3.42 KCAL/MOL
REMARK 922        TOTAL FREE ENERGY PREDICTED BY IDOCK:   -7.55 KCAL/MOL
REMARK 923 INTER-LIGAND FREE ENERGY PREDICTED BY IDOCK:   -6.89 KCAL/MOL
REMARK 924 INTRA-LIGAND FREE ENERGY PREDICTED BY IDOCK:   -0.66 KCAL/MOL
REMARK 927      BINDING AFFINITY PREDICTED BY RF-SCORE:    0.00 PKD
ROOT
HETATM    1  C   UNL     1      -6.900   5.063  64.142  1.00  0.00    -0.048 C  
HETATM    2  C   UNL     1      -7.565   6.425  64.267  1.00  0.00    -0.099 C  
ENDROOT
BRANCH   2   3
HETATM    3  N   UNL     1      -8.516   6.453  65.392  1.00  0.00    -0.147 NA 
BRANCH   3   4
HETATM    4  C   UNL     1      -8.869   7.682  65.941  1.00  0.00    -0.130 A  
HETATM    5  C   UNL     1     -10.186   8.046  66.248  1.00  0.00     0.086 A  
HETATM    6  C   UNL     1      -7.889   8.637  66.256  1.00  0.00    -0.102 A  
HETATM    7  C   UNL     1     -10.483   9.235  66.954  1.00  0.00    -0.284 A  
HETATM    8  C   UNL     1      -8.171   9.832  66.944  1.00  0.00    -0.117 A  
HETATM    9  C   UNL     1      -9.472  10.119  67.356  1.00  0.00    -0.175 A  
BRANCH   9  10
HETATM   10  C   UNL     1      -9.772  11.278  68.271  1.00  0.00    -0.199 C  
BRANCH  10  11
HETATM   11  C   UNL     1     -10.726  11.068  69.420  1.00  0.00    -0.247 A  
HETATM   12  O   UNL     1      -8.340   9.116  69.723  1.00  0.00    -0.116 OA 
HETATM   13  O   UNL     1     -10.237   7.449  69.537  1.00  0.00    -0.193 OA 
HETATM   14  C   UNL     1     -11.573  12.140  69.766  1.00  0.00    -0.334 A  
HETATM   15  C   UNL     1     -12.417  12.058  70.888  1.00  0.00    -0.288 A  
HETATM   16  O   UNL     1      -9.414   8.191  71.717  1.00  0.00    -0.159 OA 
HETATM   17  C   UNL     1     -12.553  10.877  71.607  1.00  0.00    -0.431 A  
HETATM   18  S   UNL     1      -9.612   8.592  70.164  1.00  0.00    -0.172 S  
HETATM   19  S   UNL     1     -13.149  13.545  71.520  1.00  0.00    -0.311 S  
HETATM   20  C   UNL     1     -11.756   9.795  71.260  1.00  0.00    -0.472 A  
HETATM   21  O   UNL     1     -14.147  14.031  70.355  1.00  0.00     0.898 OA 
HETATM   22  O   UNL     1     -13.997  13.198  72.640  1.00  0.00    -0.708 OA 
HETATM   23  O   UNL     1     -12.076  14.509  71.640  1.00  0.00    -0.342 OA 
HETATM   24  C   UNL     1     -10.808   9.906  70.220  1.00  0.00    -0.310 A  
ENDBRANCH  10  11
BRANCH  10  25
HETATM   25  C   UNL     1      -9.323  12.536  67.971  1.00  0.00    -0.205 A  
HETATM   26  C   UNL     1      -9.558  13.177  66.674  1.00  0.00    -0.260 A  
HETATM   27  C   UNL     1      -8.450  13.294  68.878  1.00  0.00     0.247 A  
HETATM   28  C   UNL     1      -8.347  14.631  68.783  1.00  0.00    -0.163 A  
HETATM   29  C   UNL     1      -9.442  14.507  66.523  1.00  0.00    -0.310 A  
HETATM   30  C   UNL     1      -9.093  15.369  67.705  1.00  0.00    -0.182 A  
BRANCH  30  31
HETATM   31  N   UNL     1      -9.399  16.638  67.784  1.00  0.00    -0.221 NA 
BRANCH  31  32
HETATM   32  C   UNL     1     -10.735  17.130  68.314  1.00  0.00    -0.363 C  
HETATM   33  C   UNL     1     -11.752  16.008  68.395  1.00  0.00    -0.196 C  
ENDBRANCH  31  32
BRANCH  31  34
HETATM   34  C   UNL     1      -8.377  17.738  67.569  1.00  0.00    -0.226 C  
HETATM   35  C   UNL     1      -7.816  17.691  66.161  1.00  0.00    -0.269 C  
ENDBRANCH  31  34
ENDBRANCH  30  31
ENDBRANCH  10  25
ENDBRANCH   9  10
ENDBRANCH   3   4
BRANCH   3  36
HETATM   36  C   UNL     1      -8.806   5.163  66.031  1.00  0.00    -0.137 C  
HETATM   37  C   UNL     1     -10.133   4.616  65.528  1.00  0.00    -0.204 C  
ENDBRANCH   3  36
ENDBRANCH   2   3
TORSDOF 9
ENDMDL
MODEL       70
REMARK 921   NORMALIZED FREE ENERGY PREDICTED BY IDOCK:   -3.42 KCAL/MOL
REMARK 922        TOTAL FREE ENERGY PREDICTED BY IDOCK:   -7.54 KCAL/MOL
REMARK 923 INTER-LIGAND FREE ENERGY PREDICTED BY IDOCK:   -6.13 KCAL/MOL
REMARK 924 INTRA-LIGAND FREE ENERGY PREDICTED BY IDOCK:   -1.41 KCAL/MOL
REMARK 927      BINDING AFFINITY PREDICTED BY RF-SCORE:    0.00 PKD
ROOT
HETATM    1  C   UNL     1     -10.700   4.694  66.027  1.00  0.00    -0.126 C  
HETATM    2  C   UNL     1      -9.440   4.150  65.372  1.00  0.00    -0.173 C  
ENDROOT
BRANCH   2   3
HETATM    3  N   UNL     1      -8.575   5.241  64.893  1.00  0.00    -0.150 NA 
BRANCH   3   4
HETATM    4  C   UNL     1      -8.394   6.359  65.702  1.00  0.00    -0.147 A  
HETATM    5  C   UNL     1      -9.008   7.596  65.466  1.00  0.00     0.042 A  
HETATM    6  C   UNL     1      -7.590   6.293  66.851  1.00  0.00    -0.099 A  
HETATM    7  C   UNL     1      -8.928   8.655  66.401  1.00  0.00    -0.197 A  
HETATM    8  C   UNL     1      -7.487   7.344  67.781  1.00  0.00    -0.101 A  
HETATM    9  C   UNL     1      -8.208   8.523  67.596  1.00  0.00    -0.118 A  
BRANCH   9  10
HETATM   10  C   UNL     1      -8.286   9.577  68.670  1.00  0.00    -0.117 C  
BRANCH  10  11
HETATM   11  C   UNL     1      -9.224   9.361  69.832  1.00  0.00    -0.226 A  
HETATM   12  O   UNL     1     -10.763  10.779  67.547  1.00  0.00    -0.226 OA 
HETATM   13  O   UNL     1     -10.987  12.527  69.365  1.00  0.00    -0.133 OA 
HETATM   14  C   UNL     1      -8.912   8.324  70.733  1.00  0.00    -0.166 A  
HETATM   15  C   UNL     1      -9.789   7.995  71.783  1.00  0.00    -0.183 A  
HETATM   16  O   UNL     1     -12.735  10.858  68.993  1.00  0.00    -0.239 OA 
HETATM   17  C   UNL     1     -10.914   8.765  72.055  1.00  0.00    -0.438 A  
HETATM   18  S   UNL     1     -11.154  11.176  68.880  1.00  0.00    -0.261 S  
HETATM   19  S   UNL     1      -9.571   6.452  72.630  1.00  0.00    -0.146 S  
HETATM   20  C   UNL     1     -11.218   9.816  71.203  1.00  0.00    -0.444 A  
HETATM   21  O   UNL     1      -8.154   6.599  73.379  1.00  0.00    -0.107 OA 
HETATM   22  O   UNL     1     -10.560   6.363  73.683  1.00  0.00    -0.266 OA 
HETATM   23  O   UNL     1      -9.447   5.437  71.606  1.00  0.00    -0.145 OA 
HETATM   24  C   UNL     1     -10.420  10.075  70.068  1.00  0.00    -0.287 A  
ENDBRANCH  10  11
BRANCH  10  25
HETATM   25  C   UNL     1      -7.649  10.779  68.514  1.00  0.00    -0.104 A  
HETATM   26  C   UNL     1      -7.743  11.576  67.288  1.00  0.00    -0.150 A  
HETATM   27  C   UNL     1      -6.708  11.303  69.513  1.00  0.00    -0.128 A  
HETATM   28  C   UNL     1      -6.409  12.613  69.562  1.00  0.00    -0.111 A  
HETATM   29  C   UNL     1      -7.430  12.883  67.281  1.00  0.00    -0.092 A  
HETATM   30  C   UNL     1      -7.002  13.559  68.554  1.00  0.00    -0.102 A  
BRANCH  30  31
HETATM   31  N   UNL     1      -7.123  14.845  68.762  1.00  0.00    -0.109 NA 
BRANCH  31  32
HETATM   32  C   UNL     1      -8.387  15.471  69.326  1.00  0.00    -0.257 C  
HETATM   33  C   UNL     1      -9.240  16.090  68.235  1.00  0.00    -0.191 C  
ENDBRANCH  31  32
BRANCH  31  34
HETATM   34  C   UNL     1      -5.948  15.799  68.672  1.00  0.00    -0.101 C  
HETATM   35  C   UNL     1      -5.470  16.204  70.053  1.00  0.00    -0.161 C  
ENDBRANCH  31  34
ENDBRANCH  30  31
ENDBRANCH  10  25
ENDBRANCH   9  10
ENDBRANCH   3   4
BRANCH   3  36
HETATM   36  C   UNL     1      -8.189   5.192  63.476  1.00  0.00    -0.114 C  
HETATM   37  C   UNL     1      -7.168   6.279  63.174  1.00  0.00    -0.057 C  
ENDBRANCH   3  36
ENDBRANCH   2   3
TORSDOF 9
ENDMDL
MODEL       71
REMARK 921   NORMALIZED FREE ENERGY PREDICTED BY IDOCK:   -3.37 KCAL/MOL
REMARK 922        TOTAL FREE ENERGY PREDICTED BY IDOCK:   -7.47 KCAL/MOL
REMARK 923 INTER-LIGAND FREE ENERGY PREDICTED BY IDOCK:   -6.85 KCAL/MOL
REMARK 924 INTRA-LIGAND FREE ENERGY PREDICTED BY IDOCK:   -0.62 KCAL/MOL
REMARK 927      BINDING AFFINITY PREDICTED BY RF-SCORE:    0.00 PKD
ROOT
HETATM    1  C   UNL     1      -8.899  20.311  67.192  1.00  0.00    -0.446 C  
HETATM    2  C   UNL     1      -8.967  19.401  68.408  1.00  0.00    -0.354 C  
ENDROOT
BRANCH   2   3
HETATM    3  N   UNL     1      -7.948  18.340  68.339  1.00  0.00    -0.299 NA 
BRANCH   3   4
HETATM    4  C   UNL     1      -8.362  17.012  68.340  1.00  0.00    -0.241 A  
HETATM    5  C   UNL     1      -8.217  16.153  69.437  1.00  0.00    -0.091 A  
HETATM    6  C   UNL     1      -8.996  16.455  67.216  1.00  0.00    -0.208 A  
HETATM    7  C   UNL     1      -8.798  14.863  69.452  1.00  0.00    -0.046 A  
HETATM    8  C   UNL     1      -9.563  15.167  67.211  1.00  0.00    -0.211 A  
HETATM    9  C   UNL     1      -9.522  14.373  68.357  1.00  0.00    -0.207 A  
BRANCH   9  10
HETATM   10  C   UNL     1     -10.298  13.085  68.452  1.00  0.00    -0.257 C  
BRANCH  10  11
HETATM   11  C   UNL     1     -11.169  12.849  69.661  1.00  0.00    -0.072 A  
HETATM   12  O   UNL     1     -12.091  15.447  68.248  1.00  0.00    -0.191 OA 
HETATM   13  O   UNL     1     -11.447  16.393  70.507  1.00  0.00    -0.328 OA 
HETATM   14  C   UNL     1     -11.275  11.526  70.136  1.00  0.00    -0.006 A  
HETATM   15  C   UNL     1     -12.145  11.210  71.195  1.00  0.00    -0.196 A  
HETATM   16  O   UNL     1     -13.756  15.757  70.014  1.00  0.00     0.377 OA 
HETATM   17  C   UNL     1     -12.820  12.201  71.899  1.00  0.00    -0.327 A  
HETATM   18  S   UNL     1     -12.199  15.469  69.688  1.00  0.00    -0.185 S  
HETATM   19  S   UNL     1     -12.554   9.509  71.489  1.00  0.00    -0.400 S  
HETATM   20  C   UNL     1     -12.699  13.515  71.472  1.00  0.00    -0.412 A  
HETATM   21  O   UNL     1     -11.167   8.835  71.951  1.00  0.00    -0.322 OA 
HETATM   22  O   UNL     1     -13.424   9.440  72.643  1.00  0.00    -0.413 OA 
HETATM   23  O   UNL     1     -12.932   8.952  70.208  1.00  0.00     0.694 OA 
HETATM   24  C   UNL     1     -11.933  13.831  70.329  1.00  0.00    -0.326 A  
ENDBRANCH  10  11
BRANCH  10  25
HETATM   25  C   UNL     1     -10.089  12.079  67.547  1.00  0.00    -0.205 A  
HETATM   26  C   UNL     1      -8.752  11.629  67.150  1.00  0.00    -0.164 A  
HETATM   27  C   UNL     1     -11.190  11.459  66.796  1.00  0.00    -0.319 A  
HETATM   28  C   UNL     1     -11.050  10.245  66.238  1.00  0.00     0.283 A  
HETATM   29  C   UNL     1      -8.564  10.434  66.566  1.00  0.00    -0.134 A  
HETATM   30  C   UNL     1      -9.735   9.519  66.333  1.00  0.00    -0.232 A  
BRANCH  30  31
HETATM   31  N   UNL     1      -9.621   8.222  66.216  1.00  0.00    -0.217 NA 
BRANCH  31  32
HETATM   32  C   UNL     1      -8.536   7.563  65.383  1.00  0.00    -0.094 C  
HETATM   33  C   UNL     1      -8.037   6.282  66.024  1.00  0.00    -0.119 C  
ENDBRANCH  31  32
BRANCH  31  34
HETATM   34  C   UNL     1     -10.415   7.254  67.073  1.00  0.00    -0.328 C  
HETATM   35  C   UNL     1     -10.313   7.619  68.542  1.00  0.00    -0.225 C  
ENDBRANCH  31  34
ENDBRANCH  30  31
ENDBRANCH  10  25
ENDBRANCH   9  10
ENDBRANCH   3   4
BRANCH   3  36
HETATM   36  C   UNL     1      -6.557  18.759  68.555  1.00  0.00    -0.243 C  
HETATM   37  C   UNL     1      -6.479  19.737  69.718  1.00  0.00    -0.382 C  
ENDBRANCH   3  36
ENDBRANCH   2   3
TORSDOF 9
ENDMDL
MODEL       72
REMARK 921   NORMALIZED FREE ENERGY PREDICTED BY IDOCK:   -3.34 KCAL/MOL
REMARK 922        TOTAL FREE ENERGY PREDICTED BY IDOCK:   -7.43 KCAL/MOL
REMARK 923 INTER-LIGAND FREE ENERGY PREDICTED BY IDOCK:   -7.52 KCAL/MOL
REMARK 924 INTRA-LIGAND FREE ENERGY PREDICTED BY IDOCK:    0.09 KCAL/MOL
REMARK 927      BINDING AFFINITY PREDICTED BY RF-SCORE:    0.00 PKD
ROOT
HETATM    1  C   UNL     1      -5.287  17.146  66.708  1.00  0.00    -0.205 C  
HETATM    2  C   UNL     1      -6.280  18.114  66.084  1.00  0.00    -0.215 C  
ENDROOT
BRANCH   2   3
HETATM    3  N   UNL     1      -7.513  18.203  66.884  1.00  0.00    -0.201 NA 
BRANCH   3   4
HETATM    4  C   UNL     1      -8.279  17.055  67.065  1.00  0.00    -0.204 A  
HETATM    5  C   UNL     1      -9.390  16.730  66.277  1.00  0.00    -0.310 A  
HETATM    6  C   UNL     1      -7.947  16.118  68.057  1.00  0.00    -0.150 A  
HETATM    7  C   UNL     1     -10.039  15.478  66.388  1.00  0.00    -0.301 A  
HETATM    8  C   UNL     1      -8.595  14.876  68.191  1.00  0.00    -0.159 A  
HETATM    9  C   UNL     1      -9.616  14.514  67.313  1.00  0.00    -0.226 A  
BRANCH   9  10
HETATM   10  C   UNL     1     -10.183  13.118  67.294  1.00  0.00    -0.243 C  
BRANCH  10  11
HETATM   11  C   UNL     1      -9.823  12.203  66.150  1.00  0.00    -0.254 A  
HETATM   12  O   UNL     1     -11.832  14.335  65.140  1.00  0.00    -0.353 OA 
HETATM   13  O   UNL     1     -13.175  12.235  64.696  1.00  0.00    -0.763 OA 
HETATM   14  C   UNL     1      -8.594  11.518  66.229  1.00  0.00    -0.133 A  
HETATM   15  C   UNL     1      -8.142  10.726  65.158  1.00  0.00     0.004 A  
HETATM   16  O   UNL     1     -11.802  13.251  62.947  1.00  0.00    -0.089 OA 
HETATM   17  C   UNL     1      -8.945  10.477  64.051  1.00  0.00    -0.235 A  
HETATM   18  S   UNL     1     -11.978  13.030  64.538  1.00  0.00    -0.422 S  
HETATM   19  S   UNL     1      -6.442  10.221  65.124  1.00  0.00    -0.098 S  
HETATM   20  C   UNL     1     -10.176  11.112  63.971  1.00  0.00    -0.419 A  
HETATM   21  O   UNL     1      -6.289   9.236  66.388  1.00  0.00    -0.064 OA 
HETATM   22  O   UNL     1      -6.234   9.391  63.957  1.00  0.00    -0.087 OA 
HETATM   23  O   UNL     1      -5.657  11.411  65.370  1.00  0.00    -0.085 OA 
HETATM   24  C   UNL     1     -10.586  12.014  64.976  1.00  0.00    -0.289 A  
ENDBRANCH  10  11
BRANCH  10  25
HETATM   25  C   UNL     1     -11.135  12.742  68.203  1.00  0.00    -0.288 A  
HETATM   26  C   UNL     1     -11.888  11.489  68.094  1.00  0.00    -0.306 A  
HETATM   27  C   UNL     1     -11.577  13.627  69.290  1.00  0.00    -0.363 A  
HETATM   28  C   UNL     1     -12.181  13.133  70.383  1.00  0.00    -0.389 A  
HETATM   29  C   UNL     1     -12.531  10.968  69.153  1.00  0.00     0.103 A  
HETATM   30  C   UNL     1     -12.461  11.658  70.488  1.00  0.00    -0.257 A  
BRANCH  30  31
HETATM   31  N   UNL     1     -12.636  11.040  71.627  1.00  0.00    -0.340 NA 
BRANCH  31  32
HETATM   32  C   UNL     1     -13.392  11.657  72.790  1.00  0.00     1.576 C  
HETATM   33  C   UNL     1     -14.029  12.979  72.405  1.00  0.00    -0.426 C  
ENDBRANCH  31  32
BRANCH  31  34
HETATM   34  C   UNL     1     -12.299   9.573  71.817  1.00  0.00    -0.394 C  
HETATM   35  C   UNL     1     -13.533   8.707  71.656  1.00  0.00    -0.392 C  
ENDBRANCH  31  34
ENDBRANCH  30  31
ENDBRANCH  10  25
ENDBRANCH   9  10
ENDBRANCH   3   4
BRANCH   3  36
HETATM   36  C   UNL     1      -7.989  19.556  67.200  1.00  0.00    -0.268 C  
HETATM   37  C   UNL     1      -7.961  19.783  68.704  1.00  0.00    -0.271 C  
ENDBRANCH   3  36
ENDBRANCH   2   3
TORSDOF 9
ENDMDL
MODEL       73
REMARK 921   NORMALIZED FREE ENERGY PREDICTED BY IDOCK:   -3.30 KCAL/MOL
REMARK 922        TOTAL FREE ENERGY PREDICTED BY IDOCK:   -7.37 KCAL/MOL
REMARK 923 INTER-LIGAND FREE ENERGY PREDICTED BY IDOCK:   -5.89 KCAL/MOL
REMARK 924 INTRA-LIGAND FREE ENERGY PREDICTED BY IDOCK:   -1.47 KCAL/MOL
REMARK 927      BINDING AFFINITY PREDICTED BY RF-SCORE:    0.00 PKD
ROOT
HETATM    1  C   UNL     1      -8.694  10.195  62.365  1.00  0.00    -0.238 C  
HETATM    2  C   UNL     1      -8.816   8.679  62.377  1.00  0.00    -0.025 C  
ENDROOT
BRANCH   2   3
HETATM    3  N   UNL     1      -8.009   8.088  63.457  1.00  0.00    -0.147 NA 
BRANCH   3   4
HETATM    4  C   UNL     1      -8.040   8.678  64.717  1.00  0.00    -0.149 A  
HETATM    5  C   UNL     1      -7.557   9.966  64.984  1.00  0.00    -0.134 A  
HETATM    6  C   UNL     1      -8.605   8.005  65.813  1.00  0.00    -0.174 A  
HETATM    7  C   UNL     1      -7.757  10.588  66.238  1.00  0.00    -0.135 A  
HETATM    8  C   UNL     1      -8.794   8.606  67.072  1.00  0.00    -0.143 A  
HETATM    9  C   UNL     1      -8.424   9.934  67.283  1.00  0.00    -0.121 A  
BRANCH   9  10
HETATM   10  C   UNL     1      -8.802  10.668  68.543  1.00  0.00    -0.148 C  
BRANCH  10  11
HETATM   11  C   UNL     1      -8.801  12.176  68.533  1.00  0.00    -0.079 A  
HETATM   12  O   UNL     1      -5.882  11.170  68.782  1.00  0.00    -0.043 OA 
HETATM   13  O   UNL     1      -6.072  12.474  70.945  1.00  0.00    -0.232 OA 
HETATM   14  C   UNL     1      -9.901  12.822  67.934  1.00  0.00    -0.223 A  
HETATM   15  C   UNL     1      -9.926  14.222  67.796  1.00  0.00    -0.227 A  
HETATM   16  O   UNL     1      -5.144  13.498  68.927  1.00  0.00    -0.066 OA 
HETATM   17  C   UNL     1      -8.944  15.024  68.366  1.00  0.00    -0.179 A  
HETATM   18  S   UNL     1      -6.167  12.388  69.504  1.00  0.00    -0.120 S  
HETATM   19  S   UNL     1     -11.106  14.954  66.692  1.00  0.00    -0.321 S  
HETATM   20  C   UNL     1      -7.871  14.409  68.996  1.00  0.00    -0.077 A  
HETATM   21  O   UNL     1     -12.535  14.634  67.361  1.00  0.00    -0.058 OA 
HETATM   22  O   UNL     1     -10.961  16.392  66.754  1.00  0.00    -0.163 OA 
HETATM   23  O   UNL     1     -11.007  14.225  65.446  1.00  0.00    -0.306 OA 
HETATM   24  C   UNL     1      -7.766  13.002  69.026  1.00  0.00     0.195 A  
ENDBRANCH  10  11
BRANCH  10  25
HETATM   25  C   UNL     1      -8.980   9.987  69.717  1.00  0.00    -0.209 A  
HETATM   26  C   UNL     1     -10.298   9.782  70.326  1.00  0.00    -0.348 A  
HETATM   27  C   UNL     1      -7.851   9.522  70.535  1.00  0.00    -0.182 A  
HETATM   28  C   UNL     1      -8.007   8.537  71.435  1.00  0.00    -0.168 A  
HETATM   29  C   UNL     1     -10.497   8.827  71.250  1.00  0.00    -0.326 A  
HETATM   30  C   UNL     1      -9.364   7.925  71.655  1.00  0.00    -0.148 A  
BRANCH  30  31
HETATM   31  N   UNL     1      -9.539   6.731  72.157  1.00  0.00    -0.147 NA 
BRANCH  31  32
HETATM   32  C   UNL     1      -8.895   5.488  71.568  1.00  0.00    -0.136 C  
HETATM   33  C   UNL     1      -9.285   5.290  70.116  1.00  0.00    -0.181 C  
ENDBRANCH  31  32
BRANCH  31  34
HETATM   34  C   UNL     1     -10.214   6.502  73.496  1.00  0.00    -0.263 C  
HETATM   35  C   UNL     1     -10.850   5.126  73.556  1.00  0.00    -0.360 C  
ENDBRANCH  31  34
ENDBRANCH  30  31
ENDBRANCH  10  25
ENDBRANCH   9  10
ENDBRANCH   3   4
BRANCH   3  36
HETATM   36  C   UNL     1      -7.016   7.084  63.054  1.00  0.00    -0.057 C  
HETATM   37  C   UNL     1      -5.635   7.716  62.975  1.00  0.00    -0.050 C  
ENDBRANCH   3  36
ENDBRANCH   2   3
TORSDOF 9
ENDMDL
MODEL       74
REMARK 921   NORMALIZED FREE ENERGY PREDICTED BY IDOCK:   -3.30 KCAL/MOL
REMARK 922        TOTAL FREE ENERGY PREDICTED BY IDOCK:   -7.36 KCAL/MOL
REMARK 923 INTER-LIGAND FREE ENERGY PREDICTED BY IDOCK:   -6.44 KCAL/MOL
REMARK 924 INTRA-LIGAND FREE ENERGY PREDICTED BY IDOCK:   -0.92 KCAL/MOL
REMARK 927      BINDING AFFINITY PREDICTED BY RF-SCORE:    0.00 PKD
ROOT
HETATM    1  C   UNL     1     -14.096  13.487  71.809  1.00  0.00    -0.111 C  
HETATM    2  C   UNL     1     -13.097  12.434  72.261  1.00  0.00    -0.197 C  
ENDROOT
BRANCH   2   3
HETATM    3  N   UNL     1     -12.825  11.462  71.188  1.00  0.00    -0.371 NA 
BRANCH   3   4
HETATM    4  C   UNL     1     -12.015  11.848  70.124  1.00  0.00    -0.332 A  
HETATM    5  C   UNL     1     -11.684  13.179  69.841  1.00  0.00    -0.327 A  
HETATM    6  C   UNL     1     -11.443  10.889  69.272  1.00  0.00    -0.372 A  
HETATM    7  C   UNL     1     -10.729  13.513  68.854  1.00  0.00    -0.228 A  
HETATM    8  C   UNL     1     -10.504  11.209  68.273  1.00  0.00    -0.215 A  
HETATM    9  C   UNL     1     -10.088  12.527  68.091  1.00  0.00    -0.225 A  
BRANCH   9  10
HETATM   10  C   UNL     1      -8.938  12.874  67.182  1.00  0.00    -0.219 C  
BRANCH  10  11
HETATM   11  C   UNL     1      -7.885  11.828  66.912  1.00  0.00    -0.141 A  
HETATM   12  O   UNL     1      -7.459  12.975  69.759  1.00  0.00     0.582 OA 
HETATM   13  O   UNL     1      -5.247  13.614  68.703  1.00  0.00    -0.075 OA 
HETATM   14  C   UNL     1      -8.176  10.849  65.942  1.00  0.00    -0.133 A  
HETATM   15  C   UNL     1      -7.288   9.783  65.706  1.00  0.00    -0.105 A  
HETATM   16  O   UNL     1      -5.486  11.545  69.985  1.00  0.00    -0.073 OA 
HETATM   17  C   UNL     1      -6.038   9.734  66.312  1.00  0.00    -0.064 A  
HETATM   18  S   UNL     1      -6.245  12.628  69.056  1.00  0.00    -0.097 S  
HETATM   19  S   UNL     1      -7.863   8.375  64.794  1.00  0.00    -0.135 S  
HETATM   20  C   UNL     1      -5.715  10.710  67.243  1.00  0.00    -0.045 A  
HETATM   21  O   UNL     1      -8.145   8.941  63.314  1.00  0.00    -0.156 OA 
HETATM   22  O   UNL     1      -6.766   7.442  64.651  1.00  0.00    -0.045 OA 
HETATM   23  O   UNL     1      -9.126   7.990  65.387  1.00  0.00    -0.021 OA 
HETATM   24  C   UNL     1      -6.649  11.711  67.587  1.00  0.00    -0.082 A  
ENDBRANCH  10  11
BRANCH  10  25
HETATM   25  C   UNL     1      -8.760  14.158  66.743  1.00  0.00    -0.148 A  
HETATM   26  C   UNL     1      -9.617  14.779  65.729  1.00  0.00    -0.289 A  
HETATM   27  C   UNL     1      -7.611  14.977  67.155  1.00  0.00    -0.174 A  
HETATM   28  C   UNL     1      -7.647  16.317  67.063  1.00  0.00    -0.250 A  
HETATM   29  C   UNL     1      -9.667  16.113  65.581  1.00  0.00    -0.239 A  
HETATM   30  C   UNL     1      -8.856  17.000  66.484  1.00  0.00    -0.264 A  
BRANCH  30  31
HETATM   31  N   UNL     1      -9.166  18.246  66.736  1.00  0.00    -0.280 NA 
BRANCH  31  32
HETATM   32  C   UNL     1      -8.411  19.419  66.134  1.00  0.00    -0.300 C  
HETATM   33  C   UNL     1      -7.098  18.981  65.515  1.00  0.00    -0.182 C  
ENDBRANCH  31  32
BRANCH  31  34
HETATM   34  C   UNL     1     -10.436  18.638  67.467  1.00  0.00    -0.428 C  
HETATM   35  C   UNL     1     -10.193  18.745  68.960  1.00  0.00    -0.181 C  
ENDBRANCH  31  34
ENDBRANCH  30  31
ENDBRANCH  10  25
ENDBRANCH   9  10
ENDBRANCH   3   4
BRANCH   3  36
HETATM   36  C   UNL     1     -13.654  10.250  71.181  1.00  0.00    -0.012 C  
HETATM   37  C   UNL     1     -13.362   9.409  72.414  1.00  0.00    -0.503 C  
ENDBRANCH   3  36
ENDBRANCH   2   3
TORSDOF 9
ENDMDL
MODEL       75
REMARK 921   NORMALIZED FREE ENERGY PREDICTED BY IDOCK:   -3.21 KCAL/MOL
REMARK 922        TOTAL FREE ENERGY PREDICTED BY IDOCK:   -7.22 KCAL/MOL
REMARK 923 INTER-LIGAND FREE ENERGY PREDICTED BY IDOCK:   -5.90 KCAL/MOL
REMARK 924 INTRA-LIGAND FREE ENERGY PREDICTED BY IDOCK:   -1.32 KCAL/MOL
REMARK 927      BINDING AFFINITY PREDICTED BY RF-SCORE:    0.00 PKD
ROOT
HETATM    1  C   UNL     1      -6.415   6.319  74.534  1.00  0.00    -0.074 C  
HETATM    2  C   UNL     1      -7.231   5.635  73.448  1.00  0.00    -0.087 C  
ENDROOT
BRANCH   2   3
HETATM    3  N   UNL     1      -8.492   6.353  73.196  1.00  0.00    -0.119 NA 
BRANCH   3   4
HETATM    4  C   UNL     1      -8.664   6.998  71.975  1.00  0.00    -0.123 A  
HETATM    5  C   UNL     1      -9.527   6.543  70.970  1.00  0.00    -0.171 A  
HETATM    6  C   UNL     1      -7.985   8.195  71.692  1.00  0.00    -0.144 A  
HETATM    7  C   UNL     1      -9.795   7.314  69.816  1.00  0.00    -0.177 A  
HETATM    8  C   UNL     1      -8.229   8.964  70.539  1.00  0.00    -0.160 A  
HETATM    9  C   UNL     1      -9.187   8.560  69.610  1.00  0.00    -0.157 A  
BRANCH   9  10
HETATM   10  C   UNL     1      -9.620   9.459  68.482  1.00  0.00    -0.154 C  
BRANCH  10  11
HETATM   11  C   UNL     1      -8.891   9.375  67.164  1.00  0.00    -0.138 A  
HETATM   12  O   UNL     1      -7.762  11.759  68.789  1.00  0.00    -0.130 OA 
HETATM   13  O   UNL     1      -8.625  12.996  66.755  1.00  0.00    -0.162 OA 
HETATM   14  C   UNL     1      -8.867   8.125  66.514  1.00  0.00    -0.173 A  
HETATM   15  C   UNL     1      -8.123   7.941  65.334  1.00  0.00    -0.130 A  
HETATM   16  O   UNL     1      -6.291  12.282  66.905  1.00  0.00    -0.141 OA 
HETATM   17  C   UNL     1      -7.506   9.009  64.693  1.00  0.00    -0.103 A  
HETATM   18  S   UNL     1      -7.809  11.967  67.360  1.00  0.00    -0.167 S  
HETATM   19  S   UNL     1      -7.788   6.290  64.781  1.00  0.00    -0.113 S  
HETATM   20  C   UNL     1      -7.551  10.258  65.296  1.00  0.00    -0.143 A  
HETATM   21  O   UNL     1      -9.231   5.694  64.392  1.00  0.00     0.291 OA 
HETATM   22  O   UNL     1      -7.049   6.363  63.539  1.00  0.00    -0.048 OA 
HETATM   23  O   UNL     1      -7.286   5.567  65.930  1.00  0.00    -0.075 OA 
HETATM   24  C   UNL     1      -8.180  10.429  66.548  1.00  0.00    -0.131 A  
ENDBRANCH  10  11
BRANCH  10  25
HETATM   25  C   UNL     1     -10.544  10.448  68.695  1.00  0.00    -0.234 A  
HETATM   26  C   UNL     1     -11.126  10.722  70.012  1.00  0.00    -0.327 A  
HETATM   27  C   UNL     1     -11.128  11.227  67.594  1.00  0.00    -0.336 A  
HETATM   28  C   UNL     1     -11.697  12.423  67.819  1.00  0.00    -0.413 A  
HETATM   29  C   UNL     1     -11.729  11.894  70.276  1.00  0.00    -0.293 A  
HETATM   30  C   UNL     1     -11.789  12.963  69.220  1.00  0.00    -0.309 A  
BRANCH  30  31
HETATM   31  N   UNL     1     -11.918  14.235  69.492  1.00  0.00    -0.318 NA 
BRANCH  31  32
HETATM   32  C   UNL     1     -10.773  15.225  69.359  1.00  0.00    -0.265 C  
HETATM   33  C   UNL     1     -10.601  15.693  67.927  1.00  0.00    -0.278 C  
ENDBRANCH  31  32
BRANCH  31  34
HETATM   34  C   UNL     1     -13.266  14.881  69.747  1.00  0.00     0.639 C  
HETATM   35  C   UNL     1     -13.536  15.006  71.234  1.00  0.00    -0.520 C  
ENDBRANCH  31  34
ENDBRANCH  30  31
ENDBRANCH  10  25
ENDBRANCH   9  10
ENDBRANCH   3   4
BRANCH   3  36
HETATM   36  C   UNL     1      -9.361   6.569  74.360  1.00  0.00    -0.222 C  
HETATM   37  C   UNL     1     -10.399   5.461  74.451  1.00  0.00    -0.293 C  
ENDBRANCH   3  36
ENDBRANCH   2   3
TORSDOF 9
ENDMDL
MODEL       76
REMARK 921   NORMALIZED FREE ENERGY PREDICTED BY IDOCK:   -3.20 KCAL/MOL
REMARK 922        TOTAL FREE ENERGY PREDICTED BY IDOCK:   -7.21 KCAL/MOL
REMARK 923 INTER-LIGAND FREE ENERGY PREDICTED BY IDOCK:   -5.20 KCAL/MOL
REMARK 924 INTRA-LIGAND FREE ENERGY PREDICTED BY IDOCK:   -2.01 KCAL/MOL
REMARK 927      BINDING AFFINITY PREDICTED BY RF-SCORE:    0.00 PKD
ROOT
HETATM    1  C   UNL     1      -6.918  14.237  68.976  1.00  0.00    -0.112 C  
HETATM    2  C   UNL     1      -7.793  14.302  67.734  1.00  0.00    -0.165 C  
ENDROOT
BRANCH   2   3
HETATM    3  N   UNL     1      -9.016  13.498  67.901  1.00  0.00    -0.190 NA 
BRANCH   3   4
HETATM    4  C   UNL     1      -8.915  12.110  67.875  1.00  0.00    -0.184 A  
HETATM    5  C   UNL     1      -8.043  11.379  68.692  1.00  0.00    -0.141 A  
HETATM    6  C   UNL     1      -9.731  11.346  67.025  1.00  0.00    -0.210 A  
HETATM    7  C   UNL     1      -8.090   9.967  68.751  1.00  0.00    -0.102 A  
HETATM    8  C   UNL     1      -9.776   9.939  67.061  1.00  0.00    -0.230 A  
HETATM    9  C   UNL     1      -8.994   9.231  67.972  1.00  0.00    -0.128 A  
BRANCH   9  10
HETATM   10  C   UNL     1      -9.172   7.750  68.181  1.00  0.00    -0.138 C  
BRANCH  10  11
HETATM   11  C   UNL     1      -8.843   7.161  69.530  1.00  0.00    -0.137 A  
HETATM   12  O   UNL     1     -11.701   8.352  69.621  1.00  0.00     0.362 OA 
HETATM   13  O   UNL     1     -10.591   9.762  71.408  1.00  0.00    -0.233 OA 
HETATM   14  C   UNL     1      -7.859   6.153  69.576  1.00  0.00    -0.100 A  
HETATM   15  C   UNL     1      -7.569   5.485  70.780  1.00  0.00    -0.090 A  
HETATM   16  O   UNL     1     -11.829   7.734  71.985  1.00  0.00    -0.283 OA 
HETATM   17  C   UNL     1      -8.133   5.887  71.985  1.00  0.00    -0.108 A  
HETATM   18  S   UNL     1     -10.952   8.478  70.850  1.00  0.00    -0.260 S  
HETATM   19  S   UNL     1      -6.641   3.975  70.720  1.00  0.00    -0.032 S  
HETATM   20  C   UNL     1      -9.077   6.904  71.968  1.00  0.00    -0.141 A  
HETATM   21  O   UNL     1      -5.185   4.417  70.195  1.00  0.00     0.000 OA 
HETATM   22  O   UNL     1      -6.441   3.506  72.073  1.00  0.00    -0.014 OA 
HETATM   23  O   UNL     1      -7.265   3.152  69.706  1.00  0.00    -0.041 OA 
HETATM   24  C   UNL     1      -9.475   7.493  70.749  1.00  0.00    -0.163 A  
ENDBRANCH  10  11
BRANCH  10  25
HETATM   25  C   UNL     1      -9.465   6.929  67.125  1.00  0.00    -0.168 A  
HETATM   26  C   UNL     1      -8.614   6.827  65.935  1.00  0.00    -0.153 A  
HETATM   27  C   UNL     1     -10.728   6.182  67.038  1.00  0.00    -0.423 A  
HETATM   28  C   UNL     1     -10.841   5.103  66.246  1.00  0.00    -0.180 A  
HETATM   29  C   UNL     1      -8.709   5.780  65.099  1.00  0.00    -0.070 A  
HETATM   30  C   UNL     1      -9.681   4.670  65.391  1.00  0.00    -0.162 A  
BRANCH  30  31
HETATM   31  N   UNL     1      -9.537   3.451  64.940  1.00  0.00    -0.158 NA 
BRANCH  31  32
HETATM   32  C   UNL     1      -9.864   3.059  63.509  1.00  0.00    -0.129 C  
HETATM   33  C   UNL     1     -10.520   1.694  63.439  1.00  0.00    -0.140 C  
ENDBRANCH  31  32
BRANCH  31  34
HETATM   34  C   UNL     1      -8.824   2.370  65.730  1.00  0.00    -0.128 C  
HETATM   35  C   UNL     1      -9.286   2.357  67.174  1.00  0.00    -0.127 C  
ENDBRANCH  31  34
ENDBRANCH  30  31
ENDBRANCH  10  25
ENDBRANCH   9  10
ENDBRANCH   3   4
BRANCH   3  36
HETATM   36  C   UNL     1     -10.289  14.223  67.804  1.00  0.00    -0.238 C  
HETATM   37  C   UNL     1     -10.938  14.328  69.176  1.00  0.00    -0.286 C  
ENDBRANCH   3  36
ENDBRANCH   2   3
TORSDOF 9
ENDMDL
MODEL       77
REMARK 921   NORMALIZED FREE ENERGY PREDICTED BY IDOCK:   -3.16 KCAL/MOL
REMARK 922        TOTAL FREE ENERGY PREDICTED BY IDOCK:   -7.15 KCAL/MOL
REMARK 923 INTER-LIGAND FREE ENERGY PREDICTED BY IDOCK:   -5.18 KCAL/MOL
REMARK 924 INTRA-LIGAND FREE ENERGY PREDICTED BY IDOCK:   -1.97 KCAL/MOL
REMARK 927      BINDING AFFINITY PREDICTED BY RF-SCORE:    0.00 PKD
ROOT
HETATM    1  C   UNL     1      -8.781   2.382  64.997  1.00  0.00    -0.113 C  
HETATM    2  C   UNL     1      -9.344   3.588  64.260  1.00  0.00    -0.138 C  
ENDROOT
BRANCH   2   3
HETATM    3  N   UNL     1      -8.373   4.695  64.230  1.00  0.00    -0.113 NA 
BRANCH   3   4
HETATM    4  C   UNL     1      -8.331   5.578  65.305  1.00  0.00    -0.144 A  
HETATM    5  C   UNL     1      -7.158   6.196  65.757  1.00  0.00    -0.073 A  
HETATM    6  C   UNL     1      -9.503   5.932  65.992  1.00  0.00    -0.087 A  
HETATM    7  C   UNL     1      -7.185   7.209  66.744  1.00  0.00    -0.083 A  
HETATM    8  C   UNL     1      -9.542   6.926  66.988  1.00  0.00    -0.197 A  
HETATM    9  C   UNL     1      -8.386   7.623  67.335  1.00  0.00    -0.116 A  
BRANCH   9  10
HETATM   10  C   UNL     1      -8.432   8.828  68.238  1.00  0.00    -0.130 C  
BRANCH  10  11
HETATM   11  C   UNL     1      -9.178   8.729  69.545  1.00  0.00    -0.149 A  
HETATM   12  O   UNL     1      -6.174   8.169  70.055  1.00  0.00    -0.032 OA 
HETATM   13  O   UNL     1      -7.158   5.962  70.815  1.00  0.00    -0.066 OA 
HETATM   14  C   UNL     1     -10.401   9.421  69.649  1.00  0.00    -0.229 A  
HETATM   15  C   UNL     1     -11.105   9.461  70.866  1.00  0.00    -0.319 A  
HETATM   16  O   UNL     1      -6.701   7.760  72.409  1.00  0.00    -0.058 OA 
HETATM   17  C   UNL     1     -10.698   8.708  71.962  1.00  0.00    -0.427 A  
HETATM   18  S   UNL     1      -7.082   7.405  70.879  1.00  0.00    -0.064 S  
HETATM   19  S   UNL     1     -12.400  10.655  71.069  1.00  0.00    -0.422 S  
HETATM   20  C   UNL     1      -9.516   7.988  71.869  1.00  0.00    -0.240 A  
HETATM   21  O   UNL     1     -13.531  10.207  70.015  1.00  0.00     0.164 OA 
HETATM   22  O   UNL     1     -12.992  10.472  72.377  1.00  0.00    -0.252 OA 
HETATM   23  O   UNL     1     -11.854  11.927  70.645  1.00  0.00    -0.280 OA 
HETATM   24  C   UNL     1      -8.731   8.046  70.698  1.00  0.00    -0.131 A  
ENDBRANCH  10  11
BRANCH  10  25
HETATM   25  C   UNL     1      -7.952  10.037  67.809  1.00  0.00    -0.105 A  
HETATM   26  C   UNL     1      -8.637  10.855  66.805  1.00  0.00    -0.137 A  
HETATM   27  C   UNL     1      -6.638  10.551  68.223  1.00  0.00    -0.059 A  
HETATM   28  C   UNL     1      -6.352  11.862  68.143  1.00  0.00    -0.052 A  
HETATM   29  C   UNL     1      -8.365  12.164  66.669  1.00  0.00    -0.051 A  
HETATM   30  C   UNL     1      -7.362  12.821  67.577  1.00  0.00    -0.153 A  
BRANCH  30  31
HETATM   31  N   UNL     1      -7.363  14.102  67.841  1.00  0.00    -0.138 NA 
BRANCH  31  32
HETATM   32  C   UNL     1      -6.186  14.808  68.493  1.00  0.00    -0.088 C  
HETATM   33  C   UNL     1      -5.909  16.150  67.844  1.00  0.00    -0.145 C  
ENDBRANCH  31  32
BRANCH  31  34
HETATM   34  C   UNL     1      -8.436  15.040  67.323  1.00  0.00    -0.198 C  
HETATM   35  C   UNL     1      -9.721  14.885  68.114  1.00  0.00    -0.214 C  
ENDBRANCH  31  34
ENDBRANCH  30  31
ENDBRANCH  10  25
ENDBRANCH   9  10
ENDBRANCH   3   4
BRANCH   3  36
HETATM   36  C   UNL     1      -7.714   4.948  62.943  1.00  0.00    -0.065 C  
HETATM   37  C   UNL     1      -7.589   6.445  62.705  1.00  0.00    -0.077 C  
ENDBRANCH   3  36
ENDBRANCH   2   3
TORSDOF 9
ENDMDL
MODEL       78
REMARK 921   NORMALIZED FREE ENERGY PREDICTED BY IDOCK:   -3.16 KCAL/MOL
REMARK 922        TOTAL FREE ENERGY PREDICTED BY IDOCK:   -7.15 KCAL/MOL
REMARK 923 INTER-LIGAND FREE ENERGY PREDICTED BY IDOCK:   -6.60 KCAL/MOL
REMARK 924 INTRA-LIGAND FREE ENERGY PREDICTED BY IDOCK:   -0.55 KCAL/MOL
REMARK 927      BINDING AFFINITY PREDICTED BY RF-SCORE:    0.00 PKD
ROOT
HETATM    1  C   UNL     1      -8.728   4.242  66.070  1.00  0.00    -0.114 C  
HETATM    2  C   UNL     1      -7.449   4.414  65.265  1.00  0.00    -0.077 C  
ENDROOT
BRANCH   2   3
HETATM    3  N   UNL     1      -7.418   5.721  64.588  1.00  0.00    -0.072 NA 
BRANCH   3   4
HETATM    4  C   UNL     1      -7.698   6.866  65.327  1.00  0.00    -0.110 A  
HETATM    5  C   UNL     1      -8.675   7.803  64.969  1.00  0.00     0.105 A  
HETATM    6  C   UNL     1      -7.016   7.132  66.526  1.00  0.00    -0.076 A  
HETATM    7  C   UNL     1      -9.039   8.863  65.832  1.00  0.00    -0.271 A  
HETATM    8  C   UNL     1      -7.355   8.193  67.386  1.00  0.00    -0.089 A  
HETATM    9  C   UNL     1      -8.418   9.041  67.076  1.00  0.00    -0.120 A  
BRANCH   9  10
HETATM   10  C   UNL     1      -8.940  10.048  68.067  1.00  0.00    -0.128 C  
BRANCH  10  11
HETATM   11  C   UNL     1      -8.885  11.513  67.712  1.00  0.00    -0.153 A  
HETATM   12  O   UNL     1      -6.021  10.340  67.589  1.00  0.00    -0.052 OA 
HETATM   13  O   UNL     1      -5.690  12.092  69.388  1.00  0.00    -0.071 OA 
HETATM   14  C   UNL     1     -10.064  12.105  67.216  1.00  0.00    -0.214 A  
HETATM   15  C   UNL     1     -10.066  13.439  66.769  1.00  0.00    -0.260 A  
HETATM   16  O   UNL     1      -5.184  12.574  67.045  1.00  0.00    -0.322 OA 
HETATM   17  C   UNL     1      -8.955  14.259  66.930  1.00  0.00    -0.255 A  
HETATM   18  S   UNL     1      -6.098  11.705  68.056  1.00  0.00    -0.050 S  
HETATM   19  S   UNL     1     -11.429  14.012  65.789  1.00  0.00    -0.327 S  
HETATM   20  C   UNL     1      -7.795  13.706  67.453  1.00  0.00    -0.162 A  
HETATM   21  O   UNL     1     -12.691  13.967  66.788  1.00  0.00    -0.193 OA 
HETATM   22  O   UNL     1     -11.221  15.412  65.489  1.00  0.00    -0.310 OA 
HETATM   23  O   UNL     1     -11.630  13.025  64.750  1.00  0.00    -0.308 OA 
HETATM   24  C   UNL     1      -7.739  12.335  67.783  1.00  0.00    -0.139 A  
ENDBRANCH  10  11
BRANCH  10  25
HETATM   25  C   UNL     1      -9.301   9.659  69.329  1.00  0.00    -0.184 A  
HETATM   26  C   UNL     1     -10.677   9.748  69.826  1.00  0.00    -0.283 A  
HETATM   27  C   UNL     1      -8.314   9.245  70.336  1.00  0.00    -0.224 A  
HETATM   28  C   UNL     1      -8.674   8.499  71.394  1.00  0.00    -0.237 A  
HETATM   29  C   UNL     1     -11.078   9.041  70.896  1.00  0.00    -0.343 A  
HETATM   30  C   UNL     1     -10.116   8.116  71.590  1.00  0.00    -0.199 A  
BRANCH  30  31
HETATM   31  N   UNL     1     -10.495   7.086  72.300  1.00  0.00    -0.204 NA 
BRANCH  31  32
HETATM   32  C   UNL     1     -10.847   5.744  71.680  1.00  0.00    -0.255 C  
HETATM   33  C   UNL     1     -11.312   5.896  70.245  1.00  0.00    -0.232 C  
ENDBRANCH  31  32
BRANCH  31  34
HETATM   34  C   UNL     1     -10.403   7.062  73.814  1.00  0.00    -0.369 C  
HETATM   35  C   UNL     1      -9.825   5.748  74.303  1.00  0.00    -0.220 C  
ENDBRANCH  31  34
ENDBRANCH  30  31
ENDBRANCH  10  25
ENDBRANCH   9  10
ENDBRANCH   3   4
BRANCH   3  36
HETATM   36  C   UNL     1      -7.367   5.693  63.120  1.00  0.00    -0.055 C  
HETATM   37  C   UNL     1      -5.933   5.872  62.643  1.00  0.00    -0.025 C  
ENDBRANCH   3  36
ENDBRANCH   2   3
TORSDOF 9
ENDMDL
MODEL       79
REMARK 921   NORMALIZED FREE ENERGY PREDICTED BY IDOCK:   -3.10 KCAL/MOL
REMARK 922        TOTAL FREE ENERGY PREDICTED BY IDOCK:   -7.06 KCAL/MOL
REMARK 923 INTER-LIGAND FREE ENERGY PREDICTED BY IDOCK:   -5.65 KCAL/MOL
REMARK 924 INTRA-LIGAND FREE ENERGY PREDICTED BY IDOCK:   -1.42 KCAL/MOL
REMARK 927      BINDING AFFINITY PREDICTED BY RF-SCORE:    0.00 PKD
ROOT
HETATM    1  C   UNL     1      -9.961  15.725  67.071  1.00  0.00    -0.240 C  
HETATM    2  C   UNL     1      -9.414  14.456  66.434  1.00  0.00    -0.285 C  
ENDROOT
BRANCH   2   3
HETATM    3  N   UNL     1     -10.233  13.285  66.791  1.00  0.00    -0.250 NA 
BRANCH   3   4
HETATM    4  C   UNL     1      -9.701  12.013  66.604  1.00  0.00    -0.208 A  
HETATM    5  C   UNL     1      -8.503  11.578  67.185  1.00  0.00    -0.158 A  
HETATM    6  C   UNL     1     -10.375  11.059  65.825  1.00  0.00    -0.316 A  
HETATM    7  C   UNL     1      -8.084  10.230  67.103  1.00  0.00    -0.121 A  
HETATM    8  C   UNL     1      -9.960   9.718  65.719  1.00  0.00    -0.349 A  
HETATM    9  C   UNL     1      -8.835   9.271  66.411  1.00  0.00    -0.169 A  
BRANCH   9  10
HETATM   10  C   UNL     1      -8.487   7.807  66.490  1.00  0.00    -0.132 C  
BRANCH  10  11
HETATM   11  C   UNL     1      -8.323   7.029  65.208  1.00  0.00    -0.100 A  
HETATM   12  O   UNL     1      -5.960   9.012  65.493  1.00  0.00    -0.053 OA 
HETATM   13  O   UNL     1      -6.972   9.858  63.331  1.00  0.00    -0.116 OA 
HETATM   14  C   UNL     1      -8.955   5.772  65.125  1.00  0.00     0.046 A  
HETATM   15  C   UNL     1      -8.766   4.944  64.004  1.00  0.00    -0.119 A  
HETATM   16  O   UNL     1      -5.127   8.254  63.320  1.00  0.00    -0.048 OA 
HETATM   17  C   UNL     1      -8.072   5.388  62.884  1.00  0.00    -0.101 A  
HETATM   18  S   UNL     1      -6.411   8.797  64.137  1.00  0.00    -0.072 S  
HETATM   19  S   UNL     1      -9.231   3.236  64.112  1.00  0.00    -0.134 S  
HETATM   20  C   UNL     1      -7.474   6.639  62.929  1.00  0.00    -0.079 A  
HETATM   21  O   UNL     1     -10.833   3.264  64.272  1.00  0.00    -0.090 OA 
HETATM   22  O   UNL     1      -8.979   2.610  62.833  1.00  0.00    -0.088 OA 
HETATM   23  O   UNL     1      -8.655   2.732  65.341  1.00  0.00    -0.099 OA 
HETATM   24  C   UNL     1      -7.543   7.426  64.099  1.00  0.00    -0.109 A  
ENDBRANCH  10  11
BRANCH  10  25
HETATM   25  C   UNL     1      -8.485   7.156  67.694  1.00  0.00    -0.120 A  
HETATM   26  C   UNL     1      -7.297   7.067  68.549  1.00  0.00    -0.100 A  
HETATM   27  C   UNL     1      -9.638   6.377  68.168  1.00  0.00    -0.115 A  
HETATM   28  C   UNL     1      -9.792   6.093  69.472  1.00  0.00    -0.193 A  
HETATM   29  C   UNL     1      -7.398   6.761  69.853  1.00  0.00    -0.089 A  
HETATM   30  C   UNL     1      -8.751   6.530  70.467  1.00  0.00    -0.144 A  
BRANCH  30  31
HETATM   31  N   UNL     1      -8.998   6.684  71.742  1.00  0.00    -0.140 NA 
BRANCH  31  32
HETATM   32  C   UNL     1      -7.910   6.638  72.802  1.00  0.00    -0.100 C  
HETATM   33  C   UNL     1      -8.383   5.931  74.058  1.00  0.00    -0.113 C  
ENDBRANCH  31  32
BRANCH  31  34
HETATM   34  C   UNL     1     -10.347   7.144  72.261  1.00  0.00    -0.201 C  
HETATM   35  C   UNL     1     -10.491   8.649  72.141  1.00  0.00    -0.411 C  
ENDBRANCH  31  34
ENDBRANCH  30  31
ENDBRANCH  10  25
ENDBRANCH   9  10
ENDBRANCH   3   4
BRANCH   3  36
HETATM   36  C   UNL     1     -11.654  13.541  67.056  1.00  0.00    -0.359 C  
HETATM   37  C   UNL     1     -12.061  12.911  68.379  1.00  0.00    -0.169 C  
ENDBRANCH   3  36
ENDBRANCH   2   3
TORSDOF 9
ENDMDL
MODEL       80
REMARK 921   NORMALIZED FREE ENERGY PREDICTED BY IDOCK:   -2.95 KCAL/MOL
REMARK 922        TOTAL FREE ENERGY PREDICTED BY IDOCK:   -6.83 KCAL/MOL
REMARK 923 INTER-LIGAND FREE ENERGY PREDICTED BY IDOCK:   -5.77 KCAL/MOL
REMARK 924 INTRA-LIGAND FREE ENERGY PREDICTED BY IDOCK:   -1.06 KCAL/MOL
REMARK 927      BINDING AFFINITY PREDICTED BY RF-SCORE:    0.00 PKD
ROOT
HETATM    1  C   UNL     1      -7.850   2.756  65.981  1.00  0.00    -0.081 C  
HETATM    2  C   UNL     1      -9.350   2.847  66.214  1.00  0.00    -0.039 C  
ENDROOT
BRANCH   2   3
HETATM    3  N   UNL     1      -9.895   4.110  65.687  1.00  0.00    -0.201 NA 
BRANCH   3   4
HETATM    4  C   UNL     1      -9.969   5.213  66.532  1.00  0.00    -0.212 A  
HETATM    5  C   UNL     1     -10.989   5.406  67.472  1.00  0.00     0.223 A  
HETATM    6  C   UNL     1      -8.974   6.205  66.508  1.00  0.00    -0.143 A  
HETATM    7  C   UNL     1     -10.937   6.453  68.421  1.00  0.00    -0.390 A  
HETATM    8  C   UNL     1      -8.920   7.263  67.435  1.00  0.00    -0.122 A  
HETATM    9  C   UNL     1      -9.874   7.366  68.446  1.00  0.00    -0.165 A  
BRANCH   9  10
HETATM   10  C   UNL     1      -9.726   8.355  69.573  1.00  0.00    -0.177 C  
BRANCH  10  11
HETATM   11  C   UNL     1      -9.655   7.839  70.988  1.00  0.00    -0.170 A  
HETATM   12  O   UNL     1     -12.620   7.922  70.094  1.00  0.00     0.661 OA 
HETATM   13  O   UNL     1     -12.719   9.520  72.056  1.00  0.00    -0.380 OA 
HETATM   14  C   UNL     1      -8.445   7.249  71.404  1.00  0.00    -0.114 A  
HETATM   15  C   UNL     1      -8.334   6.654  72.674  1.00  0.00    -0.108 A  
HETATM   16  O   UNL     1     -13.263   7.151  72.325  1.00  0.00    -0.032 OA 
HETATM   17  C   UNL     1      -9.356   6.750  73.611  1.00  0.00    -0.190 A  
HETATM   18  S   UNL     1     -12.398   8.229  71.488  1.00  0.00    -0.307 S  
HETATM   19  S   UNL     1      -6.959   5.582  73.001  1.00  0.00    -0.082 S  
HETATM   20  C   UNL     1     -10.543   7.362  73.235  1.00  0.00    -0.442 A  
HETATM   21  O   UNL     1      -5.672   6.547  72.943  1.00  0.00    -0.037 OA 
HETATM   22  O   UNL     1      -7.045   5.131  74.373  1.00  0.00    -0.076 OA 
HETATM   23  O   UNL     1      -6.891   4.656  71.891  1.00  0.00    -0.046 OA 
HETATM   24  C   UNL     1     -10.717   7.845  71.920  1.00  0.00    -0.237 A  
ENDBRANCH  10  11
BRANCH  10  25
HETATM   25  C   UNL     1      -9.821   9.700  69.335  1.00  0.00    -0.203 A  
HETATM   26  C   UNL     1      -8.664  10.533  68.995  1.00  0.00    -0.160 A  
HETATM   27  C   UNL     1     -11.073  10.445  69.533  1.00  0.00    -0.314 A  
HETATM   28  C   UNL     1     -11.275  11.630  68.932  1.00  0.00    -0.306 A  
HETATM   29  C   UNL     1      -8.817  11.736  68.417  1.00  0.00    -0.161 A  
HETATM   30  C   UNL     1     -10.194  12.238  68.081  1.00  0.00    -0.212 A  
BRANCH  30  31
HETATM   31  N   UNL     1     -10.428  13.123  67.147  1.00  0.00    -0.246 NA 
BRANCH  31  32
HETATM   32  C   UNL     1     -10.649  12.745  65.692  1.00  0.00    -0.275 C  
HETATM   33  C   UNL     1     -10.880  11.254  65.530  1.00  0.00    -0.244 C  
ENDBRANCH  31  32
BRANCH  31  34
HETATM   34  C   UNL     1     -10.723  14.578  67.458  1.00  0.00    -0.276 C  
HETATM   35  C   UNL     1     -11.108  15.335  66.202  1.00  0.00    -0.280 C  
ENDBRANCH  31  34
ENDBRANCH  30  31
ENDBRANCH  10  25
ENDBRANCH   9  10
ENDBRANCH   3   4
BRANCH   3  36
HETATM   36  C   UNL     1     -10.578   4.033  64.389  1.00  0.00    -0.186 C  
HETATM   37  C   UNL     1      -9.619   4.408  63.270  1.00  0.00    -0.036 C  
ENDBRANCH   3  36
ENDBRANCH   2   3
TORSDOF 9
ENDMDL
MODEL       81
REMARK 921   NORMALIZED FREE ENERGY PREDICTED BY IDOCK:   -2.94 KCAL/MOL
REMARK 922        TOTAL FREE ENERGY PREDICTED BY IDOCK:   -6.81 KCAL/MOL
REMARK 923 INTER-LIGAND FREE ENERGY PREDICTED BY IDOCK:   -6.23 KCAL/MOL
REMARK 924 INTRA-LIGAND FREE ENERGY PREDICTED BY IDOCK:   -0.58 KCAL/MOL
REMARK 927      BINDING AFFINITY PREDICTED BY RF-SCORE:    0.00 PKD
ROOT
HETATM    1  C   UNL     1      -6.308   8.327  68.744  1.00  0.00    -0.049 C  
HETATM    2  C   UNL     1      -5.677   8.499  67.371  1.00  0.00    -0.039 C  
ENDROOT
BRANCH   2   3
HETATM    3  N   UNL     1      -6.630   9.093  66.418  1.00  0.00    -0.066 NA 
BRANCH   3   4
HETATM    4  C   UNL     1      -7.515  10.066  66.873  1.00  0.00    -0.095 A  
HETATM    5  C   UNL     1      -7.128  11.365  67.226  1.00  0.00    -0.119 A  
HETATM    6  C   UNL     1      -8.890   9.797  66.973  1.00  0.00    -0.145 A  
HETATM    7  C   UNL     1      -8.079  12.368  67.525  1.00  0.00    -0.173 A  
HETATM    8  C   UNL     1      -9.846  10.781  67.287  1.00  0.00    -0.208 A  
HETATM    9  C   UNL     1      -9.455  12.100  67.509  1.00  0.00    -0.180 A  
BRANCH   9  10
HETATM   10  C   UNL     1     -10.464  13.212  67.637  1.00  0.00    -0.225 C  
BRANCH  10  11
HETATM   11  C   UNL     1     -10.317  14.431  66.762  1.00  0.00    -0.273 A  
HETATM   12  O   UNL     1     -12.561  12.632  65.612  1.00  0.00    -0.611 OA 
HETATM   13  O   UNL     1     -10.959  12.627  63.650  1.00  0.00    -0.426 OA 
HETATM   14  C   UNL     1      -9.753  15.584  67.345  1.00  0.00    -0.218 A  
HETATM   15  C   UNL     1      -9.675  16.790  66.624  1.00  0.00    -0.269 A  
HETATM   16  O   UNL     1     -12.814  14.215  63.764  1.00  0.00    -0.597 OA 
HETATM   17  C   UNL     1     -10.017  16.853  65.278  1.00  0.00     0.367 A  
HETATM   18  S   UNL     1     -11.772  13.326  64.620  1.00  0.00    -0.385 S  
HETATM   19  S   UNL     1      -9.347  18.294  67.505  1.00  0.00    -0.263 S  
HETATM   20  C   UNL     1     -10.538  15.718  64.674  1.00  0.00     0.001 A  
HETATM   21  O   UNL     1      -7.849  18.114  68.065  1.00  0.00    -0.247 OA 
HETATM   22  O   UNL     1      -9.277  19.379  66.549  1.00  0.00    -0.324 OA 
HETATM   23  O   UNL     1     -10.259  18.318  68.628  1.00  0.00    -0.380 OA 
HETATM   24  C   UNL     1     -10.745  14.538  65.421  1.00  0.00    -0.361 A  
ENDBRANCH  10  11
BRANCH  10  25
HETATM   25  C   UNL     1     -11.396  13.192  68.640  1.00  0.00    -0.327 A  
HETATM   26  C   UNL     1     -11.465  12.126  69.643  1.00  0.00    -0.308 A  
HETATM   27  C   UNL     1     -12.492  14.170  68.712  1.00  0.00     0.130 A  
HETATM   28  C   UNL     1     -13.137  14.402  69.867  1.00  0.00     0.410 A  
HETATM   29  C   UNL     1     -12.121  12.302  70.802  1.00  0.00    -0.259 A  
HETATM   30  C   UNL     1     -12.778  13.622  71.102  1.00  0.00    -0.353 A  
BRANCH  30  31
HETATM   31  N   UNL     1     -13.021  14.045  72.315  1.00  0.00    -0.373 NA 
BRANCH  31  32
HETATM   32  C   UNL     1     -11.950  14.121  73.389  1.00  0.00     0.766 C  
HETATM   33  C   UNL     1     -12.125  15.345  74.268  1.00  0.00    -0.631 C  
ENDBRANCH  31  32
BRANCH  31  34
HETATM   34  C   UNL     1     -14.330  14.707  72.699  1.00  0.00     0.117 C  
HETATM   35  C   UNL     1     -14.126  16.178  73.006  1.00  0.00     0.041 C  
ENDBRANCH  31  34
ENDBRANCH  30  31
ENDBRANCH  10  25
ENDBRANCH   9  10
ENDBRANCH   3   4
BRANCH   3  36
HETATM   36  C   UNL     1      -6.762   8.416  65.122  1.00  0.00    -0.063 C  
HETATM   37  C   UNL     1      -6.508   9.398  63.989  1.00  0.00    -0.095 C  
ENDBRANCH   3  36
ENDBRANCH   2   3
TORSDOF 9
ENDMDL
MODEL       82
REMARK 921   NORMALIZED FREE ENERGY PREDICTED BY IDOCK:   -2.94 KCAL/MOL
REMARK 922        TOTAL FREE ENERGY PREDICTED BY IDOCK:   -6.81 KCAL/MOL
REMARK 923 INTER-LIGAND FREE ENERGY PREDICTED BY IDOCK:   -5.64 KCAL/MOL
REMARK 924 INTRA-LIGAND FREE ENERGY PREDICTED BY IDOCK:   -1.17 KCAL/MOL
REMARK 927      BINDING AFFINITY PREDICTED BY RF-SCORE:    0.00 PKD
ROOT
HETATM    1  C   UNL     1     -13.533   7.382  71.859  1.00  0.00    -0.301 C  
HETATM    2  C   UNL     1     -12.503   6.389  72.374  1.00  0.00     0.038 C  
ENDROOT
BRANCH   2   3
HETATM    3  N   UNL     1     -11.201   7.039  72.598  1.00  0.00    -0.276 NA 
BRANCH   3   4
HETATM    4  C   UNL     1     -10.649   7.805  71.575  1.00  0.00    -0.213 A  
HETATM    5  C   UNL     1      -9.806   7.286  70.583  1.00  0.00    -0.179 A  
HETATM    6  C   UNL     1     -10.945   9.173  71.461  1.00  0.00    -0.434 A  
HETATM    7  C   UNL     1      -9.402   8.062  69.472  1.00  0.00    -0.156 A  
HETATM    8  C   UNL     1     -10.535   9.962  70.370  1.00  0.00    -0.347 A  
HETATM    9  C   UNL     1      -9.804   9.397  69.326  1.00  0.00    -0.176 A  
BRANCH   9  10
HETATM   10  C   UNL     1      -9.532  10.154  68.053  1.00  0.00    -0.156 C  
BRANCH  10  11
HETATM   11  C   UNL     1      -8.349   9.754  67.207  1.00  0.00    -0.121 A  
HETATM   12  O   UNL     1      -7.389  11.686  69.429  1.00  0.00    -0.039 OA 
HETATM   13  O   UNL     1      -6.750  13.034  67.382  1.00  0.00    -0.164 OA 
HETATM   14  C   UNL     1      -8.440   8.539  66.498  1.00  0.00    -0.119 A  
HETATM   15  C   UNL     1      -7.342   8.047  65.769  1.00  0.00    -0.079 A  
HETATM   16  O   UNL     1      -5.134  11.569  68.486  1.00  0.00    -0.040 OA 
HETATM   17  C   UNL     1      -6.186   8.802  65.604  1.00  0.00    -0.052 A  
HETATM   18  S   UNL     1      -6.698  11.821  68.167  1.00  0.00    -0.069 S  
HETATM   19  S   UNL     1      -7.352   6.354  65.241  1.00  0.00    -0.081 S  
HETATM   20  C   UNL     1      -6.091  10.019  66.261  1.00  0.00    -0.068 A  
HETATM   21  O   UNL     1      -8.556   6.272  64.176  1.00  0.00     0.094 OA 
HETATM   22  O   UNL     1      -6.145   6.102  64.484  1.00  0.00    -0.028 OA 
HETATM   23  O   UNL     1      -7.710   5.566  66.401  1.00  0.00    -0.097 OA 
HETATM   24  C   UNL     1      -7.133  10.464  67.104  1.00  0.00    -0.090 A  
ENDBRANCH  10  11
BRANCH  10  25
HETATM   25  C   UNL     1     -10.240  11.287  67.752  1.00  0.00    -0.203 A  
HETATM   26  C   UNL     1     -10.149  12.517  68.545  1.00  0.00    -0.186 A  
HETATM   27  C   UNL     1     -11.254  11.320  66.688  1.00  0.00    -0.247 A  
HETATM   28  C   UNL     1     -11.640  12.482  66.136  1.00  0.00    -0.448 A  
HETATM   29  C   UNL     1     -10.547  13.699  68.045  1.00  0.00    -0.256 A  
HETATM   30  C   UNL     1     -11.070  13.782  66.637  1.00  0.00    -0.311 A  
BRANCH  30  31
HETATM   31  N   UNL     1     -11.042  14.876  65.923  1.00  0.00    -0.335 NA 
BRANCH  31  32
HETATM   32  C   UNL     1     -10.375  16.154  66.402  1.00  0.00    -0.315 C  
HETATM   33  C   UNL     1      -8.959  16.278  65.872  1.00  0.00    -0.222 C  
ENDBRANCH  31  32
BRANCH  31  34
HETATM   34  C   UNL     1     -11.472  14.911  64.469  1.00  0.00    -0.325 C  
HETATM   35  C   UNL     1     -12.626  15.874  64.265  1.00  0.00     0.698 C  
ENDBRANCH  31  34
ENDBRANCH  30  31
ENDBRANCH  10  25
ENDBRANCH   9  10
ENDBRANCH   3   4
BRANCH   3  36
HETATM   36  C   UNL     1     -10.450   6.604  73.783  1.00  0.00    -0.333 C  
HETATM   37  C   UNL     1      -9.464   7.683  74.203  1.00  0.00    -0.003 C  
ENDBRANCH   3  36
ENDBRANCH   2   3
TORSDOF 9
ENDMDL
MODEL       83
REMARK 921   NORMALIZED FREE ENERGY PREDICTED BY IDOCK:   -2.91 KCAL/MOL
REMARK 922        TOTAL FREE ENERGY PREDICTED BY IDOCK:   -6.77 KCAL/MOL
REMARK 923 INTER-LIGAND FREE ENERGY PREDICTED BY IDOCK:   -6.18 KCAL/MOL
REMARK 924 INTRA-LIGAND FREE ENERGY PREDICTED BY IDOCK:   -0.59 KCAL/MOL
REMARK 927      BINDING AFFINITY PREDICTED BY RF-SCORE:    0.00 PKD
ROOT
HETATM    1  C   UNL     1     -11.237  14.920  66.323  1.00  0.00    -0.331 C  
HETATM    2  C   UNL     1     -10.332  14.047  65.467  1.00  0.00    -0.339 C  
ENDROOT
BRANCH   2   3
HETATM    3  N   UNL     1     -11.035  12.836  65.012  1.00  0.00    -0.281 NA 
BRANCH   3   4
HETATM    4  C   UNL     1     -10.690  11.610  65.571  1.00  0.00    -0.281 A  
HETATM    5  C   UNL     1      -9.989  10.611  64.883  1.00  0.00    -0.382 A  
HETATM    6  C   UNL     1     -11.006  11.315  66.907  1.00  0.00    -0.348 A  
HETATM    7  C   UNL     1      -9.516   9.450  65.537  1.00  0.00    -0.328 A  
HETATM    8  C   UNL     1     -10.557  10.155  67.567  1.00  0.00    -0.327 A  
HETATM    9  C   UNL     1      -9.751   9.232  66.902  1.00  0.00    -0.248 A  
BRANCH   9  10
HETATM   10  C   UNL     1      -9.083   8.096  67.633  1.00  0.00    -0.142 C  
BRANCH  10  11
HETATM   11  C   UNL     1      -9.024   8.137  69.139  1.00  0.00    -0.144 A  
HETATM   12  O   UNL     1     -10.873   5.809  68.268  1.00  0.00    -0.241 OA 
HETATM   13  O   UNL     1     -12.528   7.201  69.587  1.00  0.00     0.673 OA 
HETATM   14  C   UNL     1      -7.896   8.743  69.728  1.00  0.00    -0.090 A  
HETATM   15  C   UNL     1      -7.719   8.731  71.124  1.00  0.00    -0.123 A  
HETATM   16  O   UNL     1     -11.321   5.347  70.628  1.00  0.00     0.071 OA 
HETATM   17  C   UNL     1      -8.708   8.252  71.975  1.00  0.00    -0.243 A  
HETATM   18  S   UNL     1     -11.277   6.483  69.480  1.00  0.00    -0.356 S  
HETATM   19  S   UNL     1      -6.124   9.128  71.789  1.00  0.00    -0.017 S  
HETATM   20  C   UNL     1      -9.845   7.686  71.417  1.00  0.00    -0.195 A  
HETATM   21  O   UNL     1      -5.906  10.678  71.413  1.00  0.00    -0.332 OA 
HETATM   22  O   UNL     1      -6.205   9.086  73.233  1.00  0.00    -0.282 OA 
HETATM   23  O   UNL     1      -5.164   8.336  71.051  1.00  0.00    -0.029 OA 
HETATM   24  C   UNL     1      -9.976   7.571  70.016  1.00  0.00    -0.186 A  
ENDBRANCH  10  11
BRANCH  10  25
HETATM   25  C   UNL     1      -8.399   7.132  66.943  1.00  0.00    -0.118 A  
HETATM   26  C   UNL     1      -8.442   5.712  67.305  1.00  0.00    -0.106 A  
HETATM   27  C   UNL     1      -7.456   7.458  65.863  1.00  0.00    -0.080 A  
HETATM   28  C   UNL     1      -7.110   6.540  64.946  1.00  0.00    -0.057 A  
HETATM   29  C   UNL     1      -8.080   4.759  66.430  1.00  0.00    -0.107 A  
HETATM   30  C   UNL     1      -7.649   5.139  65.040  1.00  0.00    -0.082 A  
BRANCH  30  31
HETATM   31  N   UNL     1      -7.726   4.329  64.017  1.00  0.00    -0.081 NA 
BRANCH  31  32
HETATM   32  C   UNL     1      -8.746   4.503  62.905  1.00  0.00    -0.118 C  
HETATM   33  C   UNL     1      -9.422   3.192  62.554  1.00  0.00    -0.093 C  
ENDBRANCH  31  32
BRANCH  31  34
HETATM   34  C   UNL     1      -6.671   3.279  63.728  1.00  0.00    -0.038 C  
HETATM   35  C   UNL     1      -6.011   3.526  62.384  1.00  0.00    -0.013 C  
ENDBRANCH  31  34
ENDBRANCH  30  31
ENDBRANCH  10  25
ENDBRANCH   9  10
ENDBRANCH   3   4
BRANCH   3  36
HETATM   36  C   UNL     1     -11.855  12.975  63.801  1.00  0.00    -0.502 C  
HETATM   37  C   UNL     1     -12.988  11.961  63.817  1.00  0.00    -0.290 C  
ENDBRANCH   3  36
ENDBRANCH   2   3
TORSDOF 9
ENDMDL
MODEL       84
REMARK 921   NORMALIZED FREE ENERGY PREDICTED BY IDOCK:   -2.82 KCAL/MOL
REMARK 922        TOTAL FREE ENERGY PREDICTED BY IDOCK:   -6.62 KCAL/MOL
REMARK 923 INTER-LIGAND FREE ENERGY PREDICTED BY IDOCK:   -5.23 KCAL/MOL
REMARK 924 INTRA-LIGAND FREE ENERGY PREDICTED BY IDOCK:   -1.39 KCAL/MOL
REMARK 927      BINDING AFFINITY PREDICTED BY RF-SCORE:    0.00 PKD
ROOT
HETATM    1  C   UNL     1      -7.210  10.173  62.582  1.00  0.00    -0.140 C  
HETATM    2  C   UNL     1      -8.080   8.982  62.952  1.00  0.00    -0.166 C  
ENDROOT
BRANCH   2   3
HETATM    3  N   UNL     1      -8.292   8.909  64.407  1.00  0.00    -0.169 NA 
BRANCH   3   4
HETATM    4  C   UNL     1      -8.411  10.093  65.128  1.00  0.00    -0.161 A  
HETATM    5  C   UNL     1      -9.479  10.988  64.983  1.00  0.00    -0.269 A  
HETATM    6  C   UNL     1      -7.453  10.448  66.092  1.00  0.00    -0.131 A  
HETATM    7  C   UNL     1      -9.645  12.094  65.848  1.00  0.00    -0.226 A  
HETATM    8  C   UNL     1      -7.596  11.555  66.949  1.00  0.00    -0.151 A  
HETATM    9  C   UNL     1      -8.731  12.362  66.877  1.00  0.00    -0.191 A  
BRANCH   9  10
HETATM   10  C   UNL     1      -9.014  13.420  67.911  1.00  0.00    -0.201 C  
BRANCH  10  11
HETATM   11  C   UNL     1     -10.207  13.249  68.818  1.00  0.00    -0.119 A  
HETATM   12  O   UNL     1     -10.745  15.608  66.883  1.00  0.00    -0.311 OA 
HETATM   13  O   UNL     1     -10.868  16.832  69.096  1.00  0.00    -0.324 OA 
HETATM   14  C   UNL     1     -10.405  11.980  69.398  1.00  0.00     0.300 A  
HETATM   15  C   UNL     1     -11.548  11.713  70.173  1.00  0.00    -0.217 A  
HETATM   16  O   UNL     1     -12.885  15.978  68.009  1.00  0.00     1.635 OA 
HETATM   17  C   UNL     1     -12.445  12.720  70.512  1.00  0.00    -0.280 A  
HETATM   18  S   UNL     1     -11.294  15.773  68.208  1.00  0.00    -0.328 S  
HETATM   19  S   UNL     1     -11.963  10.027  70.537  1.00  0.00    -0.254 S  
HETATM   20  C   UNL     1     -12.247  13.987  69.983  1.00  0.00    -0.414 A  
HETATM   21  O   UNL     1     -10.763   9.511  71.477  1.00  0.00    -0.340 OA 
HETATM   22  O   UNL     1     -13.144  10.016  71.372  1.00  0.00    -0.367 OA 
HETATM   23  O   UNL     1     -11.903   9.312  69.280  1.00  0.00     0.497 OA 
HETATM   24  C   UNL     1     -11.178  14.236  69.096  1.00  0.00    -0.270 A  
ENDBRANCH  10  11
BRANCH  10  25
HETATM   25  C   UNL     1      -8.306  14.592  67.919  1.00  0.00    -0.159 A  
HETATM   26  C   UNL     1      -7.794  15.221  66.699  1.00  0.00     0.097 A  
HETATM   27  C   UNL     1      -7.884  15.245  69.167  1.00  0.00    -0.204 A  
HETATM   28  C   UNL     1      -7.564  16.550  69.190  1.00  0.00    -0.210 A  
HETATM   29  C   UNL     1      -7.436  16.516  66.680  1.00  0.00    -0.296 A  
HETATM   30  C   UNL     1      -7.586  17.355  67.919  1.00  0.00    -0.194 A  
BRANCH  30  31
HETATM   31  N   UNL     1      -7.713  18.656  67.896  1.00  0.00    -0.251 NA 
BRANCH  31  32
HETATM   32  C   UNL     1      -8.012  19.431  66.624  1.00  0.00    -0.286 C  
HETATM   33  C   UNL     1      -9.489  19.751  66.498  1.00  0.00    -0.500 C  
ENDBRANCH  31  32
BRANCH  31  34
HETATM   34  C   UNL     1      -7.797  19.489  69.161  1.00  0.00    -0.206 C  
HETATM   35  C   UNL     1      -6.523  20.285  69.373  1.00  0.00    -0.286 C  
ENDBRANCH  31  34
ENDBRANCH  30  31
ENDBRANCH  10  25
ENDBRANCH   9  10
ENDBRANCH   3   4
BRANCH   3  36
HETATM   36  C   UNL     1      -8.085   7.595  65.031  1.00  0.00    -0.133 C  
HETATM   37  C   UNL     1      -9.264   7.249  65.927  1.00  0.00    -0.004 C  
ENDBRANCH   3  36
ENDBRANCH   2   3
TORSDOF 9
ENDMDL
MODEL       85
REMARK 921   NORMALIZED FREE ENERGY PREDICTED BY IDOCK:   -2.59 KCAL/MOL
REMARK 922        TOTAL FREE ENERGY PREDICTED BY IDOCK:   -6.28 KCAL/MOL
REMARK 923 INTER-LIGAND FREE ENERGY PREDICTED BY IDOCK:   -4.98 KCAL/MOL
REMARK 924 INTRA-LIGAND FREE ENERGY PREDICTED BY IDOCK:   -1.29 KCAL/MOL
REMARK 927      BINDING AFFINITY PREDICTED BY RF-SCORE:    0.00 PKD
ROOT
HETATM    1  C   UNL     1      -6.704  14.282  69.401  1.00  0.00    -0.130 C  
HETATM    2  C   UNL     1      -7.368  13.933  68.078  1.00  0.00    -0.141 C  
ENDROOT
BRANCH   2   3
HETATM    3  N   UNL     1      -8.646  13.233  68.292  1.00  0.00    -0.177 NA 
BRANCH   3   4
HETATM    4  C   UNL     1      -8.637  11.848  68.434  1.00  0.00    -0.152 A  
HETATM    5  C   UNL     1      -7.685  11.151  69.188  1.00  0.00    -0.076 A  
HETATM    6  C   UNL     1      -9.633  11.057  67.838  1.00  0.00    -0.180 A  
HETATM    7  C   UNL     1      -7.807   9.765  69.441  1.00  0.00    -0.114 A  
HETATM    8  C   UNL     1      -9.757   9.674  68.066  1.00  0.00    -0.167 A  
HETATM    9  C   UNL     1      -8.875   9.018  68.924  1.00  0.00    -0.139 A  
BRANCH   9  10
HETATM   10  C   UNL     1      -9.105   7.592  69.353  1.00  0.00    -0.142 C  
BRANCH  10  11
HETATM   11  C   UNL     1      -9.062   7.261  70.824  1.00  0.00    -0.152 A  
HETATM   12  O   UNL     1     -12.015   7.299  69.886  1.00  0.00     0.073 OA 
HETATM   13  O   UNL     1     -12.092   9.138  71.627  1.00  0.00    -0.315 OA 
HETATM   14  C   UNL     1      -7.872   6.700  71.329  1.00  0.00    -0.102 A  
HETATM   15  C   UNL     1      -7.789   6.270  72.666  1.00  0.00    -0.105 A  
HETATM   16  O   UNL     1     -12.700   6.837  72.189  1.00  0.00    -0.232 OA 
HETATM   17  C   UNL     1      -8.818   6.510  73.569  1.00  0.00    -0.135 A  
HETATM   18  S   UNL     1     -11.799   7.778  71.232  1.00  0.00    -0.298 S  
HETATM   19  S   UNL     1      -6.446   5.216  73.146  1.00  0.00    -0.063 S  
HETATM   20  C   UNL     1      -9.985   7.097  73.102  1.00  0.00    -0.269 A  
HETATM   21  O   UNL     1      -5.134   6.134  72.982  1.00  0.00    -0.028 OA 
HETATM   22  O   UNL     1      -6.558   4.947  74.563  1.00  0.00    -0.066 OA 
HETATM   23  O   UNL     1      -6.389   4.154  72.165  1.00  0.00    -0.019 OA 
HETATM   24  C   UNL     1     -10.132   7.412  71.733  1.00  0.00    -0.175 A  
ENDBRANCH  10  11
BRANCH  10  25
HETATM   25  C   UNL     1      -9.185   6.590  68.424  1.00  0.00    -0.121 A  
HETATM   26  C   UNL     1      -9.419   6.843  66.999  1.00  0.00    -0.183 A  
HETATM   27  C   UNL     1      -9.178   5.169  68.799  1.00  0.00    -0.152 A  
HETATM   28  C   UNL     1      -8.852   4.219  67.906  1.00  0.00    -0.128 A  
HETATM   29  C   UNL     1      -9.134   5.914  66.071  1.00  0.00    -0.154 A  
HETATM   30  C   UNL     1      -8.536   4.597  66.485  1.00  0.00    -0.112 A  
BRANCH  30  31
HETATM   31  N   UNL     1      -7.820   3.850  65.686  1.00  0.00    -0.089 NA 
BRANCH  31  32
HETATM   32  C   UNL     1      -6.302   3.833  65.716  1.00  0.00    -0.032 C  
HETATM   33  C   UNL     1      -5.775   3.129  66.952  1.00  0.00    -0.022 C  
ENDBRANCH  31  32
BRANCH  31  34
HETATM   34  C   UNL     1      -8.433   2.771  64.813  1.00  0.00    -0.089 C  
HETATM   35  C   UNL     1      -9.661   3.289  64.089  1.00  0.00    -0.144 C  
ENDBRANCH  31  34
ENDBRANCH  30  31
ENDBRANCH  10  25
ENDBRANCH   9  10
ENDBRANCH   3   4
BRANCH   3  36
HETATM   36  C   UNL     1      -9.866  14.018  68.061  1.00  0.00    -0.228 C  
HETATM   37  C   UNL     1     -10.171  14.880  69.276  1.00  0.00    -0.219 C  
ENDBRANCH   3  36
ENDBRANCH   2   3
TORSDOF 9
ENDMDL
MODEL       86
REMARK 921   NORMALIZED FREE ENERGY PREDICTED BY IDOCK:   -2.54 KCAL/MOL
REMARK 922        TOTAL FREE ENERGY PREDICTED BY IDOCK:   -6.20 KCAL/MOL
REMARK 923 INTER-LIGAND FREE ENERGY PREDICTED BY IDOCK:   -4.36 KCAL/MOL
REMARK 924 INTRA-LIGAND FREE ENERGY PREDICTED BY IDOCK:   -1.84 KCAL/MOL
REMARK 927      BINDING AFFINITY PREDICTED BY RF-SCORE:    0.00 PKD
ROOT
HETATM    1  C   UNL     1      -9.710  15.874  67.871  1.00  0.00    -0.216 C  
HETATM    2  C   UNL     1      -9.269  14.532  67.307  1.00  0.00    -0.207 C  
ENDROOT
BRANCH   2   3
HETATM    3  N   UNL     1     -10.158  13.448  67.756  1.00  0.00    -0.227 NA 
BRANCH   3   4
HETATM    4  C   UNL     1      -9.734  12.130  67.610  1.00  0.00    -0.188 A  
HETATM    5  C   UNL     1      -8.683  11.565  68.344  1.00  0.00    -0.160 A  
HETATM    6  C   UNL     1     -10.381  11.262  66.716  1.00  0.00    -0.278 A  
HETATM    7  C   UNL     1      -8.394  10.183  68.283  1.00  0.00    -0.115 A  
HETATM    8  C   UNL     1     -10.092   9.887  66.632  1.00  0.00    -0.297 A  
HETATM    9  C   UNL     1      -9.129   9.316  67.464  1.00  0.00    -0.133 A  
BRANCH   9  10
HETATM   10  C   UNL     1      -8.945   7.823  67.549  1.00  0.00    -0.126 C  
BRANCH  10  11
HETATM   11  C   UNL     1      -8.705   7.047  66.278  1.00  0.00    -0.154 A  
HETATM   12  O   UNL     1      -6.174   8.708  66.935  1.00  0.00    -0.057 OA 
HETATM   13  O   UNL     1      -6.769   9.703  64.683  1.00  0.00    -0.090 OA 
HETATM   14  C   UNL     1      -9.472   5.882  66.074  1.00  0.00    -0.087 A  
HETATM   15  C   UNL     1      -9.237   5.050  64.964  1.00  0.00    -0.063 A  
HETATM   16  O   UNL     1      -5.155   7.877  64.872  1.00  0.00    -0.028 OA 
HETATM   17  C   UNL     1      -8.347   5.416  63.961  1.00  0.00    -0.116 A  
HETATM   18  S   UNL     1      -6.460   8.569  65.525  1.00  0.00    -0.059 S  
HETATM   19  S   UNL     1      -9.923   3.415  64.959  1.00  0.00     0.062 S  
HETATM   20  C   UNL     1      -7.609   6.580  64.122  1.00  0.00    -0.100 A  
HETATM   21  O   UNL     1     -11.515   3.645  64.903  1.00  0.00     0.414 OA 
HETATM   22  O   UNL     1      -9.578   2.778  63.706  1.00  0.00    -0.113 OA 
HETATM   23  O   UNL     1      -9.587   2.826  66.237  1.00  0.00     0.013 OA 
HETATM   24  C   UNL     1      -7.739   7.355  65.295  1.00  0.00    -0.113 A  
ENDBRANCH  10  11
BRANCH  10  25
HETATM   25  C   UNL     1      -9.156   7.162  68.729  1.00  0.00    -0.134 A  
HETATM   26  C   UNL     1     -10.454   7.140  69.408  1.00  0.00    -0.232 A  
HETATM   27  C   UNL     1      -8.061   6.533  69.483  1.00  0.00    -0.118 A  
HETATM   28  C   UNL     1      -8.308   5.571  70.387  1.00  0.00    -0.111 A  
HETATM   29  C   UNL     1     -10.738   6.213  70.339  1.00  0.00    -0.347 A  
HETATM   30  C   UNL     1      -9.724   5.155  70.679  1.00  0.00    -0.192 A  
BRANCH  30  31
HETATM   31  N   UNL     1     -10.041   3.993  71.187  1.00  0.00    -0.115 NA 
BRANCH  31  32
HETATM   32  C   UNL     1      -9.222   2.737  70.940  1.00  0.00    -0.136 C  
HETATM   33  C   UNL     1      -9.355   2.254  69.509  1.00  0.00    -0.161 C  
ENDBRANCH  31  32
BRANCH  31  34
HETATM   34  C   UNL     1     -11.117   3.831  72.243  1.00  0.00     0.610 C  
HETATM   35  C   UNL     1     -10.514   3.435  73.577  1.00  0.00    -0.260 C  
ENDBRANCH  31  34
ENDBRANCH  30  31
ENDBRANCH  10  25
ENDBRANCH   9  10
ENDBRANCH   3   4
BRANCH   3  36
HETATM   36  C   UNL     1     -11.541  13.827  68.069  1.00  0.00    -0.333 C  
HETATM   37  C   UNL     1     -11.791  13.708  69.565  1.00  0.00    -0.394 C  
ENDBRANCH   3  36
ENDBRANCH   2   3
TORSDOF 9
ENDMDL
MODEL       87
REMARK 921   NORMALIZED FREE ENERGY PREDICTED BY IDOCK:   -2.52 KCAL/MOL
REMARK 922        TOTAL FREE ENERGY PREDICTED BY IDOCK:   -6.17 KCAL/MOL
REMARK 923 INTER-LIGAND FREE ENERGY PREDICTED BY IDOCK:   -5.08 KCAL/MOL
REMARK 924 INTRA-LIGAND FREE ENERGY PREDICTED BY IDOCK:   -1.09 KCAL/MOL
REMARK 927      BINDING AFFINITY PREDICTED BY RF-SCORE:    0.00 PKD
ROOT
HETATM    1  C   UNL     1      -6.713   6.841  73.411  1.00  0.00    -0.071 C  
HETATM    2  C   UNL     1      -7.330   6.347  72.111  1.00  0.00    -0.092 C  
ENDROOT
BRANCH   2   3
HETATM    3  N   UNL     1      -8.292   7.323  71.573  1.00  0.00    -0.109 NA 
BRANCH   3   4
HETATM    4  C   UNL     1      -8.406   7.461  70.192  1.00  0.00    -0.136 A  
HETATM    5  C   UNL     1      -9.527   7.051  69.460  1.00  0.00    -0.147 A  
HETATM    6  C   UNL     1      -7.384   8.068  69.444  1.00  0.00    -0.080 A  
HETATM    7  C   UNL     1      -9.670   7.358  68.087  1.00  0.00    -0.163 A  
HETATM    8  C   UNL     1      -7.505   8.364  68.073  1.00  0.00    -0.097 A  
HETATM    9  C   UNL     1      -8.682   8.064  67.388  1.00  0.00    -0.124 A  
BRANCH   9  10
HETATM   10  C   UNL     1      -8.924   8.554  65.984  1.00  0.00    -0.228 C  
BRANCH  10  11
HETATM   11  C   UNL     1      -8.628   7.629  64.830  1.00  0.00     0.135 A  
HETATM   12  O   UNL     1      -6.294   9.644  65.130  1.00  0.00    -0.074 OA 
HETATM   13  O   UNL     1      -7.060  10.220  62.785  1.00  0.00    -0.131 OA 
HETATM   14  C   UNL     1      -9.258   6.369  64.831  1.00  0.00     0.725 A  
HETATM   15  C   UNL     1      -8.955   5.413  63.844  1.00  0.00     0.249 A  
HETATM   16  O   UNL     1      -5.237   8.635  63.167  1.00  0.00    -0.065 OA 
HETATM   17  C   UNL     1      -8.141   5.722  62.761  1.00  0.00    -0.108 A  
HETATM   18  S   UNL     1      -6.598   9.266  63.769  1.00  0.00    -0.094 S  
HETATM   19  S   UNL     1      -9.444   3.728  64.105  1.00  0.00    -0.166 S  
HETATM   20  C   UNL     1      -7.541   6.973  62.720  1.00  0.00    -0.101 A  
HETATM   21  O   UNL     1     -11.053   3.767  64.085  1.00  0.00    -0.334 OA 
HETATM   22  O   UNL     1      -9.059   2.954  62.944  1.00  0.00    -0.091 OA 
HETATM   23  O   UNL     1      -9.008   3.378  65.440  1.00  0.00    -0.130 OA 
HETATM   24  C   UNL     1      -7.730   7.894  63.773  1.00  0.00    -0.135 A  
ENDBRANCH  10  11
BRANCH  10  25
HETATM   25  C   UNL     1      -9.247   9.865  65.751  1.00  0.00    -0.228 A  
HETATM   26  C   UNL     1     -10.115  10.287  64.648  1.00  0.00    -0.317 A  
HETATM   27  C   UNL     1      -8.638  10.969  66.507  1.00  0.00    -0.165 A  
HETATM   28  C   UNL     1      -9.229  12.174  66.566  1.00  0.00    -0.216 A  
HETATM   29  C   UNL     1     -10.707  11.493  64.650  1.00  0.00    -0.379 A  
HETATM   30  C   UNL     1     -10.506  12.426  65.812  1.00  0.00    -0.259 A  
BRANCH  30  31
HETATM   31  N   UNL     1     -11.354  13.369  66.131  1.00  0.00    -0.297 NA 
BRANCH  31  32
HETATM   32  C   UNL     1     -12.398  13.203  67.222  1.00  0.00    -0.008 C  
HETATM   33  C   UNL     1     -11.763  12.855  68.555  1.00  0.00    -0.374 C  
ENDBRANCH  31  32
BRANCH  31  34
HETATM   34  C   UNL     1     -11.232  14.786  65.603  1.00  0.00    -0.343 C  
HETATM   35  C   UNL     1     -10.383  15.639  66.526  1.00  0.00    -0.296 C  
ENDBRANCH  31  34
ENDBRANCH  30  31
ENDBRANCH  10  25
ENDBRANCH   9  10
ENDBRANCH   3   4
BRANCH   3  36
HETATM   36  C   UNL     1      -8.860   8.276  72.535  1.00  0.00    -0.229 C  
HETATM   37  C   UNL     1     -10.364   8.389  72.333  1.00  0.00    -0.399 C  
ENDBRANCH   3  36
ENDBRANCH   2   3
TORSDOF 9
ENDMDL
MODEL       88
REMARK 921   NORMALIZED FREE ENERGY PREDICTED BY IDOCK:   -2.31 KCAL/MOL
REMARK 922        TOTAL FREE ENERGY PREDICTED BY IDOCK:   -5.86 KCAL/MOL
REMARK 923 INTER-LIGAND FREE ENERGY PREDICTED BY IDOCK:   -5.21 KCAL/MOL
REMARK 924 INTRA-LIGAND FREE ENERGY PREDICTED BY IDOCK:   -0.64 KCAL/MOL
REMARK 927      BINDING AFFINITY PREDICTED BY RF-SCORE:    0.00 PKD
ROOT
HETATM    1  C   UNL     1     -10.145  11.957  63.536  1.00  0.00    -0.464 C  
HETATM    2  C   UNL     1      -9.511  10.594  63.306  1.00  0.00    -0.329 C  
ENDROOT
BRANCH   2   3
HETATM    3  N   UNL     1      -8.565  10.258  64.383  1.00  0.00    -0.179 NA 
BRANCH   3   4
HETATM    4  C   UNL     1      -9.036  10.180  65.690  1.00  0.00    -0.179 A  
HETATM    5  C   UNL     1      -9.954   9.217  66.129  1.00  0.00    -0.338 A  
HETATM    6  C   UNL     1      -8.577  11.070  66.674  1.00  0.00    -0.157 A  
HETATM    7  C   UNL     1     -10.280   9.071  67.497  1.00  0.00    -0.302 A  
HETATM    8  C   UNL     1      -8.907  10.948  68.037  1.00  0.00    -0.135 A  
HETATM    9  C   UNL     1      -9.720   9.904  68.476  1.00  0.00    -0.163 A  
BRANCH   9  10
HETATM   10  C   UNL     1      -9.919   9.622  69.942  1.00  0.00    -0.273 C  
BRANCH  10  11
HETATM   11  C   UNL     1     -11.275   9.873  70.553  1.00  0.00    -0.399 A  
HETATM   12  O   UNL     1     -10.355   7.009  71.290  1.00  0.00    -0.202 OA 
HETATM   13  O   UNL     1     -12.469   6.463  70.007  1.00  0.00     0.293 OA 
HETATM   14  C   UNL     1     -11.645  11.214  70.784  1.00  0.00    -0.064 A  
HETATM   15  C   UNL     1     -12.849  11.525  71.442  1.00  0.00    -0.384 A  
HETATM   16  O   UNL     1     -12.487   6.674  72.442  1.00  0.00    -0.109 OA 
HETATM   17  C   UNL     1     -13.777  10.540  71.758  1.00  0.00    -0.062 A  
HETATM   18  S   UNL     1     -11.776   7.152  71.072  1.00  0.00    -0.334 S  
HETATM   19  S   UNL     1     -13.082  13.167  72.070  1.00  0.00    -0.349 S  
HETATM   20  C   UNL     1     -13.450   9.216  71.504  1.00  0.00    -0.417 A  
HETATM   21  O   UNL     1     -13.140  14.096  70.757  1.00  0.00    -0.321 OA 
HETATM   22  O   UNL     1     -14.400  13.248  72.662  1.00  0.00    -0.679 OA 
HETATM   23  O   UNL     1     -11.885  13.495  72.813  1.00  0.00     1.364 OA 
HETATM   24  C   UNL     1     -12.189   8.879  70.966  1.00  0.00    -0.203 A  
ENDBRANCH  10  11
BRANCH  10  25
HETATM   25  C   UNL     1      -8.853   9.304  70.741  1.00  0.00    -0.282 A  
HETATM   26  C   UNL     1      -8.979   9.075  72.183  1.00  0.00     0.167 A  
HETATM   27  C   UNL     1      -7.471   9.299  70.240  1.00  0.00    -0.113 A  
HETATM   28  C   UNL     1      -6.506   8.616  70.878  1.00  0.00    -0.047 A  
HETATM   29  C   UNL     1      -8.028   8.420  72.870  1.00  0.00    -0.153 A  
HETATM   30  C   UNL     1      -6.820   7.882  72.154  1.00  0.00    -0.065 A  
BRANCH  30  31
HETATM   31  N   UNL     1      -6.106   6.881  72.599  1.00  0.00    -0.045 NA 
BRANCH  31  32
HETATM   32  C   UNL     1      -5.748   6.715  74.066  1.00  0.00    -0.055 C  
HETATM   33  C   UNL     1      -5.550   5.256  74.432  1.00  0.00    -0.031 C  
ENDBRANCH  31  32
BRANCH  31  34
HETATM   34  C   UNL     1      -5.761   5.681  71.739  1.00  0.00    -0.021 C  
HETATM   35  C   UNL     1      -6.994   5.137  71.043  1.00  0.00    -0.051 C  
ENDBRANCH  31  34
ENDBRANCH  30  31
ENDBRANCH  10  25
ENDBRANCH   9  10
ENDBRANCH   3   4
BRANCH   3  36
HETATM   36  C   UNL     1      -7.139  10.303  64.034  1.00  0.00    -0.053 C  
HETATM   37  C   UNL     1      -6.420   9.093  64.612  1.00  0.00    -0.075 C  
ENDBRANCH   3  36
ENDBRANCH   2   3
TORSDOF 9
ENDMDL
MODEL       89
REMARK 921   NORMALIZED FREE ENERGY PREDICTED BY IDOCK:   -2.31 KCAL/MOL
REMARK 922        TOTAL FREE ENERGY PREDICTED BY IDOCK:   -5.85 KCAL/MOL
REMARK 923 INTER-LIGAND FREE ENERGY PREDICTED BY IDOCK:   -5.96 KCAL/MOL
REMARK 924 INTRA-LIGAND FREE ENERGY PREDICTED BY IDOCK:    0.11 KCAL/MOL
REMARK 927      BINDING AFFINITY PREDICTED BY RF-SCORE:    0.00 PKD
ROOT
HETATM    1  C   UNL     1     -12.272  14.111  63.852  1.00  0.00    -0.288 C  
HETATM    2  C   UNL     1     -12.264  12.645  64.259  1.00  0.00    -0.445 C  
ENDROOT
BRANCH   2   3
HETATM    3  N   UNL     1     -11.916  12.489  65.681  1.00  0.00    -0.488 NA 
BRANCH   3   4
HETATM    4  C   UNL     1     -11.215  11.354  66.079  1.00  0.00    -0.112 A  
HETATM    5  C   UNL     1     -11.233  10.848  67.385  1.00  0.00    -0.345 A  
HETATM    6  C   UNL     1     -10.456  10.617  65.155  1.00  0.00    -0.271 A  
HETATM    7  C   UNL     1     -10.642   9.604  67.707  1.00  0.00    -0.320 A  
HETATM    8  C   UNL     1      -9.848   9.386  65.467  1.00  0.00    -0.231 A  
HETATM    9  C   UNL     1      -9.985   8.833  66.739  1.00  0.00    -0.338 A  
BRANCH   9  10
HETATM   10  C   UNL     1      -9.529   7.429  67.042  1.00  0.00    -0.199 C  
BRANCH  10  11
HETATM   11  C   UNL     1      -8.951   6.596  65.926  1.00  0.00    -0.096 A  
HETATM   12  O   UNL     1      -6.682   8.268  67.211  1.00  0.00    -0.061 OA 
HETATM   13  O   UNL     1      -6.590   9.166  64.845  1.00  0.00    -0.069 OA 
HETATM   14  C   UNL     1      -9.650   5.428  65.559  1.00  0.00     0.040 A  
HETATM   15  C   UNL     1      -9.124   4.546  64.598  1.00  0.00    -0.151 A  
HETATM   16  O   UNL     1      -5.132   7.339  65.562  1.00  0.00    -0.023 OA 
HETATM   17  C   UNL     1      -7.977   4.861  63.877  1.00  0.00    -0.098 A  
HETATM   18  S   UNL     1      -6.556   8.069  65.786  1.00  0.00    -0.045 S  
HETATM   19  S   UNL     1      -9.810   2.917  64.463  1.00  0.00    -0.012 S  
HETATM   20  C   UNL     1      -7.294   6.026  64.195  1.00  0.00    -0.069 A  
HETATM   21  O   UNL     1     -11.315   3.155  63.945  1.00  0.00    -0.152 OA 
HETATM   22  O   UNL     1      -9.134   2.222  63.388  1.00  0.00    -0.091 OA 
HETATM   23  O   UNL     1      -9.865   2.383  65.807  1.00  0.00     0.315 OA 
HETATM   24  C   UNL     1      -7.739   6.854  65.249  1.00  0.00    -0.110 A  
ENDBRANCH  10  11
BRANCH  10  25
HETATM   25  C   UNL     1      -9.785   6.863  68.262  1.00  0.00    -0.132 A  
HETATM   26  C   UNL     1      -9.816   5.413  68.476  1.00  0.00    -0.199 A  
HETATM   27  C   UNL     1     -10.185   7.661  69.430  1.00  0.00    -0.206 A  
HETATM   28  C   UNL     1     -10.041   7.183  70.677  1.00  0.00    -0.198 A  
HETATM   29  C   UNL     1      -9.702   4.889  69.708  1.00  0.00    -0.262 A  
HETATM   30  C   UNL     1      -9.511   5.792  70.895  1.00  0.00    -0.165 A  
BRANCH  30  31
HETATM   31  N   UNL     1      -8.947   5.405  72.010  1.00  0.00    -0.134 NA 
BRANCH  31  32
HETATM   32  C   UNL     1      -7.497   4.959  72.087  1.00  0.00    -0.088 C  
HETATM   33  C   UNL     1      -6.792   5.117  70.753  1.00  0.00    -0.044 C  
ENDBRANCH  31  32
BRANCH  31  34
HETATM   34  C   UNL     1      -9.613   5.576  73.361  1.00  0.00    -0.142 C  
HETATM   35  C   UNL     1     -11.116   5.396  73.254  1.00  0.00    -0.352 C  
ENDBRANCH  31  34
ENDBRANCH  30  31
ENDBRANCH  10  25
ENDBRANCH   9  10
ENDBRANCH   3   4
BRANCH   3  36
HETATM   36  C   UNL     1     -12.576  13.407  66.618  1.00  0.00     0.020 C  
HETATM   37  C   UNL     1     -11.542  14.083  67.505  1.00  0.00    -0.397 C  
ENDBRANCH   3  36
ENDBRANCH   2   3
TORSDOF 9
ENDMDL
MODEL       90
REMARK 921   NORMALIZED FREE ENERGY PREDICTED BY IDOCK:   -2.25 KCAL/MOL
REMARK 922        TOTAL FREE ENERGY PREDICTED BY IDOCK:   -5.76 KCAL/MOL
REMARK 923 INTER-LIGAND FREE ENERGY PREDICTED BY IDOCK:   -4.70 KCAL/MOL
REMARK 924 INTRA-LIGAND FREE ENERGY PREDICTED BY IDOCK:   -1.06 KCAL/MOL
REMARK 927      BINDING AFFINITY PREDICTED BY RF-SCORE:    0.00 PKD
ROOT
HETATM    1  C   UNL     1      -6.397  14.806  68.333  1.00  0.00    -0.103 C  
HETATM    2  C   UNL     1      -7.301  15.863  67.718  1.00  0.00    -0.144 C  
ENDROOT
BRANCH   2   3
HETATM    3  N   UNL     1      -8.447  15.248  67.027  1.00  0.00    -0.211 NA 
BRANCH   3   4
HETATM    4  C   UNL     1      -8.767  13.923  67.308  1.00  0.00    -0.217 A  
HETATM    5  C   UNL     1      -8.821  12.913  66.339  1.00  0.00     0.061 A  
HETATM    6  C   UNL     1      -9.028  13.510  68.625  1.00  0.00    -0.002 A  
HETATM    7  C   UNL     1      -8.988  11.554  66.690  1.00  0.00    -0.185 A  
HETATM    8  C   UNL     1      -9.213  12.162  68.988  1.00  0.00     0.367 A  
HETATM    9  C   UNL     1      -9.136  11.156  68.026  1.00  0.00    -0.153 A  
BRANCH   9  10
HETATM   10  C   UNL     1      -9.119   9.699  68.409  1.00  0.00    -0.123 C  
BRANCH  10  11
HETATM   11  C   UNL     1      -9.441   9.317  69.832  1.00  0.00    -0.214 A  
HETATM   12  O   UNL     1     -12.064  10.100  68.380  1.00  0.00     0.096 OA 
HETATM   13  O   UNL     1     -12.053  11.844  70.217  1.00  0.00    -0.337 OA 
HETATM   14  C   UNL     1      -8.534   8.469  70.498  1.00  0.00    -0.143 A  
HETATM   15  C   UNL     1      -8.815   7.988  71.790  1.00  0.00    -0.140 A  
HETATM   16  O   UNL     1     -13.273   9.740  70.477  1.00  0.00    -0.098 OA 
HETATM   17  C   UNL     1      -9.917   8.440  72.508  1.00  0.00    -0.356 A  
HETATM   18  S   UNL     1     -12.011  10.467  69.776  1.00  0.00    -0.199 S  
HETATM   19  S   UNL     1      -7.872   6.625  72.421  1.00  0.00    -0.099 S  
HETATM   20  C   UNL     1     -10.803   9.306  71.884  1.00  0.00    -0.248 A  
HETATM   21  O   UNL     1      -6.378   7.204  72.571  1.00  0.00    -0.051 OA 
HETATM   22  O   UNL     1      -8.317   6.344  73.768  1.00  0.00    -0.114 OA 
HETATM   23  O   UNL     1      -7.872   5.614  71.386  1.00  0.00    -0.106 OA 
HETATM   24  C   UNL     1     -10.604   9.693  70.541  1.00  0.00    -0.306 A  
ENDBRANCH  10  11
BRANCH  10  25
HETATM   25  C   UNL     1      -8.659   8.754  67.531  1.00  0.00    -0.127 A  
HETATM   26  C   UNL     1      -9.549   7.871  66.772  1.00  0.00    -0.278 A  
HETATM   27  C   UNL     1      -7.227   8.456  67.377  1.00  0.00    -0.088 A  
HETATM   28  C   UNL     1      -6.761   7.853  66.271  1.00  0.00    -0.054 A  
HETATM   29  C   UNL     1      -9.121   7.226  65.675  1.00  0.00     0.084 A  
HETATM   30  C   UNL     1      -7.713   7.426  65.187  1.00  0.00    -0.112 A  
BRANCH  30  31
HETATM   31  N   UNL     1      -7.349   7.239  63.945  1.00  0.00    -0.081 NA 
BRANCH  31  32
HETATM   32  C   UNL     1      -7.245   5.859  63.317  1.00  0.00    -0.050 C  
HETATM   33  C   UNL     1      -8.530   5.466  62.615  1.00  0.00    -0.095 C  
ENDBRANCH  31  32
BRANCH  31  34
HETATM   34  C   UNL     1      -7.214   8.380  62.955  1.00  0.00    -0.096 C  
HETATM   35  C   UNL     1      -8.496   9.187  62.877  1.00  0.00    -0.209 C  
ENDBRANCH  31  34
ENDBRANCH  30  31
ENDBRANCH  10  25
ENDBRANCH   9  10
ENDBRANCH   3   4
BRANCH   3  36
HETATM   36  C   UNL     1      -8.996  15.992  65.886  1.00  0.00    -0.221 C  
HETATM   37  C   UNL     1     -10.502  16.149  66.040  1.00  0.00    -0.349 C  
ENDBRANCH   3  36
ENDBRANCH   2   3
TORSDOF 9
ENDMDL
MODEL       91
REMARK 921   NORMALIZED FREE ENERGY PREDICTED BY IDOCK:   -2.22 KCAL/MOL
REMARK 922        TOTAL FREE ENERGY PREDICTED BY IDOCK:   -5.71 KCAL/MOL
REMARK 923 INTER-LIGAND FREE ENERGY PREDICTED BY IDOCK:   -4.53 KCAL/MOL
REMARK 924 INTRA-LIGAND FREE ENERGY PREDICTED BY IDOCK:   -1.18 KCAL/MOL
REMARK 927      BINDING AFFINITY PREDICTED BY RF-SCORE:    0.00 PKD
ROOT
HETATM    1  C   UNL     1      -7.269  14.301  69.133  1.00  0.00    -0.104 C  
HETATM    2  C   UNL     1      -7.906  14.582  67.780  1.00  0.00    -0.161 C  
ENDROOT
BRANCH   2   3
HETATM    3  N   UNL     1      -9.197  13.886  67.644  1.00  0.00    -0.192 NA 
BRANCH   3   4
HETATM    4  C   UNL     1      -9.228  12.501  67.770  1.00  0.00    -0.198 A  
HETATM    5  C   UNL     1     -10.058  11.669  67.008  1.00  0.00    -0.234 A  
HETATM    6  C   UNL     1      -8.378  11.842  68.674  1.00  0.00    -0.079 A  
HETATM    7  C   UNL     1      -9.941  10.260  67.052  1.00  0.00    -0.249 A  
HETATM    8  C   UNL     1      -8.263  10.440  68.741  1.00  0.00    -0.128 A  
HETATM    9  C   UNL     1      -9.005   9.629  67.883  1.00  0.00    -0.120 A  
BRANCH   9  10
HETATM   10  C   UNL     1      -8.752   8.148  67.783  1.00  0.00    -0.130 C  
BRANCH  10  11
HETATM   11  C   UNL     1      -8.605   7.526  66.416  1.00  0.00    -0.145 A  
HETATM   12  O   UNL     1      -6.019   9.092  67.093  1.00  0.00    -0.048 OA 
HETATM   13  O   UNL     1      -6.751  10.348  65.019  1.00  0.00    -0.122 OA 
HETATM   14  C   UNL     1      -9.395   6.395  66.129  1.00  0.00    -0.110 A  
HETATM   15  C   UNL     1      -9.243   5.700  64.916  1.00  0.00     0.305 A  
HETATM   16  O   UNL     1      -5.147   8.508  64.883  1.00  0.00    -0.034 OA 
HETATM   17  C   UNL     1      -8.417   6.179  63.905  1.00  0.00     0.173 A  
HETATM   18  S   UNL     1      -6.399   9.122  65.700  1.00  0.00    -0.068 S  
HETATM   19  S   UNL     1      -9.944   4.078  64.763  1.00  0.00    -0.192 S  
HETATM   20  C   UNL     1      -7.658   7.314  64.152  1.00  0.00    -0.113 A  
HETATM   21  O   UNL     1     -11.533   4.317  64.842  1.00  0.00    -0.195 OA 
HETATM   22  O   UNL     1      -9.689   3.592  63.424  1.00  0.00    -0.126 OA 
HETATM   23  O   UNL     1      -9.530   3.342  65.939  1.00  0.00    -0.153 OA 
HETATM   24  C   UNL     1      -7.702   7.946  65.414  1.00  0.00    -0.097 A  
ENDBRANCH  10  11
BRANCH  10  25
HETATM   25  C   UNL     1      -8.820   7.354  68.896  1.00  0.00    -0.131 A  
HETATM   26  C   UNL     1      -7.849   6.293  69.178  1.00  0.00    -0.105 A  
HETATM   27  C   UNL     1      -9.951   7.411  69.833  1.00  0.00    -0.188 A  
HETATM   28  C   UNL     1      -9.832   6.953  71.090  1.00  0.00    -0.184 A  
HETATM   29  C   UNL     1      -7.712   5.784  70.414  1.00  0.00    -0.095 A  
HETATM   30  C   UNL     1      -8.543   6.324  71.545  1.00  0.00    -0.131 A  
BRANCH  30  31
HETATM   31  N   UNL     1      -8.186   6.247  72.800  1.00  0.00    -0.112 NA 
BRANCH  31  32
HETATM   32  C   UNL     1      -7.758   4.945  73.456  1.00  0.00    -0.096 C  
HETATM   33  C   UNL     1      -8.675   3.799  73.073  1.00  0.00    -0.096 C  
ENDBRANCH  31  32
BRANCH  31  34
HETATM   34  C   UNL     1      -7.949   7.477  73.656  1.00  0.00    -0.129 C  
HETATM   35  C   UNL     1      -6.787   8.294  73.125  1.00  0.00    -0.131 C  
ENDBRANCH  31  34
ENDBRANCH  30  31
ENDBRANCH  10  25
ENDBRANCH   9  10
ENDBRANCH   3   4
BRANCH   3  36
HETATM   36  C   UNL     1     -10.311  14.679  67.108  1.00  0.00    -0.265 C  
HETATM   37  C   UNL     1      -9.782  15.771  66.190  1.00  0.00    -0.351 C  
ENDBRANCH   3  36
ENDBRANCH   2   3
TORSDOF 9
ENDMDL
MODEL       92
REMARK 921   NORMALIZED FREE ENERGY PREDICTED BY IDOCK:   -2.17 KCAL/MOL
REMARK 922        TOTAL FREE ENERGY PREDICTED BY IDOCK:   -5.64 KCAL/MOL
REMARK 923 INTER-LIGAND FREE ENERGY PREDICTED BY IDOCK:   -5.42 KCAL/MOL
REMARK 924 INTRA-LIGAND FREE ENERGY PREDICTED BY IDOCK:   -0.22 KCAL/MOL
REMARK 927      BINDING AFFINITY PREDICTED BY RF-SCORE:    0.00 PKD
ROOT
HETATM    1  C   UNL     1     -12.955  11.824  62.964  1.00  0.00     0.260 C  
HETATM    2  C   UNL     1     -11.587  11.618  62.334  1.00  0.00     1.946 C  
ENDROOT
BRANCH   2   3
HETATM    3  N   UNL     1     -10.646  11.008  63.289  1.00  0.00    -0.232 NA 
BRANCH   3   4
HETATM    4  C   UNL     1     -10.705  11.390  64.625  1.00  0.00    -0.314 A  
HETATM    5  C   UNL     1     -10.117  10.664  65.669  1.00  0.00    -0.335 A  
HETATM    6  C   UNL     1     -11.349  12.579  65.005  1.00  0.00    -0.353 A  
HETATM    7  C   UNL     1     -10.060  11.171  66.987  1.00  0.00    -0.235 A  
HETATM    8  C   UNL     1     -11.316  13.088  66.317  1.00  0.00    -0.354 A  
HETATM    9  C   UNL     1     -10.615  12.415  67.318  1.00  0.00    -0.246 A  
BRANCH   9  10
HETATM   10  C   UNL     1     -10.382  13.034  68.671  1.00  0.00    -0.203 C  
BRANCH  10  11
HETATM   11  C   UNL     1     -11.389  12.785  69.767  1.00  0.00    -0.103 A  
HETATM   12  O   UNL     1      -9.343  10.459  69.731  1.00  0.00    -0.142 OA 
HETATM   13  O   UNL     1     -11.471   9.168  69.260  1.00  0.00     0.156 OA 
HETATM   14  C   UNL     1     -12.068  13.904  70.290  1.00  0.00    -0.423 A  
HETATM   15  C   UNL     1     -12.946  13.766  71.381  1.00  0.00    -0.355 A  
HETATM   16  O   UNL     1     -10.604   9.390  71.535  1.00  0.00    -0.341 OA 
HETATM   17  C   UNL     1     -13.283  12.516  71.887  1.00  0.00    -0.495 A  
HETATM   18  S   UNL     1     -10.693  10.075  70.074  1.00  0.00    -0.315 S  
HETATM   19  S   UNL     1     -13.455  15.221  72.259  1.00  0.00    -0.502 S  
HETATM   20  C   UNL     1     -12.655  11.397  71.359  1.00  0.00    -0.439 A  
HETATM   21  O   UNL     1     -14.333  16.048  71.194  1.00  0.00     0.030 OA 
HETATM   22  O   UNL     1     -14.379  14.827  73.302  1.00  0.00     0.484 OA 
HETATM   23  O   UNL     1     -12.250  15.970  72.544  1.00  0.00    -0.437 OA 
HETATM   24  C   UNL     1     -11.672  11.533  70.354  1.00  0.00    -0.234 A  
ENDBRANCH  10  11
BRANCH  10  25
HETATM   25  C   UNL     1      -9.371  13.938  68.858  1.00  0.00     0.064 A  
HETATM   26  C   UNL     1      -7.962  13.619  68.610  1.00  0.00    -0.083 A  
HETATM   27  C   UNL     1      -9.602  15.263  69.453  1.00  0.00    -0.245 A  
HETATM   28  C   UNL     1      -8.729  16.267  69.267  1.00  0.00    -0.151 A  
HETATM   29  C   UNL     1      -7.047  14.589  68.444  1.00  0.00    -0.111 A  
HETATM   30  C   UNL     1      -7.467  16.033  68.481  1.00  0.00    -0.156 A  
BRANCH  30  31
HETATM   31  N   UNL     1      -6.797  16.992  67.896  1.00  0.00    -0.149 NA 
BRANCH  31  32
HETATM   32  C   UNL     1      -5.562  17.627  68.513  1.00  0.00    -0.165 C  
HETATM   33  C   UNL     1      -5.917  18.508  69.694  1.00  0.00    -0.270 C  
ENDBRANCH  31  32
BRANCH  31  34
HETATM   34  C   UNL     1      -7.053  17.405  66.460  1.00  0.00    -0.265 C  
HETATM   35  C   UNL     1      -5.967  18.338  65.961  1.00  0.00    -0.233 C  
ENDBRANCH  31  34
ENDBRANCH  30  31
ENDBRANCH  10  25
ENDBRANCH   9  10
ENDBRANCH   3   4
BRANCH   3  36
HETATM   36  C   UNL     1      -9.532  10.247  62.709  1.00  0.00    -0.290 C  
HETATM   37  C   UNL     1      -8.334  11.158  62.490  1.00  0.00    -0.182 C  
ENDBRANCH   3  36
ENDBRANCH   2   3
TORSDOF 9
ENDMDL
MODEL       93
REMARK 921   NORMALIZED FREE ENERGY PREDICTED BY IDOCK:   -2.16 KCAL/MOL
REMARK 922        TOTAL FREE ENERGY PREDICTED BY IDOCK:   -5.62 KCAL/MOL
REMARK 923 INTER-LIGAND FREE ENERGY PREDICTED BY IDOCK:   -6.34 KCAL/MOL
REMARK 924 INTRA-LIGAND FREE ENERGY PREDICTED BY IDOCK:    0.72 KCAL/MOL
REMARK 927      BINDING AFFINITY PREDICTED BY RF-SCORE:    0.00 PKD
ROOT
HETATM    1  C   UNL     1     -13.857  13.479  72.280  1.00  0.00    -0.680 C  
HETATM    2  C   UNL     1     -13.522  12.064  71.834  1.00  0.00    -0.205 C  
ENDROOT
BRANCH   2   3
HETATM    3  N   UNL     1     -12.484  12.066  70.789  1.00  0.00    -0.330 NA 
BRANCH   3   4
HETATM    4  C   UNL     1     -11.669  10.946  70.652  1.00  0.00    -0.316 A  
HETATM    5  C   UNL     1     -11.621   9.900  71.583  1.00  0.00    -0.268 A  
HETATM    6  C   UNL     1     -10.852  10.786  69.521  1.00  0.00    -0.288 A  
HETATM    7  C   UNL     1     -10.904   8.709  71.325  1.00  0.00    -0.327 A  
HETATM    8  C   UNL     1     -10.119   9.613  69.259  1.00  0.00    -0.201 A  
HETATM    9  C   UNL     1     -10.185   8.530  70.135  1.00  0.00    -0.202 A  
BRANCH   9  10
HETATM   10  C   UNL     1      -9.587   7.193  69.782  1.00  0.00    -0.155 C  
BRANCH  10  11
HETATM   11  C   UNL     1      -8.924   6.384  70.869  1.00  0.00    -0.144 A  
HETATM   12  O   UNL     1      -7.542   9.151  70.687  1.00  0.00    -0.103 OA 
HETATM   13  O   UNL     1      -5.571   7.651  70.157  1.00  0.00    -0.023 OA 
HETATM   14  C   UNL     1      -9.677   5.350  71.460  1.00  0.00    -0.209 A  
HETATM   15  C   UNL     1      -9.165   4.618  72.547  1.00  0.00    -0.128 A  
HETATM   16  O   UNL     1      -5.988   8.434  72.436  1.00  0.00    -0.053 OA 
HETATM   17  C   UNL     1      -7.856   4.789  72.983  1.00  0.00    -0.097 A  
HETATM   18  S   UNL     1      -6.662   8.054  71.017  1.00  0.00    -0.043 S  
HETATM   19  S   UNL     1     -10.275   3.626  73.511  1.00  0.00    -0.158 S  
HETATM   20  C   UNL     1      -7.083   5.776  72.388  1.00  0.00    -0.085 A  
HETATM   21  O   UNL     1     -10.764   2.472  72.501  1.00  0.00    -0.092 OA 
HETATM   22  O   UNL     1      -9.511   2.947  74.535  1.00  0.00    -0.085 OA 
HETATM   23  O   UNL     1     -11.407   4.469  73.829  1.00  0.00    -0.256 OA 
HETATM   24  C   UNL     1      -7.628   6.607  71.386  1.00  0.00    -0.093 A  
ENDBRANCH  10  11
BRANCH  10  25
HETATM   25  C   UNL     1      -9.499   6.793  68.476  1.00  0.00    -0.131 A  
HETATM   26  C   UNL     1     -10.008   7.597  67.361  1.00  0.00    -0.252 A  
HETATM   27  C   UNL     1      -9.008   5.461  68.094  1.00  0.00    -0.111 A  
HETATM   28  C   UNL     1      -8.548   5.223  66.854  1.00  0.00    -0.105 A  
HETATM   29  C   UNL     1      -9.598   7.379  66.101  1.00  0.00    -0.032 A  
HETATM   30  C   UNL     1      -8.576   6.312  65.817  1.00  0.00    -0.150 A  
BRANCH  30  31
HETATM   31  N   UNL     1      -7.796   6.325  64.768  1.00  0.00    -0.105 NA 
BRANCH  31  32
HETATM   32  C   UNL     1      -6.976   7.539  64.367  1.00  0.00    -0.056 C  
HETATM   33  C   UNL     1      -6.228   8.125  65.550  1.00  0.00    -0.045 C  
ENDBRANCH  31  32
BRANCH  31  34
HETATM   34  C   UNL     1      -7.464   5.069  63.985  1.00  0.00    -0.061 C  
HETATM   35  C   UNL     1      -8.709   4.478  63.352  1.00  0.00    -0.131 C  
ENDBRANCH  31  34
ENDBRANCH  30  31
ENDBRANCH  10  25
ENDBRANCH   9  10
ENDBRANCH   3   4
BRANCH   3  36
HETATM   36  C   UNL     1     -12.204  13.359  70.152  1.00  0.00    -0.315 C  
HETATM   37  C   UNL     1     -11.236  13.172  68.994  1.00  0.00    -0.309 C  
ENDBRANCH   3  36
ENDBRANCH   2   3
TORSDOF 9
ENDMDL
MODEL       94
REMARK 921   NORMALIZED FREE ENERGY PREDICTED BY IDOCK:   -1.99 KCAL/MOL
REMARK 922        TOTAL FREE ENERGY PREDICTED BY IDOCK:   -5.36 KCAL/MOL
REMARK 923 INTER-LIGAND FREE ENERGY PREDICTED BY IDOCK:   -6.05 KCAL/MOL
REMARK 924 INTRA-LIGAND FREE ENERGY PREDICTED BY IDOCK:    0.68 KCAL/MOL
REMARK 927      BINDING AFFINITY PREDICTED BY RF-SCORE:    0.00 PKD
ROOT
HETATM    1  C   UNL     1     -11.658   6.143  69.504  1.00  0.00    -0.097 C  
HETATM    2  C   UNL     1     -10.593   5.628  70.460  1.00  0.00    -0.284 C  
ENDROOT
BRANCH   2   3
HETATM    3  N   UNL     1      -9.250   5.723  69.863  1.00  0.00    -0.143 NA 
BRANCH   3   4
HETATM    4  C   UNL     1      -8.953   6.813  69.050  1.00  0.00    -0.131 A  
HETATM    5  C   UNL     1      -9.912   7.507  68.300  1.00  0.00    -0.193 A  
HETATM    6  C   UNL     1      -7.642   7.309  68.961  1.00  0.00    -0.099 A  
HETATM    7  C   UNL     1      -9.596   8.705  67.618  1.00  0.00    -0.190 A  
HETATM    8  C   UNL     1      -7.310   8.490  68.272  1.00  0.00    -0.094 A  
HETATM    9  C   UNL     1      -8.301   9.240  67.638  1.00  0.00    -0.116 A  
BRANCH   9  10
HETATM   10  C   UNL     1      -8.016  10.608  67.076  1.00  0.00    -0.121 C  
BRANCH  10  11
HETATM   11  C   UNL     1      -8.586  10.973  65.728  1.00  0.00    -0.151 A  
HETATM   12  O   UNL     1      -7.148   8.238  65.507  1.00  0.00    -0.065 OA 
HETATM   13  O   UNL     1      -5.780   9.577  63.848  1.00  0.00    -0.076 OA 
HETATM   14  C   UNL     1      -9.673  11.869  65.703  1.00  0.00    -0.248 A  
HETATM   15  C   UNL     1     -10.323  12.179  64.495  1.00  0.00    -0.304 A  
HETATM   16  O   UNL     1      -7.673   8.211  63.118  1.00  0.00    -0.124 OA 
HETATM   17  C   UNL     1      -9.834  11.730  63.273  1.00  0.00    -0.402 A  
HETATM   18  S   UNL     1      -7.046   9.073  64.333  1.00  0.00    -0.091 S  
HETATM   19  S   UNL     1     -11.909  12.970  64.553  1.00  0.00    -0.404 S  
HETATM   20  C   UNL     1      -8.740  10.877  63.272  1.00  0.00    -0.103 A  
HETATM   21  O   UNL     1     -11.614  14.421  65.184  1.00  0.00    -0.335 OA 
HETATM   22  O   UNL     1     -12.348  13.217  63.197  1.00  0.00    -0.682 OA 
HETATM   23  O   UNL     1     -12.709  12.213  65.493  1.00  0.00    -0.315 OA 
HETATM   24  C   UNL     1      -8.159  10.452  64.486  1.00  0.00    -0.114 A  
ENDBRANCH  10  11
BRANCH  10  25
HETATM   25  C   UNL     1      -7.125  11.443  67.695  1.00  0.00    -0.092 A  
HETATM   26  C   UNL     1      -6.312  12.421  66.967  1.00  0.00     0.011 A  
HETATM   27  C   UNL     1      -6.811  11.333  69.127  1.00  0.00    -0.109 A  
HETATM   28  C   UNL     1      -6.275  12.366  69.799  1.00  0.00    -0.119 A  
HETATM   29  C   UNL     1      -5.734  13.456  67.600  1.00  0.00    -0.072 A  
HETATM   30  C   UNL     1      -5.941  13.643  69.078  1.00  0.00    -0.084 A  
BRANCH  30  31
HETATM   31  N   UNL     1      -5.831  14.799  69.678  1.00  0.00    -0.099 NA 
BRANCH  31  32
HETATM   32  C   UNL     1      -6.515  16.058  69.171  1.00  0.00    -0.157 C  
HETATM   33  C   UNL     1      -8.025  15.918  69.185  1.00  0.00    -0.233 C  
ENDBRANCH  31  32
BRANCH  31  34
HETATM   34  C   UNL     1      -5.202  14.948  71.050  1.00  0.00    -0.135 C  
HETATM   35  C   UNL     1      -5.378  16.359  71.579  1.00  0.00     0.213 C  
ENDBRANCH  31  34
ENDBRANCH  30  31
ENDBRANCH  10  25
ENDBRANCH   9  10
ENDBRANCH   3   4
BRANCH   3  36
HETATM   36  C   UNL     1      -8.414   4.519  69.945  1.00  0.00    -0.065 C  
HETATM   37  C   UNL     1      -9.249   3.281  69.654  1.00  0.00    -0.221 C  
ENDBRANCH   3  36
ENDBRANCH   2   3
TORSDOF 9
ENDMDL
MODEL       95
REMARK 921   NORMALIZED FREE ENERGY PREDICTED BY IDOCK:   -1.95 KCAL/MOL
REMARK 922        TOTAL FREE ENERGY PREDICTED BY IDOCK:   -5.30 KCAL/MOL
REMARK 923 INTER-LIGAND FREE ENERGY PREDICTED BY IDOCK:   -3.40 KCAL/MOL
REMARK 924 INTRA-LIGAND FREE ENERGY PREDICTED BY IDOCK:   -1.90 KCAL/MOL
REMARK 927      BINDING AFFINITY PREDICTED BY RF-SCORE:    0.00 PKD
ROOT
HETATM    1  C   UNL     1      -6.054  20.020  70.162  1.00  0.00    -0.393 C  
HETATM    2  C   UNL     1      -5.633  18.592  69.853  1.00  0.00    -0.234 C  
ENDROOT
BRANCH   2   3
HETATM    3  N   UNL     1      -6.051  18.194  68.498  1.00  0.00    -0.188 NA 
BRANCH   3   4
HETATM    4  C   UNL     1      -6.594  16.926  68.309  1.00  0.00    -0.147 A  
HETATM    5  C   UNL     1      -7.855  16.542  68.783  1.00  0.00    -0.235 A  
HETATM    6  C   UNL     1      -5.898  15.947  67.583  1.00  0.00    -0.171 A  
HETATM    7  C   UNL     1      -8.436  15.302  68.429  1.00  0.00    -0.158 A  
HETATM    8  C   UNL     1      -6.456  14.702  67.238  1.00  0.00     0.263 A  
HETATM    9  C   UNL     1      -7.763  14.387  67.609  1.00  0.00    -0.198 A  
BRANCH   9  10
HETATM   10  C   UNL     1      -8.459  13.160  67.079  1.00  0.00    -0.139 C  
BRANCH  10  11
HETATM   11  C   UNL     1      -9.890  13.280  66.617  1.00  0.00    -0.276 A  
HETATM   12  O   UNL     1      -9.842  11.921  69.401  1.00  0.00     0.307 OA 
HETATM   13  O   UNL     1     -10.917  10.075  68.040  1.00  0.00    -0.261 OA 
HETATM   14  C   UNL     1     -10.185  14.282  65.671  1.00  0.00    -0.366 A  
HETATM   15  C   UNL     1     -11.511  14.522  65.267  1.00  0.00    -0.355 A  
HETATM   16  O   UNL     1     -12.275  11.691  69.275  1.00  0.00    -0.271 OA 
HETATM   17  C   UNL     1     -12.553  13.696  65.672  1.00  0.00    -0.531 A  
HETATM   18  S   UNL     1     -10.873  11.442  68.510  1.00  0.00    -0.228 S  
HETATM   19  S   UNL     1     -11.885  16.028  64.408  1.00  0.00     0.217 S  
HETATM   20  C   UNL     1     -12.278  12.678  66.574  1.00  0.00    -0.130 A  
HETATM   21  O   UNL     1     -11.102  15.899  63.008  1.00  0.00     1.944 OA 
HETATM   22  O   UNL     1     -13.292  16.024  64.068  1.00  0.00     0.238 OA 
HETATM   23  O   UNL     1     -11.284  17.097  65.175  1.00  0.00    -0.318 OA 
HETATM   24  C   UNL     1     -10.975  12.509  67.091  1.00  0.00    -0.263 A  
ENDBRANCH  10  11
BRANCH  10  25
HETATM   25  C   UNL     1      -7.866  11.930  67.170  1.00  0.00    -0.168 A  
HETATM   26  C   UNL     1      -6.923  11.577  68.235  1.00  0.00    -0.073 A  
HETATM   27  C   UNL     1      -8.023  10.904  66.128  1.00  0.00    -0.155 A  
HETATM   28  C   UNL     1      -7.795   9.607  66.395  1.00  0.00    -0.101 A  
HETATM   29  C   UNL     1      -6.643  10.294  68.521  1.00  0.00    -0.052 A  
HETATM   30  C   UNL     1      -7.324   9.189  67.761  1.00  0.00    -0.084 A  
BRANCH  30  31
HETATM   31  N   UNL     1      -7.484   7.982  68.237  1.00  0.00    -0.098 NA 
BRANCH  31  32
HETATM   32  C   UNL     1      -7.729   7.704  69.710  1.00  0.00    -0.098 C  
HETATM   33  C   UNL     1      -9.110   8.159  70.143  1.00  0.00    -0.147 C  
ENDBRANCH  31  32
BRANCH  31  34
HETATM   34  C   UNL     1      -7.662   6.771  67.341  1.00  0.00    -0.110 C  
HETATM   35  C   UNL     1      -6.347   6.041  67.145  1.00  0.00    -0.041 C  
ENDBRANCH  31  34
ENDBRANCH  30  31
ENDBRANCH  10  25
ENDBRANCH   9  10
ENDBRANCH   3   4
BRANCH   3  36
HETATM   36  C   UNL     1      -5.608  19.060  67.399  1.00  0.00    -0.161 C  
HETATM   37  C   UNL     1      -6.762  19.324  66.442  1.00  0.00    -0.213 C  
ENDBRANCH   3  36
ENDBRANCH   2   3
TORSDOF 9
ENDMDL
MODEL       96
REMARK 921   NORMALIZED FREE ENERGY PREDICTED BY IDOCK:   -1.89 KCAL/MOL
REMARK 922        TOTAL FREE ENERGY PREDICTED BY IDOCK:   -5.21 KCAL/MOL
REMARK 923 INTER-LIGAND FREE ENERGY PREDICTED BY IDOCK:   -4.78 KCAL/MOL
REMARK 924 INTRA-LIGAND FREE ENERGY PREDICTED BY IDOCK:   -0.43 KCAL/MOL
REMARK 927      BINDING AFFINITY PREDICTED BY RF-SCORE:    0.00 PKD
ROOT
HETATM    1  C   UNL     1     -12.609  14.476  67.441  1.00  0.00     0.525 C  
HETATM    2  C   UNL     1     -11.674  15.548  67.978  1.00  0.00    -0.186 C  
ENDROOT
BRANCH   2   3
HETATM    3  N   UNL     1     -10.264  15.147  67.833  1.00  0.00    -0.231 NA 
BRANCH   3   4
HETATM    4  C   UNL     1      -9.953  13.791  67.804  1.00  0.00    -0.242 A  
HETATM    5  C   UNL     1      -9.076  13.214  66.876  1.00  0.00    -0.231 A  
HETATM    6  C   UNL     1     -10.492  12.909  68.754  1.00  0.00    -0.183 A  
HETATM    7  C   UNL     1      -8.662  11.867  66.983  1.00  0.00    -0.181 A  
HETATM    8  C   UNL     1     -10.102  11.560  68.862  1.00  0.00    -0.144 A  
HETATM    9  C   UNL     1      -9.131  11.036  68.010  1.00  0.00    -0.152 A  
BRANCH   9  10
HETATM   10  C   UNL     1      -8.541   9.668  68.233  1.00  0.00    -0.119 C  
BRANCH  10  11
HETATM   11  C   UNL     1      -8.361   8.752  67.048  1.00  0.00    -0.103 A  
HETATM   12  O   UNL     1     -11.044   8.077  68.443  1.00  0.00     0.142 OA 
HETATM   13  O   UNL     1      -9.856   5.855  68.698  1.00  0.00    -0.124 OA 
HETATM   14  C   UNL     1      -7.518   9.194  66.008  1.00  0.00    -0.095 A  
HETATM   15  C   UNL     1      -7.379   8.444  64.826  1.00  0.00    -0.088 A  
HETATM   16  O   UNL     1     -11.373   6.271  66.826  1.00  0.00    -0.229 OA 
HETATM   17  C   UNL     1      -7.949   7.182  64.698  1.00  0.00    -0.114 A  
HETATM   18  S   UNL     1     -10.349   6.942  67.882  1.00  0.00    -0.214 S  
HETATM   19  S   UNL     1      -6.652   9.213  63.404  1.00  0.00    -0.091 S  
HETATM   20  C   UNL     1      -8.752   6.711  65.727  1.00  0.00    -0.126 A  
HETATM   21  O   UNL     1      -5.126   9.492  63.833  1.00  0.00    -0.057 OA 
HETATM   22  O   UNL     1      -6.584   8.235  62.339  1.00  0.00    -0.087 OA 
HETATM   23  O   UNL     1      -7.323  10.484  63.238  1.00  0.00    -0.096 OA 
HETATM   24  C   UNL     1      -9.008   7.510  66.862  1.00  0.00    -0.135 A  
ENDBRANCH  10  11
BRANCH  10  25
HETATM   25  C   UNL     1      -8.328   9.201  69.502  1.00  0.00    -0.126 A  
HETATM   26  C   UNL     1      -9.198   9.539  70.632  1.00  0.00    -0.243 A  
HETATM   27  C   UNL     1      -7.129   8.430  69.864  1.00  0.00    -0.051 A  
HETATM   28  C   UNL     1      -7.113   7.648  70.956  1.00  0.00    -0.054 A  
HETATM   29  C   UNL     1      -9.198   8.803  71.756  1.00  0.00    -0.332 A  
HETATM   30  C   UNL     1      -8.315   7.590  71.860  1.00  0.00    -0.107 A  
BRANCH  30  31
HETATM   31  N   UNL     1      -8.561   6.587  72.662  1.00  0.00    -0.125 NA 
BRANCH  31  32
HETATM   32  C   UNL     1      -9.937   6.323  73.250  1.00  0.00    -0.180 C  
HETATM   33  C   UNL     1     -10.926   5.889  72.186  1.00  0.00    -0.317 C  
ENDBRANCH  31  32
BRANCH  31  34
HETATM   34  C   UNL     1      -7.561   5.473  72.904  1.00  0.00    -0.097 C  
HETATM   35  C   UNL     1      -7.093   5.465  74.346  1.00  0.00    -0.078 C  
ENDBRANCH  31  34
ENDBRANCH  30  31
ENDBRANCH  10  25
ENDBRANCH   9  10
ENDBRANCH   3   4
BRANCH   3  36
HETATM   36  C   UNL     1      -9.264  16.207  68.010  1.00  0.00    -0.195 C  
HETATM   37  C   UNL     1      -9.946  17.565  68.080  1.00  0.00    -0.310 C  
ENDBRANCH   3  36
ENDBRANCH   2   3
TORSDOF 9
ENDMDL
MODEL       97
REMARK 921   NORMALIZED FREE ENERGY PREDICTED BY IDOCK:   -1.63 KCAL/MOL
REMARK 922        TOTAL FREE ENERGY PREDICTED BY IDOCK:   -4.81 KCAL/MOL
REMARK 923 INTER-LIGAND FREE ENERGY PREDICTED BY IDOCK:   -4.03 KCAL/MOL
REMARK 924 INTRA-LIGAND FREE ENERGY PREDICTED BY IDOCK:   -0.78 KCAL/MOL
REMARK 927      BINDING AFFINITY PREDICTED BY RF-SCORE:    0.00 PKD
ROOT
HETATM    1  C   UNL     1     -13.155  13.937  66.149  1.00  0.00     0.295 C  
HETATM    2  C   UNL     1     -12.425  15.122  66.763  1.00  0.00     0.868 C  
ENDROOT
BRANCH   2   3
HETATM    3  N   UNL     1     -10.994  14.829  66.947  1.00  0.00    -0.320 NA 
BRANCH   3   4
HETATM    4  C   UNL     1     -10.587  13.501  67.038  1.00  0.00    -0.269 A  
HETATM    5  C   UNL     1      -9.779  12.868  66.085  1.00  0.00    -0.250 A  
HETATM    6  C   UNL     1     -10.952  12.712  68.141  1.00  0.00    -0.265 A  
HETATM    7  C   UNL     1      -9.256  11.572  66.298  1.00  0.00    -0.222 A  
HETATM    8  C   UNL     1     -10.452  11.413  68.358  1.00  0.00    -0.221 A  
HETATM    9  C   UNL     1      -9.545  10.847  67.462  1.00  0.00    -0.171 A  
BRANCH   9  10
HETATM   10  C   UNL     1      -8.834   9.556  67.771  1.00  0.00    -0.119 C  
BRANCH  10  11
HETATM   11  C   UNL     1      -8.587   8.577  66.650  1.00  0.00    -0.122 A  
HETATM   12  O   UNL     1      -6.134  10.451  66.910  1.00  0.00    -0.057 OA 
HETATM   13  O   UNL     1      -6.842  10.996  64.540  1.00  0.00     0.413 OA 
HETATM   14  C   UNL     1      -9.295   7.358  66.684  1.00  0.00    -0.215 A  
HETATM   15  C   UNL     1      -9.044   6.354  65.732  1.00  0.00     0.003 A  
HETATM   16  O   UNL     1      -5.126   9.314  64.991  1.00  0.00    -0.039 OA 
HETATM   17  C   UNL     1      -8.203   6.577  64.648  1.00  0.00    -0.052 A  
HETATM   18  S   UNL     1      -6.449  10.048  65.558  1.00  0.00    -0.102 S  
HETATM   19  S   UNL     1      -9.639   4.712  66.041  1.00  0.00    -0.204 S  
HETATM   20  C   UNL     1      -7.525   7.785  64.573  1.00  0.00    -0.097 A  
HETATM   21  O   UNL     1     -11.243   4.851  66.003  1.00  0.00    -0.016 OA 
HETATM   22  O   UNL     1      -9.294   3.879  64.910  1.00  0.00    -0.138 OA 
HETATM   23  O   UNL     1      -9.238   4.379  67.391  1.00  0.00    -0.125 OA 
HETATM   24  C   UNL     1      -7.666   8.751  65.594  1.00  0.00    -0.091 A  
ENDBRANCH  10  11
BRANCH  10  25
HETATM   25  C   UNL     1      -8.566   9.201  69.066  1.00  0.00    -0.133 A  
HETATM   26  C   UNL     1      -9.481   9.486  70.175  1.00  0.00    -0.287 A  
HETATM   27  C   UNL     1      -7.277   8.623  69.470  1.00  0.00    -0.060 A  
HETATM   28  C   UNL     1      -7.160   7.920  70.609  1.00  0.00    -0.049 A  
HETATM   29  C   UNL     1      -9.387   8.828  71.342  1.00  0.00    -0.328 A  
HETATM   30  C   UNL     1      -8.348   7.755  71.518  1.00  0.00    -0.109 A  
BRANCH  30  31
HETATM   31  N   UNL     1      -8.460   6.780  72.382  1.00  0.00    -0.119 NA 
BRANCH  31  32
HETATM   32  C   UNL     1      -8.781   7.013  73.849  1.00  0.00    -0.161 C  
HETATM   33  C   UNL     1      -7.930   8.121  74.438  1.00  0.00    -0.308 C  
ENDBRANCH  31  32
BRANCH  31  34
HETATM   34  C   UNL     1      -8.503   5.322  71.964  1.00  0.00    -0.126 C  
HETATM   35  C   UNL     1      -9.298   5.148  70.684  1.00  0.00    -0.211 C  
ENDBRANCH  31  34
ENDBRANCH  30  31
ENDBRANCH  10  25
ENDBRANCH   9  10
ENDBRANCH   3   4
BRANCH   3  36
HETATM   36  C   UNL     1     -10.136  15.967  67.299  1.00  0.00    -0.266 C  
HETATM   37  C   UNL     1      -9.332  16.412  66.087  1.00  0.00    -0.360 C  
ENDBRANCH   3  36
ENDBRANCH   2   3
TORSDOF 9
ENDMDL
MODEL       98
REMARK 921   NORMALIZED FREE ENERGY PREDICTED BY IDOCK:   -1.57 KCAL/MOL
REMARK 922        TOTAL FREE ENERGY PREDICTED BY IDOCK:   -4.72 KCAL/MOL
REMARK 923 INTER-LIGAND FREE ENERGY PREDICTED BY IDOCK:   -2.94 KCAL/MOL
REMARK 924 INTRA-LIGAND FREE ENERGY PREDICTED BY IDOCK:   -1.78 KCAL/MOL
REMARK 927      BINDING AFFINITY PREDICTED BY RF-SCORE:    0.00 PKD
ROOT
HETATM    1  C   UNL     1      -8.549  20.190  66.518  1.00  0.00    -0.327 C  
HETATM    2  C   UNL     1      -8.951  18.806  67.002  1.00  0.00    -0.291 C  
ENDROOT
BRANCH   2   3
HETATM    3  N   UNL     1      -7.924  18.231  67.887  1.00  0.00    -0.249 NA 
BRANCH   3   4
HETATM    4  C   UNL     1      -7.960  16.866  68.159  1.00  0.00    -0.195 A  
HETATM    5  C   UNL     1      -8.544  16.318  69.308  1.00  0.00    -0.148 A  
HETATM    6  C   UNL     1      -7.426  15.938  67.251  1.00  0.00    -0.244 A  
HETATM    7  C   UNL     1      -8.705  14.922  69.466  1.00  0.00     0.018 A  
HETATM    8  C   UNL     1      -7.563  14.545  67.403  1.00  0.00    -0.209 A  
HETATM    9  C   UNL     1      -8.261  14.019  68.490  1.00  0.00    -0.136 A  
BRANCH   9  10
HETATM   10  C   UNL     1      -8.606  12.555  68.572  1.00  0.00    -0.054 C  
BRANCH  10  11
HETATM   11  C   UNL     1     -10.057  12.155  68.667  1.00  0.00    -0.161 A  
HETATM   12  O   UNL     1      -9.397  12.853  65.722  1.00  0.00    -0.066 OA 
HETATM   13  O   UNL     1     -11.186  14.585  66.184  1.00  0.00    -0.328 OA 
HETATM   14  C   UNL     1     -10.434  11.335  69.750  1.00  0.00     0.215 A  
HETATM   15  C   UNL     1     -11.746  10.837  69.853  1.00  0.00    -0.333 A  
HETATM   16  O   UNL     1     -11.740  12.439  65.152  1.00  0.00    -0.355 OA 
HETATM   17  C   UNL     1     -12.747  11.246  68.978  1.00  0.00     0.784 A  
HETATM   18  S   UNL     1     -10.730  13.213  66.147  1.00  0.00    -0.281 S  
HETATM   19  S   UNL     1     -12.071   9.505  70.977  1.00  0.00    -0.312 S  
HETATM   20  C   UNL     1     -12.405  12.084  67.927  1.00  0.00     0.641 A  
HETATM   21  O   UNL     1     -11.812  10.135  72.435  1.00  0.00     0.717 OA 
HETATM   22  O   UNL     1     -13.485   9.200  70.931  1.00  0.00    -0.094 OA 
HETATM   23  O   UNL     1     -11.061   8.500  70.723  1.00  0.00    -0.245 OA 
HETATM   24  C   UNL     1     -11.065  12.485  67.735  1.00  0.00    -0.249 A  
ENDBRANCH  10  11
BRANCH  10  25
HETATM   25  C   UNL     1      -7.621  11.616  68.725  1.00  0.00    -0.119 A  
HETATM   26  C   UNL     1      -6.386  11.871  69.472  1.00  0.00    -0.122 A  
HETATM   27  C   UNL     1      -7.662  10.317  68.038  1.00  0.00    -0.089 A  
HETATM   28  C   UNL     1      -6.944   9.274  68.487  1.00  0.00    -0.067 A  
HETATM   29  C   UNL     1      -5.621  10.862  69.918  1.00  0.00    -0.060 A  
HETATM   30  C   UNL     1      -6.041   9.438  69.679  1.00  0.00    -0.039 A  
BRANCH  30  31
HETATM   31  N   UNL     1      -5.654   8.438  70.429  1.00  0.00    -0.025 NA 
BRANCH  31  32
HETATM   32  C   UNL     1      -5.667   8.495  71.947  1.00  0.00    -0.047 C  
HETATM   33  C   UNL     1      -7.036   8.871  72.481  1.00  0.00     0.146 C  
ENDBRANCH  31  32
BRANCH  31  34
HETATM   34  C   UNL     1      -5.370   7.060  69.864  1.00  0.00    -0.019 C  
HETATM   35  C   UNL     1      -6.558   6.137  70.059  1.00  0.00    -0.044 C  
ENDBRANCH  31  34
ENDBRANCH  30  31
ENDBRANCH  10  25
ENDBRANCH   9  10
ENDBRANCH   3   4
BRANCH   3  36
HETATM   36  C   UNL     1      -7.103  19.188  68.639  1.00  0.00    -0.318 C  
HETATM   37  C   UNL     1      -6.242  18.454  69.655  1.00  0.00    -0.235 C  
ENDBRANCH   3  36
ENDBRANCH   2   3
TORSDOF 9
ENDMDL
MODEL       99
REMARK 921   NORMALIZED FREE ENERGY PREDICTED BY IDOCK:   -1.52 KCAL/MOL
REMARK 922        TOTAL FREE ENERGY PREDICTED BY IDOCK:   -4.65 KCAL/MOL
REMARK 923 INTER-LIGAND FREE ENERGY PREDICTED BY IDOCK:   -4.11 KCAL/MOL
REMARK 924 INTRA-LIGAND FREE ENERGY PREDICTED BY IDOCK:   -0.53 KCAL/MOL
REMARK 927      BINDING AFFINITY PREDICTED BY RF-SCORE:    0.00 PKD
ROOT
HETATM    1  C   UNL     1     -11.823  14.781  65.507  1.00  0.00    -0.231 C  
HETATM    2  C   UNL     1     -11.565  15.520  66.811  1.00  0.00     0.132 C  
ENDROOT
BRANCH   2   3
HETATM    3  N   UNL     1     -10.141  15.467  67.181  1.00  0.00    -0.250 NA 
BRANCH   3   4
HETATM    4  C   UNL     1      -9.551  14.226  67.404  1.00  0.00    -0.214 A  
HETATM    5  C   UNL     1      -9.002  13.836  68.632  1.00  0.00    -0.050 A  
HETATM    6  C   UNL     1      -9.504  13.259  66.387  1.00  0.00    -0.225 A  
HETATM    7  C   UNL     1      -8.562  12.512  68.862  1.00  0.00     0.307 A  
HETATM    8  C   UNL     1      -9.053  11.943  66.596  1.00  0.00    -0.203 A  
HETATM    9  C   UNL     1      -8.630  11.534  67.860  1.00  0.00    -0.143 A  
BRANCH   9  10
HETATM   10  C   UNL     1      -8.343  10.087  68.167  1.00  0.00    -0.113 C  
BRANCH  10  11
HETATM   11  C   UNL     1      -8.578   9.581  69.568  1.00  0.00    -0.171 A  
HETATM   12  O   UNL     1     -11.315  10.048  68.194  1.00  0.00    -0.195 OA 
HETATM   13  O   UNL     1     -11.525  11.665  70.133  1.00  0.00    -0.241 OA 
HETATM   14  C   UNL     1      -7.543   8.839  70.172  1.00  0.00    -0.072 A  
HETATM   15  C   UNL     1      -7.724   8.248  71.436  1.00  0.00    -0.097 A  
HETATM   16  O   UNL     1     -12.416   9.393  70.279  1.00  0.00     0.127 OA 
HETATM   17  C   UNL     1      -8.866   8.489  72.191  1.00  0.00    -0.286 A  
HETATM   18  S   UNL     1     -11.289  10.338  69.610  1.00  0.00    -0.246 S  
HETATM   19  S   UNL     1      -6.578   7.006  71.973  1.00  0.00    -0.056 S  
HETATM   20  C   UNL     1      -9.882   9.250  71.631  1.00  0.00    -0.161 A  
HETATM   21  O   UNL     1      -5.183   7.791  72.141  1.00  0.00    -0.035 OA 
HETATM   22  O   UNL     1      -6.950   6.585  73.307  1.00  0.00    -0.077 OA 
HETATM   23  O   UNL     1      -6.449   6.068  70.879  1.00  0.00    -0.038 OA 
HETATM   24  C   UNL     1      -9.769   9.738  70.311  1.00  0.00    -0.223 A  
ENDBRANCH  10  11
BRANCH  10  25
HETATM   25  C   UNL     1      -7.726   9.289  67.241  1.00  0.00    -0.095 A  
HETATM   26  C   UNL     1      -6.291   8.989  67.278  1.00  0.00    -0.060 A  
HETATM   27  C   UNL     1      -8.426   8.777  66.055  1.00  0.00    -0.144 A  
HETATM   28  C   UNL     1      -7.967   7.703  65.390  1.00  0.00    -0.123 A  
HETATM   29  C   UNL     1      -5.781   7.942  66.609  1.00  0.00    -0.039 A  
HETATM   30  C   UNL     1      -6.691   7.036  65.825  1.00  0.00    -0.052 A  
BRANCH  30  31
HETATM   31  N   UNL     1      -6.398   5.793  65.542  1.00  0.00    -0.040 NA 
BRANCH  31  32
HETATM   32  C   UNL     1      -6.604   5.193  64.162  1.00  0.00    -0.038 C  
HETATM   33  C   UNL     1      -8.052   4.808  63.930  1.00  0.00    -0.108 C  
ENDBRANCH  31  32
BRANCH  31  34
HETATM   34  C   UNL     1      -5.622   4.902  66.493  1.00  0.00    -0.017 C  
HETATM   35  C   UNL     1      -6.384   4.696  67.788  1.00  0.00    -0.037 C  
ENDBRANCH  31  34
ENDBRANCH  30  31
ENDBRANCH  10  25
ENDBRANCH   9  10
ENDBRANCH   3   4
BRANCH   3  36
HETATM   36  C   UNL     1      -9.519  16.743  67.559  1.00  0.00    -0.237 C  
HETATM   37  C   UNL     1     -10.167  17.888  66.796  1.00  0.00    -0.360 C  
ENDBRANCH   3  36
ENDBRANCH   2   3
TORSDOF 9
ENDMDL
MODEL      100
REMARK 921   NORMALIZED FREE ENERGY PREDICTED BY IDOCK:   -1.51 KCAL/MOL
REMARK 922        TOTAL FREE ENERGY PREDICTED BY IDOCK:   -4.62 KCAL/MOL
REMARK 923 INTER-LIGAND FREE ENERGY PREDICTED BY IDOCK:   -3.88 KCAL/MOL
REMARK 924 INTRA-LIGAND FREE ENERGY PREDICTED BY IDOCK:   -0.74 KCAL/MOL
REMARK 927      BINDING AFFINITY PREDICTED BY RF-SCORE:    0.00 PKD
ROOT
HETATM    1  C   UNL     1     -11.095   4.555  64.762  1.00  0.00     0.148 C  
HETATM    2  C   UNL     1     -10.222   3.333  64.522  1.00  0.00    -0.037 C  
ENDROOT
BRANCH   2   3
HETATM    3  N   UNL     1      -8.850   3.554  65.009  1.00  0.00    -0.119 NA 
BRANCH   3   4
HETATM    4  C   UNL     1      -8.663   4.294  66.173  1.00  0.00    -0.114 A  
HETATM    5  C   UNL     1      -8.481   5.683  66.191  1.00  0.00    -0.128 A  
HETATM    6  C   UNL     1      -8.682   3.671  67.432  1.00  0.00    -0.129 A  
HETATM    7  C   UNL     1      -8.459   6.414  67.401  1.00  0.00    -0.108 A  
HETATM    8  C   UNL     1      -8.644   4.384  68.645  1.00  0.00    -0.108 A  
HETATM    9  C   UNL     1      -8.592   5.778  68.643  1.00  0.00    -0.109 A  
BRANCH   9  10
HETATM   10  C   UNL     1      -8.762   6.575  69.910  1.00  0.00    -0.140 C  
BRANCH  10  11
HETATM   11  C   UNL     1      -9.371   5.903  71.115  1.00  0.00    -0.170 A  
HETATM   12  O   UNL     1     -11.622   7.254  69.470  1.00  0.00     0.041 OA 
HETATM   13  O   UNL     1     -11.875   8.508  71.656  1.00  0.00    -0.277 OA 
HETATM   14  C   UNL     1      -8.654   4.838  71.697  1.00  0.00    -0.129 A  
HETATM   15  C   UNL     1      -9.202   4.097  72.759  1.00  0.00    -0.115 A  
HETATM   16  O   UNL     1     -13.228   6.530  71.168  1.00  0.00     0.053 OA 
HETATM   17  C   UNL     1     -10.396   4.471  73.364  1.00  0.00    -0.241 A  
HETATM   18  S   UNL     1     -11.819   7.276  70.901  1.00  0.00    -0.298 S  
HETATM   19  S   UNL     1      -8.468   2.539  73.185  1.00  0.00    -0.071 S  
HETATM   20  C   UNL     1     -11.100   5.542  72.831  1.00  0.00    -0.349 A  
HETATM   21  O   UNL     1      -7.003   2.920  73.732  1.00  0.00    -0.033 OA 
HETATM   22  O   UNL     1      -9.178   1.994  74.322  1.00  0.00    -0.068 OA 
HETATM   23  O   UNL     1      -8.321   1.804  71.947  1.00  0.00    -0.047 OA 
HETATM   24  C   UNL     1     -10.627   6.212  71.682  1.00  0.00    -0.230 A  
ENDBRANCH  10  11
BRANCH  10  25
HETATM   25  C   UNL     1      -8.524   7.923  69.920  1.00  0.00    -0.127 A  
HETATM   26  C   UNL     1      -7.814   8.598  71.010  1.00  0.00    -0.128 A  
HETATM   27  C   UNL     1      -9.081   8.826  68.903  1.00  0.00    -0.141 A  
HETATM   28  C   UNL     1      -8.538  10.034  68.678  1.00  0.00    -0.123 A  
HETATM   29  C   UNL     1      -7.277   9.818  70.841  1.00  0.00     0.072 A  
HETATM   30  C   UNL     1      -7.373  10.503  69.506  1.00  0.00    -0.148 A  
BRANCH  30  31
HETATM   31  N   UNL     1      -6.533  11.422  69.107  1.00  0.00    -0.076 NA 
BRANCH  31  32
HETATM   32  C   UNL     1      -5.129  11.100  68.624  1.00  0.00    -0.040 C  
HETATM   33  C   UNL     1      -5.131   9.963  67.620  1.00  0.00    -0.035 C  
ENDBRANCH  31  32
BRANCH  31  34
HETATM   34  C   UNL     1      -6.950  12.863  68.878  1.00  0.00    -0.084 C  
HETATM   35  C   UNL     1      -6.127  13.497  67.773  1.00  0.00    -0.148 C  
ENDBRANCH  31  34
ENDBRANCH  30  31
ENDBRANCH  10  25
ENDBRANCH   9  10
ENDBRANCH   3   4
BRANCH   3  36
HETATM   36  C   UNL     1      -7.766   3.214  64.079  1.00  0.00    -0.076 C  
HETATM   37  C   UNL     1      -7.231   4.474  63.415  1.00  0.00    -0.049 C  
ENDBRANCH   3  36
ENDBRANCH   2   3
TORSDOF 9
ENDMDL
MODEL      101
REMARK 921   NORMALIZED FREE ENERGY PREDICTED BY IDOCK:   -1.41 KCAL/MOL
REMARK 922        TOTAL FREE ENERGY PREDICTED BY IDOCK:   -4.48 KCAL/MOL
REMARK 923 INTER-LIGAND FREE ENERGY PREDICTED BY IDOCK:   -5.37 KCAL/MOL
REMARK 924 INTRA-LIGAND FREE ENERGY PREDICTED BY IDOCK:    0.89 KCAL/MOL
REMARK 927      BINDING AFFINITY PREDICTED BY RF-SCORE:    0.00 PKD
ROOT
HETATM    1  C   UNL     1     -12.184  13.136  63.362  1.00  0.00    -0.521 C  
HETATM    2  C   UNL     1     -11.856  11.718  62.921  1.00  0.00     0.357 C  
ENDROOT
BRANCH   2   3
HETATM    3  N   UNL     1     -10.790  11.134  63.752  1.00  0.00    -0.345 NA 
BRANCH   3   4
HETATM    4  C   UNL     1     -10.636  11.585  65.060  1.00  0.00    -0.297 A  
HETATM    5  C   UNL     1      -9.524  12.311  65.506  1.00  0.00    -0.029 A  
HETATM    6  C   UNL     1     -11.634  11.356  66.021  1.00  0.00     0.159 A  
HETATM    7  C   UNL     1      -9.484  12.889  66.796  1.00  0.00    -0.245 A  
HETATM    8  C   UNL     1     -11.599  11.910  67.314  1.00  0.00    -0.364 A  
HETATM    9  C   UNL     1     -10.545  12.739  67.699  1.00  0.00    -0.230 A  
BRANCH   9  10
HETATM   10  C   UNL     1     -10.582  13.513  68.991  1.00  0.00    -0.126 C  
BRANCH  10  11
HETATM   11  C   UNL     1     -11.451  13.009  70.116  1.00  0.00    -0.009 A  
HETATM   12  O   UNL     1     -12.604  15.690  69.075  1.00  0.00     0.050 OA 
HETATM   13  O   UNL     1     -12.113  16.336  71.475  1.00  0.00    -0.425 OA 
HETATM   14  C   UNL     1     -11.431  11.625  70.382  1.00  0.00     0.001 A  
HETATM   15  C   UNL     1     -12.289  11.065  71.347  1.00  0.00    -0.262 A  
HETATM   16  O   UNL     1     -14.332  15.559  70.803  1.00  0.00    -0.284 OA 
HETATM   17  C   UNL     1     -13.078  11.865  72.165  1.00  0.00    -0.327 A  
HETATM   18  S   UNL     1     -12.747  15.479  70.497  1.00  0.00    -0.302 S  
HETATM   19  S   UNL     1     -12.527   9.308  71.365  1.00  0.00    -0.349 S  
HETATM   20  C   UNL     1     -13.083  13.235  71.946  1.00  0.00    -0.483 A  
HETATM   21  O   UNL     1     -11.089   8.711  71.774  1.00  0.00    -0.278 OA 
HETATM   22  O   UNL     1     -13.411   8.977  72.461  1.00  0.00    -0.454 OA 
HETATM   23  O   UNL     1     -12.815   8.920  70.001  1.00  0.00     1.064 OA 
HETATM   24  C   UNL     1     -12.329  13.796  70.894  1.00  0.00    -0.380 A  
ENDBRANCH  10  11
BRANCH  10  25
HETATM   25  C   UNL     1      -9.972  14.735  69.087  1.00  0.00    -0.184 A  
HETATM   26  C   UNL     1      -8.893  15.014  70.038  1.00  0.00     0.424 A  
HETATM   27  C   UNL     1     -10.442  15.908  68.336  1.00  0.00    -0.254 A  
HETATM   28  C   UNL     1      -9.634  16.958  68.116  1.00  0.00    -0.255 A  
HETATM   29  C   UNL     1      -8.075  16.067  69.875  1.00  0.00     0.538 A  
HETATM   30  C   UNL     1      -8.241  16.969  68.683  1.00  0.00    -0.261 A  
BRANCH  30  31
HETATM   31  N   UNL     1      -7.272  17.698  68.193  1.00  0.00    -0.211 NA 
BRANCH  31  32
HETATM   32  C   UNL     1      -6.353  17.209  67.087  1.00  0.00    -0.173 C  
HETATM   33  C   UNL     1      -5.961  15.757  67.287  1.00  0.00     0.001 C  
ENDBRANCH  31  32
BRANCH  31  34
HETATM   34  C   UNL     1      -7.116  19.171  68.520  1.00  0.00    -0.300 C  
HETATM   35  C   UNL     1      -6.503  19.361  69.894  1.00  0.00    -0.257 C  
ENDBRANCH  31  34
ENDBRANCH  30  31
ENDBRANCH  10  25
ENDBRANCH   9  10
ENDBRANCH   3   4
BRANCH   3  36
HETATM   36  C   UNL     1      -9.790  10.319  63.050  1.00  0.00    -0.030 C  
HETATM   37  C   UNL     1      -8.749  11.215  62.397  1.00  0.00    -0.328 C  
ENDBRANCH   3  36
ENDBRANCH   2   3
TORSDOF 9
ENDMDL
MODEL      102
REMARK 921   NORMALIZED FREE ENERGY PREDICTED BY IDOCK:   -1.32 KCAL/MOL
REMARK 922        TOTAL FREE ENERGY PREDICTED BY IDOCK:   -4.35 KCAL/MOL
REMARK 923 INTER-LIGAND FREE ENERGY PREDICTED BY IDOCK:   -2.44 KCAL/MOL
REMARK 924 INTRA-LIGAND FREE ENERGY PREDICTED BY IDOCK:   -1.91 KCAL/MOL
REMARK 927      BINDING AFFINITY PREDICTED BY RF-SCORE:    0.00 PKD
ROOT
HETATM    1  C   UNL     1      -6.322  20.247  70.770  1.00  0.00    -0.153 C  
HETATM    2  C   UNL     1      -5.375  19.784  69.673  1.00  0.00    -0.205 C  
ENDROOT
BRANCH   2   3
HETATM    3  N   UNL     1      -6.117  19.343  68.480  1.00  0.00    -0.226 NA 
BRANCH   3   4
HETATM    4  C   UNL     1      -6.727  18.092  68.494  1.00  0.00    -0.225 A  
HETATM    5  C   UNL     1      -8.085  17.891  68.774  1.00  0.00    -0.238 A  
HETATM    6  C   UNL     1      -5.996  16.933  68.186  1.00  0.00    -0.124 A  
HETATM    7  C   UNL     1      -8.696  16.626  68.617  1.00  0.00    -0.250 A  
HETATM    8  C   UNL     1      -6.588  15.664  68.043  1.00  0.00    -0.152 A  
HETATM    9  C   UNL     1      -7.965  15.506  68.199  1.00  0.00    -0.132 A  
BRANCH   9  10
HETATM   10  C   UNL     1      -8.656  14.214  67.848  1.00  0.00    -0.178 C  
BRANCH  10  11
HETATM   11  C   UNL     1     -10.101  14.256  67.417  1.00  0.00    -0.247 A  
HETATM   12  O   UNL     1      -9.952  14.674  70.484  1.00  0.00     0.575 OA 
HETATM   13  O   UNL     1     -11.338  12.555  70.405  1.00  0.00     0.174 OA 
HETATM   14  C   UNL     1     -10.368  14.597  66.076  1.00  0.00    -0.317 A  
HETATM   15  C   UNL     1     -11.691  14.756  65.624  1.00  0.00    -0.257 A  
HETATM   16  O   UNL     1     -12.397  14.755  70.540  1.00  0.00    -0.297 OA 
HETATM   17  C   UNL     1     -12.776  14.447  66.437  1.00  0.00     0.121 A  
HETATM   18  S   UNL     1     -11.105  13.931  70.027  1.00  0.00     0.262 S  
HETATM   19  S   UNL     1     -11.975  15.569  64.074  1.00  0.00     0.297 S  
HETATM   20  C   UNL     1     -12.534  14.072  67.750  1.00  0.00     0.179 A  
HETATM   21  O   UNL     1     -11.337  14.579  62.977  1.00  0.00     1.720 OA 
HETATM   22  O   UNL     1     -13.398  15.574  63.813  1.00  0.00     0.243 OA 
HETATM   23  O   UNL     1     -11.195  16.787  64.102  1.00  0.00    -1.155 OA 
HETATM   24  C   UNL     1     -11.216  14.037  68.255  1.00  0.00    -0.268 A  
ENDBRANCH  10  11
BRANCH  10  25
HETATM   25  C   UNL     1      -8.040  13.012  68.075  1.00  0.00    -0.157 A  
HETATM   26  C   UNL     1      -7.161  12.771  69.223  1.00  0.00     0.103 A  
HETATM   27  C   UNL     1      -8.103  11.904  67.111  1.00  0.00    -0.172 A  
HETATM   28  C   UNL     1      -7.862  10.639  67.494  1.00  0.00    -0.106 A  
HETATM   29  C   UNL     1      -6.869  11.524  69.627  1.00  0.00    -0.038 A  
HETATM   30  C   UNL     1      -7.472  10.343  68.917  1.00  0.00    -0.099 A  
BRANCH  30  31
HETATM   31  N   UNL     1      -7.633   9.173  69.477  1.00  0.00    -0.076 NA 
BRANCH  31  32
HETATM   32  C   UNL     1      -6.795   7.961  69.105  1.00  0.00    -0.052 C  
HETATM   33  C   UNL     1      -5.849   7.571  70.224  1.00  0.00    -0.023 C  
ENDBRANCH  31  32
BRANCH  31  34
HETATM   34  C   UNL     1      -8.509   8.968  70.698  1.00  0.00    -0.196 C  
HETATM   35  C   UNL     1      -9.957   9.299  70.389  1.00  0.00    -0.287 C  
ENDBRANCH  31  34
ENDBRANCH  30  31
ENDBRANCH  10  25
ENDBRANCH   9  10
ENDBRANCH   3   4
BRANCH   3  36
HETATM   36  C   UNL     1      -5.925  20.140  67.262  1.00  0.00    -0.175 C  
HETATM   37  C   UNL     1      -7.182  20.938  66.955  1.00  0.00    -0.308 C  
ENDBRANCH   3  36
ENDBRANCH   2   3
TORSDOF 9
ENDMDL
MODEL      103
REMARK 921   NORMALIZED FREE ENERGY PREDICTED BY IDOCK:   -1.31 KCAL/MOL
REMARK 922        TOTAL FREE ENERGY PREDICTED BY IDOCK:   -4.33 KCAL/MOL
REMARK 923 INTER-LIGAND FREE ENERGY PREDICTED BY IDOCK:   -4.05 KCAL/MOL
REMARK 924 INTRA-LIGAND FREE ENERGY PREDICTED BY IDOCK:   -0.28 KCAL/MOL
REMARK 927      BINDING AFFINITY PREDICTED BY RF-SCORE:    0.00 PKD
ROOT
HETATM    1  C   UNL     1     -11.006   4.626  65.000  1.00  0.00     0.068 C  
HETATM    2  C   UNL     1      -9.943   3.538  64.998  1.00  0.00    -0.063 C  
ENDROOT
BRANCH   2   3
HETATM    3  N   UNL     1      -8.598   4.107  65.196  1.00  0.00    -0.114 NA 
BRANCH   3   4
HETATM    4  C   UNL     1      -8.474   5.313  65.879  1.00  0.00    -0.124 A  
HETATM    5  C   UNL     1      -8.852   6.552  65.345  1.00  0.00     0.050 A  
HETATM    6  C   UNL     1      -7.979   5.347  67.193  1.00  0.00    -0.101 A  
HETATM    7  C   UNL     1      -8.862   7.727  66.131  1.00  0.00    -0.192 A  
HETATM    8  C   UNL     1      -7.967   6.513  67.982  1.00  0.00    -0.109 A  
HETATM    9  C   UNL     1      -8.468   7.713  67.476  1.00  0.00    -0.116 A  
BRANCH   9  10
HETATM   10  C   UNL     1      -8.664   8.919  68.356  1.00  0.00    -0.134 C  
BRANCH  10  11
HETATM   11  C   UNL     1      -8.797   8.719  69.845  1.00  0.00    -0.143 A  
HETATM   12  O   UNL     1     -11.606   8.547  68.550  1.00  0.00     0.901 OA 
HETATM   13  O   UNL     1     -11.964  10.525  70.091  1.00  0.00    -0.281 OA 
HETATM   14  C   UNL     1      -7.663   8.256  70.542  1.00  0.00    -0.081 A  
HETATM   15  C   UNL     1      -7.736   7.949  71.913  1.00  0.00    -0.093 A  
HETATM   16  O   UNL     1     -12.563   8.257  70.783  1.00  0.00    -0.024 OA 
HETATM   17  C   UNL     1      -8.879   8.222  72.656  1.00  0.00    -0.304 A  
HETATM   18  S   UNL     1     -11.579   9.150  69.863  1.00  0.00     0.264 S  
HETATM   19  S   UNL     1      -6.432   7.000  72.649  1.00  0.00    -0.053 S  
HETATM   20  C   UNL     1      -9.996   8.714  71.996  1.00  0.00    -0.399 A  
HETATM   21  O   UNL     1      -5.140   7.957  72.565  1.00  0.00    -0.036 OA 
HETATM   22  O   UNL     1      -6.714   6.851  74.061  1.00  0.00    -0.078 OA 
HETATM   23  O   UNL     1      -6.217   5.860  71.785  1.00  0.00    -0.041 OA 
HETATM   24  C   UNL     1      -9.978   8.902  70.597  1.00  0.00    -0.216 A  
ENDBRANCH  10  11
BRANCH  10  25
HETATM   25  C   UNL     1      -8.883  10.154  67.805  1.00  0.00    -0.125 A  
HETATM   26  C   UNL     1      -9.868  10.389  66.746  1.00  0.00    -0.242 A  
HETATM   27  C   UNL     1      -8.052  11.320  68.138  1.00  0.00    -0.134 A  
HETATM   28  C   UNL     1      -8.500  12.570  67.929  1.00  0.00    -0.171 A  
HETATM   29  C   UNL     1     -10.325  11.625  66.482  1.00  0.00    -0.259 A  
HETATM   30  C   UNL     1      -9.848  12.793  67.300  1.00  0.00    -0.207 A  
BRANCH  30  31
HETATM   31  N   UNL     1     -10.533  13.898  67.444  1.00  0.00    -0.262 NA 
BRANCH  31  32
HETATM   32  C   UNL     1     -11.841  13.960  68.215  1.00  0.00    -0.376 C  
HETATM   33  C   UNL     1     -11.605  14.006  69.713  1.00  0.00    -0.344 C  
ENDBRANCH  31  32
BRANCH  31  34
HETATM   34  C   UNL     1      -9.981  15.255  67.052  1.00  0.00    -0.234 C  
HETATM   35  C   UNL     1      -8.828  15.654  67.952  1.00  0.00    -0.171 C  
ENDBRANCH  31  34
ENDBRANCH  30  31
ENDBRANCH  10  25
ENDBRANCH   9  10
ENDBRANCH   3   4
BRANCH   3  36
HETATM   36  C   UNL     1      -7.513   3.499  64.415  1.00  0.00    -0.075 C  
HETATM   37  C   UNL     1      -6.436   2.962  65.346  1.00  0.00    -0.031 C  
ENDBRANCH   3  36
ENDBRANCH   2   3
TORSDOF 9
ENDMDL
MODEL      104
REMARK 921   NORMALIZED FREE ENERGY PREDICTED BY IDOCK:   -1.28 KCAL/MOL
REMARK 922        TOTAL FREE ENERGY PREDICTED BY IDOCK:   -4.28 KCAL/MOL
REMARK 923 INTER-LIGAND FREE ENERGY PREDICTED BY IDOCK:   -5.28 KCAL/MOL
REMARK 924 INTRA-LIGAND FREE ENERGY PREDICTED BY IDOCK:    1.00 KCAL/MOL
REMARK 927      BINDING AFFINITY PREDICTED BY RF-SCORE:    0.00 PKD
ROOT
HETATM    1  C   UNL     1      -5.539  10.853  64.529  1.00  0.00     0.137 C  
HETATM    2  C   UNL     1      -5.128   9.390  64.598  1.00  0.00    -0.048 C  
ENDROOT
BRANCH   2   3
HETATM    3  N   UNL     1      -6.305   8.506  64.598  1.00  0.00    -0.065 NA 
BRANCH   3   4
HETATM    4  C   UNL     1      -7.399   8.846  65.389  1.00  0.00    -0.085 A  
HETATM    5  C   UNL     1      -7.370   8.863  66.789  1.00  0.00    -0.082 A  
HETATM    6  C   UNL     1      -8.616   9.233  64.805  1.00  0.00    -0.207 A  
HETATM    7  C   UNL     1      -8.450   9.371  67.548  1.00  0.00    -0.122 A  
HETATM    8  C   UNL     1      -9.706   9.724  65.548  1.00  0.00    -0.382 A  
HETATM    9  C   UNL     1      -9.613   9.856  66.933  1.00  0.00    -0.225 A  
BRANCH   9  10
HETATM   10  C   UNL     1     -10.673  10.570  67.731  1.00  0.00    -0.319 C  
BRANCH  10  11
HETATM   11  C   UNL     1     -11.330  11.791  67.136  1.00  0.00    -0.387 A  
HETATM   12  O   UNL     1      -9.565  12.661  69.530  1.00  0.00     0.910 OA 
HETATM   13  O   UNL     1     -11.828  13.441  70.358  1.00  0.00    -0.297 OA 
HETATM   14  C   UNL     1     -11.740  11.717  65.790  1.00  0.00    -0.093 A  
HETATM   15  C   UNL     1     -12.267  12.845  65.136  1.00  0.00    -0.470 A  
HETATM   16  O   UNL     1     -10.318  14.963  69.183  1.00  0.00    -0.235 OA 
HETATM   17  C   UNL     1     -12.534  14.023  65.824  1.00  0.00    -0.523 A  
HETATM   18  S   UNL     1     -10.780  13.425  69.362  1.00  0.00     0.234 S  
HETATM   19  S   UNL     1     -12.386  12.832  63.366  1.00  0.00    -0.313 S  
HETATM   20  C   UNL     1     -12.174  14.104  67.161  1.00  0.00    -0.348 A  
HETATM   21  O   UNL     1     -13.473  11.689  63.044  1.00  0.00    -0.237 OA 
HETATM   22  O   UNL     1     -12.990  14.075  62.938  1.00  0.00     0.038 OA 
HETATM   23  O   UNL     1     -11.098  12.394  62.873  1.00  0.00    -0.070 OA 
HETATM   24  C   UNL     1     -11.522  13.025  67.796  1.00  0.00    -0.316 A  
ENDBRANCH  10  11
BRANCH  10  25
HETATM   25  C   UNL     1     -10.918  10.221  69.032  1.00  0.00    -0.274 A  
HETATM   26  C   UNL     1     -12.270  10.137  69.592  1.00  0.00     0.083 A  
HETATM   27  C   UNL     1      -9.838  10.033  70.011  1.00  0.00    -0.247 A  
HETATM   28  C   UNL     1     -10.036   9.319  71.131  1.00  0.00    -0.374 A  
HETATM   29  C   UNL     1     -12.513   9.456  70.725  1.00  0.00    -0.144 A  
HETATM   30  C   UNL     1     -11.393   8.738  71.425  1.00  0.00    -0.294 A  
BRANCH  30  31
HETATM   31  N   UNL     1     -11.579   7.715  72.218  1.00  0.00    -0.305 NA 
BRANCH  31  32
HETATM   32  C   UNL     1     -10.661   7.403  73.388  1.00  0.00    -0.377 C  
HETATM   33  C   UNL     1      -9.332   6.841  72.921  1.00  0.00    -0.151 C  
ENDBRANCH  31  32
BRANCH  31  34
HETATM   34  C   UNL     1     -12.844   6.879  72.185  1.00  0.00    -0.056 C  
HETATM   35  C   UNL     1     -12.587   5.483  72.721  1.00  0.00     0.458 C  
ENDBRANCH  31  34
ENDBRANCH  30  31
ENDBRANCH  10  25
ENDBRANCH   9  10
ENDBRANCH   3   4
BRANCH   3  36
HETATM   36  C   UNL     1      -6.128   7.186  63.979  1.00  0.00    -0.040 C  
HETATM   37  C   UNL     1      -6.435   7.260  62.491  1.00  0.00    -0.057 C  
ENDBRANCH   3  36
ENDBRANCH   2   3
TORSDOF 9
ENDMDL
MODEL      105
REMARK 921   NORMALIZED FREE ENERGY PREDICTED BY IDOCK:   -1.20 KCAL/MOL
REMARK 922        TOTAL FREE ENERGY PREDICTED BY IDOCK:   -4.16 KCAL/MOL
REMARK 923 INTER-LIGAND FREE ENERGY PREDICTED BY IDOCK:   -3.60 KCAL/MOL
REMARK 924 INTRA-LIGAND FREE ENERGY PREDICTED BY IDOCK:   -0.57 KCAL/MOL
REMARK 927      BINDING AFFINITY PREDICTED BY RF-SCORE:    0.00 PKD
ROOT
HETATM    1  C   UNL     1      -7.220  16.505  66.876  1.00  0.00    -0.263 C  
HETATM    2  C   UNL     1      -7.135  15.016  66.581  1.00  0.00     1.201 C  
ENDROOT
BRANCH   2   3
HETATM    3  N   UNL     1      -8.208  14.275  67.265  1.00  0.00    -0.199 NA 
BRANCH   3   4
HETATM    4  C   UNL     1      -8.091  12.894  67.397  1.00  0.00    -0.181 A  
HETATM    5  C   UNL     1      -6.865  12.217  67.418  1.00  0.00    -0.147 A  
HETATM    6  C   UNL     1      -9.230  12.088  67.554  1.00  0.00    -0.180 A  
HETATM    7  C   UNL     1      -6.784  10.837  67.718  1.00  0.00    -0.068 A  
HETATM    8  C   UNL     1      -9.165  10.710  67.835  1.00  0.00    -0.150 A  
HETATM    9  C   UNL     1      -7.931  10.076  67.981  1.00  0.00    -0.101 A  
BRANCH   9  10
HETATM   10  C   UNL     1      -7.826   8.661  68.487  1.00  0.00    -0.108 C  
BRANCH  10  11
HETATM   11  C   UNL     1      -8.006   7.525  67.511  1.00  0.00    -0.116 A  
HETATM   12  O   UNL     1     -10.567   7.789  69.234  1.00  0.00    -0.220 OA 
HETATM   13  O   UNL     1      -9.874   5.433  69.853  1.00  0.00    -0.167 OA 
HETATM   14  C   UNL     1      -7.229   7.550  66.335  1.00  0.00    -0.075 A  
HETATM   15  C   UNL     1      -7.413   6.582  65.331  1.00  0.00    -0.080 A  
HETATM   16  O   UNL     1     -11.492   5.847  68.067  1.00  0.00     0.202 OA 
HETATM   17  C   UNL     1      -8.258   5.494  65.519  1.00  0.00    -0.130 A  
HETATM   18  S   UNL     1     -10.218   6.435  68.869  1.00  0.00    -0.202 S  
HETATM   19  S   UNL     1      -6.725   6.874  63.723  1.00  0.00    -0.044 S  
HETATM   20  C   UNL     1      -9.004   5.430  66.687  1.00  0.00    -0.116 A  
HETATM   21  O   UNL     1      -5.132   6.852  63.955  1.00  0.00    -0.026 OA 
HETATM   22  O   UNL     1      -7.012   5.729  62.886  1.00  0.00    -0.044 OA 
HETATM   23  O   UNL     1      -7.117   8.216  63.348  1.00  0.00    -0.082 OA 
HETATM   24  C   UNL     1      -8.928   6.464  67.645  1.00  0.00    -0.113 A  
ENDBRANCH  10  11
BRANCH  10  25
HETATM   25  C   UNL     1      -7.735   8.407  69.829  1.00  0.00    -0.093 A  
HETATM   26  C   UNL     1      -8.605   9.045  70.821  1.00  0.00    -0.259 A  
HETATM   27  C   UNL     1      -6.665   7.575  70.400  1.00  0.00    -0.047 A  
HETATM   28  C   UNL     1      -6.802   7.007  71.609  1.00  0.00    -0.060 A  
HETATM   29  C   UNL     1      -8.754   8.528  72.052  1.00  0.00    -0.265 A  
HETATM   30  C   UNL     1      -8.042   7.256  72.424  1.00  0.00    -0.100 A  
BRANCH  30  31
HETATM   31  N   UNL     1      -8.454   6.451  73.368  1.00  0.00    -0.121 NA 
BRANCH  31  32
HETATM   32  C   UNL     1      -7.533   5.467  74.071  1.00  0.00    -0.090 C  
HETATM   33  C   UNL     1      -6.175   6.078  74.355  1.00  0.00    -0.069 C  
ENDBRANCH  31  32
BRANCH  31  34
HETATM   34  C   UNL     1      -9.825   6.576  74.004  1.00  0.00    -0.273 C  
HETATM   35  C   UNL     1     -10.453   5.212  74.214  1.00  0.00    -0.315 C  
ENDBRANCH  31  34
ENDBRANCH  30  31
ENDBRANCH  10  25
ENDBRANCH   9  10
ENDBRANCH   3   4
BRANCH   3  36
HETATM   36  C   UNL     1      -9.454  15.012  67.512  1.00  0.00    -0.203 C  
HETATM   37  C   UNL     1     -10.428  14.792  66.365  1.00  0.00    -0.294 C  
ENDBRANCH   3  36
ENDBRANCH   2   3
TORSDOF 9
ENDMDL
MODEL      106
REMARK 921   NORMALIZED FREE ENERGY PREDICTED BY IDOCK:   -1.20 KCAL/MOL
REMARK 922        TOTAL FREE ENERGY PREDICTED BY IDOCK:   -4.16 KCAL/MOL
REMARK 923 INTER-LIGAND FREE ENERGY PREDICTED BY IDOCK:   -3.48 KCAL/MOL
REMARK 924 INTRA-LIGAND FREE ENERGY PREDICTED BY IDOCK:   -0.68 KCAL/MOL
REMARK 927      BINDING AFFINITY PREDICTED BY RF-SCORE:    0.00 PKD
ROOT
HETATM    1  C   UNL     1     -12.675  12.435  64.822  1.00  0.00    -0.324 C  
HETATM    2  C   UNL     1     -12.163  12.003  63.457  1.00  0.00    -0.547 C  
ENDROOT
BRANCH   2   3
HETATM    3  N   UNL     1     -10.913  11.234  63.576  1.00  0.00    -0.339 NA 
BRANCH   3   4
HETATM    4  C   UNL     1     -10.169  11.340  64.747  1.00  0.00    -0.292 A  
HETATM    5  C   UNL     1      -9.717  12.557  65.273  1.00  0.00    -0.074 A  
HETATM    6  C   UNL     1      -9.851  10.200  65.503  1.00  0.00    -0.365 A  
HETATM    7  C   UNL     1      -9.108  12.635  66.547  1.00  0.00    -0.163 A  
HETATM    8  C   UNL     1      -9.229  10.261  66.764  1.00  0.00    -0.180 A  
HETATM    9  C   UNL     1      -8.903  11.492  67.332  1.00  0.00    -0.157 A  
BRANCH   9  10
HETATM   10  C   UNL     1      -8.434  11.604  68.759  1.00  0.00    -0.027 C  
BRANCH  10  11
HETATM   11  C   UNL     1      -8.722  10.468  69.709  1.00  0.00     0.136 A  
HETATM   12  O   UNL     1     -11.395  11.491  68.522  1.00  0.00    -0.227 OA 
HETATM   13  O   UNL     1     -11.816  11.940  70.979  1.00  0.00    -0.008 OA 
HETATM   14  C   UNL     1      -7.683   9.548  69.956  1.00  0.00    -0.146 A  
HETATM   15  C   UNL     1      -7.905   8.408  70.750  1.00  0.00    -0.089 A  
HETATM   16  O   UNL     1     -12.578   9.871  69.922  1.00  0.00     0.170 OA 
HETATM   17  C   UNL     1      -9.103   8.221  71.430  1.00  0.00    -0.217 A  
HETATM   18  S   UNL     1     -11.471  11.047  69.895  1.00  0.00    -0.324 S  
HETATM   19  S   UNL     1      -6.722   7.088  70.702  1.00  0.00    -0.054 S  
HETATM   20  C   UNL     1     -10.126   9.137  71.232  1.00  0.00    -0.388 A  
HETATM   21  O   UNL     1      -5.388   7.719  71.346  1.00  0.00    -0.034 OA 
HETATM   22  O   UNL     1      -7.148   6.057  71.624  1.00  0.00    -0.074 OA 
HETATM   23  O   UNL     1      -6.472   6.812  69.304  1.00  0.00    -0.040 OA 
HETATM   24  C   UNL     1      -9.963  10.213  70.334  1.00  0.00     0.079 A  
ENDBRANCH  10  11
BRANCH  10  25
HETATM   25  C   UNL     1      -7.906  12.777  69.228  1.00  0.00     0.538 A  
HETATM   26  C   UNL     1      -6.518  12.899  69.684  1.00  0.00    -0.044 A  
HETATM   27  C   UNL     1      -8.727  13.978  69.440  1.00  0.00     0.589 A  
HETATM   28  C   UNL     1      -8.166  15.197  69.503  1.00  0.00    -0.160 A  
HETATM   29  C   UNL     1      -5.923  14.099  69.788  1.00  0.00    -0.121 A  
HETATM   30  C   UNL     1      -6.672  15.346  69.405  1.00  0.00    -0.166 A  
BRANCH  30  31
HETATM   31  N   UNL     1      -6.084  16.453  69.033  1.00  0.00    -0.144 NA 
BRANCH  31  32
HETATM   32  C   UNL     1      -5.399  16.608  67.686  1.00  0.00    -0.139 C  
HETATM   33  C   UNL     1      -6.388  16.973  66.595  1.00  0.00    -0.247 C  
ENDBRANCH  31  32
BRANCH  31  34
HETATM   34  C   UNL     1      -6.220  17.748  69.810  1.00  0.00    -0.174 C  
HETATM   35  C   UNL     1      -5.230  17.801  70.958  1.00  0.00    -0.224 C  
ENDBRANCH  31  34
ENDBRANCH  30  31
ENDBRANCH  10  25
ENDBRANCH   9  10
ENDBRANCH   3   4
BRANCH   3  36
HETATM   36  C   UNL     1     -10.401  10.627  62.340  1.00  0.00     0.781 C  
HETATM   37  C   UNL     1      -8.924  10.297  62.492  1.00  0.00    -0.283 C  
ENDBRANCH   3  36
ENDBRANCH   2   3
TORSDOF 9
ENDMDL
MODEL      107
REMARK 921   NORMALIZED FREE ENERGY PREDICTED BY IDOCK:   -0.93 KCAL/MOL
REMARK 922        TOTAL FREE ENERGY PREDICTED BY IDOCK:   -3.74 KCAL/MOL
REMARK 923 INTER-LIGAND FREE ENERGY PREDICTED BY IDOCK:   -3.69 KCAL/MOL
REMARK 924 INTRA-LIGAND FREE ENERGY PREDICTED BY IDOCK:   -0.05 KCAL/MOL
REMARK 927      BINDING AFFINITY PREDICTED BY RF-SCORE:    0.00 PKD
ROOT
HETATM    1  C   UNL     1     -12.356   5.272  72.648  1.00  0.00     0.308 C  
HETATM    2  C   UNL     1     -11.855   6.691  72.870  1.00  0.00     0.239 C  
ENDROOT
BRANCH   2   3
HETATM    3  N   UNL     1     -10.428   6.812  72.528  1.00  0.00    -0.203 NA 
BRANCH   3   4
HETATM    4  C   UNL     1     -10.064   6.888  71.187  1.00  0.00    -0.191 A  
HETATM    5  C   UNL     1     -10.511   5.990  70.208  1.00  0.00    -0.305 A  
HETATM    6  C   UNL     1      -9.232   7.920  70.725  1.00  0.00    -0.159 A  
HETATM    7  C   UNL     1     -10.250   6.200  68.834  1.00  0.00    -0.232 A  
HETATM    8  C   UNL     1      -8.950   8.130  69.362  1.00  0.00    -0.147 A  
HETATM    9  C   UNL     1      -9.508   7.302  68.389  1.00  0.00    -0.142 A  
BRANCH   9  10
HETATM   10  C   UNL     1      -9.399   7.624  66.922  1.00  0.00    -0.203 C  
BRANCH  10  11
HETATM   11  C   UNL     1      -8.750   6.619  66.003  1.00  0.00    -0.155 A  
HETATM   12  O   UNL     1      -6.813   7.249  68.338  1.00  0.00    -0.067 OA 
HETATM   13  O   UNL     1      -5.394   8.014  66.385  1.00  0.00    -0.024 OA 
HETATM   14  C   UNL     1      -9.598   5.828  65.203  1.00  0.00     0.523 A  
HETATM   15  C   UNL     1      -9.075   4.800  64.397  1.00  0.00    -0.084 A  
HETATM   16  O   UNL     1      -5.167   5.761  67.308  1.00  0.00    -0.004 OA 
HETATM   17  C   UNL     1      -7.704   4.621  64.251  1.00  0.00    -0.078 A  
HETATM   18  S   UNL     1      -6.172   7.003  67.067  1.00  0.00    -0.042 S  
HETATM   19  S   UNL     1     -10.181   3.583  63.734  1.00  0.00    -0.242 S  
HETATM   20  C   UNL     1      -6.849   5.416  65.001  1.00  0.00    -0.049 A  
HETATM   21  O   UNL     1     -11.115   4.402  62.711  1.00  0.00     0.125 OA 
HETATM   22  O   UNL     1      -9.418   2.666  62.916  1.00  0.00    -0.094 OA 
HETATM   23  O   UNL     1     -10.998   3.128  64.839  1.00  0.00     0.641 OA 
HETATM   24  C   UNL     1      -7.364   6.361  65.914  1.00  0.00    -0.080 A  
ENDBRANCH  10  11
BRANCH  10  25
HETATM   25  C   UNL     1      -9.730   8.869  66.456  1.00  0.00    -0.322 A  
HETATM   26  C   UNL     1     -10.844   9.651  66.997  1.00  0.00    -0.148 A  
HETATM   27  C   UNL     1      -9.078   9.466  65.282  1.00  0.00    -0.287 A  
HETATM   28  C   UNL     1      -9.102  10.794  65.077  1.00  0.00    -0.226 A  
HETATM   29  C   UNL     1     -10.926  10.977  66.797  1.00  0.00    -0.279 A  
HETATM   30  C   UNL     1      -9.847  11.690  66.029  1.00  0.00    -0.230 A  
BRANCH  30  31
HETATM   31  N   UNL     1      -9.587  12.963  66.168  1.00  0.00    -0.244 NA 
BRANCH  31  32
HETATM   32  C   UNL     1     -10.523  14.053  65.675  1.00  0.00    -0.318 C  
HETATM   33  C   UNL     1     -11.975  13.705  65.940  1.00  0.00    -0.438 C  
ENDBRANCH  31  32
BRANCH  31  34
HETATM   34  C   UNL     1      -8.445  13.472  67.027  1.00  0.00    -0.123 C  
HETATM   35  C   UNL     1      -7.857  12.355  67.867  1.00  0.00    -0.145 C  
ENDBRANCH  31  34
ENDBRANCH  30  31
ENDBRANCH  10  25
ENDBRANCH   9  10
ENDBRANCH   3   4
BRANCH   3  36
HETATM   36  C   UNL     1      -9.474   6.563  73.616  1.00  0.00    -0.152 C  
HETATM   37  C   UNL     1      -8.614   5.351  73.291  1.00  0.00    -0.116 C  
ENDBRANCH   3  36
ENDBRANCH   2   3
TORSDOF 9
ENDMDL
MODEL      108
REMARK 921   NORMALIZED FREE ENERGY PREDICTED BY IDOCK:   -0.87 KCAL/MOL
REMARK 922        TOTAL FREE ENERGY PREDICTED BY IDOCK:   -3.66 KCAL/MOL
REMARK 923 INTER-LIGAND FREE ENERGY PREDICTED BY IDOCK:   -5.18 KCAL/MOL
REMARK 924 INTRA-LIGAND FREE ENERGY PREDICTED BY IDOCK:    1.52 KCAL/MOL
REMARK 927      BINDING AFFINITY PREDICTED BY RF-SCORE:    0.00 PKD
ROOT
HETATM    1  C   UNL     1      -8.058   4.813  65.436  1.00  0.00    -0.112 C  
HETATM    2  C   UNL     1      -7.056   5.699  64.712  1.00  0.00    -0.060 C  
ENDROOT
BRANCH   2   3
HETATM    3  N   UNL     1      -7.644   7.009  64.383  1.00  0.00    -0.101 NA 
BRANCH   3   4
HETATM    4  C   UNL     1      -8.254   7.744  65.395  1.00  0.00    -0.139 A  
HETATM    5  C   UNL     1      -9.633   7.725  65.645  1.00  0.00     0.434 A  
HETATM    6  C   UNL     1      -7.493   8.541  66.265  1.00  0.00    -0.090 A  
HETATM    7  C   UNL     1     -10.189   8.356  66.782  1.00  0.00    -0.376 A  
HETATM    8  C   UNL     1      -8.036   9.188  67.391  1.00  0.00    -0.103 A  
HETATM    9  C   UNL     1      -9.389   9.053  67.698  1.00  0.00    -0.154 A  
BRANCH   9  10
HETATM   10  C   UNL     1      -9.956   9.554  69.001  1.00  0.00    -0.185 C  
BRANCH  10  11
HETATM   11  C   UNL     1     -10.416  10.987  69.090  1.00  0.00    -0.238 A  
HETATM   12  O   UNL     1     -11.940   9.308  71.200  1.00  0.00    -0.293 OA 
HETATM   13  O   UNL     1     -13.893  10.126  69.810  1.00  0.00     0.741 OA 
HETATM   14  C   UNL     1      -9.537  11.982  68.616  1.00  0.00    -0.087 A  
HETATM   15  C   UNL     1      -9.850  13.346  68.757  1.00  0.00    -0.021 A  
HETATM   16  O   UNL     1     -13.188  11.318  71.824  1.00  0.00    -0.450 OA 
HETATM   17  C   UNL     1     -11.089  13.759  69.234  1.00  0.00    -0.253 A  
HETATM   18  S   UNL     1     -12.710  10.375  70.603  1.00  0.00    -0.289 S  
HETATM   19  S   UNL     1      -8.567  14.548  68.529  1.00  0.00    -0.174 S  
HETATM   20  C   UNL     1     -11.986  12.794  69.669  1.00  0.00    -0.354 A  
HETATM   21  O   UNL     1      -8.174  14.429  66.973  1.00  0.00    -0.189 OA 
HETATM   22  O   UNL     1      -9.141  15.867  68.686  1.00  0.00    -0.188 OA 
HETATM   23  O   UNL     1      -7.442  14.101  69.323  1.00  0.00    -0.087 OA 
HETATM   24  C   UNL     1     -11.632  11.428  69.658  1.00  0.00    -0.330 A  
ENDBRANCH  10  11
BRANCH  10  25
HETATM   25  C   UNL     1      -9.902   8.777  70.127  1.00  0.00    -0.192 A  
HETATM   26  C   UNL     1     -10.581   7.483  70.236  1.00  0.00    -0.235 A  
HETATM   27  C   UNL     1      -9.269   9.241  71.370  1.00  0.00    -0.091 A  
HETATM   28  C   UNL     1      -8.863   8.368  72.308  1.00  0.00    -0.289 A  
HETATM   29  C   UNL     1     -10.228   6.588  71.173  1.00  0.00    -0.219 A  
HETATM   30  C   UNL     1      -9.099   6.894  72.118  1.00  0.00    -0.132 A  
BRANCH  30  31
HETATM   31  N   UNL     1      -8.396   5.971  72.721  1.00  0.00    -0.118 NA 
BRANCH  31  32
HETATM   32  C   UNL     1      -9.031   4.804  73.458  1.00  0.00    -0.107 C  
HETATM   33  C   UNL     1     -10.006   5.276  74.519  1.00  0.00    -0.258 C  
ENDBRANCH  31  32
BRANCH  31  34
HETATM   34  C   UNL     1      -6.893   5.854  72.556  1.00  0.00    -0.078 C  
HETATM   35  C   UNL     1      -6.416   4.455  72.897  1.00  0.00    -0.041 C  
ENDBRANCH  31  34
ENDBRANCH  30  31
ENDBRANCH  10  25
ENDBRANCH   9  10
ENDBRANCH   3   4
BRANCH   3  36
HETATM   36  C   UNL     1      -7.787   7.318  62.954  1.00  0.00    -0.128 C  
HETATM   37  C   UNL     1      -8.167   8.779  62.770  1.00  0.00    -0.195 C  
ENDBRANCH   3  36
ENDBRANCH   2   3
TORSDOF 9
ENDMDL
MODEL      109
REMARK 921   NORMALIZED FREE ENERGY PREDICTED BY IDOCK:   -0.73 KCAL/MOL
REMARK 922        TOTAL FREE ENERGY PREDICTED BY IDOCK:   -3.45 KCAL/MOL
REMARK 923 INTER-LIGAND FREE ENERGY PREDICTED BY IDOCK:   -3.98 KCAL/MOL
REMARK 924 INTRA-LIGAND FREE ENERGY PREDICTED BY IDOCK:    0.54 KCAL/MOL
REMARK 927      BINDING AFFINITY PREDICTED BY RF-SCORE:    0.00 PKD
ROOT
HETATM    1  C   UNL     1      -6.229   8.355  71.163  1.00  0.00    -0.038 C  
HETATM    2  C   UNL     1      -5.282   9.467  70.741  1.00  0.00    -0.030 C  
ENDROOT
BRANCH   2   3
HETATM    3  N   UNL     1      -5.654  10.013  69.425  1.00  0.00    -0.038 NA 
BRANCH   3   4
HETATM    4  C   UNL     1      -6.663  10.970  69.357  1.00  0.00    -0.112 A  
HETATM    5  C   UNL     1      -6.426  12.337  69.161  1.00  0.00    -0.100 A  
HETATM    6  C   UNL     1      -8.014  10.598  69.451  1.00  0.00    -0.118 A  
HETATM    7  C   UNL     1      -7.483  13.248  68.935  1.00  0.00     0.002 A  
HETATM    8  C   UNL     1      -9.076  11.498  69.246  1.00  0.00     0.412 A  
HETATM    9  C   UNL     1      -8.820  12.831  68.924  1.00  0.00     0.333 A  
BRANCH   9  10
HETATM   10  C   UNL     1      -9.922  13.764  68.493  1.00  0.00    -0.217 C  
BRANCH  10  11
HETATM   11  C   UNL     1     -10.445  14.776  69.481  1.00  0.00    -0.166 A  
HETATM   12  O   UNL     1      -9.333  16.268  67.004  1.00  0.00    -0.213 OA 
HETATM   13  O   UNL     1      -7.820  17.223  68.796  1.00  0.00    -0.260 OA 
HETATM   14  C   UNL     1     -11.421  14.342  70.400  1.00  0.00    -0.188 A  
HETATM   15  C   UNL     1     -12.031  15.249  71.285  1.00  0.00    -0.353 A  
HETATM   16  O   UNL     1      -9.857  18.388  68.109  1.00  0.00    -0.308 OA 
HETATM   17  C   UNL     1     -11.596  16.566  71.385  1.00  0.00    -0.135 A  
HETATM   18  S   UNL     1      -9.135  16.950  68.262  1.00  0.00    -0.242 S  
HETATM   19  S   UNL     1     -13.515  14.762  72.124  1.00  0.00    -0.438 S  
HETATM   20  C   UNL     1     -10.608  17.005  70.515  1.00  0.00     0.741 A  
HETATM   21  O   UNL     1     -13.054  13.567  73.098  1.00  0.00    -0.374 OA 
HETATM   22  O   UNL     1     -13.922  15.841  72.999  1.00  0.00    -0.526 OA 
HETATM   23  O   UNL     1     -14.397  14.219  71.114  1.00  0.00    -0.172 OA 
HETATM   24  C   UNL     1     -10.082  16.140  69.532  1.00  0.00    -0.241 A  
ENDBRANCH  10  11
BRANCH  10  25
HETATM   25  C   UNL     1     -10.550  13.589  67.289  1.00  0.00    -0.263 A  
HETATM   26  C   UNL     1     -10.292  14.441  66.125  1.00  0.00    -0.305 A  
HETATM   27  C   UNL     1     -11.636  12.615  67.104  1.00  0.00    -0.434 A  
HETATM   28  C   UNL     1     -11.961  12.164  65.881  1.00  0.00    -0.252 A  
HETATM   29  C   UNL     1     -10.623  14.045  64.884  1.00  0.00    -0.442 A  
HETATM   30  C   UNL     1     -11.244  12.693  64.668  1.00  0.00    -0.310 A  
BRANCH  30  31
HETATM   31  N   UNL     1     -11.176  12.043  63.535  1.00  0.00    -0.439 NA 
BRANCH  31  32
HETATM   32  C   UNL     1      -9.893  11.407  63.027  1.00  0.00    -0.347 C  
HETATM   33  C   UNL     1      -9.357  10.375  64.001  1.00  0.00    -0.321 C  
ENDBRANCH  31  32
BRANCH  31  34
HETATM   34  C   UNL     1     -12.409  11.671  62.734  1.00  0.00     0.728 C  
HETATM   35  C   UNL     1     -13.610  11.482  63.641  1.00  0.00     1.261 C  
ENDBRANCH  31  34
ENDBRANCH  30  31
ENDBRANCH  10  25
ENDBRANCH   9  10
ENDBRANCH   3   4
BRANCH   3  36
HETATM   36  C   UNL     1      -5.125   9.305  68.252  1.00  0.00    -0.030 C  
HETATM   37  C   UNL     1      -6.124   8.261  67.777  1.00  0.00    -0.048 C  
ENDBRANCH   3  36
ENDBRANCH   2   3
TORSDOF 9
ENDMDL
MODEL      110
REMARK 921   NORMALIZED FREE ENERGY PREDICTED BY IDOCK:   -0.62 KCAL/MOL
REMARK 922        TOTAL FREE ENERGY PREDICTED BY IDOCK:   -3.27 KCAL/MOL
REMARK 923 INTER-LIGAND FREE ENERGY PREDICTED BY IDOCK:   -5.94 KCAL/MOL
REMARK 924 INTRA-LIGAND FREE ENERGY PREDICTED BY IDOCK:    2.67 KCAL/MOL
REMARK 927      BINDING AFFINITY PREDICTED BY RF-SCORE:    0.00 PKD
ROOT
HETATM    1  C   UNL     1      -9.764  10.278  62.672  1.00  0.00    -0.145 C  
HETATM    2  C   UNL     1      -8.711   9.239  63.024  1.00  0.00    -0.196 C  
ENDROOT
BRANCH   2   3
HETATM    3  N   UNL     1      -7.943   9.640  64.214  1.00  0.00    -0.130 NA 
BRANCH   3   4
HETATM    4  C   UNL     1      -8.604   9.746  65.435  1.00  0.00    -0.149 A  
HETATM    5  C   UNL     1      -9.833   9.132  65.708  1.00  0.00    -0.248 A  
HETATM    6  C   UNL     1      -8.039  10.468  66.498  1.00  0.00    -0.134 A  
HETATM    7  C   UNL     1     -10.388   9.129  67.009  1.00  0.00    -0.333 A  
HETATM    8  C   UNL     1      -8.589  10.488  67.794  1.00  0.00    -0.118 A  
HETATM    9  C   UNL     1      -9.746   9.765  68.081  1.00  0.00    -0.163 A  
BRANCH   9  10
HETATM   10  C   UNL     1     -10.240   9.594  69.493  1.00  0.00    -0.233 C  
BRANCH  10  11
HETATM   11  C   UNL     1     -11.289  10.544  70.016  1.00  0.00    -0.392 A  
HETATM   12  O   UNL     1     -11.175   8.057  71.860  1.00  0.00    -0.253 OA 
HETATM   13  O   UNL     1     -13.575   7.894  71.066  1.00  0.00    -0.096 OA 
HETATM   14  C   UNL     1     -11.164  11.904  69.668  1.00  0.00    -0.184 A  
HETATM   15  C   UNL     1     -12.043  12.866  70.198  1.00  0.00    -0.302 A  
HETATM   16  O   UNL     1     -13.011   9.006  73.169  1.00  0.00    -0.142 OA 
HETATM   17  C   UNL     1     -13.144  12.498  70.964  1.00  0.00    -0.034 A  
HETATM   18  S   UNL     1     -12.492   8.624  71.687  1.00  0.00    -0.352 S  
HETATM   19  S   UNL     1     -11.614  14.582  70.070  1.00  0.00    -0.279 S  
HETATM   20  C   UNL     1     -13.308  11.159  71.286  1.00  0.00    -0.044 A  
HETATM   21  O   UNL     1     -11.655  14.891  68.490  1.00  0.00    -0.297 OA 
HETATM   22  O   UNL     1     -12.684  15.367  70.647  1.00  0.00    -0.407 OA 
HETATM   23  O   UNL     1     -10.246  14.697  70.526  1.00  0.00     0.374 OA 
HETATM   24  C   UNL     1     -12.359  10.199  70.871  1.00  0.00    -0.363 A  
ENDBRANCH  10  11
BRANCH  10  25
HETATM   25  C   UNL     1      -9.634   8.705  70.340  1.00  0.00    -0.196 A  
HETATM   26  C   UNL     1      -9.753   7.252  70.187  1.00  0.00    -0.172 A  
HETATM   27  C   UNL     1      -8.924   9.136  71.553  1.00  0.00    -0.079 A  
HETATM   28  C   UNL     1      -8.014   8.341  72.140  1.00  0.00    -0.186 A  
HETATM   29  C   UNL     1      -8.882   6.416  70.776  1.00  0.00    -0.144 A  
HETATM   30  C   UNL     1      -7.742   6.968  71.588  1.00  0.00    -0.093 A  
BRANCH  30  31
HETATM   31  N   UNL     1      -6.629   6.316  71.800  1.00  0.00    -0.057 NA 
BRANCH  31  32
HETATM   32  C   UNL     1      -5.259   6.934  71.579  1.00  0.00    -0.027 C  
HETATM   33  C   UNL     1      -5.182   7.665  70.253  1.00  0.00    -0.023 C  
ENDBRANCH  31  32
BRANCH  31  34
HETATM   34  C   UNL     1      -6.594   4.969  72.495  1.00  0.00    -0.052 C  
HETATM   35  C   UNL     1      -7.245   5.046  73.863  1.00  0.00    -0.083 C  
ENDBRANCH  31  34
ENDBRANCH  30  31
ENDBRANCH  10  25
ENDBRANCH   9  10
ENDBRANCH   3   4
BRANCH   3  36
HETATM   36  C   UNL     1      -6.594  10.169  63.972  1.00  0.00    -0.113 C  
HETATM   37  C   UNL     1      -5.991   9.519  62.736  1.00  0.00    -0.097 C  
ENDBRANCH   3  36
ENDBRANCH   2   3
TORSDOF 9
ENDMDL
MODEL      111
REMARK 921   NORMALIZED FREE ENERGY PREDICTED BY IDOCK:   -0.26 KCAL/MOL
REMARK 922        TOTAL FREE ENERGY PREDICTED BY IDOCK:   -2.72 KCAL/MOL
REMARK 923 INTER-LIGAND FREE ENERGY PREDICTED BY IDOCK:   -2.70 KCAL/MOL
REMARK 924 INTRA-LIGAND FREE ENERGY PREDICTED BY IDOCK:   -0.02 KCAL/MOL
REMARK 927      BINDING AFFINITY PREDICTED BY RF-SCORE:    0.00 PKD
ROOT
HETATM    1  C   UNL     1      -6.789  13.497  69.795  1.00  0.00     0.170 C  
HETATM    2  C   UNL     1      -7.783  14.411  69.095  1.00  0.00    -0.050 C  
ENDROOT
BRANCH   2   3
HETATM    3  N   UNL     1      -8.460  13.713  67.988  1.00  0.00    -0.164 NA 
BRANCH   3   4
HETATM    4  C   UNL     1      -8.584  12.328  68.045  1.00  0.00    -0.176 A  
HETATM    5  C   UNL     1      -8.525  11.496  66.919  1.00  0.00    -0.165 A  
HETATM    6  C   UNL     1      -8.746  11.670  69.275  1.00  0.00     0.502 A  
HETATM    7  C   UNL     1      -8.490  10.087  67.039  1.00  0.00    -0.125 A  
HETATM    8  C   UNL     1      -8.731  10.269  69.407  1.00  0.00    -0.168 A  
HETATM    9  C   UNL     1      -8.541   9.456  68.289  1.00  0.00    -0.120 A  
BRANCH   9  10
HETATM   10  C   UNL     1      -8.310   7.974  68.421  1.00  0.00    -0.127 C  
BRANCH  10  11
HETATM   11  C   UNL     1      -8.535   7.320  69.762  1.00  0.00    -0.136 A  
HETATM   12  O   UNL     1     -11.282   7.983  68.493  1.00  0.00     0.270 OA 
HETATM   13  O   UNL     1     -11.434   9.380  70.600  1.00  0.00    -0.264 OA 
HETATM   14  C   UNL     1      -7.505   6.499  70.265  1.00  0.00    -0.094 A  
HETATM   15  C   UNL     1      -7.680   5.775  71.458  1.00  0.00    -0.107 A  
HETATM   16  O   UNL     1     -12.365   7.121  70.510  1.00  0.00    -0.213 OA 
HETATM   17  C   UNL     1      -8.806   5.951  72.254  1.00  0.00    -0.138 A  
HETATM   18  S   UNL     1     -11.230   8.114  69.931  1.00  0.00     0.066 S  
HETATM   19  S   UNL     1      -6.550   4.462  71.837  1.00  0.00    -0.023 S  
HETATM   20  C   UNL     1      -9.816   6.786  71.797  1.00  0.00    -0.170 A  
HETATM   21  O   UNL     1      -5.138   5.199  72.068  1.00  0.00    -0.004 OA 
HETATM   22  O   UNL     1      -6.911   3.903  73.122  1.00  0.00    -0.049 OA 
HETATM   23  O   UNL     1      -6.454   3.648  70.645  1.00  0.00    -0.029 OA 
HETATM   24  C   UNL     1      -9.712   7.415  70.537  1.00  0.00    -0.175 A  
ENDBRANCH  10  11
BRANCH  10  25
HETATM   25  C   UNL     1      -7.749   7.263  67.395  1.00  0.00    -0.110 A  
HETATM   26  C   UNL     1      -8.545   6.562  66.383  1.00  0.00    -0.136 A  
HETATM   27  C   UNL     1      -6.300   7.031  67.300  1.00  0.00    -0.052 A  
HETATM   28  C   UNL     1      -5.727   6.705  66.130  1.00  0.00    -0.025 A  
HETATM   29  C   UNL     1      -8.008   6.192  65.208  1.00  0.00    -0.115 A  
HETATM   30  C   UNL     1      -6.574   6.522  64.900  1.00  0.00    -0.042 A  
BRANCH  30  31
HETATM   31  N   UNL     1      -6.106   6.630  63.684  1.00  0.00    -0.034 NA 
BRANCH  31  32
HETATM   32  C   UNL     1      -5.822   7.971  63.028  1.00  0.00    -0.064 C  
HETATM   33  C   UNL     1      -7.102   8.715  62.700  1.00  0.00    -0.097 C  
ENDBRANCH  31  32
BRANCH  31  34
HETATM   34  C   UNL     1      -5.593   5.437  62.899  1.00  0.00    -0.014 C  
HETATM   35  C   UNL     1      -6.453   4.213  63.149  1.00  0.00    -0.026 C  
ENDBRANCH  31  34
ENDBRANCH  30  31
ENDBRANCH  10  25
ENDBRANCH   9  10
ENDBRANCH   3   4
BRANCH   3  36
HETATM   36  C   UNL     1      -8.708  14.503  66.775  1.00  0.00    -0.185 C  
HETATM   37  C   UNL     1     -10.092  14.193  66.223  1.00  0.00    -0.308 C  
ENDBRANCH   3  36
ENDBRANCH   2   3
TORSDOF 9
ENDMDL
MODEL      112
REMARK 921   NORMALIZED FREE ENERGY PREDICTED BY IDOCK:   -0.25 KCAL/MOL
REMARK 922        TOTAL FREE ENERGY PREDICTED BY IDOCK:   -2.71 KCAL/MOL
REMARK 923 INTER-LIGAND FREE ENERGY PREDICTED BY IDOCK:   -6.23 KCAL/MOL
REMARK 924 INTRA-LIGAND FREE ENERGY PREDICTED BY IDOCK:    3.52 KCAL/MOL
REMARK 927      BINDING AFFINITY PREDICTED BY RF-SCORE:    0.00 PKD
ROOT
HETATM    1  C   UNL     1     -11.868  17.208  67.631  1.00  0.00     1.334 C  
HETATM    2  C   UNL     1     -10.904  16.930  68.774  1.00  0.00    -0.289 C  
ENDROOT
BRANCH   2   3
HETATM    3  N   UNL     1      -9.638  16.364  68.278  1.00  0.00    -0.216 NA 
BRANCH   3   4
HETATM    4  C   UNL     1      -9.616  15.038  67.856  1.00  0.00    -0.203 A  
HETATM    5  C   UNL     1      -8.440  14.300  67.673  1.00  0.00    -0.185 A  
HETATM    6  C   UNL     1     -10.811  14.340  67.616  1.00  0.00    -0.273 A  
HETATM    7  C   UNL     1      -8.469  12.912  67.403  1.00  0.00    -0.196 A  
HETATM    8  C   UNL     1     -10.854  12.963  67.329  1.00  0.00    -0.277 A  
HETATM    9  C   UNL     1      -9.678  12.215  67.278  1.00  0.00    -0.193 A  
BRANCH   9  10
HETATM   10  C   UNL     1      -9.703  10.712  67.184  1.00  0.00    -0.199 C  
BRANCH  10  11
HETATM   11  C   UNL     1      -9.169  10.053  65.936  1.00  0.00    -0.211 A  
HETATM   12  O   UNL     1     -10.400  12.794  65.180  1.00  0.00    -0.287 OA 
HETATM   13  O   UNL     1     -11.871  11.265  63.797  1.00  0.00    -0.081 OA 
HETATM   14  C   UNL     1      -8.152   9.091  66.095  1.00  0.00    -0.111 A  
HETATM   15  C   UNL     1      -7.533   8.506  64.975  1.00  0.00    -0.089 A  
HETATM   16  O   UNL     1      -9.886  12.320  62.835  1.00  0.00    -0.196 OA 
HETATM   17  C   UNL     1      -7.993   8.747  63.685  1.00  0.00    -0.158 A  
HETATM   18  S   UNL     1     -10.569  11.758  64.187  1.00  0.00    -0.392 S  
HETATM   19  S   UNL     1      -6.009   7.627  65.200  1.00  0.00    -0.038 S  
HETATM   20  C   UNL     1      -9.020   9.662  63.509  1.00  0.00    -0.247 A  
HETATM   21  O   UNL     1      -6.409   6.350  66.095  1.00  0.00    -0.039 OA 
HETATM   22  O   UNL     1      -5.597   7.091  63.921  1.00  0.00    -0.031 OA 
HETATM   23  O   UNL     1      -5.151   8.488  65.984  1.00  0.00    -0.027 OA 
HETATM   24  C   UNL     1      -9.561  10.356  64.614  1.00  0.00    -0.300 A  
ENDBRANCH  10  11
BRANCH  10  25
HETATM   25  C   UNL     1     -10.346   9.966  68.135  1.00  0.00    -0.232 A  
HETATM   26  C   UNL     1     -10.533   8.517  68.017  1.00  0.00    -0.249 A  
HETATM   27  C   UNL     1     -11.022  10.578  69.288  1.00  0.00    -0.291 A  
HETATM   28  C   UNL     1     -11.286   9.862  70.394  1.00  0.00    -0.376 A  
HETATM   29  C   UNL     1     -10.825   7.763  69.091  1.00  0.00    -0.066 A  
HETATM   30  C   UNL     1     -10.936   8.400  70.449  1.00  0.00    -0.239 A  
BRANCH  30  31
HETATM   31  N   UNL     1     -10.756   7.747  71.567  1.00  0.00    -0.221 NA 
BRANCH  31  32
HETATM   32  C   UNL     1     -11.201   6.307  71.759  1.00  0.00    -0.284 C  
HETATM   33  C   UNL     1     -10.516   5.374  70.780  1.00  0.00    -0.317 C  
ENDBRANCH  31  32
BRANCH  31  34
HETATM   34  C   UNL     1      -9.891   8.282  72.692  1.00  0.00    -0.287 C  
HETATM   35  C   UNL     1      -8.418   8.119  72.371  1.00  0.00    -0.238 C  
ENDBRANCH  31  34
ENDBRANCH  30  31
ENDBRANCH  10  25
ENDBRANCH   9  10
ENDBRANCH   3   4
BRANCH   3  36
HETATM   36  C   UNL     1      -8.428  17.158  68.526  1.00  0.00    -0.262 C  
HETATM   37  C   UNL     1      -8.489  18.464  67.747  1.00  0.00    -0.270 C  
ENDBRANCH   3  36
ENDBRANCH   2   3
TORSDOF 9
ENDMDL
MODEL      113
REMARK 921   NORMALIZED FREE ENERGY PREDICTED BY IDOCK:    0.07 KCAL/MOL
REMARK 922        TOTAL FREE ENERGY PREDICTED BY IDOCK:   -2.23 KCAL/MOL
REMARK 923 INTER-LIGAND FREE ENERGY PREDICTED BY IDOCK:   -0.65 KCAL/MOL
REMARK 924 INTRA-LIGAND FREE ENERGY PREDICTED BY IDOCK:   -1.58 KCAL/MOL
REMARK 927      BINDING AFFINITY PREDICTED BY RF-SCORE:    0.00 PKD
ROOT
HETATM    1  C   UNL     1     -11.458  10.814  62.347  1.00  0.00     2.446 C  
HETATM    2  C   UNL     1     -10.881  11.136  63.717  1.00  0.00    -0.262 C  
ENDROOT
BRANCH   2   3
HETATM    3  N   UNL     1     -11.667  12.181  64.395  1.00  0.00    -0.356 NA 
BRANCH   3   4
HETATM    4  C   UNL     1     -11.059  12.938  65.391  1.00  0.00    -0.281 A  
HETATM    5  C   UNL     1     -10.946  12.522  66.724  1.00  0.00    -0.304 A  
HETATM    6  C   UNL     1     -10.479  14.183  65.095  1.00  0.00    -0.422 A  
HETATM    7  C   UNL     1     -10.178  13.246  67.665  1.00  0.00    -0.228 A  
HETATM    8  C   UNL     1      -9.726  14.923  66.027  1.00  0.00    -0.358 A  
HETATM    9  C   UNL     1      -9.516  14.431  67.314  1.00  0.00    -0.215 A  
BRANCH   9  10
HETATM   10  C   UNL     1      -8.548  15.089  68.262  1.00  0.00    -0.156 C  
BRANCH  10  11
HETATM   11  C   UNL     1      -8.701  16.562  68.549  1.00  0.00    -0.228 A  
HETATM   12  O   UNL     1     -10.551  14.968  70.455  1.00  0.00    -0.153 OA 
HETATM   13  O   UNL     1     -12.284  16.349  69.229  1.00  0.00     0.046 OA 
HETATM   14  C   UNL     1      -7.632  17.408  68.190  1.00  0.00    -0.214 A  
HETATM   15  C   UNL     1      -7.656  18.776  68.516  1.00  0.00    -0.327 A  
HETATM   16  O   UNL     1     -11.357  17.091  71.367  1.00  0.00     0.173 OA 
HETATM   17  C   UNL     1      -8.784  19.369  69.071  1.00  0.00    -0.250 A  
HETATM   18  S   UNL     1     -11.079  16.241  70.021  1.00  0.00    -0.289 S  
HETATM   19  S   UNL     1      -6.149  19.707  68.419  1.00  0.00    -0.242 S  
HETATM   20  C   UNL     1      -9.863  18.561  69.397  1.00  0.00     0.049 A  
HETATM   21  O   UNL     1      -5.782  19.718  66.852  1.00  0.00    -0.174 OA 
HETATM   22  O   UNL     1      -6.437  21.083  68.761  1.00  0.00    -0.120 OA 
HETATM   23  O   UNL     1      -5.146  18.935  69.121  1.00  0.00    -0.187 OA 
HETATM   24  C   UNL     1      -9.801  17.165  69.198  1.00  0.00    -0.187 A  
ENDBRANCH  10  11
BRANCH  10  25
HETATM   25  C   UNL     1      -7.453  14.408  68.724  1.00  0.00    -0.133 A  
HETATM   26  C   UNL     1      -6.717  14.807  69.927  1.00  0.00    -0.172 A  
HETATM   27  C   UNL     1      -6.846  13.299  67.974  1.00  0.00    -0.122 A  
HETATM   28  C   UNL     1      -6.062  12.397  68.588  1.00  0.00    -0.065 A  
HETATM   29  C   UNL     1      -5.901  13.947  70.560  1.00  0.00    -0.178 A  
HETATM   30  C   UNL     1      -5.753  12.539  70.054  1.00  0.00    -0.140 A  
BRANCH  30  31
HETATM   31  N   UNL     1      -5.385  11.538  70.810  1.00  0.00    -0.130 NA 
BRANCH  31  32
HETATM   32  C   UNL     1      -5.231  11.658  72.317  1.00  0.00     0.404 C  
HETATM   33  C   UNL     1      -5.275  10.301  72.993  1.00  0.00     0.221 C  
ENDBRANCH  31  32
BRANCH  31  34
HETATM   34  C   UNL     1      -5.293  10.116  70.291  1.00  0.00    -0.046 C  
HETATM   35  C   UNL     1      -6.672   9.545  70.023  1.00  0.00    -0.070 C  
ENDBRANCH  31  34
ENDBRANCH  30  31
ENDBRANCH  10  25
ENDBRANCH   9  10
ENDBRANCH   3   4
BRANCH   3  36
HETATM   36  C   UNL     1     -13.117  12.158  64.162  1.00  0.00     0.000 C  
HETATM   37  C   UNL     1     -13.756  13.422  64.718  1.00  0.00     2.018 C  
ENDBRANCH   3  36
ENDBRANCH   2   3
TORSDOF 9
ENDMDL
MODEL      114
REMARK 921   NORMALIZED FREE ENERGY PREDICTED BY IDOCK:    0.38 KCAL/MOL
REMARK 922        TOTAL FREE ENERGY PREDICTED BY IDOCK:   -1.75 KCAL/MOL
REMARK 923 INTER-LIGAND FREE ENERGY PREDICTED BY IDOCK:   -0.87 KCAL/MOL
REMARK 924 INTRA-LIGAND FREE ENERGY PREDICTED BY IDOCK:   -0.88 KCAL/MOL
REMARK 927      BINDING AFFINITY PREDICTED BY RF-SCORE:    0.00 PKD
ROOT
HETATM    1  C   UNL     1      -6.966  14.268  70.371  1.00  0.00     0.317 C  
HETATM    2  C   UNL     1      -7.886  15.340  69.809  1.00  0.00    -0.057 C  
ENDROOT
BRANCH   2   3
HETATM    3  N   UNL     1      -8.730  14.804  68.727  1.00  0.00    -0.177 NA 
BRANCH   3   4
HETATM    4  C   UNL     1      -8.810  13.425  68.560  1.00  0.00    -0.068 A  
HETATM    5  C   UNL     1      -8.801  12.791  67.310  1.00  0.00    -0.198 A  
HETATM    6  C   UNL     1      -8.871  12.568  69.671  1.00  0.00     2.008 A  
HETATM    7  C   UNL     1      -8.718  11.385  67.191  1.00  0.00    -0.155 A  
HETATM    8  C   UNL     1      -8.807  11.166  69.567  1.00  0.00     0.482 A  
HETATM    9  C   UNL     1      -8.669  10.556  68.320  1.00  0.00    -0.135 A  
BRANCH   9  10
HETATM   10  C   UNL     1      -8.386   9.082  68.190  1.00  0.00    -0.121 C  
BRANCH  10  11
HETATM   11  C   UNL     1      -8.690   8.178  69.359  1.00  0.00    -0.143 A  
HETATM   12  O   UNL     1      -5.851   9.366  69.716  1.00  0.00    -0.035 OA 
HETATM   13  O   UNL     1      -5.277   6.901  69.624  1.00  0.00    -0.014 OA 
HETATM   14  C   UNL     1     -10.046   7.950  69.668  1.00  0.00    -0.197 A  
HETATM   15  C   UNL     1     -10.410   7.202  70.802  1.00  0.00    -0.206 A  
HETATM   16  O   UNL     1      -5.610   8.043  71.760  1.00  0.00    -0.035 OA 
HETATM   17  C   UNL     1      -9.457   6.546  71.573  1.00  0.00    -0.162 A  
HETATM   18  S   UNL     1      -6.007   8.011  70.194  1.00  0.00    -0.025 S  
HETATM   19  S   UNL     1     -12.085   7.280  71.379  1.00  0.00    -0.353 S  
HETATM   20  C   UNL     1      -8.117   6.725  71.263  1.00  0.00    -0.111 A  
HETATM   21  O   UNL     1     -12.948   6.595  70.206  1.00  0.00     0.455 OA 
HETATM   22  O   UNL     1     -12.217   6.403  72.522  1.00  0.00    -0.132 OA 
HETATM   23  O   UNL     1     -12.430   8.684  71.445  1.00  0.00    -0.309 OA 
HETATM   24  C   UNL     1      -7.732   7.581  70.208  1.00  0.00    -0.092 A  
ENDBRANCH  10  11
BRANCH  10  25
HETATM   25  C   UNL     1      -7.715   8.596  67.100  1.00  0.00    -0.096 A  
HETATM   26  C   UNL     1      -8.227   7.499  66.274  1.00  0.00    -0.125 A  
HETATM   27  C   UNL     1      -6.360   9.044  66.749  1.00  0.00    -0.063 A  
HETATM   28  C   UNL     1      -5.880   8.887  65.504  1.00  0.00    -0.051 A  
HETATM   29  C   UNL     1      -7.760   7.285  65.033  1.00  0.00    -0.115 A  
HETATM   30  C   UNL     1      -6.712   8.198  64.456  1.00  0.00    -0.068 A  
BRANCH  30  31
HETATM   31  N   UNL     1      -6.536   8.369  63.172  1.00  0.00    -0.085 NA 
BRANCH  31  32
HETATM   32  C   UNL     1      -7.112   9.553  62.414  1.00  0.00    -0.099 C  
HETATM   33  C   UNL     1      -8.252  10.204  63.174  1.00  0.00    -0.160 C  
ENDBRANCH  31  32
BRANCH  31  34
HETATM   34  C   UNL     1      -5.561   7.534  62.365  1.00  0.00    -0.047 C  
HETATM   35  C   UNL     1      -5.815   6.053  62.571  1.00  0.00    -0.022 C  
ENDBRANCH  31  34
ENDBRANCH  30  31
ENDBRANCH  10  25
ENDBRANCH   9  10
ENDBRANCH   3   4
BRANCH   3  36
HETATM   36  C   UNL     1      -9.205  15.773  67.731  1.00  0.00    -0.197 C  
HETATM   37  C   UNL     1      -9.676  17.044  68.420  1.00  0.00    -0.279 C  
ENDBRANCH   3  36
ENDBRANCH   2   3
TORSDOF 9
ENDMDL
MODEL      115
REMARK 921   NORMALIZED FREE ENERGY PREDICTED BY IDOCK:    0.53 KCAL/MOL
REMARK 922        TOTAL FREE ENERGY PREDICTED BY IDOCK:   -1.52 KCAL/MOL
REMARK 923 INTER-LIGAND FREE ENERGY PREDICTED BY IDOCK:   -3.52 KCAL/MOL
REMARK 924 INTRA-LIGAND FREE ENERGY PREDICTED BY IDOCK:    1.99 KCAL/MOL
REMARK 927      BINDING AFFINITY PREDICTED BY RF-SCORE:    0.00 PKD
ROOT
HETATM    1  C   UNL     1      -7.186  17.986  68.596  1.00  0.00    -0.276 C  
HETATM    2  C   UNL     1      -8.684  18.239  68.522  1.00  0.00    -0.308 C  
ENDROOT
BRANCH   2   3
HETATM    3  N   UNL     1      -9.444  17.097  69.058  1.00  0.00    -0.212 NA 
BRANCH   3   4
HETATM    4  C   UNL     1      -9.141  15.817  68.603  1.00  0.00    -0.204 A  
HETATM    5  C   UNL     1      -9.050  14.697  69.439  1.00  0.00     0.126 A  
HETATM    6  C   UNL     1      -8.937  15.570  67.236  1.00  0.00    -0.216 A  
HETATM    7  C   UNL     1      -8.903  13.391  68.916  1.00  0.00     0.251 A  
HETATM    8  C   UNL     1      -8.772  14.277  66.703  1.00  0.00    -0.098 A  
HETATM    9  C   UNL     1      -8.813  13.160  67.537  1.00  0.00    -0.199 A  
BRANCH   9  10
HETATM   10  C   UNL     1      -8.852  11.761  66.980  1.00  0.00    -0.182 C  
BRANCH  10  11
HETATM   11  C   UNL     1      -9.350  11.553  65.571  1.00  0.00    -0.203 A  
HETATM   12  O   UNL     1      -7.427   9.239  66.310  1.00  0.00    -0.094 OA 
HETATM   13  O   UNL     1      -6.176  10.225  64.340  1.00  0.00    -0.132 OA 
HETATM   14  C   UNL     1     -10.575  12.156  65.220  1.00  0.00    -0.319 A  
HETATM   15  C   UNL     1     -11.155  11.926  63.960  1.00  0.00    -0.391 A  
HETATM   16  O   UNL     1      -7.714   8.346  64.050  1.00  0.00    -0.122 OA 
HETATM   17  C   UNL     1     -10.481  11.219  62.971  1.00  0.00    -0.183 A  
HETATM   18  S   UNL     1      -7.369   9.658  64.929  1.00  0.00    -0.124 S  
HETATM   19  S   UNL     1     -12.857  12.357  63.708  1.00  0.00    -0.145 S  
HETATM   20  C   UNL     1      -9.256  10.649  63.282  1.00  0.00    -0.295 A  
HETATM   21  O   UNL     1     -12.889  13.961  63.831  1.00  0.00    -0.512 OA 
HETATM   22  O   UNL     1     -13.206  12.064  62.335  1.00  0.00     0.810 OA 
HETATM   23  O   UNL     1     -13.590  11.796  64.823  1.00  0.00     0.698 OA 
HETATM   24  C   UNL     1      -8.723  10.760  64.585  1.00  0.00    -0.097 A  
ENDBRANCH  10  11
BRANCH  10  25
HETATM   25  C   UNL     1      -8.599  10.683  67.786  1.00  0.00    -0.123 A  
HETATM   26  C   UNL     1      -7.377  10.557  68.586  1.00  0.00    -0.091 A  
HETATM   27  C   UNL     1      -9.472   9.501  67.813  1.00  0.00    -0.151 A  
HETATM   28  C   UNL     1      -9.460   8.656  68.857  1.00  0.00    -0.146 A  
HETATM   29  C   UNL     1      -7.309   9.706  69.623  1.00  0.00    -0.093 A  
HETATM   30  C   UNL     1      -8.510   8.883  70.001  1.00  0.00    -0.139 A  
BRANCH  30  31
HETATM   31  N   UNL     1      -8.705   8.405  71.202  1.00  0.00    -0.145 NA 
BRANCH  31  32
HETATM   32  C   UNL     1      -9.794   7.394  71.518  1.00  0.00    -0.173 C  
HETATM   33  C   UNL     1     -10.826   7.962  72.473  1.00  0.00    -0.403 C  
ENDBRANCH  31  32
BRANCH  31  34
HETATM   34  C   UNL     1      -7.731   8.640  72.341  1.00  0.00     0.030 C  
HETATM   35  C   UNL     1      -7.082   7.341  72.778  1.00  0.00    -0.068 C  
ENDBRANCH  31  34
ENDBRANCH  30  31
ENDBRANCH  10  25
ENDBRANCH   9  10
ENDBRANCH   3   4
BRANCH   3  36
HETATM   36  C   UNL     1     -10.654  17.423  69.825  1.00  0.00     0.339 C  
HETATM   37  C   UNL     1     -11.722  16.365  69.590  1.00  0.00     0.074 C  
ENDBRANCH   3  36
ENDBRANCH   2   3
TORSDOF 9
ENDMDL
MODEL      116
REMARK 921   NORMALIZED FREE ENERGY PREDICTED BY IDOCK:    0.70 KCAL/MOL
REMARK 922        TOTAL FREE ENERGY PREDICTED BY IDOCK:   -1.25 KCAL/MOL
REMARK 923 INTER-LIGAND FREE ENERGY PREDICTED BY IDOCK:   -3.64 KCAL/MOL
REMARK 924 INTRA-LIGAND FREE ENERGY PREDICTED BY IDOCK:    2.39 KCAL/MOL
REMARK 927      BINDING AFFINITY PREDICTED BY RF-SCORE:    0.00 PKD
ROOT
HETATM    1  C   UNL     1     -10.377  16.070  65.551  1.00  0.00    -0.415 C  
HETATM    2  C   UNL     1     -10.781  16.529  66.943  1.00  0.00    -0.175 C  
ENDROOT
BRANCH   2   3
HETATM    3  N   UNL     1     -11.226  15.395  67.771  1.00  0.00    -0.324 NA 
BRANCH   3   4
HETATM    4  C   UNL     1     -10.486  14.217  67.748  1.00  0.00    -0.245 A  
HETATM    5  C   UNL     1      -9.589  13.842  68.756  1.00  0.00    -0.073 A  
HETATM    6  C   UNL     1     -10.629  13.299  66.694  1.00  0.00    -0.283 A  
HETATM    7  C   UNL     1      -8.983  12.565  68.774  1.00  0.00     0.159 A  
HETATM    8  C   UNL     1     -10.018  12.031  66.690  1.00  0.00    -0.219 A  
HETATM    9  C   UNL     1      -9.230  11.623  67.766  1.00  0.00    -0.178 A  
BRANCH   9  10
HETATM   10  C   UNL     1      -8.738  10.205  67.891  1.00  0.00    -0.122 C  
BRANCH  10  11
HETATM   11  C   UNL     1      -7.587   9.756  67.026  1.00  0.00    -0.092 A  
HETATM   12  O   UNL     1      -7.441   8.275  69.743  1.00  0.00    -0.073 OA 
HETATM   13  O   UNL     1      -5.226   9.502  69.804  1.00  0.00    -0.033 OA 
HETATM   14  C   UNL     1      -7.733   9.889  65.630  1.00  0.00    -0.121 A  
HETATM   15  C   UNL     1      -6.747   9.401  64.754  1.00  0.00    -0.087 A  
HETATM   16  O   UNL     1      -5.375   7.202  68.990  1.00  0.00    -0.014 OA 
HETATM   17  C   UNL     1      -5.538   8.903  65.228  1.00  0.00    -0.046 A  
HETATM   18  S   UNL     1      -6.160   8.604  69.162  1.00  0.00    -0.043 S  
HETATM   19  S   UNL     1      -7.143   9.218  63.035  1.00  0.00    -0.091 S  
HETATM   20  C   UNL     1      -5.358   8.800  66.599  1.00  0.00    -0.039 A  
HETATM   21  O   UNL     1      -7.375  10.722  62.512  1.00  0.00    -0.121 OA 
HETATM   22  O   UNL     1      -5.966   8.742  62.341  1.00  0.00    -0.090 OA 
HETATM   23  O   UNL     1      -8.405   8.512  62.979  1.00  0.00    -0.180 OA 
HETATM   24  C   UNL     1      -6.392   9.162  67.489  1.00  0.00    -0.063 A  
ENDBRANCH  10  11
BRANCH  10  25
HETATM   25  C   UNL     1      -9.424   9.294  68.649  1.00  0.00    -0.148 A  
HETATM   26  C   UNL     1      -9.365   7.850  68.406  1.00  0.00    -0.140 A  
HETATM   27  C   UNL     1     -10.385   9.701  69.685  1.00  0.00    -0.245 A  
HETATM   28  C   UNL     1     -10.737   8.858  70.671  1.00  0.00    -0.282 A  
HETATM   29  C   UNL     1      -9.731   6.969  69.352  1.00  0.00    -0.159 A  
HETATM   30  C   UNL     1     -10.185   7.459  70.700  1.00  0.00    -0.199 A  
BRANCH  30  31
HETATM   31  N   UNL     1     -10.116   6.737  71.788  1.00  0.00    -0.183 NA 
BRANCH  31  32
HETATM   32  C   UNL     1     -10.425   5.250  71.810  1.00  0.00    -0.214 C  
HETATM   33  C   UNL     1     -10.953   4.808  73.161  1.00  0.00    -0.374 C  
ENDBRANCH  31  32
BRANCH  31  34
HETATM   34  C   UNL     1      -9.509   7.261  73.075  1.00  0.00    -0.168 C  
HETATM   35  C   UNL     1      -8.030   7.549  72.901  1.00  0.00    -0.129 C  
ENDBRANCH  31  34
ENDBRANCH  30  31
ENDBRANCH  10  25
ENDBRANCH   9  10
ENDBRANCH   3   4
BRANCH   3  36
HETATM   36  C   UNL     1     -12.574  15.497  68.345  1.00  0.00     0.929 C  
HETATM   37  C   UNL     1     -12.827  14.337  69.296  1.00  0.00     0.636 C  
ENDBRANCH   3  36
ENDBRANCH   2   3
TORSDOF 9
ENDMDL
MODEL      117
REMARK 921   NORMALIZED FREE ENERGY PREDICTED BY IDOCK:    1.55 KCAL/MOL
REMARK 922        TOTAL FREE ENERGY PREDICTED BY IDOCK:    0.03 KCAL/MOL
REMARK 923 INTER-LIGAND FREE ENERGY PREDICTED BY IDOCK:   -2.23 KCAL/MOL
REMARK 924 INTRA-LIGAND FREE ENERGY PREDICTED BY IDOCK:    2.26 KCAL/MOL
REMARK 927      BINDING AFFINITY PREDICTED BY RF-SCORE:    0.00 PKD
ROOT
HETATM    1  C   UNL     1      -6.441   5.262  69.052  1.00  0.00    -0.042 C  
HETATM    2  C   UNL     1      -6.496   5.162  70.569  1.00  0.00    -0.034 C  
ENDROOT
BRANCH   2   3
HETATM    3  N   UNL     1      -7.585   5.986  71.118  1.00  0.00    -0.098 NA 
BRANCH   3   4
HETATM    4  C   UNL     1      -8.248   6.872  70.273  1.00  0.00    -0.129 A  
HETATM    5  C   UNL     1      -9.525   7.386  70.533  1.00  0.00    -0.161 A  
HETATM    6  C   UNL     1      -7.637   7.336  69.097  1.00  0.00    -0.102 A  
HETATM    7  C   UNL     1     -10.091   8.406  69.734  1.00  0.00    -0.197 A  
HETATM    8  C   UNL     1      -8.197   8.339  68.282  1.00  0.00    -0.128 A  
HETATM    9  C   UNL     1      -9.411   8.932  68.627  1.00  0.00    -0.153 A  
BRANCH   9  10
HETATM   10  C   UNL     1      -9.931  10.144  67.900  1.00  0.00    -0.190 C  
BRANCH  10  11
HETATM   11  C   UNL     1      -9.281  10.547  66.600  1.00  0.00    -0.177 A  
HETATM   12  O   UNL     1      -8.654  12.692  68.746  1.00  0.00     0.004 OA 
HETATM   13  O   UNL     1      -9.902  14.117  67.065  1.00  0.00    -0.247 OA 
HETATM   14  C   UNL     1      -9.000   9.525  65.671  1.00  0.00    -0.224 A  
HETATM   15  C   UNL     1      -8.304   9.806  64.481  1.00  0.00    -0.165 A  
HETATM   16  O   UNL     1      -7.462  13.978  67.040  1.00  0.00     0.008 OA 
HETATM   17  C   UNL     1      -7.995  11.111  64.113  1.00  0.00     0.684 A  
HETATM   18  S   UNL     1      -8.833  13.207  67.408  1.00  0.00    -0.214 S  
HETATM   19  S   UNL     1      -7.620   8.460  63.550  1.00  0.00    -0.140 S  
HETATM   20  C   UNL     1      -8.298  12.137  64.996  1.00  0.00     1.745 A  
HETATM   21  O   UNL     1      -8.902   7.637  63.030  1.00  0.00     0.402 OA 
HETATM   22  O   UNL     1      -6.993   8.996  62.361  1.00  0.00    -0.094 OA 
HETATM   23  O   UNL     1      -6.896   7.636  64.494  1.00  0.00    -0.053 OA 
HETATM   24  C   UNL     1      -8.876  11.855  66.253  1.00  0.00    -0.111 A  
ENDBRANCH  10  11
BRANCH  10  25
HETATM   25  C   UNL     1     -10.862  10.961  68.485  1.00  0.00    -0.262 A  
HETATM   26  C   UNL     1     -11.069  11.020  69.935  1.00  0.00    -0.276 A  
HETATM   27  C   UNL     1     -11.823  11.746  67.698  1.00  0.00    -0.241 A  
HETATM   28  C   UNL     1     -12.438  12.818  68.226  1.00  0.00     0.568 A  
HETATM   29  C   UNL     1     -11.701  12.059  70.506  1.00  0.00    -0.055 A  
HETATM   30  C   UNL     1     -12.185  13.203  69.658  1.00  0.00    -0.181 A  
BRANCH  30  31
HETATM   31  N   UNL     1     -12.375  14.411  70.121  1.00  0.00    -0.338 NA 
BRANCH  31  32
HETATM   32  C   UNL     1     -11.858  15.653  69.416  1.00  0.00    -0.375 C  
HETATM   33  C   UNL     1     -10.460  16.018  69.878  1.00  0.00    -0.287 C  
ENDBRANCH  31  32
BRANCH  31  34
HETATM   34  C   UNL     1     -13.315  14.702  71.275  1.00  0.00    -0.383 C  
HETATM   35  C   UNL     1     -12.704  14.272  72.595  1.00  0.00    -0.396 C  
ENDBRANCH  31  34
ENDBRANCH  30  31
ENDBRANCH  10  25
ENDBRANCH   9  10
ENDBRANCH   3   4
BRANCH   3  36
HETATM   36  C   UNL     1      -7.707   6.014  72.581  1.00  0.00    -0.100 C  
HETATM   37  C   UNL     1      -7.667   4.598  73.136  1.00  0.00    -0.088 C  
ENDBRANCH   3  36
ENDBRANCH   2   3
TORSDOF 9
ENDMDL
MODEL      118
REMARK 921   NORMALIZED FREE ENERGY PREDICTED BY IDOCK:    1.55 KCAL/MOL
REMARK 922        TOTAL FREE ENERGY PREDICTED BY IDOCK:    0.04 KCAL/MOL
REMARK 923 INTER-LIGAND FREE ENERGY PREDICTED BY IDOCK:    0.09 KCAL/MOL
REMARK 924 INTRA-LIGAND FREE ENERGY PREDICTED BY IDOCK:   -0.05 KCAL/MOL
REMARK 927      BINDING AFFINITY PREDICTED BY RF-SCORE:    0.00 PKD
ROOT
HETATM    1  C   UNL     1     -12.113   5.100  64.404  1.00  0.00     4.127 C  
HETATM    2  C   UNL     1     -11.403   3.759  64.300  1.00  0.00     0.642 C  
ENDROOT
BRANCH   2   3
HETATM    3  N   UNL     1     -10.010   3.855  64.768  1.00  0.00    -0.195 NA 
BRANCH   3   4
HETATM    4  C   UNL     1      -9.711   4.731  65.808  1.00  0.00    -0.188 A  
HETATM    5  C   UNL     1      -9.603   6.118  65.649  1.00  0.00     0.274 A  
HETATM    6  C   UNL     1      -9.529   4.256  67.117  1.00  0.00    -0.204 A  
HETATM    7  C   UNL     1      -9.460   6.984  66.758  1.00  0.00    -0.205 A  
HETATM    8  C   UNL     1      -9.369   5.105  68.228  1.00  0.00    -0.152 A  
HETATM    9  C   UNL     1      -9.393   6.490  68.068  1.00  0.00    -0.108 A  
BRANCH   9  10
HETATM   10  C   UNL     1      -9.436   7.420  69.252  1.00  0.00    -0.154 C  
BRANCH  10  11
HETATM   11  C   UNL     1      -9.297   6.841  70.638  1.00  0.00    -0.162 A  
HETATM   12  O   UNL     1     -12.307   7.191  69.991  1.00  0.00     0.128 OA 
HETATM   13  O   UNL     1     -12.122   8.707  72.011  1.00  0.00    -0.325 OA 
HETATM   14  C   UNL     1      -8.110   6.141  70.933  1.00  0.00    -0.121 A  
HETATM   15  C   UNL     1      -7.948   5.486  72.167  1.00  0.00    -0.107 A  
HETATM   16  O   UNL     1     -12.833   6.378  72.238  1.00  0.00    -0.138 OA 
HETATM   17  C   UNL     1      -8.883   5.621  73.187  1.00  0.00    -0.122 A  
HETATM   18  S   UNL     1     -11.953   7.421  71.372  1.00  0.00    -0.326 S  
HETATM   19  S   UNL     1      -6.643   4.298  72.342  1.00  0.00    -0.030 S  
HETATM   20  C   UNL     1     -10.042   6.339  72.931  1.00  0.00    -0.196 A  
HETATM   21  O   UNL     1      -5.291   5.162  72.214  1.00  0.00    -0.008 OA 
HETATM   22  O   UNL     1      -6.658   3.797  73.699  1.00  0.00    -0.035 OA 
HETATM   23  O   UNL     1      -6.736   3.417  71.197  1.00  0.00    -0.030 OA 
HETATM   24  C   UNL     1     -10.278   6.890  71.653  1.00  0.00    -0.191 A  
ENDBRANCH  10  11
BRANCH  10  25
HETATM   25  C   UNL     1      -9.762   8.740  69.088  1.00  0.00    -0.175 A  
HETATM   26  C   UNL     1      -8.958   9.833  69.643  1.00  0.00    -0.229 A  
HETATM   27  C   UNL     1     -11.019   9.166  68.456  1.00  0.00     0.003 A  
HETATM   28  C   UNL     1     -11.150  10.400  67.940  1.00  0.00    -0.363 A  
HETATM   29  C   UNL     1      -9.074  11.088  69.178  1.00  0.00    -0.006 A  
HETATM   30  C   UNL     1     -10.020  11.387  68.048  1.00  0.00    -0.182 A  
BRANCH  30  31
HETATM   31  N   UNL     1      -9.880  12.408  67.243  1.00  0.00    -0.205 NA 
BRANCH  31  32
HETATM   32  C   UNL     1      -9.670  13.827  67.744  1.00  0.00    -0.230 C  
HETATM   33  C   UNL     1      -8.469  13.923  68.666  1.00  0.00    -0.082 C  
ENDBRANCH  31  32
BRANCH  31  34
HETATM   34  C   UNL     1      -9.690  12.247  65.747  1.00  0.00    -0.216 C  
HETATM   35  C   UNL     1      -9.106  10.886  65.418  1.00  0.00    -0.218 C  
ENDBRANCH  31  34
ENDBRANCH  30  31
ENDBRANCH  10  25
ENDBRANCH   9  10
ENDBRANCH   3   4
BRANCH   3  36
HETATM   36  C   UNL     1      -8.992   3.226  63.917  1.00  0.00    -0.093 C  
HETATM   37  C   UNL     1      -9.368   3.380  62.451  1.00  0.00    -0.088 C  
ENDBRANCH   3  36
ENDBRANCH   2   3
TORSDOF 9
ENDMDL
MODEL      119
REMARK 921   NORMALIZED FREE ENERGY PREDICTED BY IDOCK:    1.81 KCAL/MOL
REMARK 922        TOTAL FREE ENERGY PREDICTED BY IDOCK:    0.43 KCAL/MOL
REMARK 923 INTER-LIGAND FREE ENERGY PREDICTED BY IDOCK:   -5.70 KCAL/MOL
REMARK 924 INTRA-LIGAND FREE ENERGY PREDICTED BY IDOCK:    6.14 KCAL/MOL
REMARK 927      BINDING AFFINITY PREDICTED BY RF-SCORE:    0.00 PKD
ROOT
HETATM    1  C   UNL     1      -8.693   9.605  64.012  1.00  0.00    -0.240 C  
HETATM    2  C   UNL     1      -7.444   8.959  64.592  1.00  0.00    -0.104 C  
ENDROOT
BRANCH   2   3
HETATM    3  N   UNL     1      -7.030   9.625  65.839  1.00  0.00    -0.094 NA 
BRANCH   3   4
HETATM    4  C   UNL     1      -7.954   9.746  66.873  1.00  0.00    -0.105 A  
HETATM    5  C   UNL     1      -9.342   9.723  66.682  1.00  0.00    -0.200 A  
HETATM    6  C   UNL     1      -7.529   9.869  68.206  1.00  0.00    -0.080 A  
HETATM    7  C   UNL     1     -10.240   9.685  67.773  1.00  0.00    -0.253 A  
HETATM    8  C   UNL     1      -8.413   9.850  69.301  1.00  0.00    -0.158 A  
HETATM    9  C   UNL     1      -9.784   9.696  69.099  1.00  0.00    -0.180 A  
BRANCH   9  10
HETATM   10  C   UNL     1     -10.730   9.461  70.248  1.00  0.00    -0.299 C  
BRANCH  10  11
HETATM   11  C   UNL     1     -11.740  10.528  70.588  1.00  0.00    -0.453 A  
HETATM   12  O   UNL     1     -12.093   8.149  72.540  1.00  0.00    -0.365 OA 
HETATM   13  O   UNL     1     -14.380   8.155  71.453  1.00  0.00    -0.407 OA 
HETATM   14  C   UNL     1     -11.444  11.850  70.199  1.00  0.00    -0.136 A  
HETATM   15  C   UNL     1     -12.285  12.915  70.568  1.00  0.00    -0.314 A  
HETATM   16  O   UNL     1     -13.978   9.330  73.559  1.00  0.00     0.196 OA 
HETATM   17  C   UNL     1     -13.503  12.690  71.201  1.00  0.00     0.363 A  
HETATM   18  S   UNL     1     -13.318   8.821  72.175  1.00  0.00    -0.436 S  
HETATM   19  S   UNL     1     -11.682  14.576  70.419  1.00  0.00    -0.277 S  
HETATM   20  C   UNL     1     -13.832  11.391  71.559  1.00  0.00     0.828 A  
HETATM   21  O   UNL     1     -11.497  14.797  68.835  1.00  0.00    -0.268 OA 
HETATM   22  O   UNL     1     -12.736  15.484  70.818  1.00  0.00    -0.430 OA 
HETATM   23  O   UNL     1     -10.376  14.594  71.042  1.00  0.00     0.654 OA 
HETATM   24  C   UNL     1     -12.935  10.329  71.313  1.00  0.00    -0.420 A  
ENDBRANCH  10  11
BRANCH  10  25
HETATM   25  C   UNL     1     -10.569   8.378  71.070  1.00  0.00    -0.258 A  
HETATM   26  C   UNL     1     -11.243   7.097  70.842  1.00  0.00    -0.305 A  
HETATM   27  C   UNL     1      -9.811   8.454  72.328  1.00  0.00    -0.383 A  
HETATM   28  C   UNL     1      -9.320   7.345  72.907  1.00  0.00    -0.210 A  
HETATM   29  C   UNL     1     -10.805   5.967  71.420  1.00  0.00    -0.332 A  
HETATM   30  C   UNL     1      -9.584   5.996  72.298  1.00  0.00    -0.150 A  
BRANCH  30  31
HETATM   31  N   UNL     1      -8.832   4.949  72.517  1.00  0.00    -0.122 NA 
BRANCH  31  32
HETATM   32  C   UNL     1      -9.111   3.953  73.630  1.00  0.00    -0.097 C  
HETATM   33  C   UNL     1     -10.433   4.238  74.316  1.00  0.00    -0.307 C  
ENDBRANCH  31  32
BRANCH  31  34
HETATM   34  C   UNL     1      -7.747   4.509  71.553  1.00  0.00    -0.082 C  
HETATM   35  C   UNL     1      -6.412   5.129  71.917  1.00  0.00    -0.036 C  
ENDBRANCH  31  34
ENDBRANCH  30  31
ENDBRANCH  10  25
ENDBRANCH   9  10
ENDBRANCH   3   4
BRANCH   3  36
HETATM   36  C   UNL     1      -5.759  10.358  65.794  1.00  0.00    -0.099 C  
HETATM   37  C   UNL     1      -5.331  10.578  64.351  1.00  0.00    -0.145 C  
ENDBRANCH   3  36
ENDBRANCH   2   3
TORSDOF 9
ENDMDL
MODEL      120
REMARK 921   NORMALIZED FREE ENERGY PREDICTED BY IDOCK:    1.95 KCAL/MOL
REMARK 922        TOTAL FREE ENERGY PREDICTED BY IDOCK:    0.65 KCAL/MOL
REMARK 923 INTER-LIGAND FREE ENERGY PREDICTED BY IDOCK:   -5.34 KCAL/MOL
REMARK 924 INTRA-LIGAND FREE ENERGY PREDICTED BY IDOCK:    5.99 KCAL/MOL
REMARK 927      BINDING AFFINITY PREDICTED BY RF-SCORE:    0.00 PKD
ROOT
HETATM    1  C   UNL     1     -11.876  16.437  68.031  1.00  0.00     0.409 C  
HETATM    2  C   UNL     1     -10.832  16.420  69.137  1.00  0.00    -0.329 C  
ENDROOT
BRANCH   2   3
HETATM    3  N   UNL     1      -9.544  15.901  68.646  1.00  0.00    -0.201 NA 
BRANCH   3   4
HETATM    4  C   UNL     1      -9.386  14.526  68.503  1.00  0.00    -0.203 A  
HETATM    5  C   UNL     1      -8.151  13.904  68.281  1.00  0.00    -0.150 A  
HETATM    6  C   UNL     1     -10.487  13.660  68.610  1.00  0.00    -0.242 A  
HETATM    7  C   UNL     1      -8.012  12.497  68.306  1.00  0.00    -0.153 A  
HETATM    8  C   UNL     1     -10.367  12.258  68.619  1.00  0.00    -0.204 A  
HETATM    9  C   UNL     1      -9.112  11.656  68.526  1.00  0.00    -0.157 A  
BRANCH   9  10
HETATM   10  C   UNL     1      -8.929  10.177  68.743  1.00  0.00    -0.147 C  
BRANCH  10  11
HETATM   11  C   UNL     1      -8.767   9.281  67.541  1.00  0.00    -0.116 A  
HETATM   12  O   UNL     1      -9.572  12.115  66.583  1.00  0.00    -0.208 OA 
HETATM   13  O   UNL     1     -11.535  10.786  65.690  1.00  0.00     0.306 OA 
HETATM   14  C   UNL     1      -7.939   8.149  67.681  1.00  0.00    -0.122 A  
HETATM   15  C   UNL     1      -7.658   7.321  66.579  1.00  0.00    -0.092 A  
HETATM   16  O   UNL     1      -9.596  11.276  64.284  1.00  0.00    -0.234 OA 
HETATM   17  C   UNL     1      -8.293   7.504  65.356  1.00  0.00    -0.129 A  
HETATM   18  S   UNL     1     -10.114  11.032  65.795  1.00  0.00    -0.263 S  
HETATM   19  S   UNL     1      -6.315   6.169  66.693  1.00  0.00    -0.046 S  
HETATM   20  C   UNL     1      -9.142   8.591  65.206  1.00  0.00    -0.047 A  
HETATM   21  O   UNL     1      -6.779   5.119  67.821  1.00  0.00    -0.052 OA 
HETATM   22  O   UNL     1      -6.252   5.414  65.460  1.00  0.00    -0.032 OA 
HETATM   23  O   UNL     1      -5.180   6.913  67.196  1.00  0.00    -0.011 OA 
HETATM   24  C   UNL     1      -9.330   9.506  66.265  1.00  0.00    -0.188 A  
ENDBRANCH  10  11
BRANCH  10  25
HETATM   25  C   UNL     1      -9.072   9.634  69.992  1.00  0.00    -0.269 A  
HETATM   26  C   UNL     1     -10.372   9.486  70.652  1.00  0.00    -0.369 A  
HETATM   27  C   UNL     1      -7.918   9.278  70.830  1.00  0.00    -0.187 A  
HETATM   28  C   UNL     1      -8.041   8.401  71.840  1.00  0.00    -0.193 A  
HETATM   29  C   UNL     1     -10.538   8.641  71.683  1.00  0.00    -0.374 A  
HETATM   30  C   UNL     1      -9.384   7.804  72.162  1.00  0.00    -0.153 A  
BRANCH  30  31
HETATM   31  N   UNL     1      -9.532   6.674  72.802  1.00  0.00    -0.142 NA 
BRANCH  31  32
HETATM   32  C   UNL     1      -8.363   5.900  73.387  1.00  0.00    -0.115 C  
HETATM   33  C   UNL     1      -8.828   4.847  74.374  1.00  0.00    -0.112 C  
ENDBRANCH  31  32
BRANCH  31  34
HETATM   34  C   UNL     1     -10.892   6.144  73.214  1.00  0.00    -0.244 C  
HETATM   35  C   UNL     1     -11.515   5.321  72.102  1.00  0.00    -0.007 C  
ENDBRANCH  31  34
ENDBRANCH  30  31
ENDBRANCH  10  25
ENDBRANCH   9  10
ENDBRANCH   3   4
BRANCH   3  36
HETATM   36  C   UNL     1      -8.429  16.855  68.609  1.00  0.00    -0.260 C  
HETATM   37  C   UNL     1      -8.957  18.280  68.675  1.00  0.00    -0.303 C  
ENDBRANCH   3  36
ENDBRANCH   2   3
TORSDOF 9
ENDMDL
MODEL      121
REMARK 921   NORMALIZED FREE ENERGY PREDICTED BY IDOCK:    2.31 KCAL/MOL
REMARK 922        TOTAL FREE ENERGY PREDICTED BY IDOCK:    1.19 KCAL/MOL
REMARK 923 INTER-LIGAND FREE ENERGY PREDICTED BY IDOCK:   -5.05 KCAL/MOL
REMARK 924 INTRA-LIGAND FREE ENERGY PREDICTED BY IDOCK:    6.24 KCAL/MOL
REMARK 927      BINDING AFFINITY PREDICTED BY RF-SCORE:    0.00 PKD
ROOT
HETATM    1  C   UNL     1     -10.928   5.993  73.745  1.00  0.00     0.029 C  
HETATM    2  C   UNL     1     -10.582   7.444  74.037  1.00  0.00     0.319 C  
ENDROOT
BRANCH   2   3
HETATM    3  N   UNL     1      -9.267   7.802  73.479  1.00  0.00    -0.273 NA 
BRANCH   3   4
HETATM    4  C   UNL     1      -9.031   7.580  72.125  1.00  0.00    -0.129 A  
HETATM    5  C   UNL     1      -9.604   6.528  71.398  1.00  0.00    -0.174 A  
HETATM    6  C   UNL     1      -8.206   8.445  71.388  1.00  0.00    -0.172 A  
HETATM    7  C   UNL     1      -9.468   6.436  69.994  1.00  0.00    -0.165 A  
HETATM    8  C   UNL     1      -8.047   8.354  69.992  1.00  0.00    -0.115 A  
HETATM    9  C   UNL     1      -8.729   7.378  69.266  1.00  0.00    -0.137 A  
BRANCH   9  10
HETATM   10  C   UNL     1      -8.748   7.385  67.760  1.00  0.00    -0.126 C  
BRANCH  10  11
HETATM   11  C   UNL     1      -8.406   6.114  67.023  1.00  0.00    -0.105 A  
HETATM   12  O   UNL     1      -7.351   5.908  69.928  1.00  0.00    -0.071 OA 
HETATM   13  O   UNL     1      -5.167   5.699  68.662  1.00  0.00     0.000 OA 
HETATM   14  C   UNL     1      -9.198   5.778  65.906  1.00  0.00    -0.128 A  
HETATM   15  C   UNL     1      -9.007   4.560  65.229  1.00  0.00    -0.144 A  
HETATM   16  O   UNL     1      -6.410   3.718  69.377  1.00  0.00    -0.028 OA 
HETATM   17  C   UNL     1      -7.948   3.716  65.542  1.00  0.00    -0.093 A  
HETATM   18  S   UNL     1      -6.521   5.268  68.934  1.00  0.00    -0.044 S  
HETATM   19  S   UNL     1     -10.262   3.995  64.111  1.00  0.00    -0.133 S  
HETATM   20  C   UNL     1      -7.131   4.047  66.613  1.00  0.00    -0.060 A  
HETATM   21  O   UNL     1     -10.255   5.074  62.917  1.00  0.00     0.533 OA 
HETATM   22  O   UNL     1      -9.820   2.753  63.515  1.00  0.00    -0.111 OA 
HETATM   23  O   UNL     1     -11.519   4.101  64.820  1.00  0.00    -0.198 OA 
HETATM   24  C   UNL     1      -7.393   5.200  67.386  1.00  0.00    -0.082 A  
ENDBRANCH  10  11
BRANCH  10  25
HETATM   25  C   UNL     1      -8.909   8.558  67.071  1.00  0.00    -0.144 A  
HETATM   26  C   UNL     1      -9.112   8.608  65.621  1.00  0.00    -0.221 A  
HETATM   27  C   UNL     1      -8.755   9.872  67.713  1.00  0.00    -0.129 A  
HETATM   28  C   UNL     1      -9.294  10.975  67.167  1.00  0.00    -0.177 A  
HETATM   29  C   UNL     1      -9.623   9.699  65.026  1.00  0.00    -0.284 A  
HETATM   30  C   UNL     1     -10.026  10.888  65.856  1.00  0.00    -0.243 A  
BRANCH  30  31
HETATM   31  N   UNL     1     -10.918  11.763  65.472  1.00  0.00    -0.297 NA 
BRANCH  31  32
HETATM   32  C   UNL     1     -11.968  12.333  66.409  1.00  0.00    -0.209 C  
HETATM   33  C   UNL     1     -11.670  13.775  66.774  1.00  0.00    -0.420 C  
ENDBRANCH  31  32
BRANCH  31  34
HETATM   34  C   UNL     1     -10.850  12.457  64.125  1.00  0.00    -0.372 C  
HETATM   35  C   UNL     1     -12.224  12.543  63.488  1.00  0.00    -0.652 C  
ENDBRANCH  31  34
ENDBRANCH  30  31
ENDBRANCH  10  25
ENDBRANCH   9  10
ENDBRANCH   3   4
BRANCH   3  36
HETATM   36  C   UNL     1      -8.208   8.108  74.449  1.00  0.00    -0.194 C  
HETATM   37  C   UNL     1      -7.216   6.957  74.522  1.00  0.00    -0.102 C  
ENDBRANCH   3  36
ENDBRANCH   2   3
TORSDOF 9
ENDMDL
MODEL      122
REMARK 921   NORMALIZED FREE ENERGY PREDICTED BY IDOCK:    2.33 KCAL/MOL
REMARK 922        TOTAL FREE ENERGY PREDICTED BY IDOCK:    1.23 KCAL/MOL
REMARK 923 INTER-LIGAND FREE ENERGY PREDICTED BY IDOCK:   -1.45 KCAL/MOL
REMARK 924 INTRA-LIGAND FREE ENERGY PREDICTED BY IDOCK:    2.68 KCAL/MOL
REMARK 927      BINDING AFFINITY PREDICTED BY RF-SCORE:    0.00 PKD
ROOT
HETATM    1  C   UNL     1      -8.087  20.270  72.001  1.00  0.00     2.237 C  
HETATM    2  C   UNL     1      -6.586  20.083  71.842  1.00  0.00     0.361 C  
ENDROOT
BRANCH   2   3
HETATM    3  N   UNL     1      -6.235  19.747  70.452  1.00  0.00    -0.274 NA 
BRANCH   3   4
HETATM    4  C   UNL     1      -6.737  18.573  69.898  1.00  0.00     0.167 A  
HETATM    5  C   UNL     1      -8.104  18.290  69.784  1.00  0.00     1.078 A  
HETATM    6  C   UNL     1      -5.872  17.596  69.379  1.00  0.00    -0.227 A  
HETATM    7  C   UNL     1      -8.572  17.163  69.069  1.00  0.00    -0.101 A  
HETATM    8  C   UNL     1      -6.324  16.461  68.680  1.00  0.00    -0.133 A  
HETATM    9  C   UNL     1      -7.687  16.261  68.464  1.00  0.00    -0.189 A  
BRANCH   9  10
HETATM   10  C   UNL     1      -8.189  15.178  67.545  1.00  0.00    -0.196 C  
BRANCH  10  11
HETATM   11  C   UNL     1      -9.275  15.512  66.553  1.00  0.00    -0.324 A  
HETATM   12  O   UNL     1      -7.063  17.675  66.392  1.00  0.00    -0.220 OA 
HETATM   13  O   UNL     1      -9.029  19.121  67.069  1.00  0.00    -0.285 OA 
HETATM   14  C   UNL     1     -10.086  14.454  66.096  1.00  0.00    -0.323 A  
HETATM   15  C   UNL     1     -11.052  14.667  65.096  1.00  0.00    -0.377 A  
HETATM   16  O   UNL     1      -8.406  18.853  64.720  1.00  0.00     2.062 OA 
HETATM   17  C   UNL     1     -11.339  15.944  64.627  1.00  0.00    -0.328 A  
HETATM   18  S   UNL     1      -8.406  18.164  66.182  1.00  0.00    -0.047 S  
HETATM   19  S   UNL     1     -11.754  13.264  64.270  1.00  0.00    -0.428 S  
HETATM   20  C   UNL     1     -10.579  17.007  65.092  1.00  0.00    -0.032 A  
HETATM   21  O   UNL     1     -12.586  12.496  65.414  1.00  0.00    -0.656 OA 
HETATM   22  O   UNL     1     -12.740  13.736  63.322  1.00  0.00    -0.783 OA 
HETATM   23  O   UNL     1     -10.643  12.427  63.869  1.00  0.00    -0.370 OA 
HETATM   24  C   UNL     1      -9.517  16.788  65.997  1.00  0.00    -0.223 A  
ENDBRANCH  10  11
BRANCH  10  25
HETATM   25  C   UNL     1      -7.791  13.879  67.718  1.00  0.00    -0.172 A  
HETATM   26  C   UNL     1      -8.643  12.861  68.340  1.00  0.00    -0.120 A  
HETATM   27  C   UNL     1      -6.424  13.430  67.416  1.00  0.00    -0.014 A  
HETATM   28  C   UNL     1      -6.155  12.132  67.198  1.00  0.00    -0.143 A  
HETATM   29  C   UNL     1      -8.397  11.551  68.173  1.00  0.00    -0.152 A  
HETATM   30  C   UNL     1      -7.248  11.105  67.311  1.00  0.00    -0.113 A  
BRANCH  30  31
HETATM   31  N   UNL     1      -7.200   9.938  66.725  1.00  0.00    -0.090 NA 
BRANCH  31  32
HETATM   32  C   UNL     1      -7.660   8.658  67.401  1.00  0.00    -0.093 C  
HETATM   33  C   UNL     1      -6.564   8.051  68.256  1.00  0.00    -0.056 C  
ENDBRANCH  31  32
BRANCH  31  34
HETATM   34  C   UNL     1      -6.893   9.780  65.248  1.00  0.00    -0.103 C  
HETATM   35  C   UNL     1      -8.107   9.275  64.491  1.00  0.00    -0.139 C  
ENDBRANCH  31  34
ENDBRANCH  30  31
ENDBRANCH  10  25
ENDBRANCH   9  10
ENDBRANCH   3   4
BRANCH   3  36
HETATM   36  C   UNL     1      -5.155  20.536  69.845  1.00  0.00    -0.280 C  
HETATM   37  C   UNL     1      -5.523  20.915  68.418  1.00  0.00    -0.365 C  
ENDBRANCH   3  36
ENDBRANCH   2   3
TORSDOF 9
ENDMDL
MODEL      123
REMARK 921   NORMALIZED FREE ENERGY PREDICTED BY IDOCK:    2.74 KCAL/MOL
REMARK 922        TOTAL FREE ENERGY PREDICTED BY IDOCK:    1.85 KCAL/MOL
REMARK 923 INTER-LIGAND FREE ENERGY PREDICTED BY IDOCK:    1.87 KCAL/MOL
REMARK 924 INTRA-LIGAND FREE ENERGY PREDICTED BY IDOCK:   -0.02 KCAL/MOL
REMARK 927      BINDING AFFINITY PREDICTED BY RF-SCORE:    0.00 PKD
ROOT
HETATM    1  C   UNL     1      -7.783  10.133  63.120  1.00  0.00    -0.151 C  
HETATM    2  C   UNL     1      -9.096   9.462  63.491  1.00  0.00    -0.016 C  
ENDROOT
BRANCH   2   3
HETATM    3  N   UNL     1      -9.534   9.858  64.840  1.00  0.00    -0.278 NA 
BRANCH   3   4
HETATM    4  C   UNL     1      -9.305  11.164  65.263  1.00  0.00    -0.219 A  
HETATM    5  C   UNL     1     -10.129  12.246  64.928  1.00  0.00    -0.274 A  
HETATM    6  C   UNL     1      -8.220  11.467  66.103  1.00  0.00     0.018 A  
HETATM    7  C   UNL     1      -9.953  13.522  65.511  1.00  0.00    -0.238 A  
HETATM    8  C   UNL     1      -8.023  12.737  66.677  1.00  0.00     0.297 A  
HETATM    9  C   UNL     1      -8.928  13.771  66.433  1.00  0.00    -0.005 A  
BRANCH   9  10
HETATM   10  C   UNL     1      -8.865  15.070  67.193  1.00  0.00    -0.233 C  
BRANCH  10  11
HETATM   11  C   UNL     1      -9.214  15.071  68.661  1.00  0.00    -0.198 A  
HETATM   12  O   UNL     1      -6.527  16.561  68.265  1.00  0.00    -0.130 OA 
HETATM   13  O   UNL     1      -5.757  14.680  69.776  1.00  0.00    -0.095 OA 
HETATM   14  C   UNL     1     -10.573  14.921  69.004  1.00  0.00    -0.245 A  
HETATM   15  C   UNL     1     -10.991  15.013  70.345  1.00  0.00    -0.190 A  
HETATM   16  O   UNL     1      -6.393  16.858  70.690  1.00  0.00     0.495 OA 
HETATM   17  C   UNL     1     -10.073  15.111  71.384  1.00  0.00     1.499 A  
HETATM   18  S   UNL     1      -6.625  15.801  69.490  1.00  0.00    -0.183 S  
HETATM   19  S   UNL     1     -12.717  15.227  70.692  1.00  0.00    -0.407 S  
HETATM   20  C   UNL     1      -8.726  15.221  71.070  1.00  0.00     2.760 A  
HETATM   21  O   UNL     1     -13.400  13.857  70.196  1.00  0.00     0.279 OA 
HETATM   22  O   UNL     1     -12.896  15.254  72.127  1.00  0.00    -0.313 OA 
HETATM   23  O   UNL     1     -13.174  16.304  69.840  1.00  0.00     0.688 OA 
HETATM   24  C   UNL     1      -8.304  15.264  69.723  1.00  0.00     0.006 A  
ENDBRANCH  10  11
BRANCH  10  25
HETATM   25  C   UNL     1      -8.658  16.252  66.534  1.00  0.00    -0.332 A  
HETATM   26  C   UNL     1      -9.718  17.242  66.323  1.00  0.00    -0.282 A  
HETATM   27  C   UNL     1      -7.387  16.566  65.866  1.00  0.00     0.768 A  
HETATM   28  C   UNL     1      -7.048  17.836  65.586  1.00  0.00    -0.039 A  
HETATM   29  C   UNL     1      -9.429  18.517  66.015  1.00  0.00    -0.038 A  
HETATM   30  C   UNL     1      -7.995  18.958  65.911  1.00  0.00    -0.044 A  
BRANCH  30  31
HETATM   31  N   UNL     1      -7.610  20.197  66.077  1.00  0.00    -0.290 NA 
BRANCH  31  32
HETATM   32  C   UNL     1      -7.465  20.836  67.447  1.00  0.00    -0.324 C  
HETATM   33  C   UNL     1      -7.179  19.803  68.519  1.00  0.00    -0.356 C  
ENDBRANCH  31  32
BRANCH  31  34
HETATM   34  C   UNL     1      -7.061  21.038  64.941  1.00  0.00     0.367 C  
HETATM   35  C   UNL     1      -6.066  20.249  64.112  1.00  0.00    -0.311 C  
ENDBRANCH  31  34
ENDBRANCH  30  31
ENDBRANCH  10  25
ENDBRANCH   9  10
ENDBRANCH   3   4
BRANCH   3  36
HETATM   36  C   UNL     1      -9.931   8.769  65.742  1.00  0.00     0.187 C  
HETATM   37  C   UNL     1     -10.518   9.339  67.025  1.00  0.00    -0.303 C  
ENDBRANCH   3  36
ENDBRANCH   2   3
TORSDOF 9
ENDMDL
MODEL      124
REMARK 921   NORMALIZED FREE ENERGY PREDICTED BY IDOCK:    2.86 KCAL/MOL
REMARK 922        TOTAL FREE ENERGY PREDICTED BY IDOCK:    2.05 KCAL/MOL
REMARK 923 INTER-LIGAND FREE ENERGY PREDICTED BY IDOCK:   -2.47 KCAL/MOL
REMARK 924 INTRA-LIGAND FREE ENERGY PREDICTED BY IDOCK:    4.51 KCAL/MOL
REMARK 927      BINDING AFFINITY PREDICTED BY RF-SCORE:    0.00 PKD
ROOT
HETATM    1  C   UNL     1      -7.003   7.528  67.219  1.00  0.00    -0.083 C  
HETATM    2  C   UNL     1      -7.541   8.583  68.173  1.00  0.00    -0.098 C  
ENDROOT
BRANCH   2   3
HETATM    3  N   UNL     1      -6.544   9.638  68.418  1.00  0.00    -0.053 NA 
BRANCH   3   4
HETATM    4  C   UNL     1      -6.888  10.960  68.153  1.00  0.00    -0.067 A  
HETATM    5  C   UNL     1      -7.746  11.347  67.115  1.00  0.00    -0.152 A  
HETATM    6  C   UNL     1      -6.403  12.004  68.957  1.00  0.00    -0.085 A  
HETATM    7  C   UNL     1      -8.197  12.681  66.983  1.00  0.00    -0.110 A  
HETATM    8  C   UNL     1      -6.830  13.339  68.826  1.00  0.00    -0.102 A  
HETATM    9  C   UNL     1      -7.784  13.685  67.869  1.00  0.00    -0.157 A  
BRANCH   9  10
HETATM   10  C   UNL     1      -8.414  15.053  67.842  1.00  0.00    -0.149 C  
BRANCH  10  11
HETATM   11  C   UNL     1      -9.351  15.398  66.712  1.00  0.00    -0.267 A  
HETATM   12  O   UNL     1      -6.872  17.251  66.567  1.00  0.00    -0.206 OA 
HETATM   13  O   UNL     1      -8.688  18.988  66.882  1.00  0.00    -0.285 OA 
HETATM   14  C   UNL     1     -10.247  14.399  66.282  1.00  0.00    -0.307 A  
HETATM   15  C   UNL     1     -11.081  14.610  65.169  1.00  0.00    -0.377 A  
HETATM   16  O   UNL     1      -7.891  18.381  64.651  1.00  0.00     2.279 OA 
HETATM   17  C   UNL     1     -11.156  15.850  64.545  1.00  0.00    -0.285 A  
HETATM   18  S   UNL     1      -8.115  17.869  66.167  1.00  0.00    -0.113 S  
HETATM   19  S   UNL     1     -11.880  13.215  64.420  1.00  0.00    -0.414 S  
HETATM   20  C   UNL     1     -10.310  16.861  64.977  1.00  0.00     0.303 A  
HETATM   21  O   UNL     1     -12.906  12.688  65.542  1.00  0.00    -0.513 OA 
HETATM   22  O   UNL     1     -12.705  13.690  63.330  1.00  0.00    -0.762 OA 
HETATM   23  O   UNL     1     -10.855  12.212  64.226  1.00  0.00    -0.295 OA 
HETATM   24  C   UNL     1      -9.374  16.622  66.007  1.00  0.00    -0.235 A  
ENDBRANCH  10  11
BRANCH  10  25
HETATM   25  C   UNL     1      -8.019  16.019  68.729  1.00  0.00    -0.196 A  
HETATM   26  C   UNL     1      -6.926  15.823  69.684  1.00  0.00    -0.157 A  
HETATM   27  C   UNL     1      -8.749  17.285  68.886  1.00  0.00    -0.172 A  
HETATM   28  C   UNL     1      -8.157  18.362  69.430  1.00  0.00     0.329 A  
HETATM   29  C   UNL     1      -6.320  16.867  70.274  1.00  0.00     0.357 A  
HETATM   30  C   UNL     1      -6.743  18.270  69.934  1.00  0.00     0.215 A  
BRANCH  30  31
HETATM   31  N   UNL     1      -5.962  19.310  70.071  1.00  0.00    -0.257 NA 
BRANCH  31  32
HETATM   32  C   UNL     1      -5.576  19.875  71.427  1.00  0.00    -0.351 C  
HETATM   33  C   UNL     1      -6.774  20.454  72.154  1.00  0.00     0.921 C  
ENDBRANCH  31  32
BRANCH  31  34
HETATM   34  C   UNL     1      -5.191  19.909  68.910  1.00  0.00    -0.194 C  
HETATM   35  C   UNL     1      -5.946  21.075  68.301  1.00  0.00    -0.374 C  
ENDBRANCH  31  34
ENDBRANCH  30  31
ENDBRANCH  10  25
ENDBRANCH   9  10
ENDBRANCH   3   4
BRANCH   3  36
HETATM   36  C   UNL     1      -5.167   9.189  68.662  1.00  0.00    -0.034 C  
HETATM   37  C   UNL     1      -5.172   7.906  69.479  1.00  0.00    -0.023 C  
ENDBRANCH   3  36
ENDBRANCH   2   3
TORSDOF 9
ENDMDL
MODEL      125
REMARK 921   NORMALIZED FREE ENERGY PREDICTED BY IDOCK:    2.87 KCAL/MOL
REMARK 922        TOTAL FREE ENERGY PREDICTED BY IDOCK:    2.05 KCAL/MOL
REMARK 923 INTER-LIGAND FREE ENERGY PREDICTED BY IDOCK:   -1.97 KCAL/MOL
REMARK 924 INTRA-LIGAND FREE ENERGY PREDICTED BY IDOCK:    4.02 KCAL/MOL
REMARK 927      BINDING AFFINITY PREDICTED BY RF-SCORE:    0.00 PKD
ROOT
HETATM    1  C   UNL     1     -11.196  16.805  66.970  1.00  0.00     0.329 C  
HETATM    2  C   UNL     1     -10.471  16.007  65.897  1.00  0.00    -0.359 C  
ENDROOT
BRANCH   2   3
HETATM    3  N   UNL     1     -11.175  14.747  65.603  1.00  0.00    -0.338 NA 
BRANCH   3   4
HETATM    4  C   UNL     1     -10.581  13.545  65.977  1.00  0.00    -0.285 A  
HETATM    5  C   UNL     1      -9.659  12.853  65.180  1.00  0.00     0.147 A  
HETATM    6  C   UNL     1     -10.859  12.963  67.224  1.00  0.00    -0.277 A  
HETATM    7  C   UNL     1      -8.958  11.725  65.666  1.00  0.00     0.045 A  
HETATM    8  C   UNL     1     -10.181  11.830  67.713  1.00  0.00    -0.205 A  
HETATM    9  C   UNL     1      -9.174  11.229  66.959  1.00  0.00    -0.173 A  
BRANCH   9  10
HETATM   10  C   UNL     1      -8.291  10.154  67.536  1.00  0.00    -0.118 C  
BRANCH  10  11
HETATM   11  C   UNL     1      -7.357  10.509  68.666  1.00  0.00    -0.091 A  
HETATM   12  O   UNL     1      -7.846  13.031  66.933  1.00  0.00    -0.033 OA 
HETATM   13  O   UNL     1      -5.339  12.799  66.656  1.00  0.00    -0.044 OA 
HETATM   14  C   UNL     1      -7.401   9.705  69.822  1.00  0.00    -0.104 A  
HETATM   15  C   UNL     1      -6.635  10.032  70.956  1.00  0.00     0.114 A  
HETATM   16  O   UNL     1      -6.293  14.258  68.371  1.00  0.00    -0.085 OA 
HETATM   17  C   UNL     1      -5.707  11.067  70.929  1.00  0.00    -0.051 A  
HETATM   18  S   UNL     1      -6.516  12.924  67.487  1.00  0.00    -0.126 S  
HETATM   19  S   UNL     1      -7.018   9.253  72.503  1.00  0.00     0.837 S  
HETATM   20  C   UNL     1      -5.619  11.848  69.786  1.00  0.00    -0.096 A  
HETATM   21  O   UNL     1      -6.669   7.699  72.269  1.00  0.00    -0.054 OA 
HETATM   22  O   UNL     1      -6.075   9.718  73.496  1.00  0.00    -0.127 OA 
HETATM   23  O   UNL     1      -8.449   9.381  72.682  1.00  0.00     0.542 OA 
HETATM   24  C   UNL     1      -6.477  11.614  68.689  1.00  0.00    -0.059 A  
ENDBRANCH  10  11
BRANCH  10  25
HETATM   25  C   UNL     1      -8.214   8.923  66.941  1.00  0.00    -0.112 A  
HETATM   26  C   UNL     1      -7.002   8.433  66.279  1.00  0.00    -0.073 A  
HETATM   27  C   UNL     1      -9.385   8.046  66.799  1.00  0.00    -0.229 A  
HETATM   28  C   UNL     1      -9.239   6.725  66.599  1.00  0.00    -0.184 A  
HETATM   29  C   UNL     1      -6.823   7.124  66.034  1.00  0.00    -0.057 A  
HETATM   30  C   UNL     1      -7.864   6.129  66.467  1.00  0.00    -0.104 A  
BRANCH  30  31
HETATM   31  N   UNL     1      -7.603   4.869  66.697  1.00  0.00    -0.087 NA 
BRANCH  31  32
HETATM   32  C   UNL     1      -8.093   4.140  67.936  1.00  0.00    -0.090 C  
HETATM   33  C   UNL     1      -9.551   3.741  67.811  1.00  0.00    -0.193 C  
ENDBRANCH  31  32
BRANCH  31  34
HETATM   34  C   UNL     1      -6.982   3.962  65.651  1.00  0.00    -0.062 C  
HETATM   35  C   UNL     1      -7.645   4.156  64.301  1.00  0.00    -0.072 C  
ENDBRANCH  31  34
ENDBRANCH  30  31
ENDBRANCH  10  25
ENDBRANCH   9  10
ENDBRANCH   3   4
BRANCH   3  36
HETATM   36  C   UNL     1     -12.321  14.839  64.690  1.00  0.00    -0.333 C  
HETATM   37  C   UNL     1     -13.053  13.506  64.634  1.00  0.00     0.233 C  
ENDBRANCH   3  36
ENDBRANCH   2   3
TORSDOF 9
ENDMDL
MODEL      126
REMARK 921   NORMALIZED FREE ENERGY PREDICTED BY IDOCK:    3.11 KCAL/MOL
REMARK 922        TOTAL FREE ENERGY PREDICTED BY IDOCK:    2.43 KCAL/MOL
REMARK 923 INTER-LIGAND FREE ENERGY PREDICTED BY IDOCK:   -2.94 KCAL/MOL
REMARK 924 INTRA-LIGAND FREE ENERGY PREDICTED BY IDOCK:    5.37 KCAL/MOL
REMARK 927      BINDING AFFINITY PREDICTED BY RF-SCORE:    0.00 PKD
ROOT
HETATM    1  C   UNL     1      -9.596  21.172  67.746  1.00  0.00     0.010 C  
HETATM    2  C   UNL     1      -9.304  19.887  66.986  1.00  0.00    -0.370 C  
ENDROOT
BRANCH   2   3
HETATM    3  N   UNL     1      -8.032  19.287  67.422  1.00  0.00    -0.261 NA 
BRANCH   3   4
HETATM    4  C   UNL     1      -7.933  17.901  67.494  1.00  0.00    -0.213 A  
HETATM    5  C   UNL     1      -7.479  17.211  68.625  1.00  0.00    -0.245 A  
HETATM    6  C   UNL     1      -8.327  17.096  66.413  1.00  0.00    -0.315 A  
HETATM    7  C   UNL     1      -7.550  15.802  68.714  1.00  0.00    -0.173 A  
HETATM    8  C   UNL     1      -8.386  15.691  66.480  1.00  0.00    -0.276 A  
HETATM    9  C   UNL     1      -8.053  15.026  67.660  1.00  0.00    -0.184 A  
BRANCH   9  10
HETATM   10  C   UNL     1      -8.305  13.551  67.833  1.00  0.00    -0.175 C  
BRANCH  10  11
HETATM   11  C   UNL     1      -7.199  12.684  68.380  1.00  0.00    -0.111 A  
HETATM   12  O   UNL     1      -7.985  14.782  70.520  1.00  0.00     0.725 OA 
HETATM   13  O   UNL     1      -5.557  15.414  70.170  1.00  0.00    -0.125 OA 
HETATM   14  C   UNL     1      -7.046  11.398  67.823  1.00  0.00    -0.081 A  
HETATM   15  C   UNL     1      -6.104  10.494  68.347  1.00  0.00    -0.047 A  
HETATM   16  O   UNL     1      -6.223  13.894  71.966  1.00  0.00    -0.160 OA 
HETATM   17  C   UNL     1      -5.200  10.879  69.331  1.00  0.00    -0.037 A  
HETATM   18  S   UNL     1      -6.581  14.444  70.489  1.00  0.00     0.173 S  
HETATM   19  S   UNL     1      -6.220   8.782  67.902  1.00  0.00    -0.052 S  
HETATM   20  C   UNL     1      -5.308  12.154  69.867  1.00  0.00    -0.090 A  
HETATM   21  O   UNL     1      -5.904   8.754  66.324  1.00  0.00    -0.049 OA 
HETATM   22  O   UNL     1      -5.128   8.070  68.530  1.00  0.00    -0.029 OA 
HETATM   23  O   UNL     1      -7.601   8.400  68.101  1.00  0.00    -0.095 OA 
HETATM   24  C   UNL     1      -6.334  13.027  69.443  1.00  0.00    -0.111 A  
ENDBRANCH  10  11
BRANCH  10  25
HETATM   25  C   UNL     1      -9.452  12.980  67.350  1.00  0.00    -0.210 A  
HETATM   26  C   UNL     1     -10.761  13.163  67.984  1.00  0.00    -0.248 A  
HETATM   27  C   UNL     1      -9.443  12.026  66.232  1.00  0.00    -0.237 A  
HETATM   28  C   UNL     1     -10.554  11.790  65.514  1.00  0.00    -0.323 A  
HETATM   29  C   UNL     1     -11.899  12.915  67.315  1.00  0.00    -0.416 A  
HETATM   30  C   UNL     1     -11.846  12.468  65.880  1.00  0.00    -0.430 A  
BRANCH  30  31
HETATM   31  N   UNL     1     -12.828  12.644  65.035  1.00  0.00    -0.816 NA 
BRANCH  31  32
HETATM   32  C   UNL     1     -13.731  13.866  65.065  1.00  0.00     1.774 C  
HETATM   33  C   UNL     1     -12.929  15.153  65.109  1.00  0.00     0.755 C  
ENDBRANCH  31  32
BRANCH  31  34
HETATM   34  C   UNL     1     -13.020  11.765  63.814  1.00  0.00    -0.071 C  
HETATM   35  C   UNL     1     -11.744  11.682  62.998  1.00  0.00     0.092 C  
ENDBRANCH  31  34
ENDBRANCH  30  31
ENDBRANCH  10  25
ENDBRANCH   9  10
ENDBRANCH   3   4
BRANCH   3  36
HETATM   36  C   UNL     1      -7.050  20.204  68.016  1.00  0.00    -0.284 C  
HETATM   37  C   UNL     1      -5.947  20.511  67.014  1.00  0.00    -0.235 C  
ENDBRANCH   3  36
ENDBRANCH   2   3
TORSDOF 9
ENDMDL
MODEL      127
REMARK 921   NORMALIZED FREE ENERGY PREDICTED BY IDOCK:    4.03 KCAL/MOL
REMARK 922        TOTAL FREE ENERGY PREDICTED BY IDOCK:    3.82 KCAL/MOL
REMARK 923 INTER-LIGAND FREE ENERGY PREDICTED BY IDOCK:    4.71 KCAL/MOL
REMARK 924 INTRA-LIGAND FREE ENERGY PREDICTED BY IDOCK:   -0.88 KCAL/MOL
REMARK 927      BINDING AFFINITY PREDICTED BY RF-SCORE:    0.00 PKD
ROOT
HETATM    1  C   UNL     1     -12.597   5.302  64.176  1.00  0.00     6.463 C  
HETATM    2  C   UNL     1     -11.797   4.040  63.891  1.00  0.00     2.016 C  
ENDROOT
BRANCH   2   3
HETATM    3  N   UNL     1     -10.421   4.155  64.402  1.00  0.00    -0.178 NA 
BRANCH   3   4
HETATM    4  C   UNL     1     -10.207   4.802  65.616  1.00  0.00    -0.188 A  
HETATM    5  C   UNL     1      -9.873   4.137  66.803  1.00  0.00    -0.203 A  
HETATM    6  C   UNL     1     -10.286   6.201  65.708  1.00  0.00     0.600 A  
HETATM    7  C   UNL     1      -9.506   4.844  67.971  1.00  0.00    -0.173 A  
HETATM    8  C   UNL     1      -9.939   6.917  66.870  1.00  0.00    -0.264 A  
HETATM    9  C   UNL     1      -9.485   6.245  68.004  1.00  0.00    -0.116 A  
BRANCH   9  10
HETATM   10  C   UNL     1      -8.909   6.986  69.182  1.00  0.00    -0.135 C  
BRANCH  10  11
HETATM   11  C   UNL     1      -8.807   8.489  69.116  1.00  0.00    -0.142 A  
HETATM   12  O   UNL     1      -6.479   7.248  67.490  1.00  0.00    -0.051 OA 
HETATM   13  O   UNL     1      -5.155   8.529  69.228  1.00  0.00    -0.030 OA 
HETATM   14  C   UNL     1      -9.987   9.230  69.327  1.00  0.00    -0.180 A  
HETATM   15  C   UNL     1      -9.993  10.629  69.182  1.00  0.00    -0.211 A  
HETATM   16  O   UNL     1      -5.654   9.507  67.043  1.00  0.00    -0.046 OA 
HETATM   17  C   UNL     1      -8.818  11.341  68.966  1.00  0.00     0.026 A  
HETATM   18  S   UNL     1      -6.151   8.474  68.181  1.00  0.00    -0.051 S  
HETATM   19  S   UNL     1     -11.549  11.470  69.053  1.00  0.00    -0.348 S  
HETATM   20  C   UNL     1      -7.638  10.633  68.794  1.00  0.00    -0.109 A  
HETATM   21  O   UNL     1     -12.244  11.256  70.489  1.00  0.00    -0.337 OA 
HETATM   22  O   UNL     1     -11.296  12.891  68.952  1.00  0.00    -0.254 OA 
HETATM   23  O   UNL     1     -12.319  10.755  68.058  1.00  0.00    -0.034 OA 
HETATM   24  C   UNL     1      -7.639   9.221  68.805  1.00  0.00    -0.079 A  
ENDBRANCH  10  11
BRANCH  10  25
HETATM   25  C   UNL     1      -8.338   6.302  70.222  1.00  0.00    -0.126 A  
HETATM   26  C   UNL     1      -8.222   6.860  71.573  1.00  0.00    -0.110 A  
HETATM   27  C   UNL     1      -7.673   5.005  70.038  1.00  0.00    -0.063 A  
HETATM   28  C   UNL     1      -7.484   4.170  71.074  1.00  0.00    -0.047 A  
HETATM   29  C   UNL     1      -8.006   6.069  72.637  1.00  0.00    -0.104 A  
HETATM   30  C   UNL     1      -7.910   4.578  72.458  1.00  0.00    -0.087 A  
BRANCH  30  31
HETATM   31  N   UNL     1      -8.162   3.722  73.413  1.00  0.00    -0.087 NA 
BRANCH  31  32
HETATM   32  C   UNL     1      -7.095   3.217  74.369  1.00  0.00    -0.047 C  
HETATM   33  C   UNL     1      -6.475   1.921  73.883  1.00  0.00    -0.016 C  
ENDBRANCH  31  32
BRANCH  31  34
HETATM   34  C   UNL     1      -9.574   3.324  73.797  1.00  0.00    -0.098 C  
HETATM   35  C   UNL     1     -10.275   2.627  72.647  1.00  0.00    -0.235 C  
ENDBRANCH  31  34
ENDBRANCH  30  31
ENDBRANCH  10  25
ENDBRANCH   9  10
ENDBRANCH   3   4
BRANCH   3  36
HETATM   36  C   UNL     1      -9.346   3.823  63.458  1.00  0.00    -0.129 C  
HETATM   37  C   UNL     1      -8.347   4.968  63.378  1.00  0.00    -0.119 C  
ENDBRANCH   3  36
ENDBRANCH   2   3
TORSDOF 9
ENDMDL
MODEL      128
REMARK 921   NORMALIZED FREE ENERGY PREDICTED BY IDOCK:    4.53 KCAL/MOL
REMARK 922        TOTAL FREE ENERGY PREDICTED BY IDOCK:    4.59 KCAL/MOL
REMARK 923 INTER-LIGAND FREE ENERGY PREDICTED BY IDOCK:    2.11 KCAL/MOL
REMARK 924 INTRA-LIGAND FREE ENERGY PREDICTED BY IDOCK:    2.48 KCAL/MOL
REMARK 927      BINDING AFFINITY PREDICTED BY RF-SCORE:    0.00 PKD
ROOT
HETATM    1  C   UNL     1     -10.278  16.978  65.529  1.00  0.00    -0.111 C  
HETATM    2  C   UNL     1     -10.773  17.455  66.886  1.00  0.00    -0.125 C  
ENDROOT
BRANCH   2   3
HETATM    3  N   UNL     1     -11.253  16.328  67.704  1.00  0.00    -0.185 NA 
BRANCH   3   4
HETATM    4  C   UNL     1     -10.476  15.176  67.780  1.00  0.00    -0.247 A  
HETATM    5  C   UNL     1      -9.597  14.900  68.835  1.00  0.00    -0.215 A  
HETATM    6  C   UNL     1     -10.562  14.184  66.790  1.00  0.00    -0.277 A  
HETATM    7  C   UNL     1      -8.952  13.648  68.956  1.00  0.00     0.323 A  
HETATM    8  C   UNL     1      -9.912  12.939  66.888  1.00  0.00    -0.238 A  
HETATM    9  C   UNL     1      -9.142  12.632  68.009  1.00  0.00    -0.207 A  
BRANCH   9  10
HETATM   10  C   UNL     1      -8.609  11.242  68.244  1.00  0.00    -0.153 C  
BRANCH  10  11
HETATM   11  C   UNL     1      -7.421  10.774  67.442  1.00  0.00    -0.098 A  
HETATM   12  O   UNL     1      -7.395   9.360  70.198  1.00  0.00    -0.079 OA 
HETATM   13  O   UNL     1      -5.186  10.591  70.327  1.00  0.00    -0.039 OA 
HETATM   14  C   UNL     1      -7.505  10.873  66.038  1.00  0.00    -0.086 A  
HETATM   15  C   UNL     1      -6.481  10.366  65.218  1.00  0.00    -0.105 A  
HETATM   16  O   UNL     1      -5.298   8.271  69.563  1.00  0.00    -0.029 OA 
HETATM   17  C   UNL     1      -5.295   9.881  65.757  1.00  0.00    -0.046 A  
HETATM   18  S   UNL     1      -6.090   9.676  69.666  1.00  0.00    -0.045 S  
HETATM   19  S   UNL     1      -6.801  10.140  63.489  1.00  0.00    -0.088 S  
HETATM   20  C   UNL     1      -5.175   9.811  67.138  1.00  0.00    -0.038 A  
HETATM   21  O   UNL     1      -7.010  11.631  62.920  1.00  0.00     1.133 OA 
HETATM   22  O   UNL     1      -5.594   9.649  62.859  1.00  0.00    -0.086 OA 
HETATM   23  O   UNL     1      -8.059   9.431  63.394  1.00  0.00    -0.135 OA 
HETATM   24  C   UNL     1      -6.248  10.193  67.972  1.00  0.00    -0.056 A  
ENDBRANCH  10  11
BRANCH  10  25
HETATM   25  C   UNL     1      -9.288  10.363  69.045  1.00  0.00    -0.201 A  
HETATM   26  C   UNL     1      -9.443  10.558  70.489  1.00  0.00     1.220 A  
HETATM   27  C   UNL     1      -9.803   9.081  68.543  1.00  0.00    -0.184 A  
HETATM   28  C   UNL     1     -10.785   8.430  69.187  1.00  0.00    -0.123 A  
HETATM   29  C   UNL     1     -10.394   9.909  71.181  1.00  0.00     0.118 A  
HETATM   30  C   UNL     1     -11.343   8.985  70.470  1.00  0.00    -0.243 A  
BRANCH  30  31
HETATM   31  N   UNL     1     -12.532   8.685  70.924  1.00  0.00    -0.091 NA 
BRANCH  31  32
HETATM   32  C   UNL     1     -13.547   9.739  71.331  1.00  0.00    -0.249 C  
HETATM   33  C   UNL     1     -13.148  10.432  72.620  1.00  0.00     0.583 C  
ENDBRANCH  31  32
BRANCH  31  34
HETATM   34  C   UNL     1     -13.090   7.275  70.878  1.00  0.00    -0.013 C  
HETATM   35  C   UNL     1     -11.995   6.267  70.587  1.00  0.00    -0.091 C  
ENDBRANCH  31  34
ENDBRANCH  30  31
ENDBRANCH  10  25
ENDBRANCH   9  10
ENDBRANCH   3   4
BRANCH   3  36
HETATM   36  C   UNL     1     -12.649  16.398  68.153  1.00  0.00     2.116 C  
HETATM   37  C   UNL     1     -12.906  15.355  69.230  1.00  0.00     0.494 C  
ENDBRANCH   3  36
ENDBRANCH   2   3
TORSDOF 9
ENDMDL
MODEL      129
REMARK 921   NORMALIZED FREE ENERGY PREDICTED BY IDOCK:    4.64 KCAL/MOL
REMARK 922        TOTAL FREE ENERGY PREDICTED BY IDOCK:    4.76 KCAL/MOL
REMARK 923 INTER-LIGAND FREE ENERGY PREDICTED BY IDOCK:   -3.20 KCAL/MOL
REMARK 924 INTRA-LIGAND FREE ENERGY PREDICTED BY IDOCK:    7.96 KCAL/MOL
REMARK 927      BINDING AFFINITY PREDICTED BY RF-SCORE:    0.00 PKD
ROOT
HETATM    1  C   UNL     1      -8.785  16.238  70.188  1.00  0.00     1.413 C  
HETATM    2  C   UNL     1      -7.318  16.504  69.891  1.00  0.00     0.592 C  
ENDROOT
BRANCH   2   3
HETATM    3  N   UNL     1      -6.510  15.285  70.063  1.00  0.00    -0.160 NA 
BRANCH   3   4
HETATM    4  C   UNL     1      -6.956  14.098  69.489  1.00  0.00    -0.042 A  
HETATM    5  C   UNL     1      -8.099  14.005  68.684  1.00  0.00    -0.113 A  
HETATM    6  C   UNL     1      -6.242  12.902  69.664  1.00  0.00    -0.114 A  
HETATM    7  C   UNL     1      -8.424  12.818  67.989  1.00  0.00    -0.177 A  
HETATM    8  C   UNL     1      -6.563  11.707  68.992  1.00  0.00    -0.092 A  
HETATM    9  C   UNL     1      -7.630  11.667  68.094  1.00  0.00    -0.115 A  
BRANCH   9  10
HETATM   10  C   UNL     1      -7.869  10.474  67.206  1.00  0.00    -0.107 C  
BRANCH  10  11
HETATM   11  C   UNL     1      -8.564  10.681  65.883  1.00  0.00    -0.177 A  
HETATM   12  O   UNL     1      -7.375   7.821  65.960  1.00  0.00    -0.071 OA 
HETATM   13  O   UNL     1      -6.114   8.757  63.973  1.00  0.00    -0.071 OA 
HETATM   14  C   UNL     1      -9.575  11.661  65.827  1.00  0.00    -0.255 A  
HETATM   15  C   UNL     1     -10.337  11.843  64.659  1.00  0.00    -0.284 A  
HETATM   16  O   UNL     1      -8.178   7.480  63.674  1.00  0.00    -0.068 OA 
HETATM   17  C   UNL     1     -10.030  11.169  63.482  1.00  0.00    -0.425 A  
HETATM   18  S   UNL     1      -7.349   8.454  64.662  1.00  0.00    -0.097 S  
HETATM   19  S   UNL     1     -11.840  12.779  64.753  1.00  0.00    -0.399 S  
HETATM   20  C   UNL     1      -9.012  10.227  63.505  1.00  0.00    -0.259 A  
HETATM   21  O   UNL     1     -11.362  14.275  65.106  1.00  0.00    -0.318 OA 
HETATM   22  O   UNL     1     -12.415  12.857  63.428  1.00  0.00    -0.695 OA 
HETATM   23  O   UNL     1     -12.579  12.254  65.881  1.00  0.00    -0.398 OA 
HETATM   24  C   UNL     1      -8.328   9.939  64.705  1.00  0.00    -0.160 A  
ENDBRANCH  10  11
BRANCH  10  25
HETATM   25  C   UNL     1      -7.614   9.208  67.659  1.00  0.00    -0.085 A  
HETATM   26  C   UNL     1      -6.448   8.429  67.231  1.00  0.00    -0.058 A  
HETATM   27  C   UNL     1      -8.562   8.472  68.508  1.00  0.00    -0.138 A  
HETATM   28  C   UNL     1      -8.155   7.438  69.264  1.00  0.00    -0.123 A  
HETATM   29  C   UNL     1      -6.020   7.371  67.940  1.00  0.00    -0.035 A  
HETATM   30  C   UNL     1      -6.722   6.984  69.212  1.00  0.00    -0.049 A  
BRANCH  30  31
HETATM   31  N   UNL     1      -6.147   6.311  70.175  1.00  0.00    -0.029 NA 
BRANCH  31  32
HETATM   32  C   UNL     1      -5.658   4.883  70.003  1.00  0.00    -0.015 C  
HETATM   33  C   UNL     1      -5.875   4.384  68.587  1.00  0.00    -0.025 C  
ENDBRANCH  31  32
BRANCH  31  34
HETATM   34  C   UNL     1      -5.713   6.960  71.475  1.00  0.00    -0.036 C  
HETATM   35  C   UNL     1      -6.900   7.191  72.390  1.00  0.00    -0.064 C  
ENDBRANCH  31  34
ENDBRANCH  30  31
ENDBRANCH  10  25
ENDBRANCH   9  10
ENDBRANCH   3   4
BRANCH   3  36
HETATM   36  C   UNL     1      -5.436  15.351  71.063  1.00  0.00    -0.030 C  
HETATM   37  C   UNL     1      -5.163  16.798  71.443  1.00  0.00     0.076 C  
ENDBRANCH   3  36
ENDBRANCH   2   3
TORSDOF 9
ENDMDL
MODEL      130
REMARK 921   NORMALIZED FREE ENERGY PREDICTED BY IDOCK:    5.10 KCAL/MOL
REMARK 922        TOTAL FREE ENERGY PREDICTED BY IDOCK:    5.45 KCAL/MOL
REMARK 923 INTER-LIGAND FREE ENERGY PREDICTED BY IDOCK:    4.88 KCAL/MOL
REMARK 924 INTRA-LIGAND FREE ENERGY PREDICTED BY IDOCK:    0.57 KCAL/MOL
REMARK 927      BINDING AFFINITY PREDICTED BY RF-SCORE:    0.00 PKD
ROOT
HETATM    1  C   UNL     1     -13.839  16.068  64.632  1.00  0.00     4.202 C  
HETATM    2  C   UNL     1     -13.537  14.786  65.392  1.00  0.00     1.609 C  
ENDROOT
BRANCH   2   3
HETATM    3  N   UNL     1     -12.086  14.574  65.525  1.00  0.00    -0.334 NA 
BRANCH   3   4
HETATM    4  C   UNL     1     -11.632  13.455  66.217  1.00  0.00    -0.344 A  
HETATM    5  C   UNL     1     -11.541  12.176  65.653  1.00  0.00    -0.409 A  
HETATM    6  C   UNL     1     -11.197  13.561  67.548  1.00  0.00    -0.307 A  
HETATM    7  C   UNL     1     -10.923  11.104  66.338  1.00  0.00    -0.248 A  
HETATM    8  C   UNL     1     -10.595  12.498  68.248  1.00  0.00    -0.245 A  
HETATM    9  C   UNL     1     -10.395  11.266  67.626  1.00  0.00    -0.212 A  
BRANCH   9  10
HETATM   10  C   UNL     1      -9.570  10.182  68.269  1.00  0.00    -0.150 C  
BRANCH  10  11
HETATM   11  C   UNL     1      -8.169  10.508  68.723  1.00  0.00    -0.134 A  
HETATM   12  O   UNL     1      -8.022   8.853  66.107  1.00  0.00    -0.103 OA 
HETATM   13  O   UNL     1      -6.777   7.297  67.670  1.00  0.00    -0.060 OA 
HETATM   14  C   UNL     1      -8.000  11.634  69.553  1.00  0.00     0.607 A  
HETATM   15  C   UNL     1      -6.715  12.061  69.934  1.00  0.00     0.155 A  
HETATM   16  O   UNL     1      -5.582   8.906  66.270  1.00  0.00    -0.043 OA 
HETATM   17  C   UNL     1      -5.583  11.314  69.628  1.00  0.00    -0.061 A  
HETATM   18  S   UNL     1      -6.961   8.591  67.051  1.00  0.00    -0.075 S  
HETATM   19  S   UNL     1      -6.520  13.684  70.622  1.00  0.00     0.485 S  
HETATM   20  C   UNL     1      -5.731  10.179  68.844  1.00  0.00    -0.034 A  
HETATM   21  O   UNL     1      -7.309  13.624  72.024  1.00  0.00     3.825 OA 
HETATM   22  O   UNL     1      -5.128  13.871  70.968  1.00  0.00    -0.105 OA 
HETATM   23  O   UNL     1      -7.221  14.590  69.738  1.00  0.00    -0.112 OA 
HETATM   24  C   UNL     1      -6.999   9.813  68.343  1.00  0.00    -0.068 A  
ENDBRANCH  10  11
BRANCH  10  25
HETATM   25  C   UNL     1     -10.018   8.888  68.292  1.00  0.00    -0.201 A  
HETATM   26  C   UNL     1     -10.328   8.131  67.076  1.00  0.00    -0.403 A  
HETATM   27  C   UNL     1     -10.353   8.196  69.545  1.00  0.00    -0.222 A  
HETATM   28  C   UNL     1     -10.394   6.854  69.604  1.00  0.00    -0.224 A  
HETATM   29  C   UNL     1     -10.406   6.790  67.091  1.00  0.00    -0.327 A  
HETATM   30  C   UNL     1     -10.144   6.037  68.366  1.00  0.00    -0.164 A  
BRANCH  30  31
HETATM   31  N   UNL     1      -9.747   4.791  68.396  1.00  0.00    -0.153 NA 
BRANCH  31  32
HETATM   32  C   UNL     1      -9.258   4.053  67.162  1.00  0.00    -0.165 C  
HETATM   33  C   UNL     1      -9.220   2.553  67.385  1.00  0.00    -0.185 C  
ENDBRANCH  31  32
BRANCH  31  34
HETATM   34  C   UNL     1      -9.525   4.039  69.694  1.00  0.00    -0.192 C  
HETATM   35  C   UNL     1      -8.097   4.200  70.179  1.00  0.00    -0.061 C  
ENDBRANCH  31  34
ENDBRANCH  30  31
ENDBRANCH  10  25
ENDBRANCH   9  10
ENDBRANCH   3   4
BRANCH   3  36
HETATM   36  C   UNL     1     -11.226  15.706  65.156  1.00  0.00    -0.282 C  
HETATM   37  C   UNL     1      -9.928  15.657  65.949  1.00  0.00    -0.379 C  
ENDBRANCH   3  36
ENDBRANCH   2   3
TORSDOF 9
ENDMDL
MODEL      131
REMARK 921   NORMALIZED FREE ENERGY PREDICTED BY IDOCK:    5.12 KCAL/MOL
REMARK 922        TOTAL FREE ENERGY PREDICTED BY IDOCK:    5.49 KCAL/MOL
REMARK 923 INTER-LIGAND FREE ENERGY PREDICTED BY IDOCK:   -1.18 KCAL/MOL
REMARK 924 INTRA-LIGAND FREE ENERGY PREDICTED BY IDOCK:    6.66 KCAL/MOL
REMARK 927      BINDING AFFINITY PREDICTED BY RF-SCORE:    0.00 PKD
ROOT
HETATM    1  C   UNL     1     -12.896  15.983  67.674  1.00  0.00     2.945 C  
HETATM    2  C   UNL     1     -11.597  15.930  68.463  1.00  0.00    -0.349 C  
ENDROOT
BRANCH   2   3
HETATM    3  N   UNL     1     -10.475  15.499  67.612  1.00  0.00    -0.273 NA 
BRANCH   3   4
HETATM    4  C   UNL     1      -9.944  14.225  67.797  1.00  0.00    -0.227 A  
HETATM    5  C   UNL     1      -9.396  13.779  69.006  1.00  0.00     0.228 A  
HETATM    6  C   UNL     1      -9.961  13.282  66.757  1.00  0.00    -0.263 A  
HETATM    7  C   UNL     1      -9.020  12.430  69.198  1.00  0.00     0.661 A  
HETATM    8  C   UNL     1      -9.573  11.939  66.928  1.00  0.00    -0.208 A  
HETATM    9  C   UNL     1      -9.151  11.480  68.175  1.00  0.00    -0.181 A  
BRANCH   9  10
HETATM   10  C   UNL     1      -8.932  10.014  68.444  1.00  0.00    -0.121 C  
BRANCH  10  11
HETATM   11  C   UNL     1      -8.128   9.609  69.654  1.00  0.00    -0.143 A  
HETATM   12  O   UNL     1      -7.447  12.543  68.929  1.00  0.00    -0.084 OA 
HETATM   13  O   UNL     1      -5.157  11.493  68.665  1.00  0.00    -0.044 OA 
HETATM   14  C   UNL     1      -8.628   8.554  70.442  1.00  0.00    -0.146 A  
HETATM   15  C   UNL     1      -7.991   8.185  71.641  1.00  0.00    -0.121 A  
HETATM   16  O   UNL     1      -5.823  12.565  70.759  1.00  0.00    -0.261 OA 
HETATM   17  C   UNL     1      -6.775   8.746  72.017  1.00  0.00    -0.048 A  
HETATM   18  S   UNL     1      -6.340  11.774  69.448  1.00  0.00    -0.124 S  
HETATM   19  S   UNL     1      -8.859   7.152  72.792  1.00  0.00    -0.125 S  
HETATM   20  C   UNL     1      -6.245   9.761  71.234  1.00  0.00     0.031 A  
HETATM   21  O   UNL     1      -9.024   5.746  72.026  1.00  0.00    -0.138 OA 
HETATM   22  O   UNL     1      -7.988   6.884  73.915  1.00  0.00    -0.107 OA 
HETATM   23  O   UNL     1     -10.170   7.741  72.961  1.00  0.00    -0.278 OA 
HETATM   24  C   UNL     1      -6.941  10.232  70.100  1.00  0.00    -0.155 A  
ENDBRANCH  10  11
BRANCH  10  25
HETATM   25  C   UNL     1      -9.309   9.074  67.522  1.00  0.00    -0.159 A  
HETATM   26  C   UNL     1      -8.598   8.868  66.258  1.00  0.00    -0.145 A  
HETATM   27  C   UNL     1     -10.542   8.286  67.665  1.00  0.00    -0.264 A  
HETATM   28  C   UNL     1     -10.699   7.123  67.010  1.00  0.00    -0.420 A  
HETATM   29  C   UNL     1      -8.743   7.733  65.554  1.00  0.00    -0.102 A  
HETATM   30  C   UNL     1      -9.628   6.634  66.075  1.00  0.00     0.130 A  
BRANCH  30  31
HETATM   31  N   UNL     1      -9.485   5.378  65.741  1.00  0.00    -0.129 NA 
BRANCH  31  32
HETATM   32  C   UNL     1      -8.569   4.426  66.491  1.00  0.00    -0.112 C  
HETATM   33  C   UNL     1      -7.866   5.118  67.643  1.00  0.00    -0.095 C  
ENDBRANCH  31  32
BRANCH  31  34
HETATM   34  C   UNL     1     -10.382   4.699  64.723  1.00  0.00     0.156 C  
HETATM   35  C   UNL     1      -9.639   4.451  63.424  1.00  0.00    -0.029 C  
ENDBRANCH  31  34
ENDBRANCH  30  31
ENDBRANCH  10  25
ENDBRANCH   9  10
ENDBRANCH   3   4
BRANCH   3  36
HETATM   36  C   UNL     1      -9.817  16.546  66.821  1.00  0.00    -0.266 C  
HETATM   37  C   UNL     1      -8.638  17.121  67.591  1.00  0.00    -0.214 C  
ENDBRANCH   3  36
ENDBRANCH   2   3
TORSDOF 9
ENDMDL
MODEL      132
REMARK 921   NORMALIZED FREE ENERGY PREDICTED BY IDOCK:    5.29 KCAL/MOL
REMARK 922        TOTAL FREE ENERGY PREDICTED BY IDOCK:    5.74 KCAL/MOL
REMARK 923 INTER-LIGAND FREE ENERGY PREDICTED BY IDOCK:    1.09 KCAL/MOL
REMARK 924 INTRA-LIGAND FREE ENERGY PREDICTED BY IDOCK:    4.66 KCAL/MOL
REMARK 927      BINDING AFFINITY PREDICTED BY RF-SCORE:    0.00 PKD
ROOT
HETATM    1  C   UNL     1     -12.235   9.105  72.260  1.00  0.00    -0.348 C  
HETATM    2  C   UNL     1     -11.556   7.849  72.783  1.00  0.00    -0.329 C  
ENDROOT
BRANCH   2   3
HETATM    3  N   UNL     1     -10.486   7.403  71.875  1.00  0.00    -0.200 NA 
BRANCH   3   4
HETATM    4  C   UNL     1     -10.314   8.069  70.664  1.00  0.00    -0.202 A  
HETATM    5  C   UNL     1      -9.479   7.610  69.637  1.00  0.00    -0.156 A  
HETATM    6  C   UNL     1     -11.015   9.254  70.389  1.00  0.00    -0.302 A  
HETATM    7  C   UNL     1      -9.459   8.227  68.365  1.00  0.00    -0.144 A  
HETATM    8  C   UNL     1     -10.992   9.889  69.133  1.00  0.00    -0.233 A  
HETATM    9  C   UNL     1     -10.255   9.345  68.081  1.00  0.00    -0.239 A  
BRANCH   9  10
HETATM   10  C   UNL     1     -10.375   9.877  66.677  1.00  0.00    -0.275 C  
BRANCH  10  11
HETATM   11  C   UNL     1      -9.607   9.193  65.573  1.00  0.00    -0.239 A  
HETATM   12  O   UNL     1      -8.550  12.088  65.891  1.00  0.00     0.081 OA 
HETATM   13  O   UNL     1      -9.368  12.190  63.496  1.00  0.00    -0.078 OA 
HETATM   14  C   UNL     1      -9.552   7.785  65.596  1.00  0.00     0.434 A  
HETATM   15  C   UNL     1      -8.773   7.080  64.661  1.00  0.00     0.417 A  
HETATM   16  O   UNL     1      -7.032  11.686  64.015  1.00  0.00     2.046 OA 
HETATM   17  C   UNL     1      -8.149   7.729  63.602  1.00  0.00    -0.053 A  
HETATM   18  S   UNL     1      -8.559  11.591  64.535  1.00  0.00     0.825 S  
HETATM   19  S   UNL     1      -8.404   5.372  64.967  1.00  0.00    -0.147 S  
HETATM   20  C   UNL     1      -8.223   9.113  63.537  1.00  0.00    -0.178 A  
HETATM   21  O   UNL     1      -9.830   4.630  64.878  1.00  0.00    -0.115 OA 
HETATM   22  O   UNL     1      -7.631   4.864  63.854  1.00  0.00    -0.062 OA 
HETATM   23  O   UNL     1      -7.929   5.295  66.331  1.00  0.00    -0.103 OA 
HETATM   24  C   UNL     1      -8.891   9.844  64.544  1.00  0.00    -0.209 A  
ENDBRANCH  10  11
BRANCH  10  25
HETATM   25  C   UNL     1     -11.032  11.053  66.432  1.00  0.00    -0.202 A  
HETATM   26  C   UNL     1     -11.142  12.126  67.425  1.00  0.00    -0.330 A  
HETATM   27  C   UNL     1     -11.798  11.282  65.198  1.00  0.00     0.581 A  
HETATM   28  C   UNL     1     -12.087  12.527  64.784  1.00  0.00    -0.497 A  
HETATM   29  C   UNL     1     -11.454  13.381  67.062  1.00  0.00    -0.372 A  
HETATM   30  C   UNL     1     -11.670  13.713  65.611  1.00  0.00    -0.342 A  
BRANCH  30  31
HETATM   31  N   UNL     1     -11.518  14.914  65.118  1.00  0.00    -0.361 NA 
BRANCH  31  32
HETATM   32  C   UNL     1     -11.171  16.118  65.977  1.00  0.00     0.205 C  
HETATM   33  C   UNL     1     -10.555  17.233  65.154  1.00  0.00     0.114 C  
ENDBRANCH  31  32
BRANCH  31  34
HETATM   34  C   UNL     1     -11.453  15.180  63.626  1.00  0.00     1.139 C  
HETATM   35  C   UNL     1     -12.151  14.081  62.848  1.00  0.00     1.265 C  
ENDBRANCH  31  34
ENDBRANCH  30  31
ENDBRANCH  10  25
ENDBRANCH   9  10
ENDBRANCH   3   4
BRANCH   3  36
HETATM   36  C   UNL     1      -9.861   6.112  72.189  1.00  0.00    -0.157 C  
HETATM   37  C   UNL     1      -9.552   6.028  73.676  1.00  0.00    -0.149 C  
ENDBRANCH   3  36
ENDBRANCH   2   3
TORSDOF 9
ENDMDL
MODEL      133
REMARK 921   NORMALIZED FREE ENERGY PREDICTED BY IDOCK:    5.59 KCAL/MOL
REMARK 922        TOTAL FREE ENERGY PREDICTED BY IDOCK:    6.21 KCAL/MOL
REMARK 923 INTER-LIGAND FREE ENERGY PREDICTED BY IDOCK:    4.97 KCAL/MOL
REMARK 924 INTRA-LIGAND FREE ENERGY PREDICTED BY IDOCK:    1.24 KCAL/MOL
REMARK 927      BINDING AFFINITY PREDICTED BY RF-SCORE:    0.00 PKD
ROOT
HETATM    1  C   UNL     1     -13.906  13.792  72.701  1.00  0.00    -0.504 C  
HETATM    2  C   UNL     1     -13.050  12.561  72.955  1.00  0.00     1.502 C  
ENDROOT
BRANCH   2   3
HETATM    3  N   UNL     1     -13.031  11.673  71.780  1.00  0.00    -0.424 NA 
BRANCH   3   4
HETATM    4  C   UNL     1     -12.099  11.910  70.775  1.00  0.00    -0.226 A  
HETATM    5  C   UNL     1     -12.093  11.239  69.545  1.00  0.00    -0.386 A  
HETATM    6  C   UNL     1     -11.104  12.888  70.934  1.00  0.00     2.415 A  
HETATM    7  C   UNL     1     -11.232  11.625  68.493  1.00  0.00    -0.312 A  
HETATM    8  C   UNL     1     -10.228  13.271  69.900  1.00  0.00     1.477 A  
HETATM    9  C   UNL     1     -10.322  12.681  68.640  1.00  0.00    -0.192 A  
BRANCH   9  10
HETATM   10  C   UNL     1      -9.549  13.211  67.461  1.00  0.00    -0.208 C  
BRANCH  10  11
HETATM   11  C   UNL     1      -9.544  14.697  67.204  1.00  0.00    -0.236 A  
HETATM   12  O   UNL     1     -12.344  13.863  68.236  1.00  0.00    -0.254 OA 
HETATM   13  O   UNL     1     -12.980  14.781  65.963  1.00  0.00     0.166 OA 
HETATM   14  C   UNL     1      -8.299  15.356  67.229  1.00  0.00    -0.224 A  
HETATM   15  C   UNL     1      -8.222  16.755  67.099  1.00  0.00    -0.184 A  
HETATM   16  O   UNL     1     -13.079  16.181  67.965  1.00  0.00     2.500 OA 
HETATM   17  C   UNL     1      -9.346  17.517  66.800  1.00  0.00    -0.275 A  
HETATM   18  S   UNL     1     -12.350  14.925  67.256  1.00  0.00     0.609 S  
HETATM   19  S   UNL     1      -6.713  17.575  67.538  1.00  0.00    -0.162 S  
HETATM   20  C   UNL     1     -10.578  16.882  66.732  1.00  0.00    -0.201 A  
HETATM   21  O   UNL     1      -5.641  17.055  66.456  1.00  0.00    -0.262 OA 
HETATM   22  O   UNL     1      -6.869  18.991  67.282  1.00  0.00    -0.205 OA 
HETATM   23  O   UNL     1      -6.336  17.068  68.840  1.00  0.00    -0.163 OA 
HETATM   24  C   UNL     1     -10.688  15.499  66.992  1.00  0.00    -0.321 A  
ENDBRANCH  10  11
BRANCH  10  25
HETATM   25  C   UNL     1      -9.000  12.352  66.546  1.00  0.00    -0.145 A  
HETATM   26  C   UNL     1      -7.733  11.652  66.772  1.00  0.00    -0.116 A  
HETATM   27  C   UNL     1      -9.570  12.166  65.204  1.00  0.00    -0.051 A  
HETATM   28  C   UNL     1      -9.294  11.068  64.481  1.00  0.00    -0.227 A  
HETATM   29  C   UNL     1      -7.401  10.564  66.057  1.00  0.00    -0.137 A  
HETATM   30  C   UNL     1      -8.350  10.028  65.021  1.00  0.00    -0.155 A  
BRANCH  30  31
HETATM   31  N   UNL     1      -8.350   8.783  64.621  1.00  0.00    -0.165 NA 
BRANCH  31  32
HETATM   32  C   UNL     1      -7.693   8.334  63.327  1.00  0.00    -0.142 C  
HETATM   33  C   UNL     1      -6.180   8.389  63.418  1.00  0.00    -0.077 C  
ENDBRANCH  31  32
BRANCH  31  34
HETATM   34  C   UNL     1      -8.803   7.642  65.512  1.00  0.00     0.008 C  
HETATM   35  C   UNL     1      -9.743   8.137  66.594  1.00  0.00    -0.318 C  
ENDBRANCH  31  34
ENDBRANCH  30  31
ENDBRANCH  10  25
ENDBRANCH   9  10
ENDBRANCH   3   4
BRANCH   3  36
HETATM   36  C   UNL     1     -14.181  10.772  71.627  1.00  0.00     1.315 C  
HETATM   37  C   UNL     1     -14.402   9.982  72.908  1.00  0.00     1.254 C  
ENDBRANCH   3  36
ENDBRANCH   2   3
TORSDOF 9
ENDMDL
MODEL      134
REMARK 921   NORMALIZED FREE ENERGY PREDICTED BY IDOCK:    6.46 KCAL/MOL
REMARK 922        TOTAL FREE ENERGY PREDICTED BY IDOCK:    7.54 KCAL/MOL
REMARK 923 INTER-LIGAND FREE ENERGY PREDICTED BY IDOCK:    8.95 KCAL/MOL
REMARK 924 INTRA-LIGAND FREE ENERGY PREDICTED BY IDOCK:   -1.41 KCAL/MOL
REMARK 927      BINDING AFFINITY PREDICTED BY RF-SCORE:    0.00 PKD
ROOT
HETATM    1  C   UNL     1     -13.350  15.437  66.176  1.00  0.00     3.030 C  
HETATM    2  C   UNL     1     -13.332  15.075  64.699  1.00  0.00     1.546 C  
ENDROOT
BRANCH   2   3
HETATM    3  N   UNL     1     -12.642  13.793  64.473  1.00  0.00    -0.655 NA 
BRANCH   3   4
HETATM    4  C   UNL     1     -11.845  13.273  65.488  1.00  0.00    -0.370 A  
HETATM    5  C   UNL     1     -10.519  13.666  65.714  1.00  0.00    -0.296 A  
HETATM    6  C   UNL     1     -12.354  12.322  66.387  1.00  0.00     0.396 A  
HETATM    7  C   UNL     1      -9.800  13.234  66.853  1.00  0.00    -0.247 A  
HETATM    8  C   UNL     1     -11.644  11.871  67.516  1.00  0.00    -0.374 A  
HETATM    9  C   UNL     1     -10.373  12.370  67.796  1.00  0.00    -0.222 A  
BRANCH   9  10
HETATM   10  C   UNL     1      -9.677  12.070  69.098  1.00  0.00     0.344 C  
BRANCH  10  11
HETATM   11  C   UNL     1     -10.175  10.923  69.941  1.00  0.00     0.222 A  
HETATM   12  O   UNL     1     -12.312  13.166  69.931  1.00  0.00    -0.241 OA 
HETATM   13  O   UNL     1     -11.802  13.069  72.410  1.00  0.00     1.781 OA 
HETATM   14  C   UNL     1      -9.638   9.646  69.682  1.00  0.00    -0.225 A  
HETATM   15  C   UNL     1     -10.124   8.510  70.355  1.00  0.00    -0.189 A  
HETATM   16  O   UNL     1     -13.668  11.812  71.452  1.00  0.00     0.339 OA 
HETATM   17  C   UNL     1     -11.042   8.622  71.392  1.00  0.00    -0.343 A  
HETATM   18  S   UNL     1     -12.204  12.437  71.173  1.00  0.00     0.219 S  
HETATM   19  S   UNL     1      -9.723   6.903  69.723  1.00  0.00    -0.164 S  
HETATM   20  C   UNL     1     -11.556   9.875  71.691  1.00  0.00    -0.268 A  
HETATM   21  O   UNL     1      -8.130   6.779  69.915  1.00  0.00    -0.121 OA 
HETATM   22  O   UNL     1     -10.299   5.908  70.601  1.00  0.00    -0.209 OA 
HETATM   23  O   UNL     1     -10.014   6.936  68.306  1.00  0.00    -0.145 OA 
HETATM   24  C   UNL     1     -11.176  11.005  70.934  1.00  0.00     0.682 A  
ENDBRANCH  10  11
BRANCH  10  25
HETATM   25  C   UNL     1      -8.722  12.920  69.588  1.00  0.00     1.976 A  
HETATM   26  C   UNL     1      -7.313  12.540  69.726  1.00  0.00     0.843 A  
HETATM   27  C   UNL     1      -9.056  14.240  70.143  1.00  0.00     1.673 A  
HETATM   28  C   UNL     1      -8.126  15.205  70.240  1.00  0.00     0.726 A  
HETATM   29  C   UNL     1      -6.350  13.469  69.852  1.00  0.00    -0.071 A  
HETATM   30  C   UNL     1      -6.707  14.930  69.824  1.00  0.00    -0.179 A  
BRANCH  30  31
HETATM   31  N   UNL     1      -5.864  15.869  69.480  1.00  0.00    -0.128 NA 
BRANCH  31  32
HETATM   32  C   UNL     1      -5.626  16.272  68.035  1.00  0.00    -0.111 C  
HETATM   33  C   UNL     1      -6.882  16.121  67.198  1.00  0.00    -0.240 C  
ENDBRANCH  31  32
BRANCH  31  34
HETATM   34  C   UNL     1      -5.216  16.792  70.494  1.00  0.00    -0.223 C  
HETATM   35  C   UNL     1      -5.215  18.226  70.001  1.00  0.00    -0.224 C  
ENDBRANCH  31  34
ENDBRANCH  30  31
ENDBRANCH  10  25
ENDBRANCH   9  10
ENDBRANCH   3   4
BRANCH   3  36
HETATM   36  C   UNL     1     -12.624  13.298  63.091  1.00  0.00     0.188 C  
HETATM   37  C   UNL     1     -11.478  12.316  62.901  1.00  0.00     0.229 C  
ENDBRANCH   3  36
ENDBRANCH   2   3
TORSDOF 9
ENDMDL
MODEL      135
REMARK 921   NORMALIZED FREE ENERGY PREDICTED BY IDOCK:    6.47 KCAL/MOL
REMARK 922        TOTAL FREE ENERGY PREDICTED BY IDOCK:    7.55 KCAL/MOL
REMARK 923 INTER-LIGAND FREE ENERGY PREDICTED BY IDOCK:   -0.57 KCAL/MOL
REMARK 924 INTRA-LIGAND FREE ENERGY PREDICTED BY IDOCK:    8.12 KCAL/MOL
REMARK 927      BINDING AFFINITY PREDICTED BY RF-SCORE:    0.00 PKD
ROOT
HETATM    1  C   UNL     1      -7.992   6.754  65.076  1.00  0.00    -0.125 C  
HETATM    2  C   UNL     1      -6.999   7.896  65.222  1.00  0.00    -0.059 C  
ENDROOT
BRANCH   2   3
HETATM    3  N   UNL     1      -7.629   9.192  64.915  1.00  0.00    -0.105 NA 
BRANCH   3   4
HETATM    4  C   UNL     1      -8.398   9.812  65.895  1.00  0.00    -0.124 A  
HETATM    5  C   UNL     1      -9.724   9.460  66.181  1.00  0.00    -0.334 A  
HETATM    6  C   UNL     1      -7.858  10.833  66.694  1.00  0.00    -0.140 A  
HETATM    7  C   UNL     1     -10.413  10.002  67.291  1.00  0.00    -0.313 A  
HETATM    8  C   UNL     1      -8.539  11.394  67.791  1.00  0.00    -0.129 A  
HETATM    9  C   UNL     1      -9.810  10.939  68.141  1.00  0.00    -0.187 A  
BRANCH   9  10
HETATM   10  C   UNL     1     -10.475  11.364  69.424  1.00  0.00    -0.040 C  
BRANCH  10  11
HETATM   11  C   UNL     1     -10.874  12.809  69.592  1.00  0.00     0.279 A  
HETATM   12  O   UNL     1     -12.353  11.103  71.713  1.00  0.00    -0.149 OA 
HETATM   13  O   UNL     1     -14.341  12.047  70.458  1.00  0.00     4.128 OA 
HETATM   14  C   UNL     1      -9.982  13.789  69.111  1.00  0.00     0.159 A  
HETATM   15  C   UNL     1     -10.235  15.157  69.320  1.00  0.00    -0.251 A  
HETATM   16  O   UNL     1     -13.489  13.131  72.478  1.00  0.00    -0.569 OA 
HETATM   17  C   UNL     1     -11.431  15.595  69.877  1.00  0.00    -0.344 A  
HETATM   18  S   UNL     1     -13.110  12.221  71.198  1.00  0.00     0.118 S  
HETATM   19  S   UNL     1      -8.919  16.319  69.072  1.00  0.00    -0.231 S  
HETATM   20  C   UNL     1     -12.341  14.647  70.321  1.00  0.00    -0.406 A  
HETATM   21  O   UNL     1      -8.611  16.248  67.494  1.00  0.00    -0.173 OA 
HETATM   22  O   UNL     1      -9.433  17.651  69.309  1.00  0.00    -0.071 OA 
HETATM   23  O   UNL     1      -7.774  15.800  69.789  1.00  0.00    -0.136 OA 
HETATM   24  C   UNL     1     -12.042  13.270  70.239  1.00  0.00    -0.335 A  
ENDBRANCH  10  11
BRANCH  10  25
HETATM   25  C   UNL     1     -10.565  10.498  70.481  1.00  0.00     0.156 A  
HETATM   26  C   UNL     1     -11.845  10.041  71.029  1.00  0.00    -0.476 A  
HETATM   27  C   UNL     1      -9.384  10.062  71.241  1.00  0.00     1.620 A  
HETATM   28  C   UNL     1      -9.414   8.941  71.981  1.00  0.00    -0.249 A  
HETATM   29  C   UNL     1     -11.921   8.941  71.796  1.00  0.00    -0.429 A  
HETATM   30  C   UNL     1     -10.682   8.138  72.084  1.00  0.00    -0.293 A  
BRANCH  30  31
HETATM   31  N   UNL     1     -10.704   6.869  72.400  1.00  0.00    -0.218 NA 
BRANCH  31  32
HETATM   32  C   UNL     1     -10.578   5.762  71.367  1.00  0.00    -0.253 C  
HETATM   33  C   UNL     1     -11.437   6.033  70.148  1.00  0.00    -0.245 C  
ENDBRANCH  31  32
BRANCH  31  34
HETATM   34  C   UNL     1     -10.633   6.386  73.836  1.00  0.00    -0.221 C  
HETATM   35  C   UNL     1      -9.930   5.045  73.924  1.00  0.00    -0.195 C  
ENDBRANCH  31  34
ENDBRANCH  30  31
ENDBRANCH  10  25
ENDBRANCH   9  10
ENDBRANCH   3   4
BRANCH   3  36
HETATM   36  C   UNL     1      -7.627   9.599  63.504  1.00  0.00    -0.123 C  
HETATM   37  C   UNL     1      -8.559  10.784  63.300  1.00  0.00    -0.107 C  
ENDBRANCH   3  36
ENDBRANCH   2   3
TORSDOF 9
ENDMDL
MODEL      136
REMARK 921   NORMALIZED FREE ENERGY PREDICTED BY IDOCK:    7.08 KCAL/MOL
REMARK 922        TOTAL FREE ENERGY PREDICTED BY IDOCK:    8.48 KCAL/MOL
REMARK 923 INTER-LIGAND FREE ENERGY PREDICTED BY IDOCK:    8.92 KCAL/MOL
REMARK 924 INTRA-LIGAND FREE ENERGY PREDICTED BY IDOCK:   -0.45 KCAL/MOL
REMARK 927      BINDING AFFINITY PREDICTED BY RF-SCORE:    0.00 PKD
ROOT
HETATM    1  C   UNL     1      -5.990   9.545  63.242  1.00  0.00    -0.093 C  
HETATM    2  C   UNL     1      -7.133   8.543  63.308  1.00  0.00    -0.090 C  
ENDROOT
BRANCH   2   3
HETATM    3  N   UNL     1      -8.413   9.214  63.593  1.00  0.00    -0.192 NA 
BRANCH   3   4
HETATM    4  C   UNL     1      -8.774   9.435  64.918  1.00  0.00    -0.190 A  
HETATM    5  C   UNL     1      -8.082   8.899  66.012  1.00  0.00    -0.111 A  
HETATM    6  C   UNL     1      -9.864  10.261  65.239  1.00  0.00    -0.372 A  
HETATM    7  C   UNL     1      -8.382   9.281  67.340  1.00  0.00    -0.122 A  
HETATM    8  C   UNL     1     -10.185  10.636  66.557  1.00  0.00    -0.288 A  
HETATM    9  C   UNL     1      -9.406  10.195  67.626  1.00  0.00    -0.162 A  
BRANCH   9  10
HETATM   10  C   UNL     1      -9.592  10.743  69.017  1.00  0.00    -0.193 C  
BRANCH  10  11
HETATM   11  C   UNL     1      -9.337   9.836  70.195  1.00  0.00    -0.261 A  
HETATM   12  O   UNL     1     -12.064   9.094  68.924  1.00  0.00     1.387 OA 
HETATM   13  O   UNL     1     -12.836   9.749  71.246  1.00  0.00    -0.337 OA 
HETATM   14  C   UNL     1      -7.998   9.644  70.589  1.00  0.00    -0.077 A  
HETATM   15  C   UNL     1      -7.672   8.736  71.613  1.00  0.00    -0.074 A  
HETATM   16  O   UNL     1     -12.368   7.417  70.679  1.00  0.00    -0.182 OA 
HETATM   17  C   UNL     1      -8.658   8.107  72.364  1.00  0.00    -0.245 A  
HETATM   18  S   UNL     1     -12.007   8.960  70.362  1.00  0.00     0.235 S  
HETATM   19  S   UNL     1      -5.984   8.223  71.798  1.00  0.00    -0.046 S  
HETATM   20  C   UNL     1      -9.986   8.312  72.018  1.00  0.00    -0.327 A  
HETATM   21  O   UNL     1      -5.203   9.559  72.242  1.00  0.00    -0.074 OA 
HETATM   22  O   UNL     1      -5.899   7.328  72.932  1.00  0.00    -0.044 OA 
HETATM   23  O   UNL     1      -5.526   7.839  70.480  1.00  0.00    -0.023 OA 
HETATM   24  C   UNL     1     -10.322   9.117  70.908  1.00  0.00    -0.280 A  
ENDBRANCH  10  11
BRANCH  10  25
HETATM   25  C   UNL     1     -10.140  11.983  69.208  1.00  0.00     0.320 A  
HETATM   26  C   UNL     1     -11.484  12.340  68.745  1.00  0.00    -0.360 A  
HETATM   27  C   UNL     1      -9.373  13.101  69.776  1.00  0.00     2.212 A  
HETATM   28  C   UNL     1      -9.994  14.157  70.328  1.00  0.00     1.556 A  
HETATM   29  C   UNL     1     -12.135  13.402  69.247  1.00  0.00    -0.312 A  
HETATM   30  C   UNL     1     -11.497  14.233  70.326  1.00  0.00    -0.164 A  
BRANCH  30  31
HETATM   31  N   UNL     1     -12.179  14.957  71.175  1.00  0.00    -0.298 NA 
BRANCH  31  32
HETATM   32  C   UNL     1     -12.332  14.583  72.639  1.00  0.00    -0.180 C  
HETATM   33  C   UNL     1     -13.494  13.633  72.856  1.00  0.00    -0.246 C  
ENDBRANCH  31  32
BRANCH  31  34
HETATM   34  C   UNL     1     -12.692  16.343  70.834  1.00  0.00     1.401 C  
HETATM   35  C   UNL     1     -11.820  17.002  69.783  1.00  0.00     1.732 C  
ENDBRANCH  31  34
ENDBRANCH  30  31
ENDBRANCH  10  25
ENDBRANCH   9  10
ENDBRANCH   3   4
BRANCH   3  36
HETATM   36  C   UNL     1      -9.343   9.349  62.464  1.00  0.00     0.151 C  
HETATM   37  C   UNL     1     -10.777   9.389  62.969  1.00  0.00     5.272 C  
ENDBRANCH   3  36
ENDBRANCH   2   3
TORSDOF 9
ENDMDL
MODEL      137
REMARK 921   NORMALIZED FREE ENERGY PREDICTED BY IDOCK:    7.32 KCAL/MOL
REMARK 922        TOTAL FREE ENERGY PREDICTED BY IDOCK:    8.84 KCAL/MOL
REMARK 923 INTER-LIGAND FREE ENERGY PREDICTED BY IDOCK:    5.22 KCAL/MOL
REMARK 924 INTRA-LIGAND FREE ENERGY PREDICTED BY IDOCK:    3.62 KCAL/MOL
REMARK 927      BINDING AFFINITY PREDICTED BY RF-SCORE:    0.00 PKD
ROOT
HETATM    1  C   UNL     1      -5.354  18.185  66.576  1.00  0.00    -0.182 C  
HETATM    2  C   UNL     1      -5.939  18.923  65.382  1.00  0.00    -0.234 C  
ENDROOT
BRANCH   2   3
HETATM    3  N   UNL     1      -7.410  18.969  65.453  1.00  0.00    -0.435 NA 
BRANCH   3   4
HETATM    4  C   UNL     1      -8.082  17.944  66.111  1.00  0.00    -0.173 A  
HETATM    5  C   UNL     1      -9.036  17.121  65.498  1.00  0.00     0.749 A  
HETATM    6  C   UNL     1      -7.807  17.652  67.457  1.00  0.00    -0.211 A  
HETATM    7  C   UNL     1      -9.573  15.990  66.155  1.00  0.00    -0.366 A  
HETATM    8  C   UNL     1      -8.348  16.539  68.129  1.00  0.00    -0.186 A  
HETATM    9  C   UNL     1      -9.197  15.655  67.463  1.00  0.00    -0.203 A  
BRANCH   9  10
HETATM   10  C   UNL     1      -9.621  14.350  68.084  1.00  0.00    -0.218 C  
BRANCH  10  11
HETATM   11  C   UNL     1      -9.611  13.104  67.234  1.00  0.00    -0.233 A  
HETATM   12  O   UNL     1      -9.059  12.319  70.180  1.00  0.00     3.041 OA 
HETATM   13  O   UNL     1      -6.913  11.505  69.109  1.00  0.00    -0.104 OA 
HETATM   14  C   UNL     1     -10.318  13.143  66.016  1.00  0.00    -0.292 A  
HETATM   15  C   UNL     1     -10.440  11.992  65.217  1.00  0.00    -0.284 A  
HETATM   16  O   UNL     1      -8.803   9.995  69.459  1.00  0.00    -0.175 OA 
HETATM   17  C   UNL     1      -9.755  10.821  65.524  1.00  0.00    -0.290 A  
HETATM   18  S   UNL     1      -8.356  11.525  69.198  1.00  0.00     0.322 S  
HETATM   19  S   UNL     1     -11.656  11.969  63.926  1.00  0.00    -0.466 S  
HETATM   20  C   UNL     1      -9.021  10.774  66.700  1.00  0.00    -0.164 A  
HETATM   21  O   UNL     1     -11.151  13.081  62.878  1.00  0.00     0.438 OA 
HETATM   22  O   UNL     1     -11.561  10.705  63.229  1.00  0.00     1.152 OA 
HETATM   23  O   UNL     1     -12.893  12.426  64.522  1.00  0.00    -0.680 OA 
HETATM   24  C   UNL     1      -8.998  11.879  67.578  1.00  0.00    -0.171 A  
ENDBRANCH  10  11
BRANCH  10  25
HETATM   25  C   UNL     1     -10.163  14.322  69.341  1.00  0.00     0.061 A  
HETATM   26  C   UNL     1      -9.492  14.895  70.511  1.00  0.00     1.144 A  
HETATM   27  C   UNL     1     -11.403  13.593  69.644  1.00  0.00    -0.226 A  
HETATM   28  C   UNL     1     -12.131  13.890  70.734  1.00  0.00    -0.404 A  
HETATM   29  C   UNL     1     -10.173  15.185  71.632  1.00  0.00     1.580 A  
HETATM   30  C   UNL     1     -11.657  14.948  71.693  1.00  0.00    -0.284 A  
BRANCH  30  31
HETATM   31  N   UNL     1     -12.455  15.591  72.504  1.00  0.00    -0.371 NA 
BRANCH  31  32
HETATM   32  C   UNL     1     -13.968  15.466  72.441  1.00  0.00    -0.560 C  
HETATM   33  C   UNL     1     -14.396  14.087  71.978  1.00  0.00    -0.548 C  
ENDBRANCH  31  32
BRANCH  31  34
HETATM   34  C   UNL     1     -11.948  16.342  73.720  1.00  0.00    -0.273 C  
HETATM   35  C   UNL     1     -12.138  17.838  73.554  1.00  0.00     1.520 C  
ENDBRANCH  31  34
ENDBRANCH  30  31
ENDBRANCH  10  25
ENDBRANCH   9  10
ENDBRANCH   3   4
BRANCH   3  36
HETATM   36  C   UNL     1      -8.073  19.950  64.583  1.00  0.00     2.165 C  
HETATM   37  C   UNL     1      -7.058  20.592  63.650  1.00  0.00     0.783 C  
ENDBRANCH   3  36
ENDBRANCH   2   3
TORSDOF 9
ENDMDL
MODEL      138
REMARK 921   NORMALIZED FREE ENERGY PREDICTED BY IDOCK:    7.86 KCAL/MOL
REMARK 922        TOTAL FREE ENERGY PREDICTED BY IDOCK:    9.67 KCAL/MOL
REMARK 923 INTER-LIGAND FREE ENERGY PREDICTED BY IDOCK:    8.76 KCAL/MOL
REMARK 924 INTRA-LIGAND FREE ENERGY PREDICTED BY IDOCK:    0.91 KCAL/MOL
REMARK 927      BINDING AFFINITY PREDICTED BY RF-SCORE:    0.00 PKD
ROOT
HETATM    1  C   UNL     1     -12.099  11.487  62.414  1.00  0.00     1.933 C  
HETATM    2  C   UNL     1     -12.186  11.544  63.931  1.00  0.00     0.024 C  
ENDROOT
BRANCH   2   3
HETATM    3  N   UNL     1     -12.555  12.893  64.394  1.00  0.00    -0.659 NA 
BRANCH   3   4
HETATM    4  C   UNL     1     -12.068  13.338  65.619  1.00  0.00    -0.441 A  
HETATM    5  C   UNL     1     -11.866  12.502  66.725  1.00  0.00    -0.416 A  
HETATM    6  C   UNL     1     -11.712  14.683  65.806  1.00  0.00    -0.302 A  
HETATM    7  C   UNL     1     -11.218  12.962  67.895  1.00  0.00    -0.306 A  
HETATM    8  C   UNL     1     -11.081  15.159  66.971  1.00  0.00    -0.328 A  
HETATM    9  C   UNL     1     -10.771  14.285  68.012  1.00  0.00    -0.242 A  
BRANCH   9  10
HETATM   10  C   UNL     1      -9.914  14.715  69.174  1.00  0.00    -0.149 C  
BRANCH  10  11
HETATM   11  C   UNL     1     -10.447  15.759  70.124  1.00  0.00    -0.288 A  
HETATM   12  O   UNL     1      -9.909  17.080  67.374  1.00  0.00    -0.251 OA 
HETATM   13  O   UNL     1      -8.332  18.437  68.819  1.00  0.00    -0.304 OA 
HETATM   14  C   UNL     1     -11.217  15.310  71.215  1.00  0.00    -0.375 A  
HETATM   15  C   UNL     1     -11.834  16.227  72.087  1.00  0.00    -0.499 A  
HETATM   16  O   UNL     1     -10.593  19.227  68.328  1.00  0.00    -0.347 OA 
HETATM   17  C   UNL     1     -11.592  17.593  71.990  1.00  0.00     2.442 A  
HETATM   18  S   UNL     1      -9.651  17.928  68.515  1.00  0.00    -0.330 S  
HETATM   19  S   UNL     1     -13.104  15.649  73.180  1.00  0.00    -0.595 S  
HETATM   20  C   UNL     1     -10.805  18.053  70.944  1.00  0.00     2.403 A  
HETATM   21  O   UNL     1     -12.345  14.651  74.189  1.00  0.00    -0.482 OA 
HETATM   22  O   UNL     1     -13.549  16.759  73.994  1.00  0.00    -0.013 OA 
HETATM   23  O   UNL     1     -14.020  14.875  72.370  1.00  0.00    -0.449 OA 
HETATM   24  C   UNL     1     -10.289  17.155  69.985  1.00  0.00     0.371 A  
ENDBRANCH  10  11
BRANCH  10  25
HETATM   25  C   UNL     1      -8.615  14.294  69.274  1.00  0.00     0.264 A  
HETATM   26  C   UNL     1      -7.852  14.355  70.524  1.00  0.00     1.610 A  
HETATM   27  C   UNL     1      -7.835  13.870  68.103  1.00  0.00    -0.147 A  
HETATM   28  C   UNL     1      -6.744  13.097  68.240  1.00  0.00    -0.101 A  
HETATM   29  C   UNL     1      -6.741  13.620  70.699  1.00  0.00     0.682 A  
HETATM   30  C   UNL     1      -6.275  12.692  69.611  1.00  0.00    -0.122 A  
BRANCH  30  31
HETATM   31  N   UNL     1      -5.528  11.642  69.832  1.00  0.00    -0.081 NA 
BRANCH  31  32
HETATM   32  C   UNL     1      -5.127  11.198  71.229  1.00  0.00    -0.095 C  
HETATM   33  C   UNL     1      -5.271   9.698  71.402  1.00  0.00    -0.065 C  
ENDBRANCH  31  32
BRANCH  31  34
HETATM   34  C   UNL     1      -5.181  10.645  68.743  1.00  0.00    -0.041 C  
HETATM   35  C   UNL     1      -6.355  10.430  67.808  1.00  0.00    -0.060 C  
ENDBRANCH  31  34
ENDBRANCH  30  31
ENDBRANCH  10  25
ENDBRANCH   9  10
ENDBRANCH   3   4
BRANCH   3  36
HETATM   36  C   UNL     1     -13.634  13.562  63.657  1.00  0.00     3.413 C  
HETATM   37  C   UNL     1     -13.212  14.972  63.276  1.00  0.00     3.106 C  
ENDBRANCH   3  36
ENDBRANCH   2   3
TORSDOF 9
ENDMDL
MODEL      139
REMARK 921   NORMALIZED FREE ENERGY PREDICTED BY IDOCK:    8.61 KCAL/MOL
REMARK 922        TOTAL FREE ENERGY PREDICTED BY IDOCK:   10.81 KCAL/MOL
REMARK 923 INTER-LIGAND FREE ENERGY PREDICTED BY IDOCK:    5.04 KCAL/MOL
REMARK 924 INTRA-LIGAND FREE ENERGY PREDICTED BY IDOCK:    5.77 KCAL/MOL
REMARK 927      BINDING AFFINITY PREDICTED BY RF-SCORE:    0.00 PKD
ROOT
HETATM    1  C   UNL     1     -10.007   2.085  65.880  1.00  0.00     0.991 C  
HETATM    2  C   UNL     1      -9.184   2.348  67.132  1.00  0.00    -0.096 C  
ENDROOT
BRANCH   2   3
HETATM    3  N   UNL     1      -8.582   3.691  67.102  1.00  0.00    -0.104 NA 
BRANCH   3   4
HETATM    4  C   UNL     1      -8.976   4.624  68.057  1.00  0.00    -0.114 A  
HETATM    5  C   UNL     1      -8.433   4.693  69.347  1.00  0.00    -0.094 A  
HETATM    6  C   UNL     1      -9.945   5.595  67.756  1.00  0.00    -0.175 A  
HETATM    7  C   UNL     1      -8.744   5.756  70.227  1.00  0.00    -0.137 A  
HETATM    8  C   UNL     1     -10.276   6.649  68.629  1.00  0.00    -0.184 A  
HETATM    9  C   UNL     1      -9.631   6.776  69.859  1.00  0.00    -0.159 A  
BRANCH   9  10
HETATM   10  C   UNL     1      -9.807   8.000  70.719  1.00  0.00    -0.197 C  
BRANCH  10  11
HETATM   11  C   UNL     1      -8.955   8.149  71.954  1.00  0.00    -0.225 A  
HETATM   12  O   UNL     1      -9.614   5.150  71.542  1.00  0.00    -0.147 OA 
HETATM   13  O   UNL     1     -10.681   5.516  73.809  1.00  0.00    -0.270 OA 
HETATM   14  C   UNL     1      -8.138   9.294  72.046  1.00  0.00     0.684 A  
HETATM   15  C   UNL     1      -7.240   9.454  73.117  1.00  0.00     1.287 A  
HETATM   16  O   UNL     1      -8.403   4.651  73.608  1.00  0.00    -0.104 OA 
HETATM   17  C   UNL     1      -7.227   8.569  74.189  1.00  0.00    -0.151 A  
HETATM   18  S   UNL     1      -9.541   5.570  72.922  1.00  0.00    -0.147 S  
HETATM   19  S   UNL     1      -5.962  10.677  72.988  1.00  0.00     2.077 S  
HETATM   20  C   UNL     1      -8.052   7.455  74.138  1.00  0.00    -0.190 A  
HETATM   21  O   UNL     1      -6.748  12.081  72.965  1.00  0.00     5.253 OA 
HETATM   22  O   UNL     1      -5.202  10.677  74.219  1.00  0.00    -0.351 OA 
HETATM   23  O   UNL     1      -5.336  10.479  71.699  1.00  0.00    -0.228 OA 
HETATM   24  C   UNL     1      -8.861   7.212  73.007  1.00  0.00    -0.127 A  
ENDBRANCH  10  11
BRANCH  10  25
HETATM   25  C   UNL     1     -10.832   8.877  70.480  1.00  0.00    -0.276 A  
HETATM   26  C   UNL     1     -11.723   9.366  71.536  1.00  0.00    -0.465 A  
HETATM   27  C   UNL     1     -11.207   9.294  69.122  1.00  0.00     0.101 A  
HETATM   28  C   UNL     1     -11.907  10.422  68.913  1.00  0.00    -0.046 A  
HETATM   29  C   UNL     1     -12.463  10.474  71.364  1.00  0.00    -0.516 A  
HETATM   30  C   UNL     1     -12.364  11.253  70.081  1.00  0.00    -0.276 A  
BRANCH  30  31
HETATM   31  N   UNL     1     -12.654  12.524  69.988  1.00  0.00     0.076 NA 
BRANCH  31  32
HETATM   32  C   UNL     1     -13.561  13.236  70.977  1.00  0.00     0.392 C  
HETATM   33  C   UNL     1     -12.910  13.362  72.341  1.00  0.00    -0.250 C  
ENDBRANCH  31  32
BRANCH  31  34
HETATM   34  C   UNL     1     -11.942  13.453  69.023  1.00  0.00    -0.315 C  
HETATM   35  C   UNL     1     -11.771  14.835  69.625  1.00  0.00    -0.354 C  
ENDBRANCH  31  34
ENDBRANCH  30  31
ENDBRANCH  10  25
ENDBRANCH   9  10
ENDBRANCH   3   4
BRANCH   3  36
HETATM   36  C   UNL     1      -7.816   4.035  65.897  1.00  0.00    -0.090 C  
HETATM   37  C   UNL     1      -6.325   3.927  66.176  1.00  0.00    -0.033 C  
ENDBRANCH   3  36
ENDBRANCH   2   3
TORSDOF 9
ENDMDL
MODEL      140
REMARK 921   NORMALIZED FREE ENERGY PREDICTED BY IDOCK:    9.39 KCAL/MOL
REMARK 922        TOTAL FREE ENERGY PREDICTED BY IDOCK:   12.01 KCAL/MOL
REMARK 923 INTER-LIGAND FREE ENERGY PREDICTED BY IDOCK:    8.67 KCAL/MOL
REMARK 924 INTRA-LIGAND FREE ENERGY PREDICTED BY IDOCK:    3.33 KCAL/MOL
REMARK 927      BINDING AFFINITY PREDICTED BY RF-SCORE:    0.00 PKD
ROOT
HETATM    1  C   UNL     1      -8.457  20.255  72.325  1.00  0.00     2.551 C  
HETATM    2  C   UNL     1      -6.948  20.077  72.405  1.00  0.00     1.541 C  
ENDROOT
BRANCH   2   3
HETATM    3  N   UNL     1      -6.381  19.741  71.088  1.00  0.00    -0.016 NA 
BRANCH   3   4
HETATM    4  C   UNL     1      -6.874  18.631  70.409  1.00  0.00     0.935 A  
HETATM    5  C   UNL     1      -8.236  18.313  70.325  1.00  0.00     2.768 A  
HETATM    6  C   UNL     1      -6.008  17.763  69.725  1.00  0.00    -0.234 A  
HETATM    7  C   UNL     1      -8.705  17.272  69.491  1.00  0.00     0.620 A  
HETATM    8  C   UNL     1      -6.460  16.712  68.904  1.00  0.00    -0.174 A  
HETATM    9  C   UNL     1      -7.826  16.490  68.730  1.00  0.00    -0.235 A  
BRANCH   9  10
HETATM   10  C   UNL     1      -8.342  15.517  67.702  1.00  0.00    -0.167 C  
BRANCH  10  11
HETATM   11  C   UNL     1      -9.431  15.966  66.760  1.00  0.00    -0.254 A  
HETATM   12  O   UNL     1     -10.429  13.505  68.355  1.00  0.00    -0.236 OA 
HETATM   13  O   UNL     1     -10.564  12.575  66.002  1.00  0.00    -0.254 OA 
HETATM   14  C   UNL     1      -9.408  17.308  66.332  1.00  0.00    -0.281 A  
HETATM   15  C   UNL     1     -10.444  17.828  65.535  1.00  0.00    -0.017 A  
HETATM   16  O   UNL     1     -12.514  13.585  67.077  1.00  0.00    -0.260 OA 
HETATM   17  C   UNL     1     -11.446  17.010  65.026  1.00  0.00     0.690 A  
HETATM   18  S   UNL     1     -10.901  13.575  66.991  1.00  0.00    -0.284 S  
HETATM   19  S   UNL     1     -10.592  19.587  65.362  1.00  0.00     0.296 S  
HETATM   20  C   UNL     1     -11.466  15.675  65.403  1.00  0.00     0.025 A  
HETATM   21  O   UNL     1      -9.268  20.026  64.560  1.00  0.00     1.959 OA 
HETATM   22  O   UNL     1     -11.698  19.868  64.472  1.00  0.00     1.232 OA 
HETATM   23  O   UNL     1     -10.524  20.136  66.699  1.00  0.00    -0.429 OA 
HETATM   24  C   UNL     1     -10.508  15.170  66.309  1.00  0.00    -0.307 A  
ENDBRANCH  10  11
BRANCH  10  25
HETATM   25  C   UNL     1      -7.952  14.205  67.728  1.00  0.00    -0.175 A  
HETATM   26  C   UNL     1      -7.349  13.577  68.908  1.00  0.00    -0.045 A  
HETATM   27  C   UNL     1      -7.982  13.353  66.531  1.00  0.00     0.796 A  
HETATM   28  C   UNL     1      -7.994  12.013  66.635  1.00  0.00     0.013 A  
HETATM   29  C   UNL     1      -7.314  12.241  69.044  1.00  0.00     0.017 A  
HETATM   30  C   UNL     1      -7.927  11.362  67.989  1.00  0.00    -0.127 A  
BRANCH  30  31
HETATM   31  N   UNL     1      -8.351  10.147  68.223  1.00  0.00    -0.113 NA 
BRANCH  31  32
HETATM   32  C   UNL     1      -9.586   9.854  69.058  1.00  0.00    -0.186 C  
HETATM   33  C   UNL     1      -9.659   8.392  69.454  1.00  0.00    -0.170 C  
ENDBRANCH  31  32
BRANCH  31  34
HETATM   34  C   UNL     1      -7.789   8.936  67.505  1.00  0.00    -0.101 C  
HETATM   35  C   UNL     1      -6.417   8.574  68.041  1.00  0.00    -0.057 C  
ENDBRANCH  31  34
ENDBRANCH  30  31
ENDBRANCH  10  25
ENDBRANCH   9  10
ENDBRANCH   3   4
BRANCH   3  36
HETATM   36  C   UNL     1      -5.144  20.439  70.714  1.00  0.00    -0.252 C  
HETATM   37  C   UNL     1      -5.208  20.872  69.257  1.00  0.00    -0.394 C  
ENDBRANCH   3  36
ENDBRANCH   2   3
TORSDOF 9
ENDMDL
MODEL      141
REMARK 921   NORMALIZED FREE ENERGY PREDICTED BY IDOCK:    9.58 KCAL/MOL
REMARK 922        TOTAL FREE ENERGY PREDICTED BY IDOCK:   12.30 KCAL/MOL
REMARK 923 INTER-LIGAND FREE ENERGY PREDICTED BY IDOCK:    0.42 KCAL/MOL
REMARK 924 INTRA-LIGAND FREE ENERGY PREDICTED BY IDOCK:   11.88 KCAL/MOL
REMARK 927      BINDING AFFINITY PREDICTED BY RF-SCORE:    0.00 PKD
ROOT
HETATM    1  C   UNL     1      -7.524  10.463  62.494  1.00  0.00    -0.155 C  
HETATM    2  C   UNL     1      -8.776   9.629  62.719  1.00  0.00    -0.225 C  
ENDROOT
BRANCH   2   3
HETATM    3  N   UNL     1      -9.058   9.469  64.155  1.00  0.00    -0.208 NA 
BRANCH   3   4
HETATM    4  C   UNL     1      -9.414  10.591  64.898  1.00  0.00    -0.252 A  
HETATM    5  C   UNL     1     -10.732  11.041  65.044  1.00  0.00    -0.264 A  
HETATM    6  C   UNL     1      -8.442  11.334  65.587  1.00  0.00     0.022 A  
HETATM    7  C   UNL     1     -11.066  12.085  65.938  1.00  0.00    -0.369 A  
HETATM    8  C   UNL     1      -8.758  12.387  66.467  1.00  0.00    -0.059 A  
HETATM    9  C   UNL     1     -10.087  12.738  66.700  1.00  0.00    -0.248 A  
BRANCH   9  10
HETATM   10  C   UNL     1     -10.468  13.709  67.786  1.00  0.00    -0.241 C  
BRANCH  10  11
HETATM   11  C   UNL     1     -11.268  13.207  68.962  1.00  0.00    -0.309 A  
HETATM   12  O   UNL     1     -12.335  15.996  68.136  1.00  0.00     0.415 OA 
HETATM   13  O   UNL     1     -11.600  16.502  70.506  1.00  0.00    -0.187 OA 
HETATM   14  C   UNL     1     -11.313  11.814  69.170  1.00  0.00    -0.340 A  
HETATM   15  C   UNL     1     -12.118  11.263  70.183  1.00  0.00    -0.366 A  
HETATM   16  O   UNL     1     -13.913  15.890  70.003  1.00  0.00     0.852 OA 
HETATM   17  C   UNL     1     -12.782  12.070  71.100  1.00  0.00    -0.365 A  
HETATM   18  S   UNL     1     -12.368  15.730  69.555  1.00  0.00     0.105 S  
HETATM   19  S   UNL     1     -12.463   9.524  70.152  1.00  0.00     0.587 S  
HETATM   20  C   UNL     1     -12.720  13.446  70.937  1.00  0.00    -0.349 A  
HETATM   21  O   UNL     1     -11.036   8.825  70.408  1.00  0.00    -0.241 OA 
HETATM   22  O   UNL     1     -13.270   9.196  71.308  1.00  0.00    -0.317 OA 
HETATM   23  O   UNL     1     -12.892   9.216  68.805  1.00  0.00     3.867 OA 
HETATM   24  C   UNL     1     -12.024  14.009  69.845  1.00  0.00    -0.336 A  
ENDBRANCH  10  11
BRANCH  10  25
HETATM   25  C   UNL     1     -10.240  15.051  67.631  1.00  0.00    -0.236 A  
HETATM   26  C   UNL     1     -11.313  16.017  67.377  1.00  0.00     0.003 A  
HETATM   27  C   UNL     1      -8.884  15.614  67.572  1.00  0.00    -0.190 A  
HETATM   28  C   UNL     1      -8.664  16.915  67.826  1.00  0.00    -0.212 A  
HETATM   29  C   UNL     1     -11.132  17.330  67.590  1.00  0.00    -0.002 A  
HETATM   30  C   UNL     1      -9.819  17.831  68.127  1.00  0.00    -0.326 A  
BRANCH  30  31
HETATM   31  N   UNL     1      -9.692  18.954  68.783  1.00  0.00    -0.395 NA 
BRANCH  31  32
HETATM   32  C   UNL     1      -8.765  19.109  69.977  1.00  0.00     1.228 C  
HETATM   33  C   UNL     1      -7.391  18.533  69.698  1.00  0.00     0.290 C  
ENDBRANCH  31  32
BRANCH  31  34
HETATM   34  C   UNL     1     -10.280  20.260  68.284  1.00  0.00    -0.232 C  
HETATM   35  C   UNL     1     -10.151  20.373  66.777  1.00  0.00    -0.478 C  
ENDBRANCH  31  34
ENDBRANCH  30  31
ENDBRANCH  10  25
ENDBRANCH   9  10
ENDBRANCH   3   4
BRANCH   3  36
HETATM   36  C   UNL     1      -8.674   8.185  64.755  1.00  0.00     0.123 C  
HETATM   37  C   UNL     1      -8.748   8.274  66.272  1.00  0.00    -0.173 C  
ENDBRANCH   3  36
ENDBRANCH   2   3
TORSDOF 9
ENDMDL
MODEL      142
REMARK 921   NORMALIZED FREE ENERGY PREDICTED BY IDOCK:    9.71 KCAL/MOL
REMARK 922        TOTAL FREE ENERGY PREDICTED BY IDOCK:   12.50 KCAL/MOL
REMARK 923 INTER-LIGAND FREE ENERGY PREDICTED BY IDOCK:    3.70 KCAL/MOL
REMARK 924 INTRA-LIGAND FREE ENERGY PREDICTED BY IDOCK:    8.80 KCAL/MOL
REMARK 927      BINDING AFFINITY PREDICTED BY RF-SCORE:    0.00 PKD
ROOT
HETATM    1  C   UNL     1      -6.568  16.576  68.439  1.00  0.00    -0.138 C  
HETATM    2  C   UNL     1      -7.977  16.989  68.834  1.00  0.00    -0.217 C  
ENDROOT
BRANCH   2   3
HETATM    3  N   UNL     1      -8.626  15.953  69.655  1.00  0.00    -0.084 NA 
BRANCH   3   4
HETATM    4  C   UNL     1      -8.320  14.617  69.413  1.00  0.00     0.086 A  
HETATM    5  C   UNL     1      -8.501  13.594  70.353  1.00  0.00     3.712 A  
HETATM    6  C   UNL     1      -7.829  14.207  68.162  1.00  0.00    -0.142 A  
HETATM    7  C   UNL     1      -8.333  12.233  70.011  1.00  0.00     3.056 A  
HETATM    8  C   UNL     1      -7.640  12.856  67.814  1.00  0.00    -0.141 A  
HETATM    9  C   UNL     1      -7.949  11.843  68.721  1.00  0.00    -0.040 A  
BRANCH   9  10
HETATM   10  C   UNL     1      -7.960  10.394  68.311  1.00  0.00    -0.111 C  
BRANCH  10  11
HETATM   11  C   UNL     1      -8.044  10.054  66.844  1.00  0.00    -0.117 A  
HETATM   12  O   UNL     1      -7.140   7.538  68.410  1.00  0.00    -0.076 OA 
HETATM   13  O   UNL     1      -5.133   7.847  66.898  1.00  0.00    -0.025 OA 
HETATM   14  C   UNL     1      -8.892  10.844  66.042  1.00  0.00    -0.198 A  
HETATM   15  C   UNL     1      -9.102  10.527  64.688  1.00  0.00    -0.218 A  
HETATM   16  O   UNL     1      -6.959   6.341  66.284  1.00  0.00    -0.063 OA 
HETATM   17  C   UNL     1      -8.378   9.520  64.058  1.00  0.00    -0.171 A  
HETATM   18  S   UNL     1      -6.555   7.678  67.097  1.00  0.00    -0.064 S  
HETATM   19  S   UNL     1     -10.462  11.278  63.833  1.00  0.00    -0.410 S  
HETATM   20  C   UNL     1      -7.508   8.755  64.821  1.00  0.00    -0.100 A  
HETATM   21  O   UNL     1     -10.093  12.843  63.783  1.00  0.00    -0.368 OA 
HETATM   22  O   UNL     1     -10.443  10.829  62.457  1.00  0.00     0.263 OA 
HETATM   23  O   UNL     1     -11.623  11.106  64.680  1.00  0.00     0.062 OA 
HETATM   24  C   UNL     1      -7.388   8.975  66.211  1.00  0.00    -0.091 A  
ENDBRANCH  10  11
BRANCH  10  25
HETATM   25  C   UNL     1      -8.061   9.405  69.254  1.00  0.00    -0.105 A  
HETATM   26  C   UNL     1      -7.656   9.592  70.650  1.00  0.00    -0.104 A  
HETATM   27  C   UNL     1      -8.457   8.032  68.911  1.00  0.00    -0.131 A  
HETATM   28  C   UNL     1      -8.938   7.196  69.847  1.00  0.00    -0.142 A  
HETATM   29  C   UNL     1      -8.091   8.767  71.617  1.00  0.00    -0.153 A  
HETATM   30  C   UNL     1      -9.033   7.644  71.280  1.00  0.00    -0.133 A  
BRANCH  30  31
HETATM   31  N   UNL     1      -9.847   7.104  72.149  1.00  0.00    -0.154 NA 
BRANCH  31  32
HETATM   32  C   UNL     1      -9.771   5.639  72.547  1.00  0.00    -0.151 C  
HETATM   33  C   UNL     1     -11.135   5.089  72.917  1.00  0.00    -0.348 C  
ENDBRANCH  31  32
BRANCH  31  34
HETATM   34  C   UNL     1     -10.792   7.928  73.002  1.00  0.00    -0.342 C  
HETATM   35  C   UNL     1     -11.943   8.466  72.174  1.00  0.00    -0.438 C  
ENDBRANCH  31  34
ENDBRANCH  30  31
ENDBRANCH  10  25
ENDBRANCH   9  10
ENDBRANCH   3   4
BRANCH   3  36
HETATM   36  C   UNL     1      -9.757  16.390  70.482  1.00  0.00     1.619 C  
HETATM   37  C   UNL     1     -10.915  16.826  69.598  1.00  0.00    -0.122 C  
ENDBRANCH   3  36
ENDBRANCH   2   3
TORSDOF 9
ENDMDL
MODEL      143
REMARK 921   NORMALIZED FREE ENERGY PREDICTED BY IDOCK:   10.03 KCAL/MOL
REMARK 922        TOTAL FREE ENERGY PREDICTED BY IDOCK:   12.98 KCAL/MOL
REMARK 923 INTER-LIGAND FREE ENERGY PREDICTED BY IDOCK:    8.50 KCAL/MOL
REMARK 924 INTRA-LIGAND FREE ENERGY PREDICTED BY IDOCK:    4.48 KCAL/MOL
REMARK 927      BINDING AFFINITY PREDICTED BY RF-SCORE:    0.00 PKD
ROOT
HETATM    1  C   UNL     1      -8.095  12.170  62.332  1.00  0.00     2.351 C  
HETATM    2  C   UNL     1      -9.117  11.278  63.022  1.00  0.00    -0.236 C  
ENDROOT
BRANCH   2   3
HETATM    3  N   UNL     1      -8.466  10.353  63.965  1.00  0.00    -0.171 NA 
BRANCH   3   4
HETATM    4  C   UNL     1      -8.597  10.585  65.331  1.00  0.00    -0.180 A  
HETATM    5  C   UNL     1      -8.633  11.863  65.903  1.00  0.00     0.210 A  
HETATM    6  C   UNL     1      -8.739   9.516  66.231  1.00  0.00    -0.158 A  
HETATM    7  C   UNL     1      -8.932  12.057  67.271  1.00  0.00    -0.180 A  
HETATM    8  C   UNL     1      -9.020   9.694  67.599  1.00  0.00    -0.131 A  
HETATM    9  C   UNL     1      -9.180  10.975  68.127  1.00  0.00    -0.165 A  
BRANCH   9  10
HETATM   10  C   UNL     1      -9.686  11.193  69.529  1.00  0.00     0.286 C  
BRANCH  10  11
HETATM   11  C   UNL     1      -9.987  12.600  69.982  1.00  0.00     2.559 A  
HETATM   12  O   UNL     1      -7.523  12.652  68.103  1.00  0.00    -0.102 OA 
HETATM   13  O   UNL     1      -6.474  13.580  70.213  1.00  0.00    -0.037 OA 
HETATM   14  C   UNL     1     -11.304  12.880  70.397  1.00  0.00     0.516 A  
HETATM   15  C   UNL     1     -11.688  14.190  70.737  1.00  0.00    -0.163 A  
HETATM   16  O   UNL     1      -7.352  15.064  68.479  1.00  0.00    -0.108 OA 
HETATM   17  C   UNL     1     -10.757  15.221  70.814  1.00  0.00    -0.174 A  
HETATM   18  S   UNL     1      -7.486  13.614  69.180  1.00  0.00     0.187 S  
HETATM   19  S   UNL     1     -13.415  14.574  70.855  1.00  0.00    -0.104 S  
HETATM   20  C   UNL     1      -9.446  14.957  70.446  1.00  0.00     0.902 A  
HETATM   21  O   UNL     1     -13.935  13.710  72.110  1.00  0.00    -0.492 OA 
HETATM   22  O   UNL     1     -13.551  15.958  71.253  1.00  0.00    -0.484 OA 
HETATM   23  O   UNL     1     -14.032  14.056  69.653  1.00  0.00     2.709 OA 
HETATM   24  C   UNL     1      -9.075  13.679  69.975  1.00  0.00     2.615 A  
ENDBRANCH  10  11
BRANCH  10  25
HETATM   25  C   UNL     1      -9.713  10.160  70.427  1.00  0.00     0.132 A  
HETATM   26  C   UNL     1     -10.930   9.400  70.729  1.00  0.00    -0.371 A  
HETATM   27  C   UNL     1      -8.554   9.815  71.263  1.00  0.00     1.035 A  
HETATM   28  C   UNL     1      -8.442   8.598  71.821  1.00  0.00    -0.221 A  
HETATM   29  C   UNL     1     -10.869   8.191  71.311  1.00  0.00    -0.278 A  
HETATM   30  C   UNL     1      -9.535   7.580  71.638  1.00  0.00    -0.149 A  
BRANCH  30  31
HETATM   31  N   UNL     1      -9.343   6.292  71.760  1.00  0.00    -0.151 NA 
BRANCH  31  32
HETATM   32  C   UNL     1     -10.193   5.262  71.035  1.00  0.00    -0.229 C  
HETATM   33  C   UNL     1      -9.708   5.036  69.616  1.00  0.00    -0.266 C  
ENDBRANCH  31  32
BRANCH  31  34
HETATM   34  C   UNL     1      -8.125   5.712  72.453  1.00  0.00    -0.107 C  
HETATM   35  C   UNL     1      -8.496   5.119  73.798  1.00  0.00    -0.111 C  
ENDBRANCH  31  34
ENDBRANCH  30  31
ENDBRANCH  10  25
ENDBRANCH   9  10
ENDBRANCH   3   4
BRANCH   3  36
HETATM   36  C   UNL     1      -7.494   9.414  63.390  1.00  0.00    -0.106 C  
HETATM   37  C   UNL     1      -7.950   7.981  63.622  1.00  0.00    -0.130 C  
ENDBRANCH   3  36
ENDBRANCH   2   3
TORSDOF 9
ENDMDL
MODEL      144
REMARK 921   NORMALIZED FREE ENERGY PREDICTED BY IDOCK:   10.45 KCAL/MOL
REMARK 922        TOTAL FREE ENERGY PREDICTED BY IDOCK:   13.62 KCAL/MOL
REMARK 923 INTER-LIGAND FREE ENERGY PREDICTED BY IDOCK:    8.85 KCAL/MOL
REMARK 924 INTRA-LIGAND FREE ENERGY PREDICTED BY IDOCK:    4.77 KCAL/MOL
REMARK 927      BINDING AFFINITY PREDICTED BY RF-SCORE:    0.00 PKD
ROOT
HETATM    1  C   UNL     1     -12.230   9.120  72.249  1.00  0.00    -0.348 C  
HETATM    2  C   UNL     1     -11.488   7.868  72.687  1.00  0.00    -0.395 C  
ENDROOT
BRANCH   2   3
HETATM    3  N   UNL     1     -10.390   7.547  71.760  1.00  0.00    -0.192 NA 
BRANCH   3   4
HETATM    4  C   UNL     1      -9.976   8.515  70.850  1.00  0.00    -0.191 A  
HETATM    5  C   UNL     1      -9.074   8.268  69.808  1.00  0.00    -0.147 A  
HETATM    6  C   UNL     1     -10.484   9.823  70.912  1.00  0.00    -0.298 A  
HETATM    7  C   UNL     1      -8.807   9.234  68.810  1.00  0.00    -0.132 A  
HETATM    8  C   UNL     1     -10.214  10.801  69.936  1.00  0.00     0.100 A  
HETATM    9  C   UNL     1      -9.415  10.497  68.834  1.00  0.00    -0.199 A  
BRANCH   9  10
HETATM   10  C   UNL     1      -9.279  11.446  67.672  1.00  0.00    -0.158 C  
BRANCH  10  11
HETATM   11  C   UNL     1      -8.424  11.039  66.497  1.00  0.00    -0.161 A  
HETATM   12  O   UNL     1      -7.176  13.541  67.831  1.00  0.00    -0.105 OA 
HETATM   13  O   UNL     1      -7.634  14.469  65.519  1.00  0.00     4.212 OA 
HETATM   14  C   UNL     1      -8.495   9.695  66.078  1.00  0.00    -0.131 A  
HETATM   15  C   UNL     1      -7.656   9.215  65.056  1.00  0.00    -0.106 A  
HETATM   16  O   UNL     1      -5.448  13.540  66.099  1.00  0.00     2.991 OA 
HETATM   17  C   UNL     1      -6.834  10.071  64.332  1.00  0.00    -0.127 A  
HETATM   18  S   UNL     1      -7.036  13.486  66.394  1.00  0.00     3.353 S  
HETATM   19  S   UNL     1      -7.484   7.463  64.841  1.00  0.00    -0.094 S  
HETATM   20  C   UNL     1      -6.778  11.407  64.703  1.00  0.00     1.754 A  
HETATM   21  O   UNL     1      -8.941   6.970  64.369  1.00  0.00     0.600 OA 
HETATM   22  O   UNL     1      -6.608   7.223  63.715  1.00  0.00    -0.047 OA 
HETATM   23  O   UNL     1      -7.215   6.914  66.153  1.00  0.00    -0.071 OA 
HETATM   24  C   UNL     1      -7.515  11.875  65.812  1.00  0.00     1.183 A  
ENDBRANCH  10  11
BRANCH  10  25
HETATM   25  C   UNL     1      -9.781  12.717  67.750  1.00  0.00    -0.207 A  
HETATM   26  C   UNL     1      -9.941  13.434  69.018  1.00  0.00     0.152 A  
HETATM   27  C   UNL     1     -10.328  13.418  66.579  1.00  0.00    -0.284 A  
HETATM   28  C   UNL     1     -10.436  14.757  66.562  1.00  0.00    -0.291 A  
HETATM   29  C   UNL     1     -10.079  14.770  69.050  1.00  0.00    -0.232 A  
HETATM   30  C   UNL     1     -10.042  15.561  67.772  1.00  0.00    -0.232 A  
BRANCH  30  31
HETATM   31  N   UNL     1      -9.709  16.824  67.717  1.00  0.00    -0.244 NA 
BRANCH  31  32
HETATM   32  C   UNL     1      -9.397  17.647  68.955  1.00  0.00    -0.157 C  
HETATM   33  C   UNL     1      -8.565  18.870  68.618  1.00  0.00    -0.376 C  
ENDBRANCH  31  32
BRANCH  31  34
HETATM   34  C   UNL     1      -9.386  17.525  66.411  1.00  0.00    -0.246 C  
HETATM   35  C   UNL     1     -10.044  16.821  65.239  1.00  0.00     0.163 C  
ENDBRANCH  31  34
ENDBRANCH  30  31
ENDBRANCH  10  25
ENDBRANCH   9  10
ENDBRANCH   3   4
BRANCH   3  36
HETATM   36  C   UNL     1     -10.000   6.133  71.676  1.00  0.00    -0.177 C  
HETATM   37  C   UNL     1     -10.690   5.469  70.494  1.00  0.00    -0.310 C  
ENDBRANCH   3  36
ENDBRANCH   2   3
TORSDOF 9
ENDMDL
MODEL      145
REMARK 921   NORMALIZED FREE ENERGY PREDICTED BY IDOCK:   10.88 KCAL/MOL
REMARK 922        TOTAL FREE ENERGY PREDICTED BY IDOCK:   14.28 KCAL/MOL
REMARK 923 INTER-LIGAND FREE ENERGY PREDICTED BY IDOCK:    4.80 KCAL/MOL
REMARK 924 INTRA-LIGAND FREE ENERGY PREDICTED BY IDOCK:    9.48 KCAL/MOL
REMARK 927      BINDING AFFINITY PREDICTED BY RF-SCORE:    0.00 PKD
ROOT
HETATM    1  C   UNL     1      -7.007   7.527  67.220  1.00  0.00    -0.083 C  
HETATM    2  C   UNL     1      -7.549   8.588  68.165  1.00  0.00    -0.098 C  
ENDROOT
BRANCH   2   3
HETATM    3  N   UNL     1      -6.562   9.659  68.387  1.00  0.00    -0.053 NA 
BRANCH   3   4
HETATM    4  C   UNL     1      -6.929  10.975  68.121  1.00  0.00    -0.069 A  
HETATM    5  C   UNL     1      -7.804  11.345  67.091  1.00  0.00    -0.156 A  
HETATM    6  C   UNL     1      -6.453  12.029  68.917  1.00  0.00    -0.083 A  
HETATM    7  C   UNL     1      -8.277  12.671  66.959  1.00  0.00    -0.110 A  
HETATM    8  C   UNL     1      -6.902  13.357  68.786  1.00  0.00    -0.101 A  
HETATM    9  C   UNL     1      -7.871  13.684  67.838  1.00  0.00    -0.159 A  
BRANCH   9  10
HETATM   10  C   UNL     1      -8.523  15.042  67.814  1.00  0.00    -0.161 C  
BRANCH  10  11
HETATM   11  C   UNL     1      -9.470  15.372  66.687  1.00  0.00    -0.281 A  
HETATM   12  O   UNL     1     -10.327  12.684  67.965  1.00  0.00    -0.215 OA 
HETATM   13  O   UNL     1      -9.846  11.903  65.604  1.00  0.00    -0.235 OA 
HETATM   14  C   UNL     1      -9.592  16.727  66.318  1.00  0.00    -0.313 A  
HETATM   15  C   UNL     1     -10.528  17.127  65.346  1.00  0.00    -0.080 A  
HETATM   16  O   UNL     1     -12.109  12.516  66.297  1.00  0.00    -0.574 OA 
HETATM   17  C   UNL     1     -11.259  16.195  64.619  1.00  0.00    -0.307 A  
HETATM   18  S   UNL     1     -10.531  12.769  66.538  1.00  0.00    -0.266 S  
HETATM   19  S   UNL     1     -10.935  18.847  65.206  1.00  0.00     1.238 S  
HETATM   20  C   UNL     1     -11.126  14.852  64.939  1.00  0.00    -0.424 A  
HETATM   21  O   UNL     1      -9.575  19.544  64.702  1.00  0.00     2.208 OA 
HETATM   22  O   UNL     1     -11.879  19.008  64.122  1.00  0.00     3.955 OA 
HETATM   23  O   UNL     1     -11.220  19.311  66.547  1.00  0.00    -0.081 OA 
HETATM   24  C   UNL     1     -10.289  14.448  66.002  1.00  0.00    -0.309 A  
ENDBRANCH  10  11
BRANCH  10  25
HETATM   25  C   UNL     1      -8.140  16.014  68.698  1.00  0.00    -0.187 A  
HETATM   26  C   UNL     1      -7.042  15.834  69.653  1.00  0.00    -0.150 A  
HETATM   27  C   UNL     1      -8.887  17.270  68.855  1.00  0.00    -0.173 A  
HETATM   28  C   UNL     1      -8.308  18.356  69.397  1.00  0.00     0.388 A  
HETATM   29  C   UNL     1      -6.450  16.888  70.240  1.00  0.00     0.515 A  
HETATM   30  C   UNL     1      -6.892  18.284  69.899  1.00  0.00     0.316 A  
BRANCH  30  31
HETATM   31  N   UNL     1      -6.125  19.334  70.034  1.00  0.00    -0.252 NA 
BRANCH  31  32
HETATM   32  C   UNL     1      -5.744  19.907  71.389  1.00  0.00    -0.322 C  
HETATM   33  C   UNL     1      -6.234  19.029  72.524  1.00  0.00     1.936 C  
ENDBRANCH  31  32
BRANCH  31  34
HETATM   34  C   UNL     1      -5.364  19.942  68.871  1.00  0.00    -0.203 C  
HETATM   35  C   UNL     1      -6.264  20.112  67.662  1.00  0.00    -0.250 C  
ENDBRANCH  31  34
ENDBRANCH  30  31
ENDBRANCH  10  25
ENDBRANCH   9  10
ENDBRANCH   3   4
BRANCH   3  36
HETATM   36  C   UNL     1      -5.175   9.231  68.607  1.00  0.00    -0.034 C  
HETATM   37  C   UNL     1      -5.140   8.021  69.528  1.00  0.00    -0.026 C  
ENDBRANCH   3  36
ENDBRANCH   2   3
TORSDOF 9
ENDMDL
MODEL      146
REMARK 921   NORMALIZED FREE ENERGY PREDICTED BY IDOCK:   13.19 KCAL/MOL
REMARK 922        TOTAL FREE ENERGY PREDICTED BY IDOCK:   17.81 KCAL/MOL
REMARK 923 INTER-LIGAND FREE ENERGY PREDICTED BY IDOCK:   17.64 KCAL/MOL
REMARK 924 INTRA-LIGAND FREE ENERGY PREDICTED BY IDOCK:    0.16 KCAL/MOL
REMARK 927      BINDING AFFINITY PREDICTED BY RF-SCORE:    0.00 PKD
ROOT
HETATM    1  C   UNL     1      -7.242   9.493  63.581  1.00  0.00    -0.106 C  
HETATM    2  C   UNL     1      -8.100   8.444  64.271  1.00  0.00    -0.151 C  
ENDROOT
BRANCH   2   3
HETATM    3  N   UNL     1      -8.210   8.712  65.715  1.00  0.00    -0.119 NA 
BRANCH   3   4
HETATM    4  C   UNL     1      -8.027  10.013  66.172  1.00  0.00    -0.113 A  
HETATM    5  C   UNL     1      -8.314  11.153  65.409  1.00  0.00     0.096 A  
HETATM    6  C   UNL     1      -7.561  10.259  67.474  1.00  0.00    -0.094 A  
HETATM    7  C   UNL     1      -8.269  12.451  65.968  1.00  0.00     0.764 A  
HETATM    8  C   UNL     1      -7.495  11.548  68.038  1.00  0.00    -0.098 A  
HETATM    9  C   UNL     1      -7.907  12.661  67.306  1.00  0.00    -0.155 A  
BRANCH   9  10
HETATM   10  C   UNL     1      -8.048  14.017  67.945  1.00  0.00    -0.156 C  
BRANCH  10  11
HETATM   11  C   UNL     1      -8.650  14.112  69.325  1.00  0.00     0.339 A  
HETATM   12  O   UNL     1      -5.596  13.668  69.588  1.00  0.00    -0.087 OA 
HETATM   13  O   UNL     1      -6.435  11.593  70.774  1.00  0.00    -0.091 OA 
HETATM   14  C   UNL     1      -9.874  14.799  69.453  1.00  0.00    -0.072 A  
HETATM   15  C   UNL     1     -10.448  15.016  70.718  1.00  0.00     0.245 A  
HETATM   16  O   UNL     1      -5.864  13.618  72.020  1.00  0.00    -0.406 OA 
HETATM   17  C   UNL     1      -9.910  14.445  71.866  1.00  0.00     5.158 A  
HETATM   18  S   UNL     1      -6.392  13.029  70.611  1.00  0.00     0.720 S  
HETATM   19  S   UNL     1     -11.747  16.214  70.876  1.00  0.00    -0.243 S  
HETATM   20  C   UNL     1      -8.725  13.732  71.757  1.00  0.00    10.479 A  
HETATM   21  O   UNL     1     -12.969  15.598  70.030  1.00  0.00    -0.167 OA 
HETATM   22  O   UNL     1     -12.194  16.227  72.252  1.00  0.00    -0.482 OA 
HETATM   23  O   UNL     1     -11.282  17.411  70.209  1.00  0.00     0.700 OA 
HETATM   24  C   UNL     1      -8.068  13.618  70.512  1.00  0.00     3.616 A  
ENDBRANCH  10  11
BRANCH  10  25
HETATM   25  C   UNL     1      -7.791  15.155  67.227  1.00  0.00    -0.241 A  
HETATM   26  C   UNL     1      -8.849  16.012  66.687  1.00  0.00    -0.307 A  
HETATM   27  C   UNL     1      -6.430  15.537  66.824  1.00  0.00     0.802 A  
HETATM   28  C   UNL     1      -6.137  16.806  66.493  1.00  0.00     0.006 A  
HETATM   29  C   UNL     1      -8.599  17.279  66.318  1.00  0.00    -0.264 A  
HETATM   30  C   UNL     1      -7.219  17.852  66.484  1.00  0.00    -0.238 A  
BRANCH  30  31
HETATM   31  N   UNL     1      -6.980  19.132  66.600  1.00  0.00    -0.202 NA 
BRANCH  31  32
HETATM   32  C   UNL     1      -6.742  20.036  65.403  1.00  0.00    -0.296 C  
HETATM   33  C   UNL     1      -5.921  19.342  64.332  1.00  0.00    -0.295 C  
ENDBRANCH  31  32
BRANCH  31  34
HETATM   34  C   UNL     1      -7.139  19.875  67.913  1.00  0.00    -0.279 C  
HETATM   35  C   UNL     1      -8.167  19.198  68.799  1.00  0.00    -0.382 C  
ENDBRANCH  31  34
ENDBRANCH  30  31
ENDBRANCH  10  25
ENDBRANCH   9  10
ENDBRANCH   3   4
BRANCH   3  36
HETATM   36  C   UNL     1      -8.230   7.536  66.595  1.00  0.00    -0.125 C  
HETATM   37  C   UNL     1      -8.939   6.379  65.908  1.00  0.00    -0.111 C  
ENDBRANCH   3  36
ENDBRANCH   2   3
TORSDOF 9
ENDMDL
MODEL      147
REMARK 921   NORMALIZED FREE ENERGY PREDICTED BY IDOCK:   13.62 KCAL/MOL
REMARK 922        TOTAL FREE ENERGY PREDICTED BY IDOCK:   18.46 KCAL/MOL
REMARK 923 INTER-LIGAND FREE ENERGY PREDICTED BY IDOCK:   17.70 KCAL/MOL
REMARK 924 INTRA-LIGAND FREE ENERGY PREDICTED BY IDOCK:    0.76 KCAL/MOL
REMARK 927      BINDING AFFINITY PREDICTED BY RF-SCORE:    0.00 PKD
ROOT
HETATM    1  C   UNL     1      -7.154  10.113  62.701  1.00  0.00    -0.133 C  
HETATM    2  C   UNL     1      -8.193   9.029  62.943  1.00  0.00    -0.186 C  
ENDROOT
BRANCH   2   3
HETATM    3  N   UNL     1      -9.482   9.610  63.355  1.00  0.00     0.029 NA 
BRANCH   3   4
HETATM    4  C   UNL     1      -9.672   9.940  64.694  1.00  0.00    -0.195 A  
HETATM    5  C   UNL     1      -8.980   9.332  65.750  1.00  0.00    -0.234 A  
HETATM    6  C   UNL     1     -10.569  10.955  65.064  1.00  0.00    -0.287 A  
HETATM    7  C   UNL     1      -9.082   9.810  67.077  1.00  0.00    -0.157 A  
HETATM    8  C   UNL     1     -10.694  11.429  66.384  1.00  0.00    -0.325 A  
HETATM    9  C   UNL     1      -9.903  10.899  67.402  1.00  0.00    -0.199 A  
BRANCH   9  10
HETATM   10  C   UNL     1      -9.859  11.523  68.773  1.00  0.00    -0.153 C  
BRANCH  10  11
HETATM   11  C   UNL     1     -10.101  10.648  69.977  1.00  0.00     0.178 A  
HETATM   12  O   UNL     1     -12.767  12.002  69.164  1.00  0.00     0.294 OA 
HETATM   13  O   UNL     1     -12.510  12.931  71.506  1.00  0.00    -0.223 OA 
HETATM   14  C   UNL     1      -9.205   9.583  70.197  1.00  0.00    -0.281 A  
HETATM   15  C   UNL     1      -9.422   8.663  71.239  1.00  0.00    -0.224 A  
HETATM   16  O   UNL     1     -13.840  10.924  71.080  1.00  0.00     0.478 OA 
HETATM   17  C   UNL     1     -10.437   8.849  72.170  1.00  0.00    -0.320 A  
HETATM   18  S   UNL     1     -12.589  11.818  70.586  1.00  0.00    -0.139 S  
HETATM   19  S   UNL     1      -8.525   7.133  71.232  1.00  0.00    -0.113 S  
HETATM   20  C   UNL     1     -11.308   9.915  71.995  1.00  0.00     0.656 A  
HETATM   21  O   UNL     1      -6.990   7.564  71.448  1.00  0.00    -0.053 OA 
HETATM   22  O   UNL     1      -8.889   6.383  72.415  1.00  0.00    -0.134 OA 
HETATM   23  O   UNL     1      -8.666   6.583  69.901  1.00  0.00    -0.137 OA 
HETATM   24  C   UNL     1     -11.183  10.769  70.878  1.00  0.00     0.320 A  
ENDBRANCH  10  11
BRANCH  10  25
HETATM   25  C   UNL     1      -9.768  12.881  68.916  1.00  0.00     0.181 A  
HETATM   26  C   UNL     1     -10.561  13.821  68.119  1.00  0.00    -0.260 A  
HETATM   27  C   UNL     1      -8.767  13.513  69.789  1.00  0.00     1.912 A  
HETATM   28  C   UNL     1      -8.933  14.769  70.235  1.00  0.00     1.087 A  
HETATM   29  C   UNL     1     -10.733  15.095  68.511  1.00  0.00    -0.240 A  
HETATM   30  C   UNL     1     -10.131  15.571  69.805  1.00  0.00    -0.285 A  
BRANCH  30  31
HETATM   31  N   UNL     1     -10.597  16.586  70.484  1.00  0.00     0.148 NA 
BRANCH  31  32
HETATM   32  C   UNL     1     -11.209  16.439  71.867  1.00  0.00     0.317 C  
HETATM   33  C   UNL     1     -12.101  15.216  71.957  1.00  0.00    -0.453 C  
ENDBRANCH  31  32
BRANCH  31  34
HETATM   34  C   UNL     1     -10.370  18.024  70.058  1.00  0.00     1.032 C  
HETATM   35  C   UNL     1      -9.086  18.159  69.263  1.00  0.00     0.222 C  
ENDBRANCH  31  34
ENDBRANCH  30  31
ENDBRANCH  10  25
ENDBRANCH   9  10
ENDBRANCH   3   4
BRANCH   3  36
HETATM   36  C   UNL     1     -10.572   9.538  62.374  1.00  0.00     3.655 C  
HETATM   37  C   UNL     1     -11.909   9.397  63.086  1.00  0.00    11.920 C  
ENDBRANCH   3  36
ENDBRANCH   2   3
TORSDOF 9
ENDMDL
MODEL      148
REMARK 921   NORMALIZED FREE ENERGY PREDICTED BY IDOCK:   13.70 KCAL/MOL
REMARK 922        TOTAL FREE ENERGY PREDICTED BY IDOCK:   18.58 KCAL/MOL
REMARK 923 INTER-LIGAND FREE ENERGY PREDICTED BY IDOCK:   19.38 KCAL/MOL
REMARK 924 INTRA-LIGAND FREE ENERGY PREDICTED BY IDOCK:   -0.79 KCAL/MOL
REMARK 927      BINDING AFFINITY PREDICTED BY RF-SCORE:    0.00 PKD
ROOT
HETATM    1  C   UNL     1      -7.154  10.113  62.701  1.00  0.00    -0.133 C  
HETATM    2  C   UNL     1      -8.193   9.029  62.943  1.00  0.00    -0.186 C  
ENDROOT
BRANCH   2   3
HETATM    3  N   UNL     1      -9.482   9.610  63.355  1.00  0.00     0.029 NA 
BRANCH   3   4
HETATM    4  C   UNL     1      -9.672   9.940  64.694  1.00  0.00    -0.195 A  
HETATM    5  C   UNL     1      -8.980   9.332  65.750  1.00  0.00    -0.234 A  
HETATM    6  C   UNL     1     -10.569  10.955  65.064  1.00  0.00    -0.287 A  
HETATM    7  C   UNL     1      -9.082   9.810  67.077  1.00  0.00    -0.157 A  
HETATM    8  C   UNL     1     -10.694  11.429  66.384  1.00  0.00    -0.325 A  
HETATM    9  C   UNL     1      -9.903  10.899  67.402  1.00  0.00    -0.199 A  
BRANCH   9  10
HETATM   10  C   UNL     1      -9.859  11.523  68.773  1.00  0.00    -0.153 C  
BRANCH  10  11
HETATM   11  C   UNL     1     -10.101  10.648  69.977  1.00  0.00     0.178 A  
HETATM   12  O   UNL     1      -7.085  11.335  69.823  1.00  0.00    -0.084 OA 
HETATM   13  O   UNL     1      -6.961   8.813  69.632  1.00  0.00    -0.049 OA 
HETATM   14  C   UNL     1     -11.401  10.640  70.523  1.00  0.00    -0.355 A  
HETATM   15  C   UNL     1     -11.681   9.929  71.704  1.00  0.00    -0.252 A  
HETATM   16  O   UNL     1      -6.715   9.931  71.792  1.00  0.00    -0.133 OA 
HETATM   17  C   UNL     1     -10.732   9.101  72.294  1.00  0.00     0.114 A  
HETATM   18  S   UNL     1      -7.381  10.012  70.322  1.00  0.00    -0.072 S  
HETATM   19  S   UNL     1     -13.191  10.268  72.571  1.00  0.00     0.483 S  
HETATM   20  C   UNL     1      -9.457   9.064  71.750  1.00  0.00    -0.245 A  
HETATM   21  O   UNL     1     -14.350   9.771  71.570  1.00  0.00     0.178 OA 
HETATM   22  O   UNL     1     -13.267   9.392  73.719  1.00  0.00     1.839 OA 
HETATM   23  O   UNL     1     -13.277  11.707  72.696  1.00  0.00     0.078 OA 
HETATM   24  C   UNL     1      -9.125   9.875  70.643  1.00  0.00     0.301 A  
ENDBRANCH  10  11
BRANCH  10  25
HETATM   25  C   UNL     1      -9.768  12.881  68.916  1.00  0.00     0.181 A  
HETATM   26  C   UNL     1     -10.561  13.821  68.119  1.00  0.00    -0.260 A  
HETATM   27  C   UNL     1      -8.767  13.513  69.789  1.00  0.00     1.912 A  
HETATM   28  C   UNL     1      -8.933  14.769  70.235  1.00  0.00     1.087 A  
HETATM   29  C   UNL     1     -10.733  15.095  68.511  1.00  0.00    -0.240 A  
HETATM   30  C   UNL     1     -10.131  15.571  69.805  1.00  0.00    -0.285 A  
BRANCH  30  31
HETATM   31  N   UNL     1     -10.597  16.586  70.484  1.00  0.00     0.148 NA 
BRANCH  31  32
HETATM   32  C   UNL     1     -11.209  16.439  71.867  1.00  0.00     0.317 C  
HETATM   33  C   UNL     1     -12.101  15.216  71.957  1.00  0.00    -0.453 C  
ENDBRANCH  31  32
BRANCH  31  34
HETATM   34  C   UNL     1     -10.370  18.024  70.058  1.00  0.00     1.032 C  
HETATM   35  C   UNL     1      -9.086  18.159  69.263  1.00  0.00     0.222 C  
ENDBRANCH  31  34
ENDBRANCH  30  31
ENDBRANCH  10  25
ENDBRANCH   9  10
ENDBRANCH   3   4
BRANCH   3  36
HETATM   36  C   UNL     1     -10.572   9.538  62.374  1.00  0.00     3.655 C  
HETATM   37  C   UNL     1     -11.909   9.397  63.086  1.00  0.00    11.920 C  
ENDBRANCH   3  36
ENDBRANCH   2   3
TORSDOF 9
ENDMDL
MODEL      149
REMARK 921   NORMALIZED FREE ENERGY PREDICTED BY IDOCK:   13.72 KCAL/MOL
REMARK 922        TOTAL FREE ENERGY PREDICTED BY IDOCK:   18.61 KCAL/MOL
REMARK 923 INTER-LIGAND FREE ENERGY PREDICTED BY IDOCK:    5.83 KCAL/MOL
REMARK 924 INTRA-LIGAND FREE ENERGY PREDICTED BY IDOCK:   12.78 KCAL/MOL
REMARK 927      BINDING AFFINITY PREDICTED BY RF-SCORE:    0.00 PKD
ROOT
HETATM    1  C   UNL     1     -12.267  16.579  67.728  1.00  0.00     1.515 C  
HETATM    2  C   UNL     1     -11.707  17.089  69.048  1.00  0.00     0.958 C  
ENDROOT
BRANCH   2   3
HETATM    3  N   UNL     1     -10.236  17.142  69.017  1.00  0.00    -0.317 NA 
BRANCH   3   4
HETATM    4  C   UNL     1      -9.521  15.948  69.031  1.00  0.00    -0.247 A  
HETATM    5  C   UNL     1      -9.178  15.261  70.202  1.00  0.00     0.405 A  
HETATM    6  C   UNL     1      -9.123  15.335  67.832  1.00  0.00    -0.175 A  
HETATM    7  C   UNL     1      -8.596  13.973  70.164  1.00  0.00     2.104 A  
HETATM    8  C   UNL     1      -8.528  14.060  67.780  1.00  0.00    -0.184 A  
HETATM    9  C   UNL     1      -8.311  13.334  68.950  1.00  0.00     0.225 A  
BRANCH   9  10
HETATM   10  C   UNL     1      -7.874  11.893  68.915  1.00  0.00     0.015 C  
BRANCH  10  11
HETATM   11  C   UNL     1      -7.036  11.359  70.050  1.00  0.00     0.403 A  
HETATM   12  O   UNL     1      -7.701  14.334  70.601  1.00  0.00     1.194 OA 
HETATM   13  O   UNL     1      -5.173  14.468  70.513  1.00  0.00    -0.103 OA 
HETATM   14  C   UNL     1      -7.052   9.967  70.270  1.00  0.00    -0.156 A  
HETATM   15  C   UNL     1      -6.378   9.404  71.369  1.00  0.00    -0.020 A  
HETATM   16  O   UNL     1      -6.352  14.206  72.639  1.00  0.00     0.099 OA 
HETATM   17  C   UNL     1      -5.562  10.175  72.190  1.00  0.00     0.269 A  
HETATM   18  S   UNL     1      -6.394  13.911  71.050  1.00  0.00     0.443 S  
HETATM   19  S   UNL     1      -6.751   7.736  71.841  1.00  0.00    -0.059 S  
HETATM   20  C   UNL     1      -5.501  11.543  71.967  1.00  0.00     0.567 A  
HETATM   21  O   UNL     1      -6.232   6.843  70.606  1.00  0.00    -0.031 OA 
HETATM   22  O   UNL     1      -5.909   7.377  72.961  1.00  0.00    -0.044 OA 
HETATM   23  O   UNL     1      -8.194   7.642  71.903  1.00  0.00    -0.102 OA 
HETATM   24  C   UNL     1      -6.277  12.139  70.949  1.00  0.00     0.769 A  
ENDBRANCH  10  11
BRANCH  10  25
HETATM   25  C   UNL     1      -8.090  11.128  67.800  1.00  0.00    -0.117 A  
HETATM   26  C   UNL     1      -7.245  11.206  66.605  1.00  0.00    -0.144 A  
HETATM   27  C   UNL     1      -9.269  10.261  67.659  1.00  0.00    -0.154 A  
HETATM   28  C   UNL     1      -9.275   9.238  66.787  1.00  0.00    -0.185 A  
HETATM   29  C   UNL     1      -7.237  10.221  65.691  1.00  0.00    -0.148 A  
HETATM   30  C   UNL     1      -8.084   8.996  65.900  1.00  0.00    -0.108 A  
BRANCH  30  31
HETATM   31  N   UNL     1      -7.818   7.837  65.357  1.00  0.00    -0.106 NA 
BRANCH  31  32
HETATM   32  C   UNL     1      -7.849   6.535  66.140  1.00  0.00    -0.106 C  
HETATM   33  C   UNL     1      -9.194   5.845  66.025  1.00  0.00    -0.143 C  
ENDBRANCH  31  32
BRANCH  31  34
HETATM   34  C   UNL     1      -7.673   7.653  63.859  1.00  0.00    -0.126 C  
HETATM   35  C   UNL     1      -6.260   7.965  63.406  1.00  0.00    -0.067 C  
ENDBRANCH  31  34
ENDBRANCH  30  31
ENDBRANCH  10  25
ENDBRANCH   9  10
ENDBRANCH   3   4
BRANCH   3  36
HETATM   36  C   UNL     1      -9.627  18.457  69.256  1.00  0.00     0.052 C  
HETATM   37  C   UNL     1      -8.972  18.969  67.982  1.00  0.00    -0.348 C  
ENDBRANCH   3  36
ENDBRANCH   2   3
TORSDOF 9
ENDMDL
MODEL      150
REMARK 921   NORMALIZED FREE ENERGY PREDICTED BY IDOCK:   14.07 KCAL/MOL
REMARK 922        TOTAL FREE ENERGY PREDICTED BY IDOCK:   19.15 KCAL/MOL
REMARK 923 INTER-LIGAND FREE ENERGY PREDICTED BY IDOCK:   16.57 KCAL/MOL
REMARK 924 INTRA-LIGAND FREE ENERGY PREDICTED BY IDOCK:    2.59 KCAL/MOL
REMARK 927      BINDING AFFINITY PREDICTED BY RF-SCORE:    0.00 PKD
ROOT
HETATM    1  C   UNL     1      -9.654  16.594  67.492  1.00  0.00    -0.242 C  
HETATM    2  C   UNL     1      -8.308  16.033  67.923  1.00  0.00    -0.153 C  
ENDROOT
BRANCH   2   3
HETATM    3  N   UNL     1      -8.356  15.538  69.310  1.00  0.00    -0.245 NA 
BRANCH   3   4
HETATM    4  C   UNL     1      -8.563  14.179  69.529  1.00  0.00     0.647 A  
HETATM    5  C   UNL     1      -9.819  13.614  69.784  1.00  0.00     1.309 A  
HETATM    6  C   UNL     1      -7.493  13.271  69.473  1.00  0.00     0.532 A  
HETATM    7  C   UNL     1     -10.007  12.214  69.838  1.00  0.00     1.893 A  
HETATM    8  C   UNL     1      -7.663  11.875  69.543  1.00  0.00     0.580 A  
HETATM    9  C   UNL     1      -8.938  11.324  69.667  1.00  0.00     0.850 A  
BRANCH   9  10
HETATM   10  C   UNL     1      -9.174   9.843  69.533  1.00  0.00    -0.238 C  
BRANCH  10  11
HETATM   11  C   UNL     1      -8.959   9.191  68.190  1.00  0.00    -0.129 A  
HETATM   12  O   UNL     1      -6.211  10.007  69.364  1.00  0.00    -0.043 OA 
HETATM   13  O   UNL     1      -6.200  11.393  67.245  1.00  0.00    -0.071 OA 
HETATM   14  C   UNL     1      -9.959   8.313  67.726  1.00  0.00    -0.235 A  
HETATM   15  C   UNL     1      -9.786   7.591  66.532  1.00  0.00    -0.156 A  
HETATM   16  O   UNL     1      -5.149   9.187  67.318  1.00  0.00    -0.035 OA 
HETATM   17  C   UNL     1      -8.697   7.819  65.699  1.00  0.00    -0.132 A  
HETATM   18  S   UNL     1      -6.316  10.124  67.928  1.00  0.00    -0.061 S  
HETATM   19  S   UNL     1     -10.857   6.217  66.198  1.00  0.00     0.916 S  
HETATM   20  C   UNL     1      -7.718   8.709  66.118  1.00  0.00    -0.097 A  
HETATM   21  O   UNL     1     -12.313   6.878  66.010  1.00  0.00     4.674 OA 
HETATM   22  O   UNL     1     -10.509   5.668  64.906  1.00  0.00     1.261 OA 
HETATM   23  O   UNL     1     -10.871   5.408  67.398  1.00  0.00    -0.159 OA 
HETATM   24  C   UNL     1      -7.814   9.341  67.376  1.00  0.00    -0.099 A  
ENDBRANCH  10  11
BRANCH  10  25
HETATM   25  C   UNL     1      -9.731   9.131  70.562  1.00  0.00    -0.287 A  
HETATM   26  C   UNL     1     -11.169   8.869  70.661  1.00  0.00    -0.308 A  
HETATM   27  C   UNL     1      -8.947   8.687  71.723  1.00  0.00    -0.307 A  
HETATM   28  C   UNL     1      -9.374   7.677  72.501  1.00  0.00    -0.215 A  
HETATM   29  C   UNL     1     -11.646   7.887  71.445  1.00  0.00    -0.304 A  
HETATM   30  C   UNL     1     -10.696   7.016  72.219  1.00  0.00    -0.220 A  
BRANCH  30  31
HETATM   31  N   UNL     1     -10.991   5.805  72.617  1.00  0.00    -0.251 NA 
BRANCH  31  32
HETATM   32  C   UNL     1     -10.209   4.580  72.174  1.00  0.00    -0.188 C  
HETATM   33  C   UNL     1      -9.011   4.328  73.069  1.00  0.00    -0.116 C  
ENDBRANCH  31  32
BRANCH  31  34
HETATM   34  C   UNL     1     -11.992   5.533  73.723  1.00  0.00     1.967 C  
HETATM   35  C   UNL     1     -13.404   5.461  73.173  1.00  0.00     2.227 C  
ENDBRANCH  31  34
ENDBRANCH  30  31
ENDBRANCH  10  25
ENDBRANCH   9  10
ENDBRANCH   3   4
BRANCH   3  36
HETATM   36  C   UNL     1      -8.461  16.556  70.362  1.00  0.00     2.671 C  
HETATM   37  C   UNL     1      -8.563  17.941  69.741  1.00  0.00     1.333 C  
ENDBRANCH   3  36
ENDBRANCH   2   3
TORSDOF 9
ENDMDL
MODEL      151
REMARK 921   NORMALIZED FREE ENERGY PREDICTED BY IDOCK:   14.34 KCAL/MOL
REMARK 922        TOTAL FREE ENERGY PREDICTED BY IDOCK:   19.57 KCAL/MOL
REMARK 923 INTER-LIGAND FREE ENERGY PREDICTED BY IDOCK:    2.84 KCAL/MOL
REMARK 924 INTRA-LIGAND FREE ENERGY PREDICTED BY IDOCK:   16.73 KCAL/MOL
REMARK 927      BINDING AFFINITY PREDICTED BY RF-SCORE:    0.00 PKD
ROOT
HETATM    1  C   UNL     1     -11.858  16.364  67.890  1.00  0.00     0.480 C  
HETATM    2  C   UNL     1     -11.401  16.244  69.336  1.00  0.00    -0.284 C  
ENDROOT
BRANCH   2   3
HETATM    3  N   UNL     1      -9.974  15.888  69.416  1.00  0.00    -0.259 NA 
BRANCH   3   4
HETATM    4  C   UNL     1      -9.559  14.661  68.906  1.00  0.00    -0.184 A  
HETATM    5  C   UNL     1      -8.687  13.795  69.577  1.00  0.00     1.013 A  
HETATM    6  C   UNL     1     -10.034  14.200  67.667  1.00  0.00    -0.233 A  
HETATM    7  C   UNL     1      -8.422  12.491  69.099  1.00  0.00     0.624 A  
HETATM    8  C   UNL     1      -9.764  12.911  67.170  1.00  0.00    -0.221 A  
HETATM    9  C   UNL     1      -8.998  12.014  67.914  1.00  0.00    -0.182 A  
BRANCH   9  10
HETATM   10  C   UNL     1      -8.867  10.568  67.513  1.00  0.00    -0.131 C  
BRANCH  10  11
HETATM   11  C   UNL     1      -9.042  10.197  66.062  1.00  0.00    -0.185 A  
HETATM   12  O   UNL     1      -9.060  13.284  66.321  1.00  0.00    -0.126 OA 
HETATM   13  O   UNL     1     -11.371  12.921  65.351  1.00  0.00    -0.291 OA 
HETATM   14  C   UNL     1      -8.566   8.935  65.652  1.00  0.00    -0.188 A  
HETATM   15  C   UNL     1      -8.600   8.558  64.297  1.00  0.00     0.023 A  
HETATM   16  O   UNL     1      -9.462  13.434  63.913  1.00  0.00     0.736 OA 
HETATM   17  C   UNL     1      -9.229   9.348  63.341  1.00  0.00     0.091 A  
HETATM   18  S   UNL     1      -9.936  12.756  65.301  1.00  0.00    -0.126 S  
HETATM   19  S   UNL     1      -7.637   7.165  63.771  1.00  0.00    -0.113 S  
HETATM   20  C   UNL     1      -9.739  10.578  63.731  1.00  0.00    -0.385 A  
HETATM   21  O   UNL     1      -8.313   5.906  64.511  1.00  0.00    -0.132 OA 
HETATM   22  O   UNL     1      -7.868   6.956  62.358  1.00  0.00    -0.105 OA 
HETATM   23  O   UNL     1      -6.309   7.358  64.311  1.00  0.00    -0.043 OA 
HETATM   24  C   UNL     1      -9.593  11.027  65.061  1.00  0.00    -0.247 A  
ENDBRANCH  10  11
BRANCH  10  25
HETATM   25  C   UNL     1      -8.759   9.589  68.465  1.00  0.00    -0.124 A  
HETATM   26  C   UNL     1      -9.917   9.033  69.171  1.00  0.00    -0.187 A  
HETATM   27  C   UNL     1      -7.458   9.112  68.955  1.00  0.00    -0.075 A  
HETATM   28  C   UNL     1      -7.342   7.917  69.558  1.00  0.00    -0.087 A  
HETATM   29  C   UNL     1      -9.842   7.854  69.810  1.00  0.00    -0.179 A  
HETATM   30  C   UNL     1      -8.561   7.066  69.786  1.00  0.00    -0.141 A  
BRANCH  30  31
HETATM   31  N   UNL     1      -8.511   5.770  69.956  1.00  0.00    -0.122 NA 
BRANCH  31  32
HETATM   32  C   UNL     1      -7.210   4.987  69.925  1.00  0.00    -0.055 C  
HETATM   33  C   UNL     1      -6.424   5.256  68.656  1.00  0.00    -0.040 C  
ENDBRANCH  31  32
BRANCH  31  34
HETATM   34  C   UNL     1      -9.708   4.962  70.419  1.00  0.00    -0.214 C  
HETATM   35  C   UNL     1      -9.340   4.065  71.585  1.00  0.00    -0.199 C  
ENDBRANCH  31  34
ENDBRANCH  30  31
ENDBRANCH  10  25
ENDBRANCH   9  10
ENDBRANCH   3   4
BRANCH   3  36
HETATM   36  C   UNL     1      -9.139  16.734  70.279  1.00  0.00     2.224 C  
HETATM   37  C   UNL     1      -9.848  18.048  70.568  1.00  0.00     2.502 C  
ENDBRANCH   3  36
ENDBRANCH   2   3
TORSDOF 9
ENDMDL
MODEL      152
REMARK 921   NORMALIZED FREE ENERGY PREDICTED BY IDOCK:   14.64 KCAL/MOL
REMARK 922        TOTAL FREE ENERGY PREDICTED BY IDOCK:   20.02 KCAL/MOL
REMARK 923 INTER-LIGAND FREE ENERGY PREDICTED BY IDOCK:   21.49 KCAL/MOL
REMARK 924 INTRA-LIGAND FREE ENERGY PREDICTED BY IDOCK:   -1.47 KCAL/MOL
REMARK 927      BINDING AFFINITY PREDICTED BY RF-SCORE:    0.00 PKD
ROOT
HETATM    1  C   UNL     1     -13.969  15.886  66.463  1.00  0.00     7.554 C  
HETATM    2  C   UNL     1     -14.110  16.107  64.965  1.00  0.00     5.339 C  
ENDROOT
BRANCH   2   3
HETATM    3  N   UNL     1     -13.159  15.273  64.211  1.00  0.00    -0.012 NA 
BRANCH   3   4
HETATM    4  C   UNL     1     -12.248  14.492  64.915  1.00  0.00    -0.402 A  
HETATM    5  C   UNL     1     -10.918  14.868  65.149  1.00  0.00    -0.410 A  
HETATM    6  C   UNL     1     -12.635  13.263  65.474  1.00  0.00    -0.505 A  
HETATM    7  C   UNL     1     -10.076  14.123  66.006  1.00  0.00    -0.330 A  
HETATM    8  C   UNL     1     -11.801  12.502  66.315  1.00  0.00    -0.453 A  
HETATM    9  C   UNL     1     -10.523  12.957  66.641  1.00  0.00    -0.272 A  
BRANCH   9  10
HETATM   10  C   UNL     1      -9.691  12.279  67.698  1.00  0.00    -0.194 C  
BRANCH  10  11
HETATM   11  C   UNL     1     -10.005  10.851  68.066  1.00  0.00    -0.188 A  
HETATM   12  O   UNL     1      -7.957  10.864  65.741  1.00  0.00    -0.150 OA 
HETATM   13  O   UNL     1      -9.868   9.635  64.623  1.00  0.00    -0.138 OA 
HETATM   14  C   UNL     1     -10.482  10.606  69.369  1.00  0.00    -0.252 A  
HETATM   15  C   UNL     1     -10.702   9.291  69.820  1.00  0.00    -0.231 A  
HETATM   16  O   UNL     1      -8.048   8.420  65.713  1.00  0.00    -0.105 OA 
HETATM   17  C   UNL     1     -10.594   8.203  68.961  1.00  0.00    -0.167 A  
HETATM   18  S   UNL     1      -8.915   9.783  65.700  1.00  0.00    -0.177 S  
HETATM   19  S   UNL     1     -10.902   9.004  71.558  1.00  0.00    -0.368 S  
HETATM   20  C   UNL     1     -10.163   8.426  67.661  1.00  0.00    -0.298 A  
HETATM   21  O   UNL     1     -12.280   9.746  71.933  1.00  0.00    -0.375 OA 
HETATM   22  O   UNL     1     -11.152   7.594  71.764  1.00  0.00    -0.235 OA 
HETATM   23  O   UNL     1      -9.814   9.695  72.215  1.00  0.00     0.771 OA 
HETATM   24  C   UNL     1      -9.812   9.725  67.234  1.00  0.00    -0.181 A  
ENDBRANCH  10  11
BRANCH  10  25
HETATM   25  C   UNL     1      -8.778  12.993  68.428  1.00  0.00    -0.115 A  
HETATM   26  C   UNL     1      -7.331  12.890  68.213  1.00  0.00    -0.118 A  
HETATM   27  C   UNL     1      -9.167  13.820  69.579  1.00  0.00     1.000 A  
HETATM   28  C   UNL     1      -8.370  14.805  70.024  1.00  0.00     0.571 A  
HETATM   29  C   UNL     1      -6.492  13.837  68.662  1.00  0.00    -0.093 A  
HETATM   30  C   UNL     1      -7.034  15.046  69.375  1.00  0.00    -0.172 A  
BRANCH  30  31
HETATM   31  N   UNL     1      -6.403  16.189  69.433  1.00  0.00    -0.167 NA 
BRANCH  31  32
HETATM   32  C   UNL     1      -6.561  17.271  68.379  1.00  0.00    -0.174 C  
HETATM   33  C   UNL     1      -6.215  16.757  66.994  1.00  0.00    -0.221 C  
ENDBRANCH  31  32
BRANCH  31  34
HETATM   34  C   UNL     1      -5.634  16.633  70.663  1.00  0.00    -0.059 C  
HETATM   35  C   UNL     1      -5.186  18.077  70.532  1.00  0.00    -0.270 C  
ENDBRANCH  31  34
ENDBRANCH  30  31
ENDBRANCH  10  25
ENDBRANCH   9  10
ENDBRANCH   3   4
BRANCH   3  36
HETATM   36  C   UNL     1     -13.059  15.540  62.771  1.00  0.00     5.459 C  
HETATM   37  C   UNL     1     -11.599  15.561  62.343  1.00  0.00     7.630 C  
ENDBRANCH   3  36
ENDBRANCH   2   3
TORSDOF 9
ENDMDL
MODEL      153
REMARK 921   NORMALIZED FREE ENERGY PREDICTED BY IDOCK:   14.82 KCAL/MOL
REMARK 922        TOTAL FREE ENERGY PREDICTED BY IDOCK:   20.29 KCAL/MOL
REMARK 923 INTER-LIGAND FREE ENERGY PREDICTED BY IDOCK:   13.18 KCAL/MOL
REMARK 924 INTRA-LIGAND FREE ENERGY PREDICTED BY IDOCK:    7.11 KCAL/MOL
REMARK 927      BINDING AFFINITY PREDICTED BY RF-SCORE:    0.00 PKD
ROOT
HETATM    1  C   UNL     1      -8.235  11.045  63.984  1.00  0.00     0.355 C  
HETATM    2  C   UNL     1      -6.806  10.723  64.392  1.00  0.00     0.371 C  
ENDROOT
BRANCH   2   3
HETATM    3  N   UNL     1      -6.492  11.279  65.718  1.00  0.00     0.147 NA 
BRANCH   3   4
HETATM    4  C   UNL     1      -7.432  11.154  66.737  1.00  0.00    -0.146 A  
HETATM    5  C   UNL     1      -8.808  11.335  66.552  1.00  0.00    -0.180 A  
HETATM    6  C   UNL     1      -7.039  10.796  68.038  1.00  0.00    -0.081 A  
HETATM    7  C   UNL     1      -9.741  11.039  67.572  1.00  0.00    -0.190 A  
HETATM    8  C   UNL     1      -7.956  10.515  69.068  1.00  0.00    -0.136 A  
HETATM    9  C   UNL     1      -9.328  10.576  68.829  1.00  0.00    -0.181 A  
BRANCH   9  10
HETATM   10  C   UNL     1     -10.328  10.080  69.841  1.00  0.00    -0.315 C  
BRANCH  10  11
HETATM   11  C   UNL     1     -10.548   8.594  69.977  1.00  0.00    -0.233 A  
HETATM   12  O   UNL     1     -13.299  10.017  69.909  1.00  0.00     0.283 OA 
HETATM   13  O   UNL     1     -13.431   8.936  72.196  1.00  0.00    -0.385 OA 
HETATM   14  C   UNL     1      -9.520   7.741  69.526  1.00  0.00    -0.160 A  
HETATM   15  C   UNL     1      -9.692   6.345  69.526  1.00  0.00    -0.150 A  
HETATM   16  O   UNL     1     -14.375   7.842  70.223  1.00  0.00     1.262 OA 
HETATM   17  C   UNL     1     -10.813   5.753  70.097  1.00  0.00    -0.383 A  
HETATM   18  S   UNL     1     -13.239   8.855  70.765  1.00  0.00     0.494 S  
HETATM   19  S   UNL     1      -8.567   5.344  68.590  1.00  0.00    -0.094 S  
HETATM   20  C   UNL     1     -11.820   6.574  70.583  1.00  0.00    -0.398 A  
HETATM   21  O   UNL     1      -7.149   5.531  69.329  1.00  0.00    -0.060 OA 
HETATM   22  O   UNL     1      -8.924   3.954  68.779  1.00  0.00    -0.101 OA 
HETATM   23  O   UNL     1      -8.483   5.943  67.275  1.00  0.00    -0.105 OA 
HETATM   24  C   UNL     1     -11.720   7.977  70.468  1.00  0.00    -0.071 A  
ENDBRANCH  10  11
BRANCH  10  25
HETATM   25  C   UNL     1     -11.140  10.960  70.505  1.00  0.00     0.059 A  
HETATM   26  C   UNL     1     -10.796  11.533  71.809  1.00  0.00     6.184 A  
HETATM   27  C   UNL     1     -12.488  11.298  70.026  1.00  0.00    -0.251 A  
HETATM   28  C   UNL     1     -13.103  12.423  70.427  1.00  0.00     0.555 A  
HETATM   29  C   UNL     1     -11.402  12.642  72.265  1.00  0.00     6.004 A  
HETATM   30  C   UNL     1     -12.434  13.336  71.419  1.00  0.00    -0.188 A  
BRANCH  30  31
HETATM   31  N   UNL     1     -12.728  14.604  71.539  1.00  0.00    -0.319 NA 
BRANCH  31  32
HETATM   32  C   UNL     1     -11.880  15.706  70.928  1.00  0.00    -0.388 C  
HETATM   33  C   UNL     1     -11.213  15.252  69.644  1.00  0.00    -0.289 C  
ENDBRANCH  31  32
BRANCH  31  34
HETATM   34  C   UNL     1     -14.052  15.083  72.104  1.00  0.00    -0.529 C  
HETATM   35  C   UNL     1     -13.842  16.200  73.109  1.00  0.00    -0.186 C  
ENDBRANCH  31  34
ENDBRANCH  30  31
ENDBRANCH  10  25
ENDBRANCH   9  10
ENDBRANCH   3   4
BRANCH   3  36
HETATM   36  C   UNL     1      -5.326  12.169  65.793  1.00  0.00     2.017 C  
HETATM   37  C   UNL     1      -5.486  13.147  66.947  1.00  0.00     0.966 C  
ENDBRANCH   3  36
ENDBRANCH   2   3
TORSDOF 9
ENDMDL
MODEL      154
REMARK 921   NORMALIZED FREE ENERGY PREDICTED BY IDOCK:   15.00 KCAL/MOL
REMARK 922        TOTAL FREE ENERGY PREDICTED BY IDOCK:   20.56 KCAL/MOL
REMARK 923 INTER-LIGAND FREE ENERGY PREDICTED BY IDOCK:   16.88 KCAL/MOL
REMARK 924 INTRA-LIGAND FREE ENERGY PREDICTED BY IDOCK:    3.68 KCAL/MOL
REMARK 927      BINDING AFFINITY PREDICTED BY RF-SCORE:    0.00 PKD
ROOT
HETATM    1  C   UNL     1     -10.975  17.725  64.903  1.00  0.00     1.029 C  
HETATM    2  C   UNL     1     -11.446  18.230  66.258  1.00  0.00     1.603 C  
ENDROOT
BRANCH   2   3
HETATM    3  N   UNL     1     -11.905  17.121  67.110  1.00  0.00     1.435 NA 
BRANCH   3   4
HETATM    4  C   UNL     1     -11.116  15.978  67.206  1.00  0.00    -0.131 A  
HETATM    5  C   UNL     1     -10.213  15.742  68.251  1.00  0.00    -0.225 A  
HETATM    6  C   UNL     1     -11.213  14.956  66.248  1.00  0.00    -0.331 A  
HETATM    7  C   UNL     1      -9.554  14.500  68.396  1.00  0.00    -0.213 A  
HETATM    8  C   UNL     1     -10.550  13.720  66.371  1.00  0.00    -0.284 A  
HETATM    9  C   UNL     1      -9.754  13.453  67.485  1.00  0.00    -0.224 A  
BRANCH   9  10
HETATM   10  C   UNL     1      -9.205  12.076  67.751  1.00  0.00    -0.190 C  
BRANCH  10  11
HETATM   11  C   UNL     1      -8.035  11.590  66.932  1.00  0.00    -0.164 A  
HETATM   12  O   UNL     1      -7.927  10.261  69.728  1.00  0.00    -0.166 OA 
HETATM   13  O   UNL     1      -5.723  11.507  69.760  1.00  0.00    -0.070 OA 
HETATM   14  C   UNL     1      -8.158  11.645  65.529  1.00  0.00     0.641 A  
HETATM   15  C   UNL     1      -7.153  11.118  64.698  1.00  0.00     0.986 A  
HETATM   16  O   UNL     1      -5.841   9.164  69.071  1.00  0.00    -0.039 OA 
HETATM   17  C   UNL     1      -5.950  10.656  65.219  1.00  0.00    -0.090 A  
HETATM   18  S   UNL     1      -6.639  10.567  69.152  1.00  0.00    -0.064 S  
HETATM   19  S   UNL     1      -7.518  10.837  62.985  1.00  0.00     0.238 S  
HETATM   20  C   UNL     1      -5.793  10.629  66.597  1.00  0.00    -0.074 A  
HETATM   21  O   UNL     1      -7.751  12.309  62.376  1.00  0.00     1.297 OA 
HETATM   22  O   UNL     1      -6.325  10.333  62.339  1.00  0.00    -0.115 OA 
HETATM   23  O   UNL     1      -8.773  10.119  62.946  1.00  0.00    -0.164 OA 
HETATM   24  C   UNL     1      -6.845  11.031  67.448  1.00  0.00    -0.082 A  
ENDBRANCH  10  11
BRANCH  10  25
HETATM   25  C   UNL     1      -9.854  11.220  68.599  1.00  0.00    -0.208 A  
HETATM   26  C   UNL     1     -10.881  10.277  68.147  1.00  0.00    -0.312 A  
HETATM   27  C   UNL     1      -9.671  11.270  70.057  1.00  0.00     1.403 A  
HETATM   28  C   UNL     1      -9.971  10.212  70.829  1.00  0.00     0.417 A  
HETATM   29  C   UNL     1     -11.234   9.219  68.896  1.00  0.00     0.151 A  
HETATM   30  C   UNL     1     -10.550   8.968  70.211  1.00  0.00    -0.217 A  
BRANCH  30  31
HETATM   31  N   UNL     1     -10.474   7.788  70.769  1.00  0.00    -0.208 NA 
BRANCH  31  32
HETATM   32  C   UNL     1      -9.955   6.563  70.035  1.00  0.00    -0.169 C  
HETATM   33  C   UNL     1      -8.439   6.521  70.020  1.00  0.00    -0.135 C  
ENDBRANCH  31  32
BRANCH  31  34
HETATM   34  C   UNL     1     -10.683   7.575  72.256  1.00  0.00    -0.250 C  
HETATM   35  C   UNL     1     -11.864   6.658  72.513  1.00  0.00    -0.149 C  
ENDBRANCH  31  34
ENDBRANCH  30  31
ENDBRANCH  10  25
ENDBRANCH   9  10
ENDBRANCH   3   4
BRANCH   3  36
HETATM   36  C   UNL     1     -13.296  17.190  67.576  1.00  0.00     7.475 C  
HETATM   37  C   UNL     1     -13.529  16.171  68.682  1.00  0.00     4.479 C  
ENDBRANCH   3  36
ENDBRANCH   2   3
TORSDOF 9
ENDMDL
MODEL      155
REMARK 921   NORMALIZED FREE ENERGY PREDICTED BY IDOCK:   16.91 KCAL/MOL
REMARK 922        TOTAL FREE ENERGY PREDICTED BY IDOCK:   23.48 KCAL/MOL
REMARK 923 INTER-LIGAND FREE ENERGY PREDICTED BY IDOCK:   18.03 KCAL/MOL
REMARK 924 INTRA-LIGAND FREE ENERGY PREDICTED BY IDOCK:    5.45 KCAL/MOL
REMARK 927      BINDING AFFINITY PREDICTED BY RF-SCORE:    0.00 PKD
ROOT
HETATM    1  C   UNL     1      -8.257  16.856  71.168  1.00  0.00     6.902 C  
HETATM    2  C   UNL     1      -6.744  16.915  71.313  1.00  0.00     3.473 C  
ENDROOT
BRANCH   2   3
HETATM    3  N   UNL     1      -6.191  15.597  71.667  1.00  0.00     1.163 NA 
BRANCH   3   4
HETATM    4  C   UNL     1      -6.730  14.461  71.070  1.00  0.00     0.598 A  
HETATM    5  C   UNL     1      -7.793  14.492  70.159  1.00  0.00     0.719 A  
HETATM    6  C   UNL     1      -6.197  13.189  71.334  1.00  0.00     1.089 A  
HETATM    7  C   UNL     1      -8.201  13.336  69.454  1.00  0.00     0.892 A  
HETATM    8  C   UNL     1      -6.605  12.027  70.653  1.00  0.00     1.136 A  
HETATM    9  C   UNL     1      -7.577  12.097  69.655  1.00  0.00     0.810 A  
BRANCH   9  10
HETATM   10  C   UNL     1      -7.882  10.920  68.767  1.00  0.00    -0.132 C  
BRANCH  10  11
HETATM   11  C   UNL     1      -8.306  11.175  67.342  1.00  0.00    -0.135 A  
HETATM   12  O   UNL     1      -9.899  13.056  69.218  1.00  0.00     0.346 OA 
HETATM   13  O   UNL     1     -11.813  11.756  68.187  1.00  0.00    -0.451 OA 
HETATM   14  C   UNL     1      -7.395  10.832  66.322  1.00  0.00    -0.138 A  
HETATM   15  C   UNL     1      -7.674  11.132  64.977  1.00  0.00     0.559 A  
HETATM   16  O   UNL     1     -11.102  13.905  67.263  1.00  0.00    -0.288 OA 
HETATM   17  C   UNL     1      -8.908  11.643  64.589  1.00  0.00     0.472 A  
HETATM   18  S   UNL     1     -10.633  12.584  68.067  1.00  0.00    -0.231 S  
HETATM   19  S   UNL     1      -6.357  11.061  63.791  1.00  0.00     0.987 S  
HETATM   20  C   UNL     1      -9.835  11.953  65.574  1.00  0.00    -0.257 A  
HETATM   21  O   UNL     1      -5.949   9.505  63.735  1.00  0.00    -0.087 OA 
HETATM   22  O   UNL     1      -6.898  11.369  62.485  1.00  0.00     0.288 OA 
HETATM   23  O   UNL     1      -5.254  11.806  64.361  1.00  0.00     1.031 OA 
HETATM   24  C   UNL     1      -9.517  11.781  66.939  1.00  0.00    -0.193 A  
ENDBRANCH  10  11
BRANCH  10  25
HETATM   25  C   UNL     1      -7.938   9.654  69.284  1.00  0.00    -0.104 A  
HETATM   26  C   UNL     1      -6.751   8.812  69.458  1.00  0.00    -0.047 A  
HETATM   27  C   UNL     1      -9.211   8.983  69.583  1.00  0.00    -0.160 A  
HETATM   28  C   UNL     1      -9.264   7.949  70.440  1.00  0.00    -0.158 A  
HETATM   29  C   UNL     1      -6.763   7.752  70.283  1.00  0.00    -0.038 A  
HETATM   30  C   UNL     1      -8.002   7.428  71.072  1.00  0.00    -0.097 A  
BRANCH  30  31
HETATM   31  N   UNL     1      -7.986   6.752  72.191  1.00  0.00    -0.096 NA 
BRANCH  31  32
HETATM   32  C   UNL     1      -8.126   5.240  72.241  1.00  0.00    -0.110 C  
HETATM   33  C   UNL     1      -7.962   4.617  70.868  1.00  0.00    -0.081 C  
ENDBRANCH  31  32
BRANCH  31  34
HETATM   34  C   UNL     1      -7.605   7.382  73.517  1.00  0.00    -0.096 C  
HETATM   35  C   UNL     1      -7.315   6.319  74.560  1.00  0.00    -0.096 C  
ENDBRANCH  31  34
ENDBRANCH  30  31
ENDBRANCH  10  25
ENDBRANCH   9  10
ENDBRANCH   3   4
BRANCH   3  36
HETATM   36  C   UNL     1      -5.298  15.557  72.832  1.00  0.00     0.782 C  
HETATM   37  C   UNL     1      -5.593  14.327  73.676  1.00  0.00    -0.225 C  
ENDBRANCH   3  36
ENDBRANCH   2   3
TORSDOF 9
ENDMDL
MODEL      156
REMARK 921   NORMALIZED FREE ENERGY PREDICTED BY IDOCK:   16.99 KCAL/MOL
REMARK 922        TOTAL FREE ENERGY PREDICTED BY IDOCK:   23.61 KCAL/MOL
REMARK 923 INTER-LIGAND FREE ENERGY PREDICTED BY IDOCK:   23.72 KCAL/MOL
REMARK 924 INTRA-LIGAND FREE ENERGY PREDICTED BY IDOCK:   -0.11 KCAL/MOL
REMARK 927      BINDING AFFINITY PREDICTED BY RF-SCORE:    0.00 PKD
ROOT
HETATM    1  C   UNL     1      -5.342  18.188  66.558  1.00  0.00    -0.182 C  
HETATM    2  C   UNL     1      -5.961  18.869  65.347  1.00  0.00    -0.234 C  
ENDROOT
BRANCH   2   3
HETATM    3  N   UNL     1      -7.430  18.759  65.367  1.00  0.00    -0.396 NA 
BRANCH   3   4
HETATM    4  C   UNL     1      -8.015  17.725  66.092  1.00  0.00    -0.202 A  
HETATM    5  C   UNL     1      -8.844  16.750  65.523  1.00  0.00     0.710 A  
HETATM    6  C   UNL     1      -7.771  17.583  67.467  1.00  0.00    -0.210 A  
HETATM    7  C   UNL     1      -9.284  15.627  66.261  1.00  0.00    -0.365 A  
HETATM    8  C   UNL     1      -8.217  16.480  68.219  1.00  0.00    -0.185 A  
HETATM    9  C   UNL     1      -8.932  15.451  67.607  1.00  0.00    -0.185 A  
BRANCH   9  10
HETATM   10  C   UNL     1      -9.239  14.165  68.329  1.00  0.00    -0.198 C  
BRANCH  10  11
HETATM   11  C   UNL     1      -9.040  12.859  67.602  1.00  0.00    -0.194 A  
HETATM   12  O   UNL     1      -6.319  13.801  68.745  1.00  0.00    -0.082 OA 
HETATM   13  O   UNL     1      -5.760  13.770  66.275  1.00  0.00     2.825 OA 
HETATM   14  C   UNL     1     -10.162  12.018  67.458  1.00  0.00    -0.211 A  
HETATM   15  C   UNL     1     -10.035  10.741  66.883  1.00  0.00    -0.200 A  
HETATM   16  O   UNL     1      -5.265  11.852  67.708  1.00  0.00    -0.050 OA 
HETATM   17  C   UNL     1      -8.840  10.319  66.311  1.00  0.00    -0.161 A  
HETATM   18  S   UNL     1      -6.239  13.119  67.474  1.00  0.00    -0.046 S  
HETATM   19  S   UNL     1     -11.354   9.573  67.088  1.00  0.00     1.358 S  
HETATM   20  C   UNL     1      -7.731  11.148  66.407  1.00  0.00    -0.124 A  
HETATM   21  O   UNL     1     -12.587  10.212  66.274  1.00  0.00     5.802 OA 
HETATM   22  O   UNL     1     -11.007   8.360  66.379  1.00  0.00     0.470 OA 
HETATM   23  O   UNL     1     -11.684   9.572  68.497  1.00  0.00     0.444 OA 
HETATM   24  C   UNL     1      -7.811  12.376  67.099  1.00  0.00    -0.138 A  
ENDBRANCH  10  11
BRANCH  10  25
HETATM   25  C   UNL     1      -9.844  14.184  69.557  1.00  0.00     0.423 A  
HETATM   26  C   UNL     1      -9.311  14.938  70.696  1.00  0.00     1.533 A  
HETATM   27  C   UNL     1     -11.005  13.341  69.873  1.00  0.00     0.335 A  
HETATM   28  C   UNL     1     -11.823  13.644  70.896  1.00  0.00    -0.082 A  
HETATM   29  C   UNL     1     -10.082  15.243  71.752  1.00  0.00     2.081 A  
HETATM   30  C   UNL     1     -11.530  14.834  71.769  1.00  0.00    -0.063 A  
BRANCH  30  31
HETATM   31  N   UNL     1     -12.442  15.446  72.478  1.00  0.00    -0.346 NA 
BRANCH  31  32
HETATM   32  C   UNL     1     -13.914  15.075  72.422  1.00  0.00    -0.492 C  
HETATM   33  C   UNL     1     -14.381  14.439  73.717  1.00  0.00     5.381 C  
ENDBRANCH  31  32
BRANCH  31  34
HETATM   34  C   UNL     1     -12.093  16.425  73.583  1.00  0.00    -0.405 C  
HETATM   35  C   UNL     1     -11.654  17.758  73.009  1.00  0.00     1.705 C  
ENDBRANCH  31  34
ENDBRANCH  30  31
ENDBRANCH  10  25
ENDBRANCH   9  10
ENDBRANCH   3   4
BRANCH   3  36
HETATM   36  C   UNL     1      -8.158  19.583  64.393  1.00  0.00     3.941 C  
HETATM   37  C   UNL     1      -8.864  20.729  65.102  1.00  0.00     1.460 C  
ENDBRANCH   3  36
ENDBRANCH   2   3
TORSDOF 9
ENDMDL
MODEL      157
REMARK 921   NORMALIZED FREE ENERGY PREDICTED BY IDOCK:   17.31 KCAL/MOL
REMARK 922        TOTAL FREE ENERGY PREDICTED BY IDOCK:   24.08 KCAL/MOL
REMARK 923 INTER-LIGAND FREE ENERGY PREDICTED BY IDOCK:   23.72 KCAL/MOL
REMARK 924 INTRA-LIGAND FREE ENERGY PREDICTED BY IDOCK:    0.36 KCAL/MOL
REMARK 927      BINDING AFFINITY PREDICTED BY RF-SCORE:    0.00 PKD
ROOT
HETATM    1  C   UNL     1      -7.276   9.454  63.570  1.00  0.00    -0.100 C  
HETATM    2  C   UNL     1      -8.178   8.559  64.406  1.00  0.00    -0.151 C  
ENDROOT
BRANCH   2   3
HETATM    3  N   UNL     1      -8.255   9.031  65.798  1.00  0.00    -0.115 NA 
BRANCH   3   4
HETATM    4  C   UNL     1      -7.958  10.363  66.072  1.00  0.00    -0.144 A  
HETATM    5  C   UNL     1      -8.170  11.409  65.164  1.00  0.00     0.520 A  
HETATM    6  C   UNL     1      -7.447  10.743  67.324  1.00  0.00    -0.101 A  
HETATM    7  C   UNL     1      -8.010  12.762  65.541  1.00  0.00     2.917 A  
HETATM    8  C   UNL     1      -7.266  12.086  67.706  1.00  0.00    -0.108 A  
HETATM    9  C   UNL     1      -7.604  13.120  66.834  1.00  0.00     0.296 A  
BRANCH   9  10
HETATM   10  C   UNL     1      -7.623  14.557  67.284  1.00  0.00    -0.150 C  
BRANCH  10  11
HETATM   11  C   UNL     1      -8.059  14.872  68.693  1.00  0.00    -0.151 A  
HETATM   12  O   UNL     1     -10.140  12.981  67.394  1.00  0.00    -0.227 OA 
HETATM   13  O   UNL     1     -11.617  14.983  67.871  1.00  0.00    -0.332 OA 
HETATM   14  C   UNL     1      -7.062  15.266  69.608  1.00  0.00    -0.187 A  
HETATM   15  C   UNL     1      -7.373  15.479  70.964  1.00  0.00     2.104 A  
HETATM   16  O   UNL     1     -11.469  13.116  69.444  1.00  0.00    -0.269 OA 
HETATM   17  C   UNL     1      -8.686  15.447  71.419  1.00  0.00     4.079 A  
HETATM   18  S   UNL     1     -10.693  13.958  68.303  1.00  0.00    -0.258 S  
HETATM   19  S   UNL     1      -6.051  15.570  72.142  1.00  0.00     1.732 S  
HETATM   20  C   UNL     1      -9.688  15.099  70.526  1.00  0.00     0.655 A  
HETATM   21  O   UNL     1      -5.248  16.907  71.745  1.00  0.00    -0.248 OA 
HETATM   22  O   UNL     1      -6.618  15.830  73.448  1.00  0.00     3.636 OA 
HETATM   23  O   UNL     1      -5.198  14.429  71.889  1.00  0.00    -0.147 OA 
HETATM   24  C   UNL     1      -9.374  14.753  69.193  1.00  0.00    -0.101 A  
ENDBRANCH  10  11
BRANCH  10  25
HETATM   25  C   UNL     1      -7.410  15.570  66.387  1.00  0.00     0.970 A  
HETATM   26  C   UNL     1      -8.477  16.462  65.925  1.00  0.00     0.002 A  
HETATM   27  C   UNL     1      -6.119  15.761  65.711  1.00  0.00     5.096 A  
HETATM   28  C   UNL     1      -5.790  16.946  65.169  1.00  0.00     3.000 A  
HETATM   29  C   UNL     1      -8.198  17.645  65.353  1.00  0.00     1.346 A  
HETATM   30  C   UNL     1      -6.768  18.088  65.204  1.00  0.00     0.507 A  
BRANCH  30  31
HETATM   31  N   UNL     1      -6.411  19.342  65.105  1.00  0.00    -0.323 NA 
BRANCH  31  32
HETATM   32  C   UNL     1      -6.330  20.072  63.775  1.00  0.00     0.130 C  
HETATM   33  C   UNL     1      -5.807  19.171  62.673  1.00  0.00     0.564 C  
ENDBRANCH  31  32
BRANCH  31  34
HETATM   34  C   UNL     1      -6.262  20.244  66.315  1.00  0.00    -0.191 C  
HETATM   35  C   UNL     1      -7.160  19.786  67.448  1.00  0.00    -0.252 C  
ENDBRANCH  31  34
ENDBRANCH  30  31
ENDBRANCH  10  25
ENDBRANCH   9  10
ENDBRANCH   3   4
BRANCH   3  36
HETATM   36  C   UNL     1      -8.368   7.994  66.832  1.00  0.00    -0.116 C  
HETATM   37  C   UNL     1      -9.179   6.818  66.308  1.00  0.00    -0.161 C  
ENDBRANCH   3  36
ENDBRANCH   2   3
TORSDOF 9
ENDMDL
MODEL      158
REMARK 921   NORMALIZED FREE ENERGY PREDICTED BY IDOCK:   18.39 KCAL/MOL
REMARK 922        TOTAL FREE ENERGY PREDICTED BY IDOCK:   25.73 KCAL/MOL
REMARK 923 INTER-LIGAND FREE ENERGY PREDICTED BY IDOCK:   26.20 KCAL/MOL
REMARK 924 INTRA-LIGAND FREE ENERGY PREDICTED BY IDOCK:   -0.46 KCAL/MOL
REMARK 927      BINDING AFFINITY PREDICTED BY RF-SCORE:    0.00 PKD
ROOT
HETATM    1  C   UNL     1     -13.470   5.204  63.385  1.00  0.00    11.479 C  
HETATM    2  C   UNL     1     -12.978   3.767  63.305  1.00  0.00     9.547 C  
ENDROOT
BRANCH   2   3
HETATM    3  N   UNL     1     -11.587   3.653  63.775  1.00  0.00     0.293 NA 
BRANCH   3   4
HETATM    4  C   UNL     1     -11.126   4.554  64.730  1.00  0.00     0.187 A  
HETATM    5  C   UNL     1     -10.740   4.185  66.025  1.00  0.00     0.553 A  
HETATM    6  C   UNL     1     -10.989   5.918  64.424  1.00  0.00     5.052 A  
HETATM    7  C   UNL     1     -10.125   5.104  66.906  1.00  0.00    -0.258 A  
HETATM    8  C   UNL     1     -10.394   6.847  65.298  1.00  0.00     3.041 A  
HETATM    9  C   UNL     1      -9.897   6.436  66.534  1.00  0.00    -0.170 A  
BRANCH   9  10
HETATM   10  C   UNL     1      -9.072   7.354  67.398  1.00  0.00    -0.129 C  
BRANCH  10  11
HETATM   11  C   UNL     1      -8.721   8.724  66.874  1.00  0.00    -0.136 A  
HETATM   12  O   UNL     1      -6.993   6.612  65.407  1.00  0.00    -0.053 OA 
HETATM   13  O   UNL     1      -5.164   7.982  66.499  1.00  0.00    -0.024 OA 
HETATM   14  C   UNL     1      -9.692   9.737  67.005  1.00  0.00    -0.233 A  
HETATM   15  C   UNL     1      -9.480  11.013  66.452  1.00  0.00    -0.193 A  
HETATM   16  O   UNL     1      -5.882   8.431  64.205  1.00  0.00    -0.062 OA 
HETATM   17  C   UNL     1      -8.260  11.363  65.885  1.00  0.00     0.086 A  
HETATM   18  S   UNL     1      -6.332   7.873  65.653  1.00  0.00    -0.042 S  
HETATM   19  S   UNL     1     -10.861  12.113  66.280  1.00  0.00    -0.295 S  
HETATM   20  C   UNL     1      -7.275  10.391  65.781  1.00  0.00    -0.143 A  
HETATM   21  O   UNL     1     -11.301  12.446  67.792  1.00  0.00    -0.258 OA 
HETATM   22  O   UNL     1     -10.385  13.363  65.729  1.00  0.00    -0.282 OA 
HETATM   23  O   UNL     1     -11.916  11.349  65.651  1.00  0.00    -0.006 OA 
HETATM   24  C   UNL     1      -7.523   9.070  66.212  1.00  0.00    -0.092 A  
ENDBRANCH  10  11
BRANCH  10  25
HETATM   25  C   UNL     1      -8.511   6.897  68.561  1.00  0.00    -0.123 A  
HETATM   26  C   UNL     1      -8.148   7.783  69.671  1.00  0.00    -0.122 A  
HETATM   27  C   UNL     1      -8.103   5.496  68.738  1.00  0.00    -0.099 A  
HETATM   28  C   UNL     1      -7.943   4.972  69.965  1.00  0.00    -0.074 A  
HETATM   29  C   UNL     1      -7.951   7.302  70.909  1.00  0.00    -0.098 A  
HETATM   30  C   UNL     1      -8.132   5.834  71.184  1.00  0.00    -0.117 A  
BRANCH  30  31
HETATM   31  N   UNL     1      -8.416   5.353  72.366  1.00  0.00    -0.118 NA 
BRANCH  31  32
HETATM   32  C   UNL     1      -9.764   4.737  72.701  1.00  0.00    -0.141 C  
HETATM   33  C   UNL     1      -9.682   3.225  72.789  1.00  0.00    -0.187 C  
ENDBRANCH  31  32
BRANCH  31  34
HETATM   34  C   UNL     1      -7.364   5.161  73.441  1.00  0.00    -0.091 C  
HETATM   35  C   UNL     1      -5.985   5.523  72.924  1.00  0.00    -0.035 C  
ENDBRANCH  31  34
ENDBRANCH  30  31
ENDBRANCH  10  25
ENDBRANCH   9  10
ENDBRANCH   3   4
BRANCH   3  36
HETATM   36  C   UNL     1     -10.707   2.771  62.998  1.00  0.00    -0.208 C  
HETATM   37  C   UNL     1     -11.485   1.563  62.498  1.00  0.00    -0.250 C  
ENDBRANCH   3  36
ENDBRANCH   2   3
TORSDOF 9
ENDMDL
MODEL      159
REMARK 921   NORMALIZED FREE ENERGY PREDICTED BY IDOCK:   20.21 KCAL/MOL
REMARK 922        TOTAL FREE ENERGY PREDICTED BY IDOCK:   28.52 KCAL/MOL
REMARK 923 INTER-LIGAND FREE ENERGY PREDICTED BY IDOCK:   26.88 KCAL/MOL
REMARK 924 INTRA-LIGAND FREE ENERGY PREDICTED BY IDOCK:    1.64 KCAL/MOL
REMARK 927      BINDING AFFINITY PREDICTED BY RF-SCORE:    0.00 PKD
ROOT
HETATM    1  C   UNL     1     -12.101  11.517  62.506  1.00  0.00     1.460 C  
HETATM    2  C   UNL     1     -12.031  11.347  64.015  1.00  0.00     0.183 C  
ENDROOT
BRANCH   2   3
HETATM    3  N   UNL     1     -12.148  12.644  64.704  1.00  0.00    -0.396 NA 
BRANCH   3   4
HETATM    4  C   UNL     1     -11.475  12.827  65.908  1.00  0.00    -0.356 A  
HETATM    5  C   UNL     1     -11.412  11.859  66.918  1.00  0.00    -0.390 A  
HETATM    6  C   UNL     1     -10.775  14.017  66.167  1.00  0.00    -0.289 A  
HETATM    7  C   UNL     1     -10.584  12.022  68.053  1.00  0.00    -0.233 A  
HETATM    8  C   UNL     1      -9.961  14.200  67.300  1.00  0.00    -0.249 A  
HETATM    9  C   UNL     1      -9.807  13.175  68.233  1.00  0.00    -0.227 A  
BRANCH   9  10
HETATM   10  C   UNL     1      -8.786  13.259  69.337  1.00  0.00     1.124 C  
BRANCH  10  11
HETATM   11  C   UNL     1      -8.872  14.399  70.322  1.00  0.00     1.739 A  
HETATM   12  O   UNL     1      -6.480  14.893  68.417  1.00  0.00    -0.093 OA 
HETATM   13  O   UNL     1      -5.252  14.783  70.630  1.00  0.00    -0.113 OA 
HETATM   14  C   UNL     1     -10.125  14.648  70.918  1.00  0.00     1.471 A  
HETATM   15  C   UNL     1     -10.310  15.753  71.768  1.00  0.00     1.798 A  
HETATM   16  O   UNL     1      -5.958  16.922  69.680  1.00  0.00    -0.198 OA 
HETATM   17  C   UNL     1      -9.242  16.551  72.161  1.00  0.00    10.082 A  
HETATM   18  S   UNL     1      -6.276  15.341  69.775  1.00  0.00    -0.164 S  
HETATM   19  S   UNL     1     -11.962  16.262  72.164  1.00  0.00    -0.403 S  
HETATM   20  C   UNL     1      -7.992  16.300  71.616  1.00  0.00     7.735 A  
HETATM   21  O   UNL     1     -12.564  15.043  73.025  1.00  0.00    -0.375 OA 
HETATM   22  O   UNL     1     -11.890  17.384  73.075  1.00  0.00     0.280 OA 
HETATM   23  O   UNL     1     -12.679  16.337  70.909  1.00  0.00    -0.067 OA 
HETATM   24  C   UNL     1      -7.818  15.276  70.659  1.00  0.00     1.469 A  
ENDBRANCH  10  11
BRANCH  10  25
HETATM   25  C   UNL     1      -7.705  12.418  69.351  1.00  0.00     0.586 A  
HETATM   26  C   UNL     1      -6.842  12.250  70.524  1.00  0.00     1.550 A  
HETATM   27  C   UNL     1      -7.242  11.716  68.146  1.00  0.00    -0.085 A  
HETATM   28  C   UNL     1      -6.472  10.618  68.237  1.00  0.00    -0.058 A  
HETATM   29  C   UNL     1      -6.036  11.182  70.648  1.00  0.00    -0.019 A  
HETATM   30  C   UNL     1      -6.030  10.118  69.585  1.00  0.00    -0.044 A  
BRANCH  30  31
HETATM   31  N   UNL     1      -5.667   8.882  69.808  1.00  0.00    -0.029 NA 
BRANCH  31  32
HETATM   32  C   UNL     1      -5.308   8.366  71.192  1.00  0.00    -0.032 C  
HETATM   33  C   UNL     1      -6.500   8.401  72.128  1.00  0.00    -0.074 C  
ENDBRANCH  31  32
BRANCH  31  34
HETATM   34  C   UNL     1      -5.786   7.796  68.756  1.00  0.00    -0.027 C  
HETATM   35  C   UNL     1      -6.666   8.247  67.606  1.00  0.00    -0.062 C  
ENDBRANCH  31  34
ENDBRANCH  30  31
ENDBRANCH  10  25
ENDBRANCH   9  10
ENDBRANCH   3   4
BRANCH   3  36
HETATM   36  C   UNL     1     -13.190  13.552  64.208  1.00  0.00     1.025 C  
HETATM   37  C   UNL     1     -12.670  14.982  64.184  1.00  0.00     0.359 C  
ENDBRANCH   3  36
ENDBRANCH   2   3
TORSDOF 9
ENDMDL
MODEL      160
REMARK 921   NORMALIZED FREE ENERGY PREDICTED BY IDOCK:   22.13 KCAL/MOL
REMARK 922        TOTAL FREE ENERGY PREDICTED BY IDOCK:   31.45 KCAL/MOL
REMARK 923 INTER-LIGAND FREE ENERGY PREDICTED BY IDOCK:   19.23 KCAL/MOL
REMARK 924 INTRA-LIGAND FREE ENERGY PREDICTED BY IDOCK:   12.22 KCAL/MOL
REMARK 927      BINDING AFFINITY PREDICTED BY RF-SCORE:    0.00 PKD
ROOT
HETATM    1  C   UNL     1     -11.032   4.636  69.530  1.00  0.00     1.806 C  
HETATM    2  C   UNL     1      -9.759   4.408  70.330  1.00  0.00    -0.214 C  
ENDROOT
BRANCH   2   3
HETATM    3  N   UNL     1      -8.584   4.948  69.626  1.00  0.00    -0.082 NA 
BRANCH   3   4
HETATM    4  C   UNL     1      -8.707   6.154  68.943  1.00  0.00    -0.123 A  
HETATM    5  C   UNL     1      -9.914   6.626  68.410  1.00  0.00    -0.146 A  
HETATM    6  C   UNL     1      -7.600   7.002  68.776  1.00  0.00    -0.105 A  
HETATM    7  C   UNL     1     -10.028   7.927  67.869  1.00  0.00    -0.220 A  
HETATM    8  C   UNL     1      -7.696   8.294  68.223  1.00  0.00    -0.106 A  
HETATM    9  C   UNL     1      -8.930   8.797  67.815  1.00  0.00    -0.140 A  
BRANCH   9  10
HETATM   10  C   UNL     1      -9.102  10.241  67.419  1.00  0.00    -0.148 C  
BRANCH  10  11
HETATM   11  C   UNL     1      -9.586  10.559  66.027  1.00  0.00    -0.242 A  
HETATM   12  O   UNL     1     -10.351   7.637  66.714  1.00  0.00    -0.297 OA 
HETATM   13  O   UNL     1      -8.862   7.231  64.705  1.00  0.00     0.252 OA 
HETATM   14  C   UNL     1      -9.807  11.915  65.711  1.00  0.00    -0.262 A  
HETATM   15  C   UNL     1     -10.354  12.284  64.468  1.00  0.00    -0.311 A  
HETATM   16  O   UNL     1     -11.289   7.407  64.466  1.00  0.00    11.360 OA 
HETATM   17  C   UNL     1     -10.562  11.349  63.461  1.00  0.00    -0.468 A  
HETATM   18  S   UNL     1     -10.002   7.863  65.330  1.00  0.00     2.040 S  
HETATM   19  S   UNL     1     -10.990  13.928  64.266  1.00  0.00    -0.074 S  
HETATM   20  C   UNL     1     -10.314  10.012  63.738  1.00  0.00     1.037 A  
HETATM   21  O   UNL     1      -9.696  14.878  64.385  1.00  0.00     0.508 OA 
HETATM   22  O   UNL     1     -11.456  14.075  62.905  1.00  0.00     1.154 OA 
HETATM   23  O   UNL     1     -11.849  14.176  65.404  1.00  0.00    -0.338 OA 
HETATM   24  C   UNL     1      -9.891   9.612  65.025  1.00  0.00    -0.071 A  
ENDBRANCH  10  11
BRANCH  10  25
HETATM   25  C   UNL     1      -8.670  11.244  68.244  1.00  0.00    -0.158 A  
HETATM   26  C   UNL     1      -7.688  11.031  69.311  1.00  0.00    -0.071 A  
HETATM   27  C   UNL     1      -9.258  12.592  68.215  1.00  0.00    -0.186 A  
HETATM   28  C   UNL     1      -8.590  13.648  68.708  1.00  0.00     0.063 A  
HETATM   29  C   UNL     1      -7.014  12.060  69.853  1.00  0.00     0.413 A  
HETATM   30  C   UNL     1      -7.241  13.457  69.347  1.00  0.00     0.208 A  
BRANCH  30  31
HETATM   31  N   UNL     1      -6.358  14.415  69.458  1.00  0.00    -0.119 NA 
BRANCH  31  32
HETATM   32  C   UNL     1      -6.305  15.351  70.653  1.00  0.00     0.221 C  
HETATM   33  C   UNL     1      -7.541  15.219  71.522  1.00  0.00     3.403 C  
ENDBRANCH  31  32
BRANCH  31  34
HETATM   34  C   UNL     1      -5.171  14.541  68.522  1.00  0.00    -0.103 C  
HETATM   35  C   UNL     1      -5.463  13.889  67.184  1.00  0.00     0.832 C  
ENDBRANCH  31  34
ENDBRANCH  30  31
ENDBRANCH  10  25
ENDBRANCH   9  10
ENDBRANCH   3   4
BRANCH   3  36
HETATM   36  C   UNL     1      -7.445   4.036  69.466  1.00  0.00    -0.053 C  
HETATM   37  C   UNL     1      -6.809   3.749  70.818  1.00  0.00    -0.033 C  
ENDBRANCH   3  36
ENDBRANCH   2   3
TORSDOF 9
ENDMDL
MODEL      161
REMARK 921   NORMALIZED FREE ENERGY PREDICTED BY IDOCK:   23.11 KCAL/MOL
REMARK 922        TOTAL FREE ENERGY PREDICTED BY IDOCK:   32.95 KCAL/MOL
REMARK 923 INTER-LIGAND FREE ENERGY PREDICTED BY IDOCK:   27.84 KCAL/MOL
REMARK 924 INTRA-LIGAND FREE ENERGY PREDICTED BY IDOCK:    5.11 KCAL/MOL
REMARK 927      BINDING AFFINITY PREDICTED BY RF-SCORE:    0.00 PKD
ROOT
HETATM    1  C   UNL     1      -6.983   6.517  69.241  1.00  0.00    -0.071 C  
HETATM    2  C   UNL     1      -6.641   6.559  70.722  1.00  0.00    -0.053 C  
ENDROOT
BRANCH   2   3
HETATM    3  N   UNL     1      -7.128   7.800  71.346  1.00  0.00    -0.056 NA 
BRANCH   3   4
HETATM    4  C   UNL     1      -7.871   8.691  70.577  1.00  0.00    -0.096 A  
HETATM    5  C   UNL     1      -8.675   9.703  71.118  1.00  0.00     0.498 A  
HETATM    6  C   UNL     1      -7.824   8.642  69.174  1.00  0.00    -0.099 A  
HETATM    7  C   UNL     1      -9.280  10.686  70.302  1.00  0.00     1.091 A  
HETATM    8  C   UNL     1      -8.436   9.604  68.349  1.00  0.00    -0.118 A  
HETATM    9  C   UNL     1      -9.126  10.679  68.909  1.00  0.00    -0.181 A  
BRANCH   9  10
HETATM   10  C   UNL     1      -9.608  11.831  68.068  1.00  0.00    -0.187 C  
BRANCH  10  11
HETATM   11  C   UNL     1      -9.159  11.920  66.630  1.00  0.00    -0.203 A  
HETATM   12  O   UNL     1      -7.905  14.263  68.223  1.00  0.00    -0.123 OA 
HETATM   13  O   UNL     1      -9.257  15.571  66.527  1.00  0.00    -0.245 OA 
HETATM   14  C   UNL     1      -9.174  10.733  65.871  1.00  0.00    -0.214 A  
HETATM   15  C   UNL     1      -8.675  10.713  64.556  1.00  0.00    -0.145 A  
HETATM   16  O   UNL     1      -6.895  15.068  66.145  1.00  0.00     2.063 OA 
HETATM   17  C   UNL     1      -8.285  11.881  63.912  1.00  0.00     1.974 A  
HETATM   18  S   UNL     1      -8.260  14.578  66.858  1.00  0.00     0.076 S  
HETATM   19  S   UNL     1      -8.336   9.149  63.792  1.00  0.00    -0.175 S  
HETATM   20  C   UNL     1      -8.299  13.069  64.629  1.00  0.00     4.597 A  
HETATM   21  O   UNL     1      -9.779   8.453  63.638  1.00  0.00     2.296 OA 
HETATM   22  O   UNL     1      -7.875   9.389  62.441  1.00  0.00    -0.113 OA 
HETATM   23  O   UNL     1      -7.557   8.388  64.745  1.00  0.00    -0.091 OA 
HETATM   24  C   UNL     1      -8.671  13.081  65.991  1.00  0.00     0.626 A  
ENDBRANCH  10  11
BRANCH  10  25
HETATM   25  C   UNL     1     -10.302  12.866  68.637  1.00  0.00    -0.202 A  
HETATM   26  C   UNL     1      -9.820  13.597  69.812  1.00  0.00     1.309 A  
HETATM   27  C   UNL     1     -11.654  13.239  68.197  1.00  0.00    -0.373 A  
HETATM   28  C   UNL     1     -12.153  14.460  68.456  1.00  0.00    -0.278 A  
HETATM   29  C   UNL     1     -10.307  14.809  70.126  1.00  0.00     0.152 A  
HETATM   30  C   UNL     1     -11.347  15.451  69.250  1.00  0.00    -0.315 A  
BRANCH  30  31
HETATM   31  N   UNL     1     -11.537  16.743  69.190  1.00  0.00     0.174 NA 
BRANCH  31  32
HETATM   32  C   UNL     1     -10.826  17.724  70.106  1.00  0.00     1.420 C  
HETATM   33  C   UNL     1      -9.436  17.239  70.472  1.00  0.00     3.124 C  
ENDBRANCH  31  32
BRANCH  31  34
HETATM   34  C   UNL     1     -12.309  17.401  68.062  1.00  0.00     3.113 C  
HETATM   35  C   UNL     1     -13.727  16.869  67.991  1.00  0.00     7.695 C  
ENDBRANCH  31  34
ENDBRANCH  30  31
ENDBRANCH  10  25
ENDBRANCH   9  10
ENDBRANCH   3   4
BRANCH   3  36
HETATM   36  C   UNL     1      -6.559   8.137  72.657  1.00  0.00    -0.084 C  
HETATM   37  C   UNL     1      -6.656   9.636  72.901  1.00  0.00     1.057 C  
ENDBRANCH   3  36
ENDBRANCH   2   3
TORSDOF 9
ENDMDL
MODEL      162
REMARK 921   NORMALIZED FREE ENERGY PREDICTED BY IDOCK:   24.67 KCAL/MOL
REMARK 922        TOTAL FREE ENERGY PREDICTED BY IDOCK:   35.32 KCAL/MOL
REMARK 923 INTER-LIGAND FREE ENERGY PREDICTED BY IDOCK:   33.92 KCAL/MOL
REMARK 924 INTRA-LIGAND FREE ENERGY PREDICTED BY IDOCK:    1.40 KCAL/MOL
REMARK 927      BINDING AFFINITY PREDICTED BY RF-SCORE:    0.00 PKD
ROOT
HETATM    1  C   UNL     1     -13.809  18.453  64.216  1.00  0.00    21.310 C  
HETATM    2  C   UNL     1     -13.526  17.059  64.752  1.00  0.00     8.758 C  
ENDROOT
BRANCH   2   3
HETATM    3  N   UNL     1     -12.085  16.756  64.717  1.00  0.00     0.872 NA 
BRANCH   3   4
HETATM    4  C   UNL     1     -11.615  15.649  65.417  1.00  0.00     0.145 A  
HETATM    5  C   UNL     1     -11.971  14.329  65.115  1.00  0.00    -0.395 A  
HETATM    6  C   UNL     1     -10.704  15.802  66.476  1.00  0.00    -0.283 A  
HETATM    7  C   UNL     1     -11.345  13.228  65.744  1.00  0.00    -0.328 A  
HETATM    8  C   UNL     1     -10.086  14.715  67.123  1.00  0.00    -0.244 A  
HETATM    9  C   UNL     1     -10.356  13.408  66.721  1.00  0.00    -0.263 A  
BRANCH   9  10
HETATM   10  C   UNL     1      -9.560  12.241  67.244  1.00  0.00    -0.187 C  
BRANCH  10  11
HETATM   11  C   UNL     1      -8.164  12.487  67.759  1.00  0.00    -0.166 A  
HETATM   12  O   UNL     1      -7.988  11.196  64.948  1.00  0.00     0.246 OA 
HETATM   13  O   UNL     1      -6.785   9.430  66.307  1.00  0.00    -0.073 OA 
HETATM   14  C   UNL     1      -7.999  13.489  68.735  1.00  0.00    -0.002 A  
HETATM   15  C   UNL     1      -6.717  13.847  69.191  1.00  0.00    -0.113 A  
HETATM   16  O   UNL     1      -5.551  11.198  65.154  1.00  0.00    -0.127 OA 
HETATM   17  C   UNL     1      -5.587  13.134  68.805  1.00  0.00    -0.073 A  
HETATM   18  S   UNL     1      -6.946  10.798  65.864  1.00  0.00    -0.029 S  
HETATM   19  S   UNL     1      -6.518  15.360  70.093  1.00  0.00     0.001 S  
HETATM   20  C   UNL     1      -5.732  12.117  67.873  1.00  0.00    -0.069 A  
HETATM   21  O   UNL     1      -7.332  15.123  71.462  1.00  0.00     1.841 OA 
HETATM   22  O   UNL     1      -5.130  15.484  70.482  1.00  0.00    -0.124 OA 
HETATM   23  O   UNL     1      -7.195  16.385  69.328  1.00  0.00    -0.222 OA 
HETATM   24  C   UNL     1      -6.994  11.836  67.308  1.00  0.00    -0.138 A  
ENDBRANCH  10  11
BRANCH  10  25
HETATM   25  C   UNL     1     -10.027  10.961  67.103  1.00  0.00    -0.221 A  
HETATM   26  C   UNL     1     -10.150  10.298  65.803  1.00  0.00    -0.325 A  
HETATM   27  C   UNL     1     -10.570  10.195  68.234  1.00  0.00    -0.262 A  
HETATM   28  C   UNL     1     -10.642   8.854  68.190  1.00  0.00    -0.211 A  
HETATM   29  C   UNL     1     -10.251   8.961  65.709  1.00  0.00     0.423 A  
HETATM   30  C   UNL     1     -10.209   8.116  66.953  1.00  0.00    -0.316 A  
BRANCH  30  31
HETATM   31  N   UNL     1      -9.843   6.861  66.957  1.00  0.00    -0.163 NA 
BRANCH  31  32
HETATM   32  C   UNL     1      -8.411   6.421  66.705  1.00  0.00    -0.113 C  
HETATM   33  C   UNL     1      -8.047   6.514  65.235  1.00  0.00    -0.133 C  
ENDBRANCH  31  32
BRANCH  31  34
HETATM   34  C   UNL     1     -10.756   5.747  67.431  1.00  0.00    -0.248 C  
HETATM   35  C   UNL     1     -10.147   5.008  68.607  1.00  0.00    -0.191 C  
ENDBRANCH  31  34
ENDBRANCH  30  31
ENDBRANCH  10  25
ENDBRANCH   9  10
ENDBRANCH   3   4
BRANCH   3  36
HETATM   36  C   UNL     1     -11.213  17.805  64.173  1.00  0.00     4.003 C  
HETATM   37  C   UNL     1     -10.117  18.145  65.172  1.00  0.00     1.338 C  
ENDBRANCH   3  36
ENDBRANCH   2   3
TORSDOF 9
ENDMDL
MODEL      163
REMARK 921   NORMALIZED FREE ENERGY PREDICTED BY IDOCK:   27.22 KCAL/MOL
REMARK 922        TOTAL FREE ENERGY PREDICTED BY IDOCK:   39.21 KCAL/MOL
REMARK 923 INTER-LIGAND FREE ENERGY PREDICTED BY IDOCK:   35.37 KCAL/MOL
REMARK 924 INTRA-LIGAND FREE ENERGY PREDICTED BY IDOCK:    3.84 KCAL/MOL
REMARK 927      BINDING AFFINITY PREDICTED BY RF-SCORE:    0.00 PKD
ROOT
HETATM    1  C   UNL     1      -8.263  11.508  64.130  1.00  0.00     1.124 C  
HETATM    2  C   UNL     1      -6.794  11.261  64.436  1.00  0.00     1.491 C  
ENDROOT
BRANCH   2   3
HETATM    3  N   UNL     1      -6.403  11.891  65.709  1.00  0.00     0.858 NA 
BRANCH   3   4
HETATM    4  C   UNL     1      -7.256  11.780  66.803  1.00  0.00    -0.050 A  
HETATM    5  C   UNL     1      -8.647  11.924  66.721  1.00  0.00    -0.181 A  
HETATM    6  C   UNL     1      -6.753  11.475  68.078  1.00  0.00    -0.059 A  
HETATM    7  C   UNL     1      -9.488  11.641  67.822  1.00  0.00    -0.178 A  
HETATM    8  C   UNL     1      -7.578  11.208  69.187  1.00  0.00    -0.098 A  
HETATM    9  C   UNL     1      -8.967  11.230  69.056  1.00  0.00     0.024 A  
BRANCH   9  10
HETATM   10  C   UNL     1      -9.871  10.747  70.160  1.00  0.00     0.707 C  
BRANCH  10  11
HETATM   11  C   UNL     1     -10.070   9.262  70.339  1.00  0.00    -0.287 A  
HETATM   12  O   UNL     1     -10.187   9.937  67.317  1.00  0.00    -0.195 OA 
HETATM   13  O   UNL     1     -12.509   8.975  67.633  1.00  0.00     5.091 OA 
HETATM   14  C   UNL     1      -9.561   8.676  71.515  1.00  0.00    -0.327 A  
HETATM   15  C   UNL     1      -9.617   7.284  71.708  1.00  0.00    -0.150 A  
HETATM   16  O   UNL     1     -10.655   7.579  66.860  1.00  0.00    -0.332 OA 
HETATM   17  C   UNL     1     -10.297   6.457  70.821  1.00  0.00    -0.244 A  
HETATM   18  S   UNL     1     -11.070   8.873  67.736  1.00  0.00     0.541 S  
HETATM   19  S   UNL     1      -8.621   6.554  72.981  1.00  0.00    -0.117 S  
HETATM   20  C   UNL     1     -10.839   7.019  69.675  1.00  0.00    -0.275 A  
HETATM   21  O   UNL     1      -9.234   7.131  74.353  1.00  0.00    -0.220 OA 
HETATM   22  O   UNL     1      -8.881   5.131  73.007  1.00  0.00    -0.120 OA 
HETATM   23  O   UNL     1      -7.287   7.088  72.813  1.00  0.00    -0.077 OA 
HETATM   24  C   UNL     1     -10.675   8.395  69.403  1.00  0.00    -0.152 A  
ENDBRANCH  10  11
BRANCH  10  25
HETATM   25  C   UNL     1     -10.627  11.634  70.878  1.00  0.00     3.477 A  
HETATM   26  C   UNL     1     -10.060  12.517  71.902  1.00  0.00    13.799 A  
HETATM   27  C   UNL     1     -12.093  11.678  70.778  1.00  0.00    -0.383 A  
HETATM   28  C   UNL     1     -12.779  12.772  71.148  1.00  0.00    -0.355 A  
HETATM   29  C   UNL     1     -10.721  13.608  72.323  1.00  0.00     6.270 A  
HETATM   30  C   UNL     1     -12.054  13.958  71.723  1.00  0.00     0.165 A  
BRANCH  30  31
HETATM   31  N   UNL     1     -12.541  15.172  71.710  1.00  0.00    -0.323 NA 
BRANCH  31  32
HETATM   32  C   UNL     1     -12.105  16.221  70.701  1.00  0.00     0.133 C  
HETATM   33  C   UNL     1     -10.780  15.863  70.058  1.00  0.00    -0.343 C  
ENDBRANCH  31  32
BRANCH  31  34
HETATM   34  C   UNL     1     -13.738  15.579  72.547  1.00  0.00    -0.574 C  
HETATM   35  C   UNL     1     -13.310  16.415  73.738  1.00  0.00     0.052 C  
ENDBRANCH  31  34
ENDBRANCH  30  31
ENDBRANCH  10  25
ENDBRANCH   9  10
ENDBRANCH   3   4
BRANCH   3  36
HETATM   36  C   UNL     1      -5.272  12.826  65.652  1.00  0.00     4.634 C  
HETATM   37  C   UNL     1      -5.386  13.854  66.767  1.00  0.00     2.048 C  
ENDBRANCH   3  36
ENDBRANCH   2   3
TORSDOF 9
ENDMDL
MODEL      164
REMARK 921   NORMALIZED FREE ENERGY PREDICTED BY IDOCK:   28.98 KCAL/MOL
REMARK 922        TOTAL FREE ENERGY PREDICTED BY IDOCK:   41.90 KCAL/MOL
REMARK 923 INTER-LIGAND FREE ENERGY PREDICTED BY IDOCK:   34.64 KCAL/MOL
REMARK 924 INTRA-LIGAND FREE ENERGY PREDICTED BY IDOCK:    7.26 KCAL/MOL
REMARK 927      BINDING AFFINITY PREDICTED BY RF-SCORE:    0.00 PKD
ROOT
HETATM    1  C   UNL     1      -6.462  20.253  66.167  1.00  0.00    -0.241 C  
HETATM    2  C   UNL     1      -7.646  20.919  65.484  1.00  0.00     0.589 C  
ENDROOT
BRANCH   2   3
HETATM    3  N   UNL     1      -8.426  19.945  64.701  1.00  0.00     1.669 NA 
BRANCH   3   4
HETATM    4  C   UNL     1      -8.827  18.760  65.312  1.00  0.00     1.894 A  
HETATM    5  C   UNL     1      -7.959  17.695  65.585  1.00  0.00     0.378 A  
HETATM    6  C   UNL     1     -10.156  18.580  65.728  1.00  0.00    -0.021 A  
HETATM    7  C   UNL     1      -8.371  16.580  66.352  1.00  0.00    -0.358 A  
HETATM    8  C   UNL     1     -10.584  17.467  66.477  1.00  0.00    -0.191 A  
HETATM    9  C   UNL     1      -9.676  16.477  66.851  1.00  0.00    -0.259 A  
BRANCH   9  10
HETATM   10  C   UNL     1     -10.052  15.390  67.824  1.00  0.00    -0.227 C  
BRANCH  10  11
HETATM   11  C   UNL     1     -10.363  14.013  67.291  1.00  0.00    -0.264 A  
HETATM   12  O   UNL     1      -8.227  15.336  65.478  1.00  0.00     1.727 OA 
HETATM   13  O   UNL     1     -10.078  14.997  63.783  1.00  0.00     1.980 OA 
HETATM   14  C   UNL     1     -10.887  13.069  68.197  1.00  0.00    -0.267 A  
HETATM   15  C   UNL     1     -11.107  11.737  67.801  1.00  0.00    -0.243 A  
HETATM   16  O   UNL     1      -8.287  13.354  64.046  1.00  0.00     5.377 OA 
HETATM   17  C   UNL     1     -10.954  11.340  66.477  1.00  0.00    -0.303 A  
HETATM   18  S   UNL     1      -9.169  14.488  64.785  1.00  0.00     2.933 S  
HETATM   19  S   UNL     1     -11.371  10.505  69.049  1.00  0.00    -0.240 S  
HETATM   20  C   UNL     1     -10.476  12.265  65.560  1.00  0.00    -0.296 A  
HETATM   21  O   UNL     1     -12.772  10.914  69.729  1.00  0.00    -0.205 OA 
HETATM   22  O   UNL     1     -11.611   9.236  68.396  1.00  0.00     0.480 OA 
HETATM   23  O   UNL     1     -10.317  10.679  70.025  1.00  0.00    -0.143 OA 
HETATM   24  C   UNL     1     -10.124  13.569  65.972  1.00  0.00    -0.310 A  
ENDBRANCH  10  11
BRANCH  10  25
HETATM   25  C   UNL     1     -10.270  15.682  69.144  1.00  0.00    -0.233 A  
HETATM   26  C   UNL     1     -10.961  16.896  69.587  1.00  0.00    -0.007 A  
HETATM   27  C   UNL     1      -9.708  14.867  70.231  1.00  0.00     0.527 A  
HETATM   28  C   UNL     1     -10.236  14.903  71.466  1.00  0.00     1.757 A  
HETATM   29  C   UNL     1     -11.482  16.989  70.822  1.00  0.00     0.979 A  
HETATM   30  C   UNL     1     -11.387  15.823  71.768  1.00  0.00    -0.308 A  
BRANCH  30  31
HETATM   31  N   UNL     1     -12.217  15.632  72.760  1.00  0.00    -0.407 NA 
BRANCH  31  32
HETATM   32  C   UNL     1     -13.482  14.802  72.626  1.00  0.00    -0.471 C  
HETATM   33  C   UNL     1     -14.199  15.081  71.318  1.00  0.00    -0.508 C  
ENDBRANCH  31  32
BRANCH  31  34
HETATM   34  C   UNL     1     -11.887  16.030  74.186  1.00  0.00     0.030 C  
HETATM   35  C   UNL     1     -11.546  17.505  74.274  1.00  0.00     0.470 C  
ENDBRANCH  31  34
ENDBRANCH  30  31
ENDBRANCH  10  25
ENDBRANCH   9  10
ENDBRANCH   3   4
BRANCH   3  36
HETATM   36  C   UNL     1      -8.485  20.173  63.251  1.00  0.00     8.365 C  
HETATM   37  C   UNL     1      -7.546  19.216  62.533  1.00  0.00    10.990 C  
ENDBRANCH   3  36
ENDBRANCH   2   3
TORSDOF 9
ENDMDL
MODEL      165
REMARK 921   NORMALIZED FREE ENERGY PREDICTED BY IDOCK:   29.96 KCAL/MOL
REMARK 922        TOTAL FREE ENERGY PREDICTED BY IDOCK:   43.40 KCAL/MOL
REMARK 923 INTER-LIGAND FREE ENERGY PREDICTED BY IDOCK:   21.61 KCAL/MOL
REMARK 924 INTRA-LIGAND FREE ENERGY PREDICTED BY IDOCK:   21.79 KCAL/MOL
REMARK 927      BINDING AFFINITY PREDICTED BY RF-SCORE:    0.00 PKD
ROOT
HETATM    1  C   UNL     1      -8.320  16.916  71.276  1.00  0.00     7.754 C  
HETATM    2  C   UNL     1      -6.831  16.902  71.581  1.00  0.00     5.098 C  
ENDROOT
BRANCH   2   3
HETATM    3  N   UNL     1      -6.371  15.547  71.930  1.00  0.00     1.518 NA 
BRANCH   3   4
HETATM    4  C   UNL     1      -6.937  14.458  71.273  1.00  0.00     1.466 A  
HETATM    5  C   UNL     1      -8.040  14.554  70.415  1.00  0.00     1.433 A  
HETATM    6  C   UNL     1      -6.393  13.171  71.416  1.00  0.00     1.468 A  
HETATM    7  C   UNL     1      -8.478  13.453  69.643  1.00  0.00     1.564 A  
HETATM    8  C   UNL     1      -6.830  12.062  70.667  1.00  0.00     1.808 A  
HETATM    9  C   UNL     1      -7.846  12.205  69.721  1.00  0.00     1.399 A  
BRANCH   9  10
HETATM   10  C   UNL     1      -8.191  11.098  68.761  1.00  0.00    -0.135 C  
BRANCH  10  11
HETATM   11  C   UNL     1      -8.777  11.457  67.418  1.00  0.00    -0.145 A  
HETATM   12  O   UNL     1      -9.621   8.566  68.145  1.00  0.00    -0.140 OA 
HETATM   13  O   UNL     1      -8.333   8.114  66.011  1.00  0.00    -0.116 OA 
HETATM   14  C   UNL     1      -8.959  12.825  67.134  1.00  0.00    -0.214 A  
HETATM   15  C   UNL     1      -9.592  13.236  65.947  1.00  0.00    -0.106 A  
HETATM   16  O   UNL     1     -10.760   8.409  65.985  1.00  0.00     0.805 OA 
HETATM   17  C   UNL     1      -9.932  12.324  64.954  1.00  0.00    -0.219 A  
HETATM   18  S   UNL     1      -9.383   8.793  66.738  1.00  0.00    -0.194 S  
HETATM   19  S   UNL     1     -10.162  14.910  65.815  1.00  0.00    -0.362 S  
HETATM   20  C   UNL     1      -9.726  10.974  65.197  1.00  0.00    -0.302 A  
HETATM   21  O   UNL     1      -8.818  15.795  65.829  1.00  0.00    -0.227 OA 
HETATM   22  O   UNL     1     -10.737  15.096  64.500  1.00  0.00    -0.284 OA 
HETATM   23  O   UNL     1     -10.907  15.185  67.024  1.00  0.00    -0.303 OA 
HETATM   24  C   UNL     1      -9.214  10.538  66.438  1.00  0.00    -0.166 A  
ENDBRANCH  10  11
BRANCH  10  25
HETATM   25  C   UNL     1      -8.131   9.788  69.158  1.00  0.00    -0.107 A  
HETATM   26  C   UNL     1      -8.855   8.715  68.472  1.00  0.00    -0.142 A  
HETATM   27  C   UNL     1      -7.441   9.372  70.387  1.00  0.00    -0.141 A  
HETATM   28  C   UNL     1      -7.040   8.101  70.559  1.00  0.00    -0.041 A  
HETATM   29  C   UNL     1      -8.508   7.427  68.633  1.00  0.00    -0.129 A  
HETATM   30  C   UNL     1      -7.338   7.068  69.507  1.00  0.00    -0.094 A  
BRANCH  30  31
HETATM   31  N   UNL     1      -6.652   5.963  69.372  1.00  0.00    -0.045 NA 
BRANCH  31  32
HETATM   32  C   UNL     1      -7.248   4.589  69.627  1.00  0.00    -0.051 C  
HETATM   33  C   UNL     1      -8.398   4.652  70.614  1.00  0.00    -0.096 C  
ENDBRANCH  31  32
BRANCH  31  34
HETATM   34  C   UNL     1      -5.275   5.931  68.737  1.00  0.00    -0.004 C  
HETATM   35  C   UNL     1      -5.331   5.326  67.347  1.00  0.00    -0.012 C  
ENDBRANCH  31  34
ENDBRANCH  30  31
ENDBRANCH  10  25
ENDBRANCH   9  10
ENDBRANCH   3   4
BRANCH   3  36
HETATM   36  C   UNL     1      -5.551  15.429  73.142  1.00  0.00     0.924 C  
HETATM   37  C   UNL     1      -5.962  14.198  73.935  1.00  0.00     0.144 C  
ENDBRANCH   3  36
ENDBRANCH   2   3
TORSDOF 9
ENDMDL
MODEL      166
REMARK 921   NORMALIZED FREE ENERGY PREDICTED BY IDOCK:   36.50 KCAL/MOL
REMARK 922        TOTAL FREE ENERGY PREDICTED BY IDOCK:   53.38 KCAL/MOL
REMARK 923 INTER-LIGAND FREE ENERGY PREDICTED BY IDOCK:   52.47 KCAL/MOL
REMARK 924 INTRA-LIGAND FREE ENERGY PREDICTED BY IDOCK:    0.90 KCAL/MOL
REMARK 927      BINDING AFFINITY PREDICTED BY RF-SCORE:    0.00 PKD
ROOT
HETATM    1  C   UNL     1     -13.871  18.569  64.174  1.00  0.00    22.762 C  
HETATM    2  C   UNL     1     -13.655  17.111  64.548  1.00  0.00     9.710 C  
ENDROOT
BRANCH   2   3
HETATM    3  N   UNL     1     -12.233  16.740  64.451  1.00  0.00     0.596 NA 
BRANCH   3   4
HETATM    4  C   UNL     1     -11.654  16.028  65.497  1.00  0.00     0.451 A  
HETATM    5  C   UNL     1     -11.982  14.703  65.812  1.00  0.00    -0.236 A  
HETATM    6  C   UNL     1     -10.654  16.609  66.294  1.00  0.00    -0.205 A  
HETATM    7  C   UNL     1     -11.254  13.966  66.774  1.00  0.00    -0.328 A  
HETATM    8  C   UNL     1      -9.933  15.892  67.268  1.00  0.00    -0.240 A  
HETATM    9  C   UNL     1     -10.186  14.537  67.479  1.00  0.00    -0.232 A  
BRANCH   9  10
HETATM   10  C   UNL     1      -9.296  13.696  68.356  1.00  0.00    -0.181 C  
BRANCH  10  11
HETATM   11  C   UNL     1      -7.919  14.207  68.698  1.00  0.00    -0.132 A  
HETATM   12  O   UNL     1      -7.680  12.117  66.424  1.00  0.00     0.139 OA 
HETATM   13  O   UNL     1      -6.285  10.976  68.204  1.00  0.00    -0.049 OA 
HETATM   14  C   UNL     1      -7.830  15.477  69.304  1.00  0.00    -0.227 A  
HETATM   15  C   UNL     1      -6.578  16.066  69.560  1.00  0.00    -0.201 A  
HETATM   16  O   UNL     1      -5.250  12.389  66.498  1.00  0.00    -0.266 OA 
HETATM   17  C   UNL     1      -5.394  15.366  69.360  1.00  0.00    -0.093 A  
HETATM   18  S   UNL     1      -6.585  12.116  67.366  1.00  0.00    -0.153 S  
HETATM   19  S   UNL     1      -6.507  17.798  69.935  1.00  0.00     0.206 S  
HETATM   20  C   UNL     1      -5.461  14.098  68.800  1.00  0.00    -0.083 A  
HETATM   21  O   UNL     1      -7.265  17.936  71.349  1.00  0.00     4.514 OA 
HETATM   22  O   UNL     1      -5.129  18.153  70.197  1.00  0.00    -0.191 OA 
HETATM   23  O   UNL     1      -7.295  18.468  68.923  1.00  0.00    -0.290 OA 
HETATM   24  C   UNL     1      -6.702  13.548  68.415  1.00  0.00    -0.097 A  
ENDBRANCH  10  11
BRANCH  10  25
HETATM   25  C   UNL     1      -9.662  12.421  68.699  1.00  0.00    -0.064 A  
HETATM   26  C   UNL     1      -9.742  11.327  67.727  1.00  0.00    -0.184 A  
HETATM   27  C   UNL     1     -10.134  12.077  70.048  1.00  0.00     1.989 A  
HETATM   28  C   UNL     1     -10.101  10.808  70.489  1.00  0.00     1.200 A  
HETATM   29  C   UNL     1      -9.739  10.043  68.122  1.00  0.00    -0.156 A  
HETATM   30  C   UNL     1      -9.622   9.707  69.584  1.00  0.00    -0.208 A  
BRANCH  30  31
HETATM   31  N   UNL     1      -9.158   8.566  70.024  1.00  0.00    -0.145 NA 
BRANCH  31  32
HETATM   32  C   UNL     1      -7.764   8.416  70.610  1.00  0.00    -0.083 C  
HETATM   33  C   UNL     1      -6.748   8.044  69.548  1.00  0.00    -0.038 C  
ENDBRANCH  31  32
BRANCH  31  34
HETATM   34  C   UNL     1     -10.036   7.342  70.198  1.00  0.00    -0.197 C  
HETATM   35  C   UNL     1     -11.405   7.727  70.727  1.00  0.00    -0.291 C  
ENDBRANCH  31  34
ENDBRANCH  30  31
ENDBRANCH  10  25
ENDBRANCH   9  10
ENDBRANCH   3   4
BRANCH   3  36
HETATM   36  C   UNL     1     -11.462  17.391  63.384  1.00  0.00     7.529 C  
HETATM   37  C   UNL     1     -10.222  18.054  63.965  1.00  0.00     7.947 C  
ENDBRANCH   3  36
ENDBRANCH   2   3
TORSDOF 9
ENDMDL
MODEL      167
REMARK 921   NORMALIZED FREE ENERGY PREDICTED BY IDOCK:   36.79 KCAL/MOL
REMARK 922        TOTAL FREE ENERGY PREDICTED BY IDOCK:   53.82 KCAL/MOL
REMARK 923 INTER-LIGAND FREE ENERGY PREDICTED BY IDOCK:   36.12 KCAL/MOL
REMARK 924 INTRA-LIGAND FREE ENERGY PREDICTED BY IDOCK:   17.70 KCAL/MOL
REMARK 927      BINDING AFFINITY PREDICTED BY RF-SCORE:    0.00 PKD
ROOT
HETATM    1  C   UNL     1     -10.955  16.276  68.272  1.00  0.00    -0.348 C  
HETATM    2  C   UNL     1     -10.831  16.263  69.788  1.00  0.00    -0.356 C  
ENDROOT
BRANCH   2   3
HETATM    3  N   UNL     1      -9.540  15.696  70.212  1.00  0.00     0.204 NA 
BRANCH   3   4
HETATM    4  C   UNL     1      -9.282  14.352  69.958  1.00  0.00     1.162 A  
HETATM    5  C   UNL     1      -8.828  13.451  70.929  1.00  0.00     7.855 A  
HETATM    6  C   UNL     1      -9.502  13.806  68.683  1.00  0.00    -0.099 A  
HETATM    7  C   UNL     1      -8.736  12.064  70.670  1.00  0.00     6.933 A  
HETATM    8  C   UNL     1      -9.397  12.430  68.406  1.00  0.00    -0.158 A  
HETATM    9  C   UNL     1      -9.069  11.529  69.418  1.00  0.00     0.623 A  
BRANCH   9  10
HETATM   10  C   UNL     1      -9.154  10.040  69.207  1.00  0.00    -0.208 C  
BRANCH  10  11
HETATM   11  C   UNL     1      -9.874   9.519  67.988  1.00  0.00    -0.181 A  
HETATM   12  O   UNL     1     -10.127  12.606  68.064  1.00  0.00    -0.215 OA 
HETATM   13  O   UNL     1     -12.576  11.971  68.185  1.00  0.00     0.166 OA 
HETATM   14  C   UNL     1      -9.474   8.265  67.484  1.00  0.00    -0.182 A  
HETATM   15  C   UNL     1     -10.027   7.758  66.294  1.00  0.00     0.024 A  
HETATM   16  O   UNL     1     -11.508  12.492  66.048  1.00  0.00    -0.336 OA 
HETATM   17  C   UNL     1     -11.080   8.401  65.653  1.00  0.00     4.560 A  
HETATM   18  S   UNL     1     -11.283  11.915  67.540  1.00  0.00    -0.317 S  
HETATM   19  S   UNL     1      -9.221   6.400  65.486  1.00  0.00     0.354 S  
HETATM   20  C   UNL     1     -11.516   9.618  66.155  1.00  0.00     2.445 A  
HETATM   21  O   UNL     1      -9.383   5.169  66.510  1.00  0.00    -0.130 OA 
HETATM   22  O   UNL     1      -9.994   6.038  64.318  1.00  0.00     2.053 OA 
HETATM   23  O   UNL     1      -7.819   6.748  65.402  1.00  0.00    -0.100 OA 
HETATM   24  C   UNL     1     -10.881  10.203  67.272  1.00  0.00    -0.230 A  
ENDBRANCH  10  11
BRANCH  10  25
HETATM   25  C   UNL     1      -8.736   9.174  70.182  1.00  0.00    -0.196 A  
HETATM   26  C   UNL     1      -9.563   8.816  71.337  1.00  0.00    -0.337 A  
HETATM   27  C   UNL     1      -7.368   8.636  70.219  1.00  0.00    -0.054 A  
HETATM   28  C   UNL     1      -7.084   7.514  70.902  1.00  0.00    -0.059 A  
HETATM   29  C   UNL     1      -9.302   7.718  72.067  1.00  0.00    -0.199 A  
HETATM   30  C   UNL     1      -8.162   6.815  71.685  1.00  0.00    -0.110 A  
BRANCH  30  31
HETATM   31  N   UNL     1      -8.107   5.550  72.009  1.00  0.00    -0.113 NA 
BRANCH  31  32
HETATM   32  C   UNL     1      -6.942   4.652  71.626  1.00  0.00    -0.047 C  
HETATM   33  C   UNL     1      -6.425   4.969  70.236  1.00  0.00    -0.031 C  
ENDBRANCH  31  32
BRANCH  31  34
HETATM   34  C   UNL     1      -9.083   4.915  72.980  1.00  0.00    -0.117 C  
HETATM   35  C   UNL     1      -8.351   4.132  74.053  1.00  0.00    -0.095 C  
ENDBRANCH  31  34
ENDBRANCH  30  31
ENDBRANCH  10  25
ENDBRANCH   9  10
ENDBRANCH   3   4
BRANCH   3  36
HETATM   36  C   UNL     1      -8.733  16.521  71.120  1.00  0.00     5.927 C  
HETATM   37  C   UNL     1      -9.506  17.770  71.518  1.00  0.00     8.034 C  
ENDBRANCH   3  36
ENDBRANCH   2   3
TORSDOF 9
ENDMDL
MODEL      168
REMARK 921   NORMALIZED FREE ENERGY PREDICTED BY IDOCK:   41.58 KCAL/MOL
REMARK 922        TOTAL FREE ENERGY PREDICTED BY IDOCK:   61.13 KCAL/MOL
REMARK 923 INTER-LIGAND FREE ENERGY PREDICTED BY IDOCK:   59.76 KCAL/MOL
REMARK 924 INTRA-LIGAND FREE ENERGY PREDICTED BY IDOCK:    1.38 KCAL/MOL
REMARK 927      BINDING AFFINITY PREDICTED BY RF-SCORE:    0.00 PKD
ROOT
HETATM    1  C   UNL     1     -11.012  17.748  64.872  1.00  0.00     1.029 C  
HETATM    2  C   UNL     1     -11.543  18.433  66.121  1.00  0.00     2.127 C  
ENDROOT
BRANCH   2   3
HETATM    3  N   UNL     1     -12.199  17.468  67.020  1.00  0.00     3.222 NA 
BRANCH   3   4
HETATM    4  C   UNL     1     -11.583  16.242  67.251  1.00  0.00     0.461 A  
HETATM    5  C   UNL     1     -10.428  16.086  68.027  1.00  0.00    -0.275 A  
HETATM    6  C   UNL     1     -12.125  15.056  66.729  1.00  0.00     0.125 A  
HETATM    7  C   UNL     1      -9.931  14.807  68.371  1.00  0.00    -0.223 A  
HETATM    8  C   UNL     1     -11.630  13.777  67.049  1.00  0.00    -0.391 A  
HETATM    9  C   UNL     1     -10.557  13.635  67.927  1.00  0.00    -0.255 A  
BRANCH   9  10
HETATM   10  C   UNL     1     -10.141  12.286  68.452  1.00  0.00    -0.215 C  
BRANCH  10  11
HETATM   11  C   UNL     1      -9.467  11.317  67.513  1.00  0.00    -0.177 A  
HETATM   12  O   UNL     1      -7.561  13.702  68.037  1.00  0.00    -0.110 OA 
HETATM   13  O   UNL     1      -7.847  13.924  65.530  1.00  0.00     3.486 OA 
HETATM   14  C   UNL     1      -9.901   9.976  67.542  1.00  0.00    -0.211 A  
HETATM   15  C   UNL     1      -9.254   8.994  66.770  1.00  0.00    -0.157 A  
HETATM   16  O   UNL     1      -5.959  12.698  66.484  1.00  0.00     0.188 OA 
HETATM   17  C   UNL     1      -8.266   9.328  65.852  1.00  0.00    -0.116 A  
HETATM   18  S   UNL     1      -7.493  13.154  66.702  1.00  0.00     1.232 S  
HETATM   19  S   UNL     1      -9.552   7.284  67.135  1.00  0.00    -0.171 S  
HETATM   20  C   UNL     1      -7.850  10.650  65.779  1.00  0.00    -0.141 A  
HETATM   21  O   UNL     1     -11.105   7.060  66.773  1.00  0.00    -0.289 OA 
HETATM   22  O   UNL     1      -8.812   6.477  66.189  1.00  0.00    -0.146 OA 
HETATM   23  O   UNL     1      -9.387   7.136  68.565  1.00  0.00    -0.138 OA 
HETATM   24  C   UNL     1      -8.398  11.623  66.642  1.00  0.00    -0.154 A  
ENDBRANCH  10  11
BRANCH  10  25
HETATM   25  C   UNL     1     -10.514  11.882  69.706  1.00  0.00     0.692 A  
HETATM   26  C   UNL     1     -10.914  12.820  70.759  1.00  0.00     2.542 A  
HETATM   27  C   UNL     1     -10.415  10.481  70.142  1.00  0.00    -0.084 A  
HETATM   28  C   UNL     1     -11.135  10.027  71.181  1.00  0.00    -0.270 A  
HETATM   29  C   UNL     1     -11.612  12.408  71.831  1.00  0.00     3.421 A  
HETATM   30  C   UNL     1     -12.022  10.967  71.952  1.00  0.00     0.889 A  
BRANCH  30  31
HETATM   31  N   UNL     1     -13.044  10.567  72.663  1.00  0.00     0.305 NA 
BRANCH  31  32
HETATM   32  C   UNL     1     -13.240  10.962  74.116  1.00  0.00    13.113 C  
HETATM   33  C   UNL     1     -13.334  12.467  74.279  1.00  0.00    12.315 C  
ENDBRANCH  31  32
BRANCH  31  34
HETATM   34  C   UNL     1     -14.239   9.863  72.048  1.00  0.00     0.281 C  
HETATM   35  C   UNL     1     -13.802   8.652  71.246  1.00  0.00    -0.217 C  
ENDBRANCH  31  34
ENDBRANCH  30  31
ENDBRANCH  10  25
ENDBRANCH   9  10
ENDBRANCH   3   4
BRANCH   3  36
HETATM   36  C   UNL     1     -13.590  17.761  67.386  1.00  0.00     9.709 C  
HETATM   37  C   UNL     1     -14.057  16.807  68.475  1.00  0.00     8.362 C  
ENDBRANCH   3  36
ENDBRANCH   2   3
TORSDOF 9
ENDMDL
MODEL      169
REMARK 921   NORMALIZED FREE ENERGY PREDICTED BY IDOCK:   42.13 KCAL/MOL
REMARK 922        TOTAL FREE ENERGY PREDICTED BY IDOCK:   61.96 KCAL/MOL
REMARK 923 INTER-LIGAND FREE ENERGY PREDICTED BY IDOCK:   49.12 KCAL/MOL
REMARK 924 INTRA-LIGAND FREE ENERGY PREDICTED BY IDOCK:   12.84 KCAL/MOL
REMARK 927      BINDING AFFINITY PREDICTED BY RF-SCORE:    0.00 PKD
ROOT
HETATM    1  C   UNL     1      -5.775  17.847  66.680  1.00  0.00    -0.198 C  
HETATM    2  C   UNL     1      -6.758  18.771  65.978  1.00  0.00    -0.243 C  
ENDROOT
BRANCH   2   3
HETATM    3  N   UNL     1      -8.127  18.575  66.483  1.00  0.00    -0.272 NA 
BRANCH   3   4
HETATM    4  C   UNL     1      -8.452  17.365  67.088  1.00  0.00    -0.211 A  
HETATM    5  C   UNL     1      -9.263  16.390  66.492  1.00  0.00    -0.306 A  
HETATM    6  C   UNL     1      -7.940  17.033  68.353  1.00  0.00    -0.239 A  
HETATM    7  C   UNL     1      -9.433  15.111  67.070  1.00  0.00    -0.237 A  
HETATM    8  C   UNL     1      -8.116  15.770  68.948  1.00  0.00    -0.207 A  
HETATM    9  C   UNL     1      -8.819  14.767  68.282  1.00  0.00    -0.179 A  
BRANCH   9  10
HETATM   10  C   UNL     1      -8.845  13.350  68.791  1.00  0.00     0.122 C  
BRANCH  10  11
HETATM   11  C   UNL     1      -8.253  12.258  67.934  1.00  0.00    -0.161 A  
HETATM   12  O   UNL     1      -9.944  10.965  70.185  1.00  0.00     0.409 OA 
HETATM   13  O   UNL     1      -7.675   9.982  70.733  1.00  0.00    -0.233 OA 
HETATM   14  C   UNL     1      -7.897  12.593  66.612  1.00  0.00     0.303 A  
HETATM   15  C   UNL     1      -7.433  11.608  65.721  1.00  0.00     0.739 A  
HETATM   16  O   UNL     1      -9.280   8.763  69.349  1.00  0.00    -0.144 OA 
HETATM   17  C   UNL     1      -7.175  10.309  66.146  1.00  0.00    -0.121 A  
HETATM   18  S   UNL     1      -8.762  10.223  69.811  1.00  0.00     0.066 S  
HETATM   19  S   UNL     1      -7.387  11.975  63.986  1.00  0.00     5.004 S  
HETATM   20  C   UNL     1      -7.482   9.969  67.456  1.00  0.00    -0.090 A  
HETATM   21  O   UNL     1      -6.278  13.134  63.849  1.00  0.00    11.930 OA 
HETATM   22  O   UNL     1      -6.841  10.830  63.290  1.00  0.00     0.055 OA 
HETATM   23  O   UNL     1      -8.680  12.532  63.652  1.00  0.00     1.251 OA 
HETATM   24  C   UNL     1      -8.073  10.913  68.324  1.00  0.00    -0.124 A  
ENDBRANCH  10  11
BRANCH  10  25
HETATM   25  C   UNL     1      -9.538  13.031  69.928  1.00  0.00     2.534 A  
HETATM   26  C   UNL     1      -9.324  13.713  71.208  1.00  0.00     8.639 A  
HETATM   27  C   UNL     1     -10.460  11.888  69.992  1.00  0.00     1.213 A  
HETATM   28  C   UNL     1     -11.414  11.820  70.935  1.00  0.00     0.932 A  
HETATM   29  C   UNL     1     -10.238  13.652  72.191  1.00  0.00     8.651 A  
HETATM   30  C   UNL     1     -11.522  12.899  71.978  1.00  0.00     4.079 A  
BRANCH  30  31
HETATM   31  N   UNL     1     -12.622  13.150  72.639  1.00  0.00     0.174 NA 
BRANCH  31  32
HETATM   32  C   UNL     1     -13.926  12.417  72.376  1.00  0.00     0.175 C  
HETATM   33  C   UNL     1     -14.306  11.517  73.537  1.00  0.00     5.620 C  
ENDBRANCH  31  32
BRANCH  31  34
HETATM   34  C   UNL     1     -12.646  14.031  73.874  1.00  0.00     1.631 C  
HETATM   35  C   UNL     1     -12.572  15.498  73.496  1.00  0.00    -0.672 C  
ENDBRANCH  31  34
ENDBRANCH  30  31
ENDBRANCH  10  25
ENDBRANCH   9  10
ENDBRANCH   3   4
BRANCH   3  36
HETATM   36  C   UNL     1      -9.125  19.567  66.061  1.00  0.00    -0.206 C  
HETATM   37  C   UNL     1      -9.477  20.482  67.224  1.00  0.00    -0.559 C  
ENDBRANCH   3  36
ENDBRANCH   2   3
TORSDOF 9
ENDMDL
MODEL      170
REMARK 921   NORMALIZED FREE ENERGY PREDICTED BY IDOCK:   42.82 KCAL/MOL
REMARK 922        TOTAL FREE ENERGY PREDICTED BY IDOCK:   63.02 KCAL/MOL
REMARK 923 INTER-LIGAND FREE ENERGY PREDICTED BY IDOCK:   45.34 KCAL/MOL
REMARK 924 INTRA-LIGAND FREE ENERGY PREDICTED BY IDOCK:   17.67 KCAL/MOL
REMARK 927      BINDING AFFINITY PREDICTED BY RF-SCORE:    0.00 PKD
ROOT
HETATM    1  C   UNL     1     -13.576  13.800  73.151  1.00  0.00     0.450 C  
HETATM    2  C   UNL     1     -12.508  12.988  73.867  1.00  0.00     6.644 C  
ENDROOT
BRANCH   2   3
HETATM    3  N   UNL     1     -11.760  12.141  72.923  1.00  0.00     5.740 NA 
BRANCH   3   4
HETATM    4  C   UNL     1     -11.042  12.750  71.898  1.00  0.00     6.045 A  
HETATM    5  C   UNL     1     -10.741  12.125  70.681  1.00  0.00     2.829 A  
HETATM    6  C   UNL     1     -10.598  14.077  72.022  1.00  0.00     4.549 A  
HETATM    7  C   UNL     1     -10.155  12.834  69.607  1.00  0.00     1.215 A  
HETATM    8  C   UNL     1      -9.998  14.790  70.967  1.00  0.00     1.660 A  
HETATM    9  C   UNL     1      -9.822  14.191  69.720  1.00  0.00     0.750 A  
BRANCH   9  10
HETATM   10  C   UNL     1      -9.380  14.985  68.519  1.00  0.00    -0.196 C  
BRANCH  10  11
HETATM   11  C   UNL     1      -9.702  16.457  68.462  1.00  0.00    -0.228 A  
HETATM   12  O   UNL     1     -10.526  15.352  71.237  1.00  0.00     0.054 OA 
HETATM   13  O   UNL     1     -12.782  16.149  70.404  1.00  0.00    -0.202 OA 
HETATM   14  C   UNL     1      -8.977  17.246  67.547  1.00  0.00    -0.222 A  
HETATM   15  C   UNL     1      -9.148  18.641  67.505  1.00  0.00    -0.280 A  
HETATM   16  O   UNL     1     -11.378  17.572  71.812  1.00  0.00     0.922 OA 
HETATM   17  C   UNL     1     -10.131  19.273  68.259  1.00  0.00    -0.516 A  
HETATM   18  S   UNL     1     -11.390  16.386  70.715  1.00  0.00    -0.005 S  
HETATM   19  S   UNL     1      -7.948  19.627  66.648  1.00  0.00    -0.317 S  
HETATM   20  C   UNL     1     -10.883  18.510  69.139  1.00  0.00     0.999 A  
HETATM   21  O   UNL     1      -8.105  19.201  65.104  1.00  0.00     0.308 OA 
HETATM   22  O   UNL     1      -8.361  21.012  66.714  1.00  0.00     0.068 OA 
HETATM   23  O   UNL     1      -6.650  19.190  67.116  1.00  0.00    -0.193 OA 
HETATM   24  C   UNL     1     -10.631  17.128  69.287  1.00  0.00    -0.220 A  
ENDBRANCH  10  11
BRANCH  10  25
HETATM   25  C   UNL     1      -8.846  14.355  67.426  1.00  0.00    -0.211 A  
HETATM   26  C   UNL     1      -7.902  13.238  67.533  1.00  0.00    -0.173 A  
HETATM   27  C   UNL     1      -9.072  14.835  66.055  1.00  0.00    -0.061 A  
HETATM   28  C   UNL     1      -8.902  14.020  65.000  1.00  0.00     2.810 A  
HETATM   29  C   UNL     1      -7.680  12.412  66.498  1.00  0.00     0.395 A  
HETATM   30  C   UNL     1      -8.428  12.607  65.207  1.00  0.00     2.030 A  
BRANCH  30  31
HETATM   31  N   UNL     1      -8.637  11.646  64.346  1.00  0.00     0.665 NA 
BRANCH  31  32
HETATM   32  C   UNL     1      -8.006  11.628  62.964  1.00  0.00     1.153 C  
HETATM   33  C   UNL     1      -6.544  12.028  63.012  1.00  0.00     3.574 C  
ENDBRANCH  31  32
BRANCH  31  34
HETATM   34  C   UNL     1      -9.344  10.357  64.719  1.00  0.00    -0.251 C  
HETATM   35  C   UNL     1      -9.797   9.607  63.481  1.00  0.00     0.894 C  
ENDBRANCH  31  34
ENDBRANCH  30  31
ENDBRANCH  10  25
ENDBRANCH   9  10
ENDBRANCH   3   4
BRANCH   3  36
HETATM   36  C   UNL     1     -12.053  10.702  72.966  1.00  0.00     5.228 C  
HETATM   37  C   UNL     1     -13.068  10.343  71.891  1.00  0.00    -0.563 C  
ENDBRANCH   3  36
ENDBRANCH   2   3
TORSDOF 9
ENDMDL
MODEL      171
REMARK 921   NORMALIZED FREE ENERGY PREDICTED BY IDOCK:   44.03 KCAL/MOL
REMARK 922        TOTAL FREE ENERGY PREDICTED BY IDOCK:   64.87 KCAL/MOL
REMARK 923 INTER-LIGAND FREE ENERGY PREDICTED BY IDOCK:   61.07 KCAL/MOL
REMARK 924 INTRA-LIGAND FREE ENERGY PREDICTED BY IDOCK:    3.79 KCAL/MOL
REMARK 927      BINDING AFFINITY PREDICTED BY RF-SCORE:    0.00 PKD
ROOT
HETATM    1  C   UNL     1      -8.401  11.615  64.034  1.00  0.00     1.184 C  
HETATM    2  C   UNL     1      -6.930  11.341  64.309  1.00  0.00     1.517 C  
ENDROOT
BRANCH   2   3
HETATM    3  N   UNL     1      -6.445  12.134  65.451  1.00  0.00     2.488 NA 
BRANCH   3   4
HETATM    4  C   UNL     1      -7.319  12.400  66.502  1.00  0.00     0.579 A  
HETATM    5  C   UNL     1      -8.516  13.112  66.356  1.00  0.00     0.407 A  
HETATM    6  C   UNL     1      -7.052  11.925  67.796  1.00  0.00    -0.103 A  
HETATM    7  C   UNL     1      -9.450  13.218  67.412  1.00  0.00    -0.218 A  
HETATM    8  C   UNL     1      -7.965  12.038  68.862  1.00  0.00     0.069 A  
HETATM    9  C   UNL     1      -9.209  12.637  68.665  1.00  0.00     0.029 A  
BRANCH   9  10
HETATM   10  C   UNL     1     -10.284  12.587  69.718  1.00  0.00     1.341 C  
BRANCH  10  11
HETATM   11  C   UNL     1     -11.417  11.604  69.554  1.00  0.00    -0.371 A  
HETATM   12  O   UNL     1     -11.257  13.387  67.026  1.00  0.00    -0.289 OA 
HETATM   13  O   UNL     1     -13.594  13.966  67.813  1.00  0.00     3.783 OA 
HETATM   14  C   UNL     1     -11.355  10.412  70.303  1.00  0.00    -0.406 A  
HETATM   15  C   UNL     1     -12.319   9.402  70.130  1.00  0.00     0.430 A  
HETATM   16  O   UNL     1     -13.219  12.222  66.142  1.00  0.00     1.751 OA 
HETATM   17  C   UNL     1     -13.437   9.598  69.327  1.00  0.00     4.139 A  
HETATM   18  S   UNL     1     -12.595  13.001  67.412  1.00  0.00     1.210 S  
HETATM   19  S   UNL     1     -11.988   7.782  70.770  1.00  0.00    -0.075 S  
HETATM   20  C   UNL     1     -13.538  10.782  68.610  1.00  0.00     6.393 A  
HETATM   21  O   UNL     1     -11.957   7.978  72.368  1.00  0.00    -0.345 OA 
HETATM   22  O   UNL     1     -13.134   6.940  70.504  1.00  0.00     0.073 OA 
HETATM   23  O   UNL     1     -10.657   7.430  70.325  1.00  0.00    -0.220 OA 
HETATM   24  C   UNL     1     -12.510  11.748  68.672  1.00  0.00     0.663 A  
ENDBRANCH  10  11
BRANCH  10  25
HETATM   25  C   UNL     1     -10.326  13.524  70.716  1.00  0.00     3.694 A  
HETATM   26  C   UNL     1      -9.456  14.703  70.737  1.00  0.00     2.148 A  
HETATM   27  C   UNL     1     -11.154  13.354  71.919  1.00  0.00     4.497 A  
HETATM   28  C   UNL     1     -11.504  14.410  72.672  1.00  0.00     0.953 A  
HETATM   29  C   UNL     1      -9.751  15.773  71.495  1.00  0.00     3.150 A  
HETATM   30  C   UNL     1     -11.008  15.786  72.320  1.00  0.00     0.600 A  
BRANCH  30  31
HETATM   31  N   UNL     1     -11.607  16.884  72.702  1.00  0.00     0.016 NA 
BRANCH  31  32
HETATM   32  C   UNL     1     -11.817  18.070  71.776  1.00  0.00     5.256 C  
HETATM   33  C   UNL     1     -10.908  18.002  70.564  1.00  0.00     2.098 C  
ENDBRANCH  31  32
BRANCH  31  34
HETATM   34  C   UNL     1     -12.342  16.993  74.024  1.00  0.00     0.132 C  
HETATM   35  C   UNL     1     -12.505  18.444  74.436  1.00  0.00     3.433 C  
ENDBRANCH  31  34
ENDBRANCH  30  31
ENDBRANCH  10  25
ENDBRANCH   9  10
ENDBRANCH   3   4
BRANCH   3  36
HETATM   36  C   UNL     1      -5.160  12.821  65.269  1.00  0.00     5.859 C  
HETATM   37  C   UNL     1      -5.131  14.103  66.087  1.00  0.00     5.210 C  
ENDBRANCH   3  36
ENDBRANCH   2   3
TORSDOF 9
ENDMDL
MODEL      172
REMARK 921   NORMALIZED FREE ENERGY PREDICTED BY IDOCK:   45.60 KCAL/MOL
REMARK 922        TOTAL FREE ENERGY PREDICTED BY IDOCK:   67.26 KCAL/MOL
REMARK 923 INTER-LIGAND FREE ENERGY PREDICTED BY IDOCK:   56.38 KCAL/MOL
REMARK 924 INTRA-LIGAND FREE ENERGY PREDICTED BY IDOCK:   10.88 KCAL/MOL
REMARK 927      BINDING AFFINITY PREDICTED BY RF-SCORE:    0.00 PKD
ROOT
HETATM    1  C   UNL     1      -8.192   5.083  65.646  1.00  0.00    -0.117 C  
HETATM    2  C   UNL     1      -7.548   5.450  66.974  1.00  0.00    -0.092 C  
ENDROOT
BRANCH   2   3
HETATM    3  N   UNL     1      -7.096   6.852  66.978  1.00  0.00    -0.074 NA 
BRANCH   3   4
HETATM    4  C   UNL     1      -7.671   7.739  67.883  1.00  0.00    -0.122 A  
HETATM    5  C   UNL     1      -7.236   7.891  69.206  1.00  0.00    -0.080 A  
HETATM    6  C   UNL     1      -8.729   8.578  67.495  1.00  0.00    -0.135 A  
HETATM    7  C   UNL     1      -7.739   8.916  70.040  1.00  0.00    -0.078 A  
HETATM    8  C   UNL     1      -9.251   9.591  68.321  1.00  0.00    -0.132 A  
HETATM    9  C   UNL     1      -8.717   9.813  69.590  1.00  0.00    -0.211 A  
BRANCH   9  10
HETATM   10  C   UNL     1      -9.106  11.015  70.411  1.00  0.00     2.492 C  
BRANCH  10  11
HETATM   11  C   UNL     1      -8.132  11.541  71.435  1.00  0.00     9.164 A  
HETATM   12  O   UNL     1      -7.730   8.483  71.141  1.00  0.00    -0.082 OA 
HETATM   13  O   UNL     1      -8.369   8.599  73.589  1.00  0.00    -0.380 OA 
HETATM   14  C   UNL     1      -7.785  12.905  71.361  1.00  0.00     8.572 A  
HETATM   15  C   UNL     1      -6.809  13.447  72.216  1.00  0.00     4.564 A  
HETATM   16  O   UNL     1      -6.025   8.590  72.893  1.00  0.00    -0.071 OA 
HETATM   17  C   UNL     1      -6.257  12.700  73.250  1.00  0.00     3.320 A  
HETATM   18  S   UNL     1      -7.533   8.995  72.478  1.00  0.00     0.642 S  
HETATM   19  S   UNL     1      -6.115  15.033  71.828  1.00  0.00     0.828 S  
HETATM   20  C   UNL     1      -6.613  11.365  73.366  1.00  0.00     5.646 A  
HETATM   21  O   UNL     1      -7.344  16.060  71.990  1.00  0.00     5.434 OA 
HETATM   22  O   UNL     1      -5.172  15.387  72.867  1.00  0.00     0.106 OA 
HETATM   23  O   UNL     1      -5.737  14.984  70.432  1.00  0.00    -0.132 OA 
HETATM   24  C   UNL     1      -7.492  10.773  72.433  1.00  0.00     7.386 A  
ENDBRANCH  10  11
BRANCH  10  25
HETATM   25  C   UNL     1     -10.378  11.518  70.348  1.00  0.00     2.072 A  
HETATM   26  C   UNL     1     -11.072  12.076  71.512  1.00  0.00     4.535 A  
HETATM   27  C   UNL     1     -11.203  11.417  69.136  1.00  0.00    -0.335 A  
HETATM   28  C   UNL     1     -12.249  12.238  68.941  1.00  0.00    -0.009 A  
HETATM   29  C   UNL     1     -12.138  12.880  71.369  1.00  0.00     0.380 A  
HETATM   30  C   UNL     1     -12.623  13.246  69.993  1.00  0.00     0.010 A  
BRANCH  30  31
HETATM   31  N   UNL     1     -13.310  14.329  69.737  1.00  0.00     0.886 NA 
BRANCH  31  32
HETATM   32  C   UNL     1     -14.013  15.132  70.818  1.00  0.00    -0.022 C  
HETATM   33  C   UNL     1     -13.115  15.360  72.019  1.00  0.00    -0.501 C  
ENDBRANCH  31  32
BRANCH  31  34
HETATM   34  C   UNL     1     -13.285  15.008  68.381  1.00  0.00     2.981 C  
HETATM   35  C   UNL     1     -11.933  15.642  68.116  1.00  0.00     0.043 C  
ENDBRANCH  31  34
ENDBRANCH  30  31
ENDBRANCH  10  25
ENDBRANCH   9  10
ENDBRANCH   3   4
BRANCH   3  36
HETATM   36  C   UNL     1      -6.272   7.274  65.838  1.00  0.00    -0.038 C  
HETATM   37  C   UNL     1      -6.879   8.504  65.180  1.00  0.00    -0.068 C  
ENDBRANCH   3  36
ENDBRANCH   2   3
TORSDOF 9
ENDMDL
MODEL      173
REMARK 921   NORMALIZED FREE ENERGY PREDICTED BY IDOCK:   51.98 KCAL/MOL
REMARK 922        TOTAL FREE ENERGY PREDICTED BY IDOCK:   77.00 KCAL/MOL
REMARK 923 INTER-LIGAND FREE ENERGY PREDICTED BY IDOCK:   60.34 KCAL/MOL
REMARK 924 INTRA-LIGAND FREE ENERGY PREDICTED BY IDOCK:   16.66 KCAL/MOL
REMARK 927      BINDING AFFINITY PREDICTED BY RF-SCORE:    0.00 PKD
ROOT
HETATM    1  C   UNL     1      -6.673   8.622  70.687  1.00  0.00    -0.043 C  
HETATM    2  C   UNL     1      -5.734   9.783  70.396  1.00  0.00    -0.055 C  
ENDROOT
BRANCH   2   3
HETATM    3  N   UNL     1      -6.075  10.437  69.121  1.00  0.00    -0.037 NA 
BRANCH   3   4
HETATM    4  C   UNL     1      -6.194  11.823  69.090  1.00  0.00    -0.083 A  
HETATM    5  C   UNL     1      -5.404  12.654  68.284  1.00  0.00    -0.065 A  
HETATM    6  C   UNL     1      -7.166  12.479  69.863  1.00  0.00     0.883 A  
HETATM    7  C   UNL     1      -5.668  14.037  68.160  1.00  0.00    -0.128 A  
HETATM    8  C   UNL     1      -7.428  13.858  69.762  1.00  0.00     0.502 A  
HETATM    9  C   UNL     1      -6.717  14.648  68.860  1.00  0.00    -0.096 A  
BRANCH   9  10
HETATM   10  C   UNL     1      -7.113  16.074  68.577  1.00  0.00    -0.132 C  
BRANCH  10  11
HETATM   11  C   UNL     1      -6.885  17.117  69.642  1.00  0.00     0.027 A  
HETATM   12  O   UNL     1      -7.737  18.528  67.019  1.00  0.00    -0.218 OA 
HETATM   13  O   UNL     1      -5.449  19.565  67.342  1.00  0.00    -0.169 OA 
HETATM   14  C   UNL     1      -6.996  16.706  70.986  1.00  0.00     3.225 A  
HETATM   15  C   UNL     1      -6.897  17.640  72.034  1.00  0.00     6.067 A  
HETATM   16  O   UNL     1      -7.469  20.681  68.150  1.00  0.00    -0.144 OA 
HETATM   17  C   UNL     1      -6.549  18.964  71.794  1.00  0.00     2.198 A  
HETATM   18  S   UNL     1      -6.780  19.258  67.818  1.00  0.00    -0.225 S  
HETATM   19  S   UNL     1      -7.440  17.168  73.655  1.00  0.00    14.968 S  
HETATM   20  C   UNL     1      -6.397  19.381  70.480  1.00  0.00     0.005 A  
HETATM   21  O   UNL     1      -6.412  16.014  74.105  1.00  0.00     3.771 OA 
HETATM   22  O   UNL     1      -7.203  18.274  74.558  1.00  0.00     7.062 OA 
HETATM   23  O   UNL     1      -8.751  16.578  73.492  1.00  0.00    15.436 OA 
HETATM   24  C   UNL     1      -6.624  18.485  69.412  1.00  0.00    -0.214 A  
ENDBRANCH  10  11
BRANCH  10  25
HETATM   25  C   UNL     1      -7.816  16.389  67.445  1.00  0.00    -0.179 A  
HETATM   26  C   UNL     1      -8.112  15.412  66.393  1.00  0.00     0.139 A  
HETATM   27  C   UNL     1      -8.216  17.768  67.127  1.00  0.00    -0.233 A  
HETATM   28  C   UNL     1      -9.218  18.017  66.268  1.00  0.00    -0.203 A  
HETATM   29  C   UNL     1      -9.088  15.629  65.496  1.00  0.00     0.262 A  
HETATM   30  C   UNL     1      -9.919  16.880  65.576  1.00  0.00     0.019 A  
BRANCH  30  31
HETATM   31  N   UNL     1     -11.127  16.973  65.085  1.00  0.00    -0.399 NA 
BRANCH  31  32
HETATM   32  C   UNL     1     -11.843  18.302  64.909  1.00  0.00     4.462 C  
HETATM   33  C   UNL     1     -10.864  19.457  64.826  1.00  0.00     1.962 C  
ENDBRANCH  31  32
BRANCH  31  34
HETATM   34  C   UNL     1     -11.838  15.798  64.442  1.00  0.00    -0.148 C  
HETATM   35  C   UNL     1     -10.872  14.956  63.631  1.00  0.00     2.283 C  
ENDBRANCH  31  34
ENDBRANCH  30  31
ENDBRANCH  10  25
ENDBRANCH   9  10
ENDBRANCH   3   4
BRANCH   3  36
HETATM   36  C   UNL     1      -6.536   9.557  68.040  1.00  0.00    -0.062 C  
HETATM   37  C   UNL     1      -7.930   9.033  68.351  1.00  0.00    -0.104 C  
ENDBRANCH   3  36
ENDBRANCH   2   3
TORSDOF 9
ENDMDL
MODEL      174
REMARK 921   NORMALIZED FREE ENERGY PREDICTED BY IDOCK:   62.13 KCAL/MOL
REMARK 922        TOTAL FREE ENERGY PREDICTED BY IDOCK:   92.50 KCAL/MOL
REMARK 923 INTER-LIGAND FREE ENERGY PREDICTED BY IDOCK:   76.07 KCAL/MOL
REMARK 924 INTRA-LIGAND FREE ENERGY PREDICTED BY IDOCK:   16.43 KCAL/MOL
REMARK 927      BINDING AFFINITY PREDICTED BY RF-SCORE:    0.00 PKD
ROOT
HETATM    1  C   UNL     1      -9.226   5.624  63.922  1.00  0.00     0.712 C  
HETATM    2  C   UNL     1      -8.112   5.249  64.887  1.00  0.00    -0.122 C  
ENDROOT
BRANCH   2   3
HETATM    3  N   UNL     1      -7.343   6.435  65.301  1.00  0.00    -0.074 NA 
BRANCH   3   4
HETATM    4  C   UNL     1      -7.499   6.915  66.598  1.00  0.00    -0.082 A  
HETATM    5  C   UNL     1      -6.646   7.859  67.185  1.00  0.00    -0.060 A  
HETATM    6  C   UNL     1      -8.571   6.489  67.399  1.00  0.00    -0.118 A  
HETATM    7  C   UNL     1      -6.934   8.440  68.442  1.00  0.00    -0.069 A  
HETATM    8  C   UNL     1      -8.860   7.046  68.659  1.00  0.00    -0.128 A  
HETATM    9  C   UNL     1      -8.073   8.077  69.172  1.00  0.00    -0.119 A  
BRANCH   9  10
HETATM   10  C   UNL     1      -8.475   8.835  70.411  1.00  0.00    -0.163 C  
BRANCH  10  11
HETATM   11  C   UNL     1      -8.805   8.059  71.662  1.00  0.00    -0.179 A  
HETATM   12  O   UNL     1     -10.436  10.693  71.651  1.00  0.00     2.183 OA 
HETATM   13  O   UNL     1      -9.090  11.029  73.770  1.00  0.00    13.927 OA 
HETATM   14  C   UNL     1      -8.597   6.665  71.635  1.00  0.00    -0.123 A  
HETATM   15  C   UNL     1      -8.975   5.860  72.725  1.00  0.00    -0.123 A  
HETATM   16  O   UNL     1     -11.343  10.081  73.840  1.00  0.00     8.363 OA 
HETATM   17  C   UNL     1      -9.431   6.419  73.914  1.00  0.00    -0.178 A  
HETATM   18  S   UNL     1     -10.001  10.254  72.957  1.00  0.00    11.013 S  
HETATM   19  S   UNL     1      -9.077   4.104  72.499  1.00  0.00    -0.111 S  
HETATM   20  C   UNL     1      -9.606   7.793  73.975  1.00  0.00     0.082 A  
HETATM   21  O   UNL     1      -7.559   3.645  72.223  1.00  0.00    -0.056 OA 
HETATM   22  O   UNL     1      -9.442   3.500  73.762  1.00  0.00    -0.095 OA 
HETATM   23  O   UNL     1      -9.849   3.892  71.294  1.00  0.00    -0.176 OA 
HETATM   24  C   UNL     1      -9.357   8.600  72.844  1.00  0.00     0.034 A  
ENDBRANCH  10  11
BRANCH  10  25
HETATM   25  C   UNL     1      -8.699  10.185  70.359  1.00  0.00     0.416 A  
HETATM   26  C   UNL     1      -9.892  10.816  70.930  1.00  0.00     2.766 A  
HETATM   27  C   UNL     1      -7.826  11.097  69.607  1.00  0.00     0.306 A  
HETATM   28  C   UNL     1      -7.800  12.412  69.880  1.00  0.00     1.900 A  
HETATM   29  C   UNL     1      -9.924  12.133  71.195  1.00  0.00     8.748 A  
HETATM   30  C   UNL     1      -8.710  12.981  70.934  1.00  0.00     9.255 A  
BRANCH  30  31
HETATM   31  N   UNL     1      -8.473  14.107  71.555  1.00  0.00     5.360 NA 
BRANCH  31  32
HETATM   32  C   UNL     1      -7.670  14.183  72.842  1.00  0.00     7.149 C  
HETATM   33  C   UNL     1      -6.210  13.842  72.612  1.00  0.00     1.289 C  
ENDBRANCH  31  32
BRANCH  31  34
HETATM   34  C   UNL     1      -8.780  15.458  70.938  1.00  0.00     2.517 C  
HETATM   35  C   UNL     1     -10.117  15.985  71.422  1.00  0.00     2.175 C  
ENDBRANCH  31  34
ENDBRANCH  30  31
ENDBRANCH  10  25
ENDBRANCH   9  10
ENDBRANCH   3   4
BRANCH   3  36
HETATM   36  C   UNL     1      -6.681   7.189  64.229  1.00  0.00    -0.043 C  
HETATM   37  C   UNL     1      -7.344   8.547  64.057  1.00  0.00    -0.104 C  
ENDBRANCH   3  36
ENDBRANCH   2   3
TORSDOF 9
ENDMDL
MODEL      175
REMARK 921   NORMALIZED FREE ENERGY PREDICTED BY IDOCK:   66.09 KCAL/MOL
REMARK 922        TOTAL FREE ENERGY PREDICTED BY IDOCK:   98.54 KCAL/MOL
REMARK 923 INTER-LIGAND FREE ENERGY PREDICTED BY IDOCK:   80.80 KCAL/MOL
REMARK 924 INTRA-LIGAND FREE ENERGY PREDICTED BY IDOCK:   17.75 KCAL/MOL
REMARK 927      BINDING AFFINITY PREDICTED BY RF-SCORE:    0.00 PKD
ROOT
HETATM    1  C   UNL     1      -8.363  16.933  71.320  1.00  0.00     7.754 C  
HETATM    2  C   UNL     1      -6.971  16.792  71.917  1.00  0.00     6.455 C  
ENDROOT
BRANCH   2   3
HETATM    3  N   UNL     1      -6.754  15.435  72.448  1.00  0.00     2.721 NA 
BRANCH   3   4
HETATM    4  C   UNL     1      -7.246  14.348  71.731  1.00  0.00     3.045 A  
HETATM    5  C   UNL     1      -7.541  14.389  70.362  1.00  0.00     1.014 A  
HETATM    6  C   UNL     1      -7.445  13.106  72.355  1.00  0.00     9.594 A  
HETATM    7  C   UNL     1      -7.881  13.222  69.641  1.00  0.00     1.088 A  
HETATM    8  C   UNL     1      -7.800  11.939  71.653  1.00  0.00    11.016 A  
HETATM    9  C   UNL     1      -7.965  11.971  70.268  1.00  0.00     3.378 A  
BRANCH   9  10
HETATM   10  C   UNL     1      -8.135  10.709  69.465  1.00  0.00    -0.056 C  
BRANCH  10  11
HETATM   11  C   UNL     1      -7.556  10.649  68.073  1.00  0.00    -0.091 A  
HETATM   12  O   UNL     1      -8.692   7.863  68.811  1.00  0.00    -0.128 OA 
HETATM   13  O   UNL     1      -6.261   7.253  68.451  1.00  0.00    -0.033 OA 
HETATM   14  C   UNL     1      -7.460  11.859  67.358  1.00  0.00    -0.148 A  
HETATM   15  C   UNL     1      -7.025  11.872  66.020  1.00  0.00     0.963 A  
HETATM   16  O   UNL     1      -7.902   7.024  66.653  1.00  0.00    -0.102 OA 
HETATM   17  C   UNL     1      -6.544  10.722  65.404  1.00  0.00     0.047 A  
HETATM   18  S   UNL     1      -7.502   7.835  67.992  1.00  0.00    -0.110 S  
HETATM   19  S   UNL     1      -7.302  13.325  65.042  1.00  0.00    10.682 S  
HETATM   20  C   UNL     1      -6.593   9.526  66.105  1.00  0.00    -0.070 A  
HETATM   21  O   UNL     1      -6.383  14.454  65.729  1.00  0.00     6.113 OA 
HETATM   22  O   UNL     1      -6.737  13.109  63.728  1.00  0.00    12.041 OA 
HETATM   23  O   UNL     1      -8.691  13.686  65.230  1.00  0.00     1.573 OA 
HETATM   24  C   UNL     1      -7.150   9.475  67.401  1.00  0.00    -0.086 A  
ENDBRANCH  10  11
BRANCH  10  25
HETATM   25  C   UNL     1      -8.940   9.698  69.919  1.00  0.00    -0.243 A  
HETATM   26  C   UNL     1      -9.499   8.668  69.038  1.00  0.00    -0.153 A  
HETATM   27  C   UNL     1      -9.421   9.642  71.307  1.00  0.00     0.350 A  
HETATM   28  C   UNL     1      -9.850   8.487  71.844  1.00  0.00    -0.358 A  
HETATM   29  C   UNL     1      -9.964   7.508  69.531  1.00  0.00    -0.180 A  
HETATM   30  C   UNL     1      -9.892   7.236  71.009  1.00  0.00    -0.183 A  
BRANCH  30  31
HETATM   31  N   UNL     1      -9.875   6.032  71.518  1.00  0.00    -0.167 NA 
BRANCH  31  32
HETATM   32  C   UNL     1      -9.824   4.778  70.663  1.00  0.00    -0.222 C  
HETATM   33  C   UNL     1     -10.423   5.012  69.290  1.00  0.00    -0.105 C  
ENDBRANCH  31  32
BRANCH  31  34
HETATM   34  C   UNL     1      -9.680   5.778  73.001  1.00  0.00    -0.155 C  
HETATM   35  C   UNL     1      -8.290   5.238  73.281  1.00  0.00    -0.111 C  
ENDBRANCH  31  34
ENDBRANCH  30  31
ENDBRANCH  10  25
ENDBRANCH   9  10
ENDBRANCH   3   4
BRANCH   3  36
HETATM   36  C   UNL     1      -6.279  15.347  73.834  1.00  0.00     2.836 C  
HETATM   37  C   UNL     1      -7.003  14.227  74.566  1.00  0.00     2.828 C  
ENDBRANCH   3  36
ENDBRANCH   2   3
TORSDOF 9
ENDMDL
MODEL      176
REMARK 921   NORMALIZED FREE ENERGY PREDICTED BY IDOCK:   71.30 KCAL/MOL
REMARK 922        TOTAL FREE ENERGY PREDICTED BY IDOCK:  106.49 KCAL/MOL
REMARK 923 INTER-LIGAND FREE ENERGY PREDICTED BY IDOCK:   92.87 KCAL/MOL
REMARK 924 INTRA-LIGAND FREE ENERGY PREDICTED BY IDOCK:   13.62 KCAL/MOL
REMARK 927      BINDING AFFINITY PREDICTED BY RF-SCORE:    0.00 PKD
ROOT
HETATM    1  C   UNL     1      -7.829   7.523  67.604  1.00  0.00    -0.113 C  
HETATM    2  C   UNL     1      -8.675   8.396  68.517  1.00  0.00    -0.136 C  
ENDROOT
BRANCH   2   3
HETATM    3  N   UNL     1      -7.836   9.311  69.308  1.00  0.00    -0.083 NA 
BRANCH   3   4
HETATM    4  C   UNL     1      -7.939  10.680  69.081  1.00  0.00    -0.139 A  
HETATM    5  C   UNL     1      -7.717  11.281  67.835  1.00  0.00    -0.110 A  
HETATM    6  C   UNL     1      -8.314  11.554  70.114  1.00  0.00     2.556 A  
HETATM    7  C   UNL     1      -7.991  12.649  67.610  1.00  0.00    -0.169 A  
HETATM    8  C   UNL     1      -8.574  12.923  69.909  1.00  0.00     2.830 A  
HETATM    9  C   UNL     1      -8.473  13.477  68.634  1.00  0.00    -0.017 A  
BRANCH   9  10
HETATM   10  C   UNL     1      -8.944  14.878  68.343  1.00  0.00    -0.183 C  
BRANCH  10  11
HETATM   11  C   UNL     1      -9.042  15.328  66.906  1.00  0.00    -0.263 A  
HETATM   12  O   UNL     1      -7.183  12.855  67.062  1.00  0.00    -0.036 OA 
HETATM   13  O   UNL     1      -5.555  14.557  66.130  1.00  0.00     3.730 OA 
HETATM   14  C   UNL     1     -10.181  16.069  66.534  1.00  0.00    -0.301 A  
HETATM   15  C   UNL     1     -10.394  16.438  65.193  1.00  0.00    -0.078 A  
HETATM   16  O   UNL     1      -6.798  13.055  64.654  1.00  0.00     9.366 OA 
HETATM   17  C   UNL     1      -9.429  16.212  64.218  1.00  0.00     5.029 A  
HETATM   18  S   UNL     1      -6.806  13.835  66.070  1.00  0.00     6.217 S  
HETATM   19  S   UNL     1     -12.003  16.999  64.704  1.00  0.00     2.819 S  
HETATM   20  C   UNL     1      -8.281  15.517  64.572  1.00  0.00     9.392 A  
HETATM   21  O   UNL     1     -12.204  18.387  65.493  1.00  0.00     4.246 OA 
HETATM   22  O   UNL     1     -11.958  17.352  63.301  1.00  0.00     4.106 OA 
HETATM   23  O   UNL     1     -12.948  16.034  65.222  1.00  0.00     1.931 OA 
HETATM   24  C   UNL     1      -8.115  15.025  65.885  1.00  0.00     1.985 A  
ENDBRANCH  10  11
BRANCH  10  25
HETATM   25  C   UNL     1      -9.121  15.778  69.360  1.00  0.00    -0.254 A  
HETATM   26  C   UNL     1      -8.860  15.453  70.765  1.00  0.00     2.038 A  
HETATM   27  C   UNL     1      -9.718  17.103  69.139  1.00  0.00    -0.150 A  
HETATM   28  C   UNL     1      -9.522  18.104  70.015  1.00  0.00     1.502 A  
HETATM   29  C   UNL     1      -8.685  16.419  71.682  1.00  0.00     8.295 A  
HETATM   30  C   UNL     1      -8.725  17.864  71.268  1.00  0.00     8.760 A  
BRANCH  30  31
HETATM   31  N   UNL     1      -8.133  18.820  71.936  1.00  0.00     7.596 NA 
BRANCH  31  32
HETATM   32  C   UNL     1      -8.602  19.278  73.306  1.00  0.00     5.994 C  
HETATM   33  C   UNL     1     -10.082  19.611  73.309  1.00  0.00     3.622 C  
ENDBRANCH  31  32
BRANCH  31  34
HETATM   34  C   UNL     1      -6.800  19.406  71.512  1.00  0.00     1.556 C  
HETATM   35  C   UNL     1      -6.592  20.780  72.118  1.00  0.00     1.464 C  
ENDBRANCH  31  34
ENDBRANCH  30  31
ENDBRANCH  10  25
ENDBRANCH   9  10
ENDBRANCH   3   4
BRANCH   3  36
HETATM   36  C   UNL     1      -6.751   8.695  70.083  1.00  0.00    -0.039 C  
HETATM   37  C   UNL     1      -7.232   8.366  71.488  1.00  0.00    -0.093 C  
ENDBRANCH   3  36
ENDBRANCH   2   3
TORSDOF 9
ENDMDL
MODEL      177
REMARK 921   NORMALIZED FREE ENERGY PREDICTED BY IDOCK:   74.26 KCAL/MOL
REMARK 922        TOTAL FREE ENERGY PREDICTED BY IDOCK:  111.00 KCAL/MOL
REMARK 923 INTER-LIGAND FREE ENERGY PREDICTED BY IDOCK:  105.94 KCAL/MOL
REMARK 924 INTRA-LIGAND FREE ENERGY PREDICTED BY IDOCK:    5.07 KCAL/MOL
REMARK 927      BINDING AFFINITY PREDICTED BY RF-SCORE:    0.00 PKD
ROOT
HETATM    1  C   UNL     1     -11.539  11.747  63.763  1.00  0.00    -0.508 C  
HETATM    2  C   UNL     1     -11.569  11.458  65.256  1.00  0.00     0.191 C  
ENDROOT
BRANCH   2   3
HETATM    3  N   UNL     1     -11.813  12.686  66.031  1.00  0.00    -0.426 NA 
BRANCH   3   4
HETATM    4  C   UNL     1     -11.360  12.750  67.346  1.00  0.00    -0.313 A  
HETATM    5  C   UNL     1     -11.778  11.874  68.355  1.00  0.00    -0.387 A  
HETATM    6  C   UNL     1     -10.406  13.706  67.732  1.00  0.00    -0.241 A  
HETATM    7  C   UNL     1     -11.172  11.870  69.633  1.00  0.00    -0.184 A  
HETATM    8  C   UNL     1      -9.807  13.725  69.005  1.00  0.00     0.091 A  
HETATM    9  C   UNL     1     -10.142  12.763  69.957  1.00  0.00     2.318 A  
BRANCH   9  10
HETATM   10  C   UNL     1      -9.372  12.626  71.245  1.00  0.00    13.429 C  
BRANCH  10  11
HETATM   11  C   UNL     1      -9.259  13.824  72.155  1.00  0.00    11.687 A  
HETATM   12  O   UNL     1      -6.413  12.849  71.417  1.00  0.00     0.782 OA 
HETATM   13  O   UNL     1      -6.329  12.557  73.931  1.00  0.00     1.986 OA 
HETATM   14  C   UNL     1     -10.353  14.713  72.197  1.00  0.00     3.052 A  
HETATM   15  C   UNL     1     -10.284  15.904  72.942  1.00  0.00     5.193 A  
HETATM   16  O   UNL     1      -5.494  14.593  72.866  1.00  0.00    -0.100 OA 
HETATM   17  C   UNL     1      -9.201  16.178  73.771  1.00  0.00    15.498 A  
HETATM   18  S   UNL     1      -6.546  13.372  72.757  1.00  0.00     4.288 S  
HETATM   19  S   UNL     1     -11.492  17.169  72.649  1.00  0.00     1.555 S  
HETATM   20  C   UNL     1      -8.130  15.297  73.774  1.00  0.00    11.037 A  
HETATM   21  O   UNL     1     -12.881  16.520  73.138  1.00  0.00    -0.274 OA 
HETATM   22  O   UNL     1     -11.235  18.267  73.556  1.00  0.00     0.735 OA 
HETATM   23  O   UNL     1     -11.549  17.355  71.216  1.00  0.00     1.159 OA 
HETATM   24  C   UNL     1      -8.129  14.165  72.930  1.00  0.00     8.762 A  
ENDBRANCH  10  11
BRANCH  10  25
HETATM   25  C   UNL     1      -8.650  11.493  71.507  1.00  0.00    11.640 A  
HETATM   26  C   UNL     1      -9.214  10.333  72.205  1.00  0.00     6.339 A  
HETATM   27  C   UNL     1      -7.209  11.398  71.231  1.00  0.00     4.459 A  
HETATM   28  C   UNL     1      -6.606  10.204  71.104  1.00  0.00     0.292 A  
HETATM   29  C   UNL     1      -8.632   9.125  72.130  1.00  0.00     0.504 A  
HETATM   30  C   UNL     1      -7.395   8.937  71.296  1.00  0.00    -0.096 A  
BRANCH  30  31
HETATM   31  N   UNL     1      -7.034   7.785  70.793  1.00  0.00    -0.046 NA 
BRANCH  31  32
HETATM   32  C   UNL     1      -7.134   7.466  69.311  1.00  0.00    -0.075 C  
HETATM   33  C   UNL     1      -8.532   7.712  68.779  1.00  0.00    -0.129 C  
ENDBRANCH  31  32
BRANCH  31  34
HETATM   34  C   UNL     1      -6.279   6.745  71.599  1.00  0.00    -0.038 C  
HETATM   35  C   UNL     1      -7.236   5.832  72.340  1.00  0.00    -0.090 C  
ENDBRANCH  31  34
ENDBRANCH  30  31
ENDBRANCH  10  25
ENDBRANCH   9  10
ENDBRANCH   3   4
BRANCH   3  36
HETATM   36  C   UNL     1     -12.760  13.646  65.450  1.00  0.00    -0.453 C  
HETATM   37  C   UNL     1     -14.090  12.963  65.166  1.00  0.00     4.298 C  
ENDBRANCH   3  36
ENDBRANCH   2   3
TORSDOF 9
ENDMDL
MODEL      178
REMARK 921   NORMALIZED FREE ENERGY PREDICTED BY IDOCK:   76.36 KCAL/MOL
REMARK 922        TOTAL FREE ENERGY PREDICTED BY IDOCK:  114.22 KCAL/MOL
REMARK 923 INTER-LIGAND FREE ENERGY PREDICTED BY IDOCK:  112.32 KCAL/MOL
REMARK 924 INTRA-LIGAND FREE ENERGY PREDICTED BY IDOCK:    1.90 KCAL/MOL
REMARK 927      BINDING AFFINITY PREDICTED BY RF-SCORE:    0.00 PKD
ROOT
HETATM    1  C   UNL     1     -12.439  10.030  70.885  1.00  0.00    -0.431 C  
HETATM    2  C   UNL     1     -12.027   8.817  70.065  1.00  0.00     0.515 C  
ENDROOT
BRANCH   2   3
HETATM    3  N   UNL     1     -11.547   9.215  68.731  1.00  0.00     0.658 NA 
BRANCH   3   4
HETATM    4  C   UNL     1     -10.957  10.466  68.576  1.00  0.00    -0.254 A  
HETATM    5  C   UNL     1     -10.246  10.853  67.433  1.00  0.00    -0.236 A  
HETATM    6  C   UNL     1     -11.076  11.446  69.575  1.00  0.00    -0.274 A  
HETATM    7  C   UNL     1      -9.805  12.184  67.248  1.00  0.00    -0.202 A  
HETATM    8  C   UNL     1     -10.627  12.770  69.412  1.00  0.00     0.241 A  
HETATM    9  C   UNL     1     -10.036  13.173  68.215  1.00  0.00    -0.236 A  
BRANCH   9  10
HETATM   10  C   UNL     1      -9.738  14.622  67.931  1.00  0.00    -0.216 C  
BRANCH  10  11
HETATM   11  C   UNL     1      -8.569  14.962  67.040  1.00  0.00    -0.265 A  
HETATM   12  O   UNL     1      -7.536  14.512  69.926  1.00  0.00     0.049 OA 
HETATM   13  O   UNL     1      -6.830  16.920  69.587  1.00  0.00    -0.196 OA 
HETATM   14  C   UNL     1      -8.709  14.707  65.661  1.00  0.00     1.356 A  
HETATM   15  C   UNL     1      -7.630  14.903  64.780  1.00  0.00    12.139 A  
HETATM   16  O   UNL     1      -5.284  15.076  69.154  1.00  0.00    -0.093 OA 
HETATM   17  C   UNL     1      -6.441  15.484  65.208  1.00  0.00     9.702 A  
HETATM   18  S   UNL     1      -6.834  15.532  69.182  1.00  0.00    -0.169 S  
HETATM   19  S   UNL     1      -7.711  14.197  63.155  1.00  0.00    21.579 S  
HETATM   20  C   UNL     1      -6.297  15.779  66.556  1.00  0.00     1.287 A  
HETATM   21  O   UNL     1      -8.912  14.988  62.432  1.00  0.00    17.817 OA 
HETATM   22  O   UNL     1      -6.513  14.567  62.434  1.00  0.00    13.375 OA 
HETATM   23  O   UNL     1      -8.108  12.816  63.328  1.00  0.00     4.042 OA 
HETATM   24  C   UNL     1      -7.322  15.464  67.473  1.00  0.00    -0.195 A  
ENDBRANCH  10  11
BRANCH  10  25
HETATM   25  C   UNL     1     -10.406  15.613  68.598  1.00  0.00    -0.216 A  
HETATM   26  C   UNL     1     -10.999  15.421  69.924  1.00  0.00    -0.305 A  
HETATM   27  C   UNL     1     -10.701  16.914  67.980  1.00  0.00    -0.364 A  
HETATM   28  C   UNL     1     -10.978  17.991  68.733  1.00  0.00     0.563 A  
HETATM   29  C   UNL     1     -11.317  16.468  70.704  1.00  0.00    -0.066 A  
HETATM   30  C   UNL     1     -11.038  17.868  70.232  1.00  0.00     2.261 A  
BRANCH  30  31
HETATM   31  N   UNL     1     -10.873  18.881  71.042  1.00  0.00     2.638 NA 
BRANCH  31  32
HETATM   32  C   UNL     1     -11.087  18.777  72.542  1.00  0.00     3.838 C  
HETATM   33  C   UNL     1     -10.417  19.918  73.283  1.00  0.00     4.556 C  
ENDBRANCH  31  32
BRANCH  31  34
HETATM   34  C   UNL     1     -10.241  20.186  70.597  1.00  0.00     1.489 C  
HETATM   35  C   UNL     1     -10.382  20.374  69.098  1.00  0.00     0.103 C  
ENDBRANCH  31  34
ENDBRANCH  30  31
ENDBRANCH  10  25
ENDBRANCH   9  10
ENDBRANCH   3   4
BRANCH   3  36
HETATM   36  C   UNL     1     -11.978   8.374  67.606  1.00  0.00     4.072 C  
HETATM   37  C   UNL     1     -13.231   7.599  67.983  1.00  0.00    13.760 C  
ENDBRANCH   3  36
ENDBRANCH   2   3
TORSDOF 9
ENDMDL
MODEL      179
REMARK 921   NORMALIZED FREE ENERGY PREDICTED BY IDOCK:   81.59 KCAL/MOL
REMARK 922        TOTAL FREE ENERGY PREDICTED BY IDOCK:  122.19 KCAL/MOL
REMARK 923 INTER-LIGAND FREE ENERGY PREDICTED BY IDOCK:  109.14 KCAL/MOL
REMARK 924 INTRA-LIGAND FREE ENERGY PREDICTED BY IDOCK:   13.05 KCAL/MOL
REMARK 927      BINDING AFFINITY PREDICTED BY RF-SCORE:    0.00 PKD
ROOT
HETATM    1  C   UNL     1     -10.963  16.269  68.302  1.00  0.00    -0.348 C  
HETATM    2  C   UNL     1     -10.903  16.154  69.817  1.00  0.00    -0.333 C  
ENDROOT
BRANCH   2   3
HETATM    3  N   UNL     1      -9.731  15.372  70.246  1.00  0.00     0.064 NA 
BRANCH   3   4
HETATM    4  C   UNL     1      -9.645  14.033  69.875  1.00  0.00     1.358 A  
HETATM    5  C   UNL     1      -8.944  13.067  70.607  1.00  0.00     7.320 A  
HETATM    6  C   UNL     1     -10.306  13.561  68.729  1.00  0.00    -0.169 A  
HETATM    7  C   UNL     1      -9.019  11.692  70.285  1.00  0.00     3.678 A  
HETATM    8  C   UNL     1     -10.374  12.198  68.386  1.00  0.00    -0.236 A  
HETATM    9  C   UNL     1      -9.777  11.235  69.199  1.00  0.00     0.008 A  
BRANCH   9  10
HETATM   10  C   UNL     1     -10.009   9.763  68.978  1.00  0.00    -0.189 C  
BRANCH  10  11
HETATM   11  C   UNL     1     -11.381   9.298  68.558  1.00  0.00     0.356 A  
HETATM   12  O   UNL     1     -11.473  12.347  69.101  1.00  0.00    -0.265 OA 
HETATM   13  O   UNL     1     -13.151  11.552  70.825  1.00  0.00    -0.092 OA 
HETATM   14  C   UNL     1     -11.461   8.117  67.794  1.00  0.00     1.309 A  
HETATM   15  C   UNL     1     -12.693   7.674  67.279  1.00  0.00    10.293 A  
HETATM   16  O   UNL     1     -13.871  12.310  68.614  1.00  0.00     5.760 OA 
HETATM   17  C   UNL     1     -13.887   8.299  67.620  1.00  0.00    23.487 A  
HETATM   18  S   UNL     1     -12.675  11.630  69.462  1.00  0.00     0.706 S  
HETATM   19  S   UNL     1     -12.696   6.439  66.006  1.00  0.00     9.610 S  
HETATM   20  C   UNL     1     -13.835   9.442  68.404  1.00  0.00    12.811 A  
HETATM   21  O   UNL     1     -12.112   5.121  66.722  1.00  0.00     3.714 OA 
HETATM   22  O   UNL     1     -14.069   6.125  65.675  1.00  0.00     8.273 OA 
HETATM   23  O   UNL     1     -11.746   6.879  65.007  1.00  0.00     7.751 OA 
HETATM   24  C   UNL     1     -12.594   9.974  68.817  1.00  0.00     2.371 A  
ENDBRANCH  10  11
BRANCH  10  25
HETATM   25  C   UNL     1      -9.045   8.849  69.312  1.00  0.00    -0.145 A  
HETATM   26  C   UNL     1      -8.846   8.366  70.682  1.00  0.00    -0.161 A  
HETATM   27  C   UNL     1      -8.042   8.378  68.347  1.00  0.00    -0.123 A  
HETATM   28  C   UNL     1      -7.381   7.225  68.542  1.00  0.00    -0.100 A  
HETATM   29  C   UNL     1      -8.170   7.232  70.929  1.00  0.00    -0.115 A  
HETATM   30  C   UNL     1      -7.627   6.417  69.787  1.00  0.00    -0.093 A  
BRANCH  30  31
HETATM   31  N   UNL     1      -7.382   5.135  69.871  1.00  0.00    -0.059 NA 
BRANCH  31  32
HETATM   32  C   UNL     1      -7.264   4.405  71.198  1.00  0.00    -0.040 C  
HETATM   33  C   UNL     1      -6.559   5.251  72.241  1.00  0.00    -0.056 C  
ENDBRANCH  31  32
BRANCH  31  34
HETATM   34  C   UNL     1      -7.416   4.219  68.663  1.00  0.00    -0.059 C  
HETATM   35  C   UNL     1      -7.134   2.783  69.061  1.00  0.00    -0.044 C  
ENDBRANCH  31  34
ENDBRANCH  30  31
ENDBRANCH  10  25
ENDBRANCH   9  10
ENDBRANCH   3   4
BRANCH   3  36
HETATM   36  C   UNL     1      -8.876  15.989  71.268  1.00  0.00     4.913 C  
HETATM   37  C   UNL     1      -9.059  17.499  71.263  1.00  0.00     7.985 C  
ENDBRANCH   3  36
ENDBRANCH   2   3
TORSDOF 9
ENDMDL
