MODEL        1
REMARK 921   NORMALIZED FREE ENERGY PREDICTED BY IDOCK:   -5.66 KCAL/MOL
REMARK 922        TOTAL FREE ENERGY PREDICTED BY IDOCK:   -6.66 KCAL/MOL
REMARK 923 INTER-LIGAND FREE ENERGY PREDICTED BY IDOCK:   -6.32 KCAL/MOL
REMARK 924 INTRA-LIGAND FREE ENERGY PREDICTED BY IDOCK:   -0.33 KCAL/MOL
REMARK 927      BINDING AFFINITY PREDICTED BY RF-SCORE:    0.00 PKD
ROOT
HETATM    1  C   UNL     1     -10.194  13.929  68.636  1.00  0.00    -0.218 C  
HETATM    2  O   UNL     1     -10.828  12.849  69.323  1.00  0.00    -0.131 OA 
HETATM    3  C   UNL     1     -11.902  12.347  68.507  1.00  0.00    -0.304 C  
HETATM    4  C   UNL     1     -11.853  13.061  67.158  1.00  0.00    -0.373 C  
HETATM    5  C   UNL     1     -10.696  15.306  69.067  1.00  0.00    -0.244 C  
HETATM    6  C   UNL     1     -10.551  13.853  67.165  1.00  0.00    -0.277 C  
HETATM    7  C   UNL     1     -10.452  16.097  67.788  1.00  0.00    -0.295 C  
HETATM    8  O   UNL     1     -10.741  15.199  66.696  1.00  0.00    -0.300 OA 
ENDROOT
BRANCH   4   9
HETATM    9  O   UNL     1     -12.116  12.268  66.006  1.00  0.00    -0.623 OA 
HETATM   10  O   UNL     1     -13.058  12.141  64.020  1.00  0.00    -0.723 OA 
HETATM   11  O   UNL     1     -13.277  14.027  65.182  1.00  0.00    -0.768 OA 
HETATM   12  N   UNL     1     -12.887  12.877  64.988  1.00  0.00    -0.414 N  
ENDBRANCH   4   9
BRANCH   5  13
HETATM   13  O   UNL     1     -12.097  15.219  69.355  1.00  0.00    -0.313 OA 
HETATM   14  N   UNL     1     -12.446  15.736  70.620  1.00  0.00    -0.407 N  
HETATM   15  O   UNL     1     -13.608  15.490  70.929  1.00  0.00    -0.520 OA 
HETATM   16  O   UNL     1     -11.582  16.376  71.220  1.00  0.00    -0.414 OA 
ENDBRANCH   5  13
TORSDOF 2
ENDMDL
MODEL        2
REMARK 921   NORMALIZED FREE ENERGY PREDICTED BY IDOCK:   -5.35 KCAL/MOL
REMARK 922        TOTAL FREE ENERGY PREDICTED BY IDOCK:   -6.31 KCAL/MOL
REMARK 923 INTER-LIGAND FREE ENERGY PREDICTED BY IDOCK:   -5.95 KCAL/MOL
REMARK 924 INTRA-LIGAND FREE ENERGY PREDICTED BY IDOCK:   -0.36 KCAL/MOL
REMARK 927      BINDING AFFINITY PREDICTED BY RF-SCORE:    0.00 PKD
ROOT
HETATM    1  C   UNL     1      -9.872  13.963  67.386  1.00  0.00    -0.237 C  
HETATM    2  O   UNL     1      -9.046  14.379  66.299  1.00  0.00    -0.213 OA 
HETATM    3  C   UNL     1      -8.972  15.817  66.296  1.00  0.00    -0.345 C  
HETATM    4  C   UNL     1      -9.680  16.335  67.547  1.00  0.00    -0.234 C  
HETATM    5  C   UNL     1     -11.320  13.686  66.984  1.00  0.00    -0.324 C  
HETATM    6  C   UNL     1      -9.981  15.098  68.384  1.00  0.00    -0.222 C  
HETATM    7  C   UNL     1     -12.031  13.992  68.297  1.00  0.00    -0.349 C  
HETATM    8  O   UNL     1     -11.328  15.106  68.886  1.00  0.00    -0.268 OA 
ENDROOT
BRANCH   4   9
HETATM    9  O   UNL     1      -9.070  17.432  68.217  1.00  0.00    -0.255 OA 
HETATM   10  O   UNL     1      -9.224  19.536  68.847  1.00  0.00    -0.377 OA 
HETATM   11  O   UNL     1     -10.895  18.653  67.671  1.00  0.00    -0.418 OA 
HETATM   12  N   UNL     1      -9.804  18.641  68.239  1.00  0.00    -0.351 N  
ENDBRANCH   4   9
BRANCH   5  13
HETATM   13  O   UNL     1     -11.703  14.617  65.966  1.00  0.00    -0.359 OA 
HETATM   14  N   UNL     1     -12.488  14.045  64.943  1.00  0.00    -0.417 N  
HETATM   15  O   UNL     1     -12.654  14.802  63.991  1.00  0.00    -0.822 OA 
HETATM   16  O   UNL     1     -12.922  12.909  65.141  1.00  0.00    -0.758 OA 
ENDBRANCH   5  13
TORSDOF 2
ENDMDL
MODEL        3
REMARK 921   NORMALIZED FREE ENERGY PREDICTED BY IDOCK:   -5.34 KCAL/MOL
REMARK 922        TOTAL FREE ENERGY PREDICTED BY IDOCK:   -6.30 KCAL/MOL
REMARK 923 INTER-LIGAND FREE ENERGY PREDICTED BY IDOCK:   -6.29 KCAL/MOL
REMARK 924 INTRA-LIGAND FREE ENERGY PREDICTED BY IDOCK:   -0.00 KCAL/MOL
REMARK 927      BINDING AFFINITY PREDICTED BY RF-SCORE:    0.00 PKD
ROOT
HETATM    1  C   UNL     1     -10.565  12.907  64.914  1.00  0.00    -0.323 C  
HETATM    2  O   UNL     1      -9.444  12.883  65.797  1.00  0.00    -0.138 OA 
HETATM    3  C   UNL     1      -9.914  12.660  67.139  1.00  0.00    -0.217 C  
HETATM    4  C   UNL     1     -11.416  12.383  67.081  1.00  0.00    -0.357 C  
HETATM    5  C   UNL     1     -11.066  14.316  64.598  1.00  0.00    -0.363 C  
HETATM    6  C   UNL     1     -11.745  12.246  65.599  1.00  0.00    -0.382 C  
HETATM    7  C   UNL     1     -12.535  14.027  64.321  1.00  0.00    -0.262 C  
HETATM    8  O   UNL     1     -12.924  12.988  65.243  1.00  0.00    -0.697 OA 
ENDROOT
BRANCH   4   9
HETATM    9  O   UNL     1     -11.911  11.367  67.945  1.00  0.00    -0.626 OA 
HETATM   10  O   UNL     1     -12.598  10.828  69.966  1.00  0.00    -0.308 OA 
HETATM   11  O   UNL     1     -11.914  12.914  69.598  1.00  0.00    -0.313 OA 
HETATM   12  N   UNL     1     -12.157  11.750  69.285  1.00  0.00    -0.269 N  
ENDBRANCH   4   9
BRANCH   5  13
HETATM   13  O   UNL     1     -10.916  15.133  65.764  1.00  0.00    -0.336 OA 
HETATM   14  N   UNL     1     -10.799  16.509  65.479  1.00  0.00    -0.256 N  
HETATM   15  O   UNL     1     -10.489  17.174  66.463  1.00  0.00    -0.312 OA 
HETATM   16  O   UNL     1     -11.047  16.864  64.326  1.00  0.00    -1.135 OA 
ENDBRANCH   5  13
TORSDOF 2
ENDMDL
MODEL        4
REMARK 921   NORMALIZED FREE ENERGY PREDICTED BY IDOCK:   -5.30 KCAL/MOL
REMARK 922        TOTAL FREE ENERGY PREDICTED BY IDOCK:   -6.25 KCAL/MOL
REMARK 923 INTER-LIGAND FREE ENERGY PREDICTED BY IDOCK:   -5.85 KCAL/MOL
REMARK 924 INTRA-LIGAND FREE ENERGY PREDICTED BY IDOCK:   -0.40 KCAL/MOL
REMARK 927      BINDING AFFINITY PREDICTED BY RF-SCORE:    0.00 PKD
ROOT
HETATM    1  C   UNL     1      -9.304  15.317  66.431  1.00  0.00    -0.296 C  
HETATM    2  O   UNL     1      -9.230  14.112  67.193  1.00  0.00    -0.211 OA 
HETATM    3  C   UNL     1     -10.206  13.182  66.688  1.00  0.00    -0.259 C  
HETATM    4  C   UNL     1     -10.839  13.785  65.435  1.00  0.00    -0.312 C  
HETATM    5  C   UNL     1     -10.160  16.402  67.082  1.00  0.00    -0.271 C  
HETATM    6  C   UNL     1     -10.014  15.028  65.123  1.00  0.00    -0.234 C  
HETATM    7  C   UNL     1     -10.632  17.156  65.846  1.00  0.00    -0.215 C  
HETATM    8  O   UNL     1     -10.848  16.161  64.823  1.00  0.00    -0.634 OA 
ENDROOT
BRANCH   4   9
HETATM    9  O   UNL     1     -11.090  12.894  64.354  1.00  0.00    -0.324 OA 
HETATM   10  O   UNL     1     -12.579  11.747  63.209  1.00  0.00    -0.561 OA 
HETATM   11  O   UNL     1     -13.273  12.945  64.951  1.00  0.00    -0.782 OA 
HETATM   12  N   UNL     1     -12.436  12.501  64.167  1.00  0.00    -0.436 N  
ENDBRANCH   4   9
BRANCH   5  13
HETATM   13  O   UNL     1     -11.261  15.781  67.754  1.00  0.00    -0.336 OA 
HETATM   14  N   UNL     1     -11.294  16.038  69.141  1.00  0.00    -0.342 N  
HETATM   15  O   UNL     1     -12.128  15.357  69.731  1.00  0.00    -0.337 OA 
HETATM   16  O   UNL     1     -10.532  16.908  69.567  1.00  0.00    -0.303 OA 
ENDBRANCH   5  13
TORSDOF 2
ENDMDL
MODEL        5
REMARK 921   NORMALIZED FREE ENERGY PREDICTED BY IDOCK:   -5.29 KCAL/MOL
REMARK 922        TOTAL FREE ENERGY PREDICTED BY IDOCK:   -6.24 KCAL/MOL
REMARK 923 INTER-LIGAND FREE ENERGY PREDICTED BY IDOCK:   -5.79 KCAL/MOL
REMARK 924 INTRA-LIGAND FREE ENERGY PREDICTED BY IDOCK:   -0.45 KCAL/MOL
REMARK 927      BINDING AFFINITY PREDICTED BY RF-SCORE:    0.00 PKD
ROOT
HETATM    1  C   UNL     1      -8.712  16.363  67.840  1.00  0.00    -0.179 C  
HETATM    2  O   UNL     1      -9.845  16.289  68.707  1.00  0.00    -0.219 OA 
HETATM    3  C   UNL     1     -11.032  16.142  67.907  1.00  0.00    -0.318 C  
HETATM    4  C   UNL     1     -10.610  15.966  66.449  1.00  0.00    -0.297 C  
HETATM    5  C   UNL     1      -8.263  17.792  67.538  1.00  0.00    -0.225 C  
HETATM    6  C   UNL     1      -9.095  15.806  66.483  1.00  0.00    -0.293 C  
HETATM    7  C   UNL     1      -7.637  17.596  66.164  1.00  0.00    -0.280 C  
HETATM    8  O   UNL     1      -8.449  16.615  65.485  1.00  0.00    -0.173 OA 
ENDROOT
BRANCH   4   9
HETATM    9  O   UNL     1     -11.339  15.014  65.683  1.00  0.00    -0.345 OA 
HETATM   10  O   UNL     1     -12.440  14.584  63.826  1.00  0.00    -0.809 OA 
HETATM   11  O   UNL     1     -11.614  16.630  64.122  1.00  0.00    -1.102 OA 
HETATM   12  N   UNL     1     -11.837  15.462  64.437  1.00  0.00    -0.347 N  
ENDBRANCH   4   9
BRANCH   5  13
HETATM   13  O   UNL     1      -9.420  18.633  67.458  1.00  0.00    -0.286 OA 
HETATM   14  N   UNL     1      -9.442  19.656  68.429  1.00  0.00    -0.366 N  
HETATM   15  O   UNL     1     -10.516  20.250  68.468  1.00  0.00    -0.325 OA 
HETATM   16  O   UNL     1      -8.407  19.841  69.070  1.00  0.00    -0.229 OA 
ENDBRANCH   5  13
TORSDOF 2
ENDMDL
MODEL        6
REMARK 921   NORMALIZED FREE ENERGY PREDICTED BY IDOCK:   -5.26 KCAL/MOL
REMARK 922        TOTAL FREE ENERGY PREDICTED BY IDOCK:   -6.21 KCAL/MOL
REMARK 923 INTER-LIGAND FREE ENERGY PREDICTED BY IDOCK:   -6.06 KCAL/MOL
REMARK 924 INTRA-LIGAND FREE ENERGY PREDICTED BY IDOCK:   -0.15 KCAL/MOL
REMARK 927      BINDING AFFINITY PREDICTED BY RF-SCORE:    0.00 PKD
ROOT
HETATM    1  C   UNL     1      -9.953  14.505  67.601  1.00  0.00    -0.224 C  
HETATM    2  O   UNL     1      -9.347  14.592  66.311  1.00  0.00    -0.285 OA 
HETATM    3  C   UNL     1      -9.539  15.922  65.796  1.00  0.00    -0.304 C  
HETATM    4  C   UNL     1     -10.183  16.771  66.891  1.00  0.00    -0.290 C  
HETATM    5  C   UNL     1     -11.361  13.914  67.577  1.00  0.00    -0.318 C  
HETATM    6  C   UNL     1     -10.153  15.906  68.144  1.00  0.00    -0.229 C  
HETATM    7  C   UNL     1     -11.961  14.590  68.803  1.00  0.00    -0.280 C  
HETATM    8  O   UNL     1     -11.413  15.925  68.838  1.00  0.00    -0.348 OA 
ENDROOT
BRANCH   4   9
HETATM    9  O   UNL     1      -9.712  18.107  67.021  1.00  0.00    -0.286 OA 
HETATM   10  O   UNL     1      -9.748  20.168  66.247  1.00  0.00    -0.412 OA 
HETATM   11  O   UNL     1     -10.943  18.614  65.190  1.00  0.00    -0.543 OA 
HETATM   12  N   UNL     1     -10.182  19.034  66.062  1.00  0.00    -0.428 N  
ENDBRANCH   4   9
BRANCH   5  13
HETATM   13  O   UNL     1     -12.023  14.342  66.382  1.00  0.00    -0.404 OA 
HETATM   14  N   UNL     1     -12.369  13.283  65.517  1.00  0.00    -0.462 N  
HETATM   15  O   UNL     1     -12.765  13.673  64.423  1.00  0.00    -0.642 OA 
HETATM   16  O   UNL     1     -12.265  12.140  65.964  1.00  0.00    -0.609 OA 
ENDBRANCH   5  13
TORSDOF 2
ENDMDL
MODEL        7
REMARK 921   NORMALIZED FREE ENERGY PREDICTED BY IDOCK:   -5.17 KCAL/MOL
REMARK 922        TOTAL FREE ENERGY PREDICTED BY IDOCK:   -6.11 KCAL/MOL
REMARK 923 INTER-LIGAND FREE ENERGY PREDICTED BY IDOCK:   -5.70 KCAL/MOL
REMARK 924 INTRA-LIGAND FREE ENERGY PREDICTED BY IDOCK:   -0.41 KCAL/MOL
REMARK 927      BINDING AFFINITY PREDICTED BY RF-SCORE:    0.00 PKD
ROOT
HETATM    1  C   UNL     1      -9.576  15.311  68.359  1.00  0.00    -0.206 C  
HETATM    2  O   UNL     1     -10.777  15.487  69.111  1.00  0.00    -0.226 OA 
HETATM    3  C   UNL     1     -11.900  15.133  68.283  1.00  0.00    -0.250 C  
HETATM    4  C   UNL     1     -11.365  14.560  66.971  1.00  0.00    -0.349 C  
HETATM    5  C   UNL     1      -9.061  16.598  67.718  1.00  0.00    -0.212 C  
HETATM    6  C   UNL     1      -9.864  14.404  67.180  1.00  0.00    -0.254 C  
HETATM    7  C   UNL     1      -8.330  16.026  66.509  1.00  0.00    -0.313 C  
HETATM    8  O   UNL     1      -9.114  14.901  66.058  1.00  0.00    -0.241 OA 
ENDROOT
BRANCH   4   9
HETATM    9  O   UNL     1     -12.059  13.438  66.436  1.00  0.00    -0.404 OA 
HETATM   10  O   UNL     1     -13.160  12.584  64.732  1.00  0.00    -0.853 OA 
HETATM   11  O   UNL     1     -12.426  14.679  64.579  1.00  0.00    -0.579 OA 
HETATM   12  N   UNL     1     -12.591  13.594  65.134  1.00  0.00    -0.442 N  
ENDBRANCH   4   9
BRANCH   5  13
HETATM   13  O   UNL     1     -10.180  17.392  67.310  1.00  0.00    -0.305 OA 
HETATM   14  N   UNL     1     -10.102  18.737  67.730  1.00  0.00    -0.349 N  
HETATM   15  O   UNL     1     -11.144  19.356  67.536  1.00  0.00    -0.417 OA 
HETATM   16  O   UNL     1      -9.025  19.116  68.192  1.00  0.00    -0.300 OA 
ENDBRANCH   5  13
TORSDOF 2
ENDMDL
MODEL        8
REMARK 921   NORMALIZED FREE ENERGY PREDICTED BY IDOCK:   -5.15 KCAL/MOL
REMARK 922        TOTAL FREE ENERGY PREDICTED BY IDOCK:   -6.08 KCAL/MOL
REMARK 923 INTER-LIGAND FREE ENERGY PREDICTED BY IDOCK:   -5.69 KCAL/MOL
REMARK 924 INTRA-LIGAND FREE ENERGY PREDICTED BY IDOCK:   -0.39 KCAL/MOL
REMARK 927      BINDING AFFINITY PREDICTED BY RF-SCORE:    0.00 PKD
ROOT
HETATM    1  C   UNL     1     -11.149  12.806  66.332  1.00  0.00    -0.285 C  
HETATM    2  O   UNL     1      -9.735  12.873  66.520  1.00  0.00    -0.246 OA 
HETATM    3  C   UNL     1      -9.271  14.168  66.097  1.00  0.00    -0.055 C  
HETATM    4  C   UNL     1     -10.488  15.024  65.753  1.00  0.00    -0.337 C  
HETATM    5  C   UNL     1     -11.561  12.137  65.021  1.00  0.00    -0.310 C  
HETATM    6  C   UNL     1     -11.695  14.215  66.211  1.00  0.00    -0.390 C  
HETATM    7  C   UNL     1     -12.894  12.830  64.770  1.00  0.00    -0.293 C  
HETATM    8  O   UNL     1     -12.733  14.193  65.215  1.00  0.00    -0.587 OA 
ENDROOT
BRANCH   4   9
HETATM    9  O   UNL     1     -10.441  16.389  66.153  1.00  0.00    -0.324 OA 
HETATM   10  O   UNL     1     -10.865  18.487  65.635  1.00  0.00    -0.422 OA 
HETATM   11  O   UNL     1     -11.322  16.908  64.134  1.00  0.00    -1.208 OA 
HETATM   12  N   UNL     1     -10.920  17.334  65.216  1.00  0.00    -0.101 N  
ENDBRANCH   4   9
BRANCH   5  13
HETATM   13  O   UNL     1     -10.608  12.478  64.008  1.00  0.00    -0.362 OA 
HETATM   14  N   UNL     1      -9.859  11.377  63.544  1.00  0.00    -0.338 N  
HETATM   15  O   UNL     1      -8.928  11.709  62.816  1.00  0.00    -0.283 OA 
HETATM   16  O   UNL     1     -10.240  10.257  63.887  1.00  0.00    -0.145 OA 
ENDBRANCH   5  13
TORSDOF 2
ENDMDL
MODEL        9
REMARK 921   NORMALIZED FREE ENERGY PREDICTED BY IDOCK:   -5.12 KCAL/MOL
REMARK 922        TOTAL FREE ENERGY PREDICTED BY IDOCK:   -6.06 KCAL/MOL
REMARK 923 INTER-LIGAND FREE ENERGY PREDICTED BY IDOCK:   -5.63 KCAL/MOL
REMARK 924 INTRA-LIGAND FREE ENERGY PREDICTED BY IDOCK:   -0.43 KCAL/MOL
REMARK 927      BINDING AFFINITY PREDICTED BY RF-SCORE:    0.00 PKD
ROOT
HETATM    1  C   UNL     1     -10.588  14.917  67.789  1.00  0.00    -0.262 C  
HETATM    2  O   UNL     1     -11.978  14.692  67.555  1.00  0.00    -0.375 OA 
HETATM    3  C   UNL     1     -12.132  13.471  66.810  1.00  0.00    -0.375 C  
HETATM    4  C   UNL     1     -10.761  12.807  66.688  1.00  0.00    -0.261 C  
HETATM    5  C   UNL     1      -9.942  15.864  66.779  1.00  0.00    -0.248 C  
HETATM    6  C   UNL     1      -9.840  13.612  67.596  1.00  0.00    -0.228 C  
HETATM    7  C   UNL     1      -8.507  15.353  66.804  1.00  0.00    -0.272 C  
HETATM    8  O   UNL     1      -8.591  13.920  66.953  1.00  0.00    -0.201 OA 
ENDROOT
BRANCH   4   9
HETATM    9  O   UNL     1     -10.723  11.391  66.827  1.00  0.00    -0.247 OA 
HETATM   10  O   UNL     1     -10.065   9.465  65.988  1.00  0.00    -0.300 OA 
HETATM   11  O   UNL     1      -9.610  11.328  64.858  1.00  0.00    -0.228 OA 
HETATM   12  N   UNL     1     -10.074  10.677  65.793  1.00  0.00    -0.256 N  
ENDBRANCH   4   9
BRANCH   5  13
HETATM   13  O   UNL     1     -10.539  15.648  65.495  1.00  0.00    -0.353 OA 
HETATM   14  N   UNL     1     -11.012  16.829  64.886  1.00  0.00    -0.236 N  
HETATM   15  O   UNL     1     -11.681  16.610  63.880  1.00  0.00    -1.153 OA 
HETATM   16  O   UNL     1     -10.679  17.896  65.403  1.00  0.00    -0.634 OA 
ENDBRANCH   5  13
TORSDOF 2
ENDMDL
MODEL       10
REMARK 921   NORMALIZED FREE ENERGY PREDICTED BY IDOCK:   -5.12 KCAL/MOL
REMARK 922        TOTAL FREE ENERGY PREDICTED BY IDOCK:   -6.05 KCAL/MOL
REMARK 923 INTER-LIGAND FREE ENERGY PREDICTED BY IDOCK:   -5.73 KCAL/MOL
REMARK 924 INTRA-LIGAND FREE ENERGY PREDICTED BY IDOCK:   -0.32 KCAL/MOL
REMARK 927      BINDING AFFINITY PREDICTED BY RF-SCORE:    0.00 PKD
ROOT
HETATM    1  C   UNL     1     -12.226  13.787  65.909  1.00  0.00    -0.466 C  
HETATM    2  O   UNL     1     -12.250  14.409  67.194  1.00  0.00    -0.390 OA 
HETATM    3  C   UNL     1     -11.066  15.212  67.343  1.00  0.00    -0.325 C  
HETATM    4  C   UNL     1     -10.316  15.213  66.012  1.00  0.00    -0.311 C  
HETATM    5  C   UNL     1     -11.684  12.359  65.929  1.00  0.00    -0.419 C  
HETATM    6  C   UNL     1     -11.253  14.536  65.019  1.00  0.00    -0.382 C  
HETATM    7  C   UNL     1     -11.118  12.263  64.518  1.00  0.00    -0.321 C  
HETATM    8  O   UNL     1     -10.566  13.562  64.214  1.00  0.00    -0.412 OA 
ENDROOT
BRANCH   4   9
HETATM    9  O   UNL     1      -9.736  16.448  65.607  1.00  0.00    -0.492 OA 
HETATM   10  O   UNL     1      -7.949  17.733  65.580  1.00  0.00    -0.532 OA 
HETATM   11  O   UNL     1      -7.831  15.771  66.625  1.00  0.00    -0.234 OA 
HETATM   12  N   UNL     1      -8.387  16.657  65.977  1.00  0.00    -0.256 N  
ENDBRANCH   4   9
BRANCH   5  13
HETATM   13  O   UNL     1     -10.641  12.274  66.906  1.00  0.00    -0.219 OA 
HETATM   14  N   UNL     1     -10.998  11.531  68.050  1.00  0.00    -0.215 N  
HETATM   15  O   UNL     1     -10.170  11.619  68.952  1.00  0.00    -0.198 OA 
HETATM   16  O   UNL     1     -12.043  10.881  67.991  1.00  0.00    -0.563 OA 
ENDBRANCH   5  13
TORSDOF 2
ENDMDL
MODEL       11
REMARK 921   NORMALIZED FREE ENERGY PREDICTED BY IDOCK:   -5.08 KCAL/MOL
REMARK 922        TOTAL FREE ENERGY PREDICTED BY IDOCK:   -6.01 KCAL/MOL
REMARK 923 INTER-LIGAND FREE ENERGY PREDICTED BY IDOCK:   -5.56 KCAL/MOL
REMARK 924 INTRA-LIGAND FREE ENERGY PREDICTED BY IDOCK:   -0.45 KCAL/MOL
REMARK 927      BINDING AFFINITY PREDICTED BY RF-SCORE:    0.00 PKD
ROOT
HETATM    1  C   UNL     1      -8.986  19.040  66.238  1.00  0.00    -0.279 C  
HETATM    2  O   UNL     1      -7.940  18.130  65.895  1.00  0.00    -0.513 OA 
HETATM    3  C   UNL     1      -8.363  16.793  66.222  1.00  0.00    -0.318 C  
HETATM    4  C   UNL     1      -9.823  16.847  66.666  1.00  0.00    -0.287 C  
HETATM    5  C   UNL     1      -8.805  19.694  67.606  1.00  0.00    -0.320 C  
HETATM    6  C   UNL     1     -10.284  18.269  66.369  1.00  0.00    -0.403 C  
HETATM    7  C   UNL     1     -10.259  19.956  67.977  1.00  0.00    -0.436 C  
HETATM    8  O   UNL     1     -11.014  18.835  67.472  1.00  0.00    -0.407 OA 
ENDROOT
BRANCH   4   9
HETATM    9  O   UNL     1     -10.666  15.792  66.217  1.00  0.00    -0.312 OA 
HETATM   10  O   UNL     1     -12.128  14.235  66.752  1.00  0.00    -0.430 OA 
HETATM   11  O   UNL     1     -11.268  15.488  68.378  1.00  0.00    -0.305 OA 
HETATM   12  N   UNL     1     -11.413  15.120  67.213  1.00  0.00    -0.322 N  
ENDBRANCH   4   9
BRANCH   5  13
HETATM   13  O   UNL     1      -8.214  18.742  68.499  1.00  0.00    -0.328 OA 
HETATM   14  N   UNL     1      -6.936  19.121  68.962  1.00  0.00    -0.325 N  
HETATM   15  O   UNL     1      -6.367  18.222  69.574  1.00  0.00    -0.262 OA 
HETATM   16  O   UNL     1      -6.579  20.278  68.733  1.00  0.00    -0.310 OA 
ENDBRANCH   5  13
TORSDOF 2
ENDMDL
MODEL       12
REMARK 921   NORMALIZED FREE ENERGY PREDICTED BY IDOCK:   -5.06 KCAL/MOL
REMARK 922        TOTAL FREE ENERGY PREDICTED BY IDOCK:   -5.99 KCAL/MOL
REMARK 923 INTER-LIGAND FREE ENERGY PREDICTED BY IDOCK:   -5.72 KCAL/MOL
REMARK 924 INTRA-LIGAND FREE ENERGY PREDICTED BY IDOCK:   -0.27 KCAL/MOL
REMARK 927      BINDING AFFINITY PREDICTED BY RF-SCORE:    0.00 PKD
ROOT
HETATM    1  C   UNL     1      -9.863  13.455  66.480  1.00  0.00    -0.286 C  
HETATM    2  O   UNL     1      -9.050  14.617  66.319  1.00  0.00    -0.251 OA 
HETATM    3  C   UNL     1      -9.437  15.594  67.303  1.00  0.00    -0.216 C  
HETATM    4  C   UNL     1     -10.462  14.953  68.237  1.00  0.00    -0.239 C  
HETATM    5  C   UNL     1     -11.065  13.412  65.538  1.00  0.00    -0.282 C  
HETATM    6  C   UNL     1     -10.483  13.476  67.863  1.00  0.00    -0.250 C  
HETATM    7  C   UNL     1     -12.034  12.583  66.371  1.00  0.00    -0.318 C  
HETATM    8  O   UNL     1     -11.825  12.974  67.744  1.00  0.00    -0.349 OA 
ENDROOT
BRANCH   4   9
HETATM    9  O   UNL     1     -10.345  15.263  69.622  1.00  0.00    -0.245 OA 
HETATM   10  O   UNL     1     -11.365  15.874  71.474  1.00  0.00    -0.379 OA 
HETATM   11  O   UNL     1     -12.570  15.678  69.613  1.00  0.00    -0.189 OA 
HETATM   12  N   UNL     1     -11.539  15.637  70.282  1.00  0.00    -0.324 N  
ENDBRANCH   4   9
BRANCH   5  13
HETATM   13  O   UNL     1     -11.557  14.745  65.357  1.00  0.00    -0.343 OA 
HETATM   14  N   UNL     1     -12.182  14.951  64.109  1.00  0.00    -0.392 N  
HETATM   15  O   UNL     1     -12.433  16.133  63.893  1.00  0.00    -0.824 OA 
HETATM   16  O   UNL     1     -12.420  13.950  63.431  1.00  0.00    -0.833 OA 
ENDBRANCH   5  13
TORSDOF 2
ENDMDL
MODEL       13
REMARK 921   NORMALIZED FREE ENERGY PREDICTED BY IDOCK:   -5.06 KCAL/MOL
REMARK 922        TOTAL FREE ENERGY PREDICTED BY IDOCK:   -5.99 KCAL/MOL
REMARK 923 INTER-LIGAND FREE ENERGY PREDICTED BY IDOCK:   -5.60 KCAL/MOL
REMARK 924 INTRA-LIGAND FREE ENERGY PREDICTED BY IDOCK:   -0.38 KCAL/MOL
REMARK 927      BINDING AFFINITY PREDICTED BY RF-SCORE:    0.00 PKD
ROOT
HETATM    1  C   UNL     1     -11.517  11.468  65.005  1.00  0.00    -0.031 C  
HETATM    2  O   UNL     1     -12.003  11.918  66.269  1.00  0.00    -0.554 OA 
HETATM    3  C   UNL     1     -11.789  13.338  66.370  1.00  0.00    -0.396 C  
HETATM    4  C   UNL     1     -11.265  13.840  65.026  1.00  0.00    -0.335 C  
HETATM    5  C   UNL     1     -10.101  10.896  65.062  1.00  0.00    -0.300 C  
HETATM    6  C   UNL     1     -11.393  12.657  64.074  1.00  0.00    -0.407 C  
HETATM    7  C   UNL     1      -9.629  11.195  63.645  1.00  0.00    -0.288 C  
HETATM    8  O   UNL     1     -10.203  12.471  63.288  1.00  0.00    -0.370 OA 
ENDROOT
BRANCH   4   9
HETATM    9  O   UNL     1     -11.770  15.090  64.570  1.00  0.00    -0.416 OA 
HETATM   10  O   UNL     1     -11.410  17.244  64.294  1.00  0.00    -1.027 OA 
HETATM   11  O   UNL     1      -9.818  16.014  65.247  1.00  0.00    -0.435 OA 
HETATM   12  N   UNL     1     -10.915  16.206  64.724  1.00  0.00    -0.413 N  
ENDBRANCH   4   9
BRANCH   5  13
HETATM   13  O   UNL     1      -9.341  11.638  66.022  1.00  0.00    -0.223 OA 
HETATM   14  N   UNL     1      -9.029  10.903  67.185  1.00  0.00    -0.138 N  
HETATM   15  O   UNL     1      -8.541  11.600  68.070  1.00  0.00    -0.139 OA 
HETATM   16  O   UNL     1      -9.245   9.691  67.155  1.00  0.00    -0.133 OA 
ENDBRANCH   5  13
TORSDOF 2
ENDMDL
MODEL       14
REMARK 921   NORMALIZED FREE ENERGY PREDICTED BY IDOCK:   -5.01 KCAL/MOL
REMARK 922        TOTAL FREE ENERGY PREDICTED BY IDOCK:   -5.93 KCAL/MOL
REMARK 923 INTER-LIGAND FREE ENERGY PREDICTED BY IDOCK:   -5.59 KCAL/MOL
REMARK 924 INTRA-LIGAND FREE ENERGY PREDICTED BY IDOCK:   -0.33 KCAL/MOL
REMARK 927      BINDING AFFINITY PREDICTED BY RF-SCORE:    0.00 PKD
ROOT
HETATM    1  C   UNL     1     -10.560  14.058  68.672  1.00  0.00    -0.257 C  
HETATM    2  O   UNL     1     -10.674  15.368  68.116  1.00  0.00    -0.256 OA 
HETATM    3  C   UNL     1     -11.769  16.050  68.754  1.00  0.00    -0.299 C  
HETATM    4  C   UNL     1     -12.289  15.166  69.886  1.00  0.00    -0.276 C  
HETATM    5  C   UNL     1     -11.255  12.978  67.845  1.00  0.00    -0.271 C  
HETATM    6  C   UNL     1     -11.286  14.025  70.002  1.00  0.00    -0.100 C  
HETATM    7  C   UNL     1     -11.594  11.973  68.939  1.00  0.00    -0.321 C  
HETATM    8  O   UNL     1     -11.940  12.748  70.107  1.00  0.00    -0.342 OA 
ENDROOT
BRANCH   4   9
HETATM    9  O   UNL     1     -12.654  15.826  71.094  1.00  0.00    -0.443 OA 
HETATM   10  O   UNL     1     -14.049  15.939  72.793  1.00  0.00    -0.567 OA 
HETATM   11  O   UNL     1     -14.402  14.395  71.229  1.00  0.00    -0.313 OA 
HETATM   12  N   UNL     1     -13.805  15.334  71.752  1.00  0.00    -0.477 N  
ENDBRANCH   4   9
BRANCH   5  13
HETATM   13  O   UNL     1     -12.445  13.530  67.271  1.00  0.00    -0.215 OA 
HETATM   14  N   UNL     1     -12.517  13.383  65.870  1.00  0.00    -0.432 N  
HETATM   15  O   UNL     1     -13.443  14.017  65.373  1.00  0.00    -0.679 OA 
HETATM   16  O   UNL     1     -11.690  12.637  65.343  1.00  0.00    -0.347 OA 
ENDBRANCH   5  13
TORSDOF 2
ENDMDL
MODEL       15
REMARK 921   NORMALIZED FREE ENERGY PREDICTED BY IDOCK:   -5.00 KCAL/MOL
REMARK 922        TOTAL FREE ENERGY PREDICTED BY IDOCK:   -5.92 KCAL/MOL
REMARK 923 INTER-LIGAND FREE ENERGY PREDICTED BY IDOCK:   -5.58 KCAL/MOL
REMARK 924 INTRA-LIGAND FREE ENERGY PREDICTED BY IDOCK:   -0.35 KCAL/MOL
REMARK 927      BINDING AFFINITY PREDICTED BY RF-SCORE:    0.00 PKD
ROOT
HETATM    1  C   UNL     1     -10.648  15.411  67.768  1.00  0.00    -0.274 C  
HETATM    2  O   UNL     1     -11.986  14.979  68.019  1.00  0.00    -0.296 OA 
HETATM    3  C   UNL     1     -12.024  13.541  67.976  1.00  0.00    -0.337 C  
HETATM    4  C   UNL     1     -10.593  13.027  67.831  1.00  0.00    -0.229 C  
HETATM    5  C   UNL     1     -10.392  15.798  66.312  1.00  0.00    -0.310 C  
HETATM    6  C   UNL     1      -9.703  14.251  68.010  1.00  0.00    -0.223 C  
HETATM    7  C   UNL     1      -8.903  15.494  66.207  1.00  0.00    -0.303 C  
HETATM    8  O   UNL     1      -8.674  14.315  67.008  1.00  0.00    -0.214 OA 
ENDROOT
BRANCH   4   9
HETATM    9  O   UNL     1     -10.251  11.869  68.584  1.00  0.00    -0.216 OA 
HETATM   10  O   UNL     1      -9.789   9.717  68.564  1.00  0.00    -0.151 OA 
HETATM   11  O   UNL     1     -10.287  10.715  66.637  1.00  0.00    -0.227 OA 
HETATM   12  N   UNL     1     -10.100  10.668  67.852  1.00  0.00    -0.164 N  
ENDBRANCH   4   9
BRANCH   5  13
HETATM   13  O   UNL     1     -11.152  14.931  65.463  1.00  0.00    -0.329 OA 
HETATM   14  N   UNL     1     -11.755  15.593  64.373  1.00  0.00    -0.318 N  
HETATM   15  O   UNL     1     -12.547  14.881  63.763  1.00  0.00    -0.791 OA 
HETATM   16  O   UNL     1     -11.399  16.753  64.158  1.00  0.00    -1.194 OA 
ENDBRANCH   5  13
TORSDOF 2
ENDMDL
MODEL       16
REMARK 921   NORMALIZED FREE ENERGY PREDICTED BY IDOCK:   -4.97 KCAL/MOL
REMARK 922        TOTAL FREE ENERGY PREDICTED BY IDOCK:   -5.88 KCAL/MOL
REMARK 923 INTER-LIGAND FREE ENERGY PREDICTED BY IDOCK:   -5.60 KCAL/MOL
REMARK 924 INTRA-LIGAND FREE ENERGY PREDICTED BY IDOCK:   -0.28 KCAL/MOL
REMARK 927      BINDING AFFINITY PREDICTED BY RF-SCORE:    0.00 PKD
ROOT
HETATM    1  C   UNL     1     -11.975  11.972  63.985  1.00  0.00    -0.403 C  
HETATM    2  O   UNL     1     -13.086  12.350  64.798  1.00  0.00    -0.806 OA 
HETATM    3  C   UNL     1     -12.838  13.657  65.345  1.00  0.00    -0.389 C  
HETATM    4  C   UNL     1     -11.552  14.201  64.723  1.00  0.00    -0.396 C  
HETATM    5  C   UNL     1     -10.958  11.091  64.708  1.00  0.00    -0.072 C  
HETATM    6  C   UNL     1     -11.189  13.215  63.620  1.00  0.00    -0.194 C  
HETATM    7  C   UNL     1      -9.689  11.461  63.949  1.00  0.00    -0.270 C  
HETATM    8  O   UNL     1      -9.793  12.869  63.650  1.00  0.00    -0.199 OA 
ENDROOT
BRANCH   4   9
HETATM    9  O   UNL     1     -11.544  15.582  64.379  1.00  0.00    -0.387 OA 
HETATM   10  O   UNL     1     -10.916  17.621  64.920  1.00  0.00    -0.886 OA 
HETATM   11  O   UNL     1     -10.411  15.952  66.303  1.00  0.00    -0.289 OA 
HETATM   12  N   UNL     1     -10.898  16.450  65.290  1.00  0.00    -0.325 N  
ENDBRANCH   4   9
BRANCH   5  13
HETATM   13  O   UNL     1     -10.875  11.507  66.076  1.00  0.00    -0.280 OA 
HETATM   14  N   UNL     1     -10.671  10.443  66.978  1.00  0.00    -0.256 N  
HETATM   15  O   UNL     1     -10.786  10.786  68.151  1.00  0.00    -0.199 OA 
HETATM   16  O   UNL     1     -10.380   9.348  66.495  1.00  0.00    -0.251 OA 
ENDBRANCH   5  13
TORSDOF 2
ENDMDL
MODEL       17
REMARK 921   NORMALIZED FREE ENERGY PREDICTED BY IDOCK:   -4.94 KCAL/MOL
REMARK 922        TOTAL FREE ENERGY PREDICTED BY IDOCK:   -5.86 KCAL/MOL
REMARK 923 INTER-LIGAND FREE ENERGY PREDICTED BY IDOCK:   -5.47 KCAL/MOL
REMARK 924 INTRA-LIGAND FREE ENERGY PREDICTED BY IDOCK:   -0.39 KCAL/MOL
REMARK 927      BINDING AFFINITY PREDICTED BY RF-SCORE:    0.00 PKD
ROOT
HETATM    1  C   UNL     1     -11.826  12.971  66.487  1.00  0.00    -0.403 C  
HETATM    2  O   UNL     1     -12.855  13.120  65.508  1.00  0.00    -0.494 OA 
HETATM    3  C   UNL     1     -12.375  12.615  64.249  1.00  0.00    -0.435 C  
HETATM    4  C   UNL     1     -11.007  11.975  64.479  1.00  0.00    -0.318 C  
HETATM    5  C   UNL     1     -10.993  14.234  66.697  1.00  0.00    -0.310 C  
HETATM    6  C   UNL     1     -10.822  11.949  65.991  1.00  0.00    -0.299 C  
HETATM    7  C   UNL     1      -9.673  13.619  67.142  1.00  0.00    -0.245 C  
HETATM    8  O   UNL     1      -9.514  12.406  66.377  1.00  0.00    -0.237 OA 
ENDROOT
BRANCH   4   9
HETATM    9  O   UNL     1     -10.743  10.764  63.779  1.00  0.00    -0.231 OA 
HETATM   10  O   UNL     1      -9.426   9.679  62.389  1.00  0.00    -0.216 OA 
HETATM   11  O   UNL     1      -8.937  11.794  62.884  1.00  0.00    -0.226 OA 
HETATM   12  N   UNL     1      -9.600  10.759  62.947  1.00  0.00    -0.327 N  
ENDBRANCH   4   9
BRANCH   5  13
HETATM   13  O   UNL     1     -10.847  14.906  65.441  1.00  0.00    -0.323 OA 
HETATM   14  N   UNL     1     -10.997  16.306  65.528  1.00  0.00    -0.209 N  
HETATM   15  O   UNL     1     -11.053  16.848  64.428  1.00  0.00    -1.128 OA 
HETATM   16  O   UNL     1     -11.018  16.796  66.658  1.00  0.00    -0.071 OA 
ENDBRANCH   5  13
TORSDOF 2
ENDMDL
MODEL       18
REMARK 921   NORMALIZED FREE ENERGY PREDICTED BY IDOCK:   -4.94 KCAL/MOL
REMARK 922        TOTAL FREE ENERGY PREDICTED BY IDOCK:   -5.85 KCAL/MOL
REMARK 923 INTER-LIGAND FREE ENERGY PREDICTED BY IDOCK:   -5.46 KCAL/MOL
REMARK 924 INTRA-LIGAND FREE ENERGY PREDICTED BY IDOCK:   -0.39 KCAL/MOL
REMARK 927      BINDING AFFINITY PREDICTED BY RF-SCORE:    0.00 PKD
ROOT
HETATM    1  C   UNL     1     -12.277  14.178  66.208  1.00  0.00    -0.449 C  
HETATM    2  O   UNL     1     -12.259  12.835  66.693  1.00  0.00    -0.481 OA 
HETATM    3  C   UNL     1     -10.973  12.573  67.284  1.00  0.00    -0.261 C  
HETATM    4  C   UNL     1     -10.179  13.877  67.303  1.00  0.00    -0.249 C  
HETATM    5  C   UNL     1     -11.958  14.296  64.718  1.00  0.00    -0.440 C  
HETATM    6  C   UNL     1     -11.166  14.959  66.882  1.00  0.00    -0.343 C  
HETATM    7  C   UNL     1     -11.355  15.694  64.678  1.00  0.00    -0.349 C  
HETATM    8  O   UNL     1     -10.601  15.845  65.900  1.00  0.00    -0.323 OA 
ENDROOT
BRANCH   4   9
HETATM    9  O   UNL     1      -9.402  14.135  68.468  1.00  0.00    -0.202 OA 
HETATM   10  O   UNL     1      -7.464  14.767  69.298  1.00  0.00    -0.154 OA 
HETATM   11  O   UNL     1      -7.681  14.637  67.087  1.00  0.00    -0.193 OA 
HETATM   12  N   UNL     1      -8.067  14.547  68.251  1.00  0.00    -0.132 N  
ENDBRANCH   4   9
BRANCH   5  13
HETATM   13  O   UNL     1     -10.980  13.307  64.375  1.00  0.00    -0.358 OA 
HETATM   14  N   UNL     1     -11.515  12.201  63.682  1.00  0.00    -0.451 N  
HETATM   15  O   UNL     1     -10.709  11.284  63.557  1.00  0.00    -0.379 OA 
HETATM   16  O   UNL     1     -12.673  12.304  63.274  1.00  0.00    -0.699 OA 
ENDBRANCH   5  13
TORSDOF 2
ENDMDL
MODEL       19
REMARK 921   NORMALIZED FREE ENERGY PREDICTED BY IDOCK:   -4.94 KCAL/MOL
REMARK 922        TOTAL FREE ENERGY PREDICTED BY IDOCK:   -5.85 KCAL/MOL
REMARK 923 INTER-LIGAND FREE ENERGY PREDICTED BY IDOCK:   -5.51 KCAL/MOL
REMARK 924 INTRA-LIGAND FREE ENERGY PREDICTED BY IDOCK:   -0.34 KCAL/MOL
REMARK 927      BINDING AFFINITY PREDICTED BY RF-SCORE:    0.00 PKD
ROOT
HETATM    1  C   UNL     1      -9.916  14.536  68.026  1.00  0.00    -0.222 C  
HETATM    2  O   UNL     1      -9.340  15.153  69.178  1.00  0.00    -0.205 OA 
HETATM    3  C   UNL     1     -10.355  15.286  70.190  1.00  0.00    -0.187 C  
HETATM    4  C   UNL     1     -11.617  14.578  69.699  1.00  0.00    -0.299 C  
HETATM    5  C   UNL     1     -10.358  15.531  66.955  1.00  0.00    -0.290 C  
HETATM    6  C   UNL     1     -11.200  13.841  68.432  1.00  0.00    -0.272 C  
HETATM    7  C   UNL     1     -11.489  14.745  66.303  1.00  0.00    -0.316 C  
HETATM    8  O   UNL     1     -12.149  14.029  67.368  1.00  0.00    -0.402 OA 
ENDROOT
BRANCH   4   9
HETATM    9  O   UNL     1     -12.346  13.831  70.666  1.00  0.00    -0.339 OA 
HETATM   10  O   UNL     1     -14.056  13.767  72.051  1.00  0.00    -0.469 OA 
HETATM   11  O   UNL     1     -13.713  15.623  70.873  1.00  0.00    -0.549 OA 
HETATM   12  N   UNL     1     -13.467  14.476  71.240  1.00  0.00    -0.366 N  
ENDBRANCH   4   9
BRANCH   5  13
HETATM   13  O   UNL     1     -10.858  16.710  67.596  1.00  0.00    -0.324 OA 
HETATM   14  N   UNL     1     -10.324  17.907  67.074  1.00  0.00    -0.357 N  
HETATM   15  O   UNL     1     -10.616  18.891  67.747  1.00  0.00    -0.415 OA 
HETATM   16  O   UNL     1      -9.683  17.822  66.025  1.00  0.00    -0.496 OA 
ENDBRANCH   5  13
TORSDOF 2
ENDMDL
MODEL       20
REMARK 921   NORMALIZED FREE ENERGY PREDICTED BY IDOCK:   -4.93 KCAL/MOL
REMARK 922        TOTAL FREE ENERGY PREDICTED BY IDOCK:   -5.84 KCAL/MOL
REMARK 923 INTER-LIGAND FREE ENERGY PREDICTED BY IDOCK:   -5.46 KCAL/MOL
REMARK 924 INTRA-LIGAND FREE ENERGY PREDICTED BY IDOCK:   -0.38 KCAL/MOL
REMARK 927      BINDING AFFINITY PREDICTED BY RF-SCORE:    0.00 PKD
ROOT
HETATM    1  C   UNL     1     -10.349  18.388  66.412  1.00  0.00    -0.405 C  
HETATM    2  O   UNL     1     -10.994  19.227  67.370  1.00  0.00    -0.484 OA 
HETATM    3  C   UNL     1      -9.996  19.781  68.247  1.00  0.00    -0.444 C  
HETATM    4  C   UNL     1      -8.619  19.380  67.721  1.00  0.00    -0.311 C  
HETATM    5  C   UNL     1     -10.361  16.907  66.788  1.00  0.00    -0.298 C  
HETATM    6  C   UNL     1      -8.876  18.740  66.362  1.00  0.00    -0.291 C  
HETATM    7  C   UNL     1      -9.095  16.437  66.083  1.00  0.00    -0.326 C  
HETATM    8  O   UNL     1      -8.142  17.514  66.201  1.00  0.00    -0.416 OA 
ENDROOT
BRANCH   4   9
HETATM    9  O   UNL     1      -7.600  20.372  67.781  1.00  0.00    -0.295 OA 
HETATM   10  O   UNL     1      -5.720  21.040  68.712  1.00  0.00    -0.345 OA 
HETATM   11  O   UNL     1      -6.645  19.146  69.427  1.00  0.00    -0.298 OA 
HETATM   12  N   UNL     1      -6.571  20.155  68.728  1.00  0.00    -0.313 N  
ENDBRANCH   4   9
BRANCH   5  13
HETATM   13  O   UNL     1     -10.228  16.789  68.209  1.00  0.00    -0.266 OA 
HETATM   14  N   UNL     1     -11.172  15.920  68.794  1.00  0.00    -0.337 N  
HETATM   15  O   UNL     1     -11.168  15.969  70.020  1.00  0.00    -0.315 OA 
HETATM   16  O   UNL     1     -11.836  15.219  68.029  1.00  0.00    -0.314 OA 
ENDBRANCH   5  13
TORSDOF 2
ENDMDL
MODEL       21
REMARK 921   NORMALIZED FREE ENERGY PREDICTED BY IDOCK:   -4.91 KCAL/MOL
REMARK 922        TOTAL FREE ENERGY PREDICTED BY IDOCK:   -5.82 KCAL/MOL
REMARK 923 INTER-LIGAND FREE ENERGY PREDICTED BY IDOCK:   -5.44 KCAL/MOL
REMARK 924 INTRA-LIGAND FREE ENERGY PREDICTED BY IDOCK:   -0.38 KCAL/MOL
REMARK 927      BINDING AFFINITY PREDICTED BY RF-SCORE:    0.00 PKD
ROOT
HETATM    1  C   UNL     1      -9.796  11.714  67.746  1.00  0.00    -0.179 C  
HETATM    2  O   UNL     1      -8.894  11.202  66.764  1.00  0.00    -0.152 OA 
HETATM    3  C   UNL     1      -9.485  11.365  65.462  1.00  0.00    -0.227 C  
HETATM    4  C   UNL     1     -10.779  12.162  65.619  1.00  0.00    -0.275 C  
HETATM    5  C   UNL     1     -10.670  10.642  68.393  1.00  0.00    -0.222 C  
HETATM    6  C   UNL     1     -10.790  12.635  67.067  1.00  0.00    -0.253 C  
HETATM    7  C   UNL     1     -11.895  11.471  68.758  1.00  0.00    -0.330 C  
HETATM    8  O   UNL     1     -12.070  12.424  67.688  1.00  0.00    -0.470 OA 
ENDROOT
BRANCH   4   9
HETATM    9  O   UNL     1     -11.052  13.140  64.621  1.00  0.00    -0.314 OA 
HETATM   10  O   UNL     1     -12.555  14.100  63.332  1.00  0.00    -0.818 OA 
HETATM   11  O   UNL     1     -13.206  12.448  64.674  1.00  0.00    -0.822 OA 
HETATM   12  N   UNL     1     -12.392  13.225  64.178  1.00  0.00    -0.367 N  
ENDBRANCH   4   9
BRANCH   5  13
HETATM   13  O   UNL     1     -10.996   9.654  67.409  1.00  0.00    -0.247 OA 
HETATM   14  N   UNL     1     -10.576   8.352  67.755  1.00  0.00    -0.208 N  
HETATM   15  O   UNL     1     -10.695   7.553  66.830  1.00  0.00    -0.352 OA 
HETATM   16  O   UNL     1     -10.189   8.178  68.911  1.00  0.00    -0.202 OA 
ENDBRANCH   5  13
TORSDOF 2
ENDMDL
MODEL       22
REMARK 921   NORMALIZED FREE ENERGY PREDICTED BY IDOCK:   -4.88 KCAL/MOL
REMARK 922        TOTAL FREE ENERGY PREDICTED BY IDOCK:   -5.79 KCAL/MOL
REMARK 923 INTER-LIGAND FREE ENERGY PREDICTED BY IDOCK:   -5.38 KCAL/MOL
REMARK 924 INTRA-LIGAND FREE ENERGY PREDICTED BY IDOCK:   -0.41 KCAL/MOL
REMARK 927      BINDING AFFINITY PREDICTED BY RF-SCORE:    0.00 PKD
ROOT
HETATM    1  C   UNL     1     -10.249  18.730  66.139  1.00  0.00    -0.421 C  
HETATM    2  O   UNL     1     -10.153  17.462  65.491  1.00  0.00    -0.579 OA 
HETATM    3  C   UNL     1     -10.257  16.425  66.483  1.00  0.00    -0.304 C  
HETATM    4  C   UNL     1     -10.583  17.076  67.826  1.00  0.00    -0.350 C  
HETATM    5  C   UNL     1      -8.894  19.368  66.441  1.00  0.00    -0.359 C  
HETATM    6  C   UNL     1     -10.875  18.537  67.506  1.00  0.00    -0.291 C  
HETATM    7  C   UNL     1      -9.252  20.203  67.663  1.00  0.00    -0.345 C  
HETATM    8  O   UNL     1     -10.207  19.428  68.417  1.00  0.00    -0.405 OA 
ENDROOT
BRANCH   4   9
HETATM    9  O   UNL     1     -11.523  16.400  68.652  1.00  0.00    -0.349 OA 
HETATM   10  O   UNL     1     -11.872  15.220  70.477  1.00  0.00    -0.273 OA 
HETATM   11  O   UNL     1      -9.790  15.840  69.995  1.00  0.00    -0.237 OA 
HETATM   12  N   UNL     1     -11.003  15.768  69.805  1.00  0.00    -0.286 N  
ENDBRANCH   4   9
BRANCH   5  13
HETATM   13  O   UNL     1      -7.962  18.335  66.782  1.00  0.00    -0.228 OA 
HETATM   14  N   UNL     1      -6.919  18.184  65.844  1.00  0.00    -0.286 N  
HETATM   15  O   UNL     1      -6.237  17.183  66.050  1.00  0.00    -0.187 OA 
HETATM   16  O   UNL     1      -6.805  19.062  64.988  1.00  0.00    -0.478 OA 
ENDBRANCH   5  13
TORSDOF 2
ENDMDL
MODEL       23
REMARK 921   NORMALIZED FREE ENERGY PREDICTED BY IDOCK:   -4.86 KCAL/MOL
REMARK 922        TOTAL FREE ENERGY PREDICTED BY IDOCK:   -5.77 KCAL/MOL
REMARK 923 INTER-LIGAND FREE ENERGY PREDICTED BY IDOCK:   -5.35 KCAL/MOL
REMARK 924 INTRA-LIGAND FREE ENERGY PREDICTED BY IDOCK:   -0.41 KCAL/MOL
REMARK 927      BINDING AFFINITY PREDICTED BY RF-SCORE:    0.00 PKD
ROOT
HETATM    1  C   UNL     1     -12.161  12.767  65.948  1.00  0.00    -0.426 C  
HETATM    2  O   UNL     1     -11.481  12.429  67.157  1.00  0.00    -0.313 OA 
HETATM    3  C   UNL     1     -10.648  13.537  67.546  1.00  0.00    -0.244 C  
HETATM    4  C   UNL     1     -10.929  14.704  66.601  1.00  0.00    -0.323 C  
HETATM    5  C   UNL     1     -11.473  12.239  64.690  1.00  0.00    -0.336 C  
HETATM    6  C   UNL     1     -12.134  14.273  65.773  1.00  0.00    -0.405 C  
HETATM    7  C   UNL     1     -11.923  13.281  63.674  1.00  0.00    -0.486 C  
HETATM    8  O   UNL     1     -11.945  14.543  64.373  1.00  0.00    -0.456 OA 
ENDROOT
BRANCH   4   9
HETATM    9  O   UNL     1     -10.982  16.000  67.185  1.00  0.00    -0.289 OA 
HETATM   10  O   UNL     1     -10.379  18.114  67.059  1.00  0.00    -0.352 OA 
HETATM   11  O   UNL     1      -9.667  16.710  65.485  1.00  0.00    -0.538 OA 
HETATM   12  N   UNL     1     -10.275  17.022  66.508  1.00  0.00    -0.313 N  
ENDBRANCH   4   9
BRANCH   5  13
HETATM   13  O   UNL     1     -10.055  12.290  64.882  1.00  0.00    -0.275 OA 
HETATM   14  N   UNL     1      -9.460  11.021  65.041  1.00  0.00    -0.225 N  
HETATM   15  O   UNL     1      -8.283  11.088  65.386  1.00  0.00    -0.076 OA 
HETATM   16  O   UNL     1     -10.161  10.040  64.790  1.00  0.00    -0.296 OA 
ENDBRANCH   5  13
TORSDOF 2
ENDMDL
MODEL       24
REMARK 921   NORMALIZED FREE ENERGY PREDICTED BY IDOCK:   -4.84 KCAL/MOL
REMARK 922        TOTAL FREE ENERGY PREDICTED BY IDOCK:   -5.74 KCAL/MOL
REMARK 923 INTER-LIGAND FREE ENERGY PREDICTED BY IDOCK:   -5.32 KCAL/MOL
REMARK 924 INTRA-LIGAND FREE ENERGY PREDICTED BY IDOCK:   -0.42 KCAL/MOL
REMARK 927      BINDING AFFINITY PREDICTED BY RF-SCORE:    0.00 PKD
ROOT
HETATM    1  C   UNL     1      -9.980  13.233  66.589  1.00  0.00    -0.272 C  
HETATM    2  O   UNL     1     -10.937  14.292  66.583  1.00  0.00    -0.301 OA 
HETATM    3  C   UNL     1     -11.962  13.997  67.550  1.00  0.00    -0.395 C  
HETATM    4  C   UNL     1     -11.549  12.741  68.317  1.00  0.00    -0.334 C  
HETATM    5  C   UNL     1     -10.216  12.188  65.499  1.00  0.00    -0.265 C  
HETATM    6  C   UNL     1     -10.119  12.452  67.880  1.00  0.00    -0.208 C  
HETATM    7  C   UNL     1      -9.609  10.959  66.164  1.00  0.00    -0.202 C  
HETATM    8  O   UNL     1      -9.926  11.061  67.568  1.00  0.00    -0.171 OA 
ENDROOT
BRANCH   4   9
HETATM    9  O   UNL     1     -11.808  12.735  69.716  1.00  0.00    -0.315 OA 
HETATM   10  O   UNL     1     -12.564  11.615  71.455  1.00  0.00    -0.349 OA 
HETATM   11  O   UNL     1     -12.629  10.642  69.454  1.00  0.00    -0.279 OA 
HETATM   12  N   UNL     1     -12.385  11.555  70.241  1.00  0.00    -0.294 N  
ENDBRANCH   4   9
BRANCH   5  13
HETATM   13  O   UNL     1     -11.627  12.024  65.313  1.00  0.00    -0.336 OA 
HETATM   14  N   UNL     1     -12.055  12.279  63.993  1.00  0.00    -0.444 N  
HETATM   15  O   UNL     1     -13.278  12.315  63.890  1.00  0.00    -0.766 OA 
HETATM   16  O   UNL     1     -11.180  12.394  63.134  1.00  0.00    -0.387 OA 
ENDBRANCH   5  13
TORSDOF 2
ENDMDL
MODEL       25
REMARK 921   NORMALIZED FREE ENERGY PREDICTED BY IDOCK:   -4.83 KCAL/MOL
REMARK 922        TOTAL FREE ENERGY PREDICTED BY IDOCK:   -5.72 KCAL/MOL
REMARK 923 INTER-LIGAND FREE ENERGY PREDICTED BY IDOCK:   -5.30 KCAL/MOL
REMARK 924 INTRA-LIGAND FREE ENERGY PREDICTED BY IDOCK:   -0.43 KCAL/MOL
REMARK 927      BINDING AFFINITY PREDICTED BY RF-SCORE:    0.00 PKD
ROOT
HETATM    1  C   UNL     1     -11.929  12.992  66.006  1.00  0.00    -0.440 C  
HETATM    2  O   UNL     1     -12.000  11.886  66.906  1.00  0.00    -0.614 OA 
HETATM    3  C   UNL     1     -11.702  12.350  68.236  1.00  0.00    -0.345 C  
HETATM    4  C   UNL     1     -11.576  13.872  68.196  1.00  0.00    -0.335 C  
HETATM    5  C   UNL     1     -10.587  13.111  65.286  1.00  0.00    -0.313 C  
HETATM    6  C   UNL     1     -12.033  14.279  66.800  1.00  0.00    -0.436 C  
HETATM    7  C   UNL     1     -10.542  14.614  65.040  1.00  0.00    -0.439 C  
HETATM    8  O   UNL     1     -11.137  15.231  66.201  1.00  0.00    -0.336 OA 
ENDROOT
BRANCH   4   9
HETATM    9  O   UNL     1     -12.138  14.588  69.290  1.00  0.00    -0.321 OA 
HETATM   10  O   UNL     1     -11.832  16.082  70.877  1.00  0.00    -0.393 OA 
HETATM   11  O   UNL     1     -10.117  15.573  69.552  1.00  0.00    -0.243 OA 
HETATM   12  N   UNL     1     -11.276  15.489  69.957  1.00  0.00    -0.285 N  
ENDBRANCH   4   9
BRANCH   5  13
HETATM   13  O   UNL     1      -9.544  12.708  66.181  1.00  0.00    -0.253 OA 
HETATM   14  N   UNL     1      -8.962  11.467  65.847  1.00  0.00    -0.201 N  
HETATM   15  O   UNL     1      -8.205  11.048  66.717  1.00  0.00    -0.137 OA 
HETATM   16  O   UNL     1      -9.250  10.992  64.747  1.00  0.00    -0.205 OA 
ENDBRANCH   5  13
TORSDOF 2
ENDMDL
MODEL       26
REMARK 921   NORMALIZED FREE ENERGY PREDICTED BY IDOCK:   -4.82 KCAL/MOL
REMARK 922        TOTAL FREE ENERGY PREDICTED BY IDOCK:   -5.72 KCAL/MOL
REMARK 923 INTER-LIGAND FREE ENERGY PREDICTED BY IDOCK:   -5.41 KCAL/MOL
REMARK 924 INTRA-LIGAND FREE ENERGY PREDICTED BY IDOCK:   -0.31 KCAL/MOL
REMARK 927      BINDING AFFINITY PREDICTED BY RF-SCORE:    0.00 PKD
ROOT
HETATM    1  C   UNL     1     -11.884   8.412  72.358  1.00  0.00    -0.384 C  
HETATM    2  O   UNL     1     -10.513   8.602  72.009  1.00  0.00    -0.307 OA 
HETATM    3  C   UNL     1     -10.433   9.580  70.956  1.00  0.00    -0.306 C  
HETATM    4  C   UNL     1     -11.831  10.149  70.723  1.00  0.00    -0.351 C  
HETATM    5  C   UNL     1     -12.530   7.210  71.670  1.00  0.00    -0.370 C  
HETATM    6  C   UNL     1     -12.687   9.595  71.855  1.00  0.00    -0.411 C  
HETATM    7  C   UNL     1     -13.981   7.670  71.623  1.00  0.00    -0.408 C  
HETATM    8  O   UNL     1     -13.947   9.092  71.377  1.00  0.00    -0.356 OA 
ENDROOT
BRANCH   4   9
HETATM    9  O   UNL     1     -11.918  11.548  70.477  1.00  0.00    -0.359 OA 
HETATM   10  O   UNL     1     -12.068  13.160  68.986  1.00  0.00    -0.291 OA 
HETATM   11  O   UNL     1     -11.937  11.058  68.268  1.00  0.00    -0.593 OA 
HETATM   12  N   UNL     1     -11.978  11.943  69.121  1.00  0.00    -0.300 N  
ENDBRANCH   4   9
BRANCH   5  13
HETATM   13  O   UNL     1     -11.989   7.087  70.350  1.00  0.00    -0.289 OA 
HETATM   14  N   UNL     1     -11.060   6.033  70.216  1.00  0.00    -0.347 N  
HETATM   15  O   UNL     1     -10.471   6.053  69.140  1.00  0.00    -0.202 OA 
HETATM   16  O   UNL     1     -10.984   5.234  71.150  1.00  0.00    -0.131 OA 
ENDBRANCH   5  13
TORSDOF 2
ENDMDL
MODEL       27
REMARK 921   NORMALIZED FREE ENERGY PREDICTED BY IDOCK:   -4.77 KCAL/MOL
REMARK 922        TOTAL FREE ENERGY PREDICTED BY IDOCK:   -5.66 KCAL/MOL
REMARK 923 INTER-LIGAND FREE ENERGY PREDICTED BY IDOCK:   -5.25 KCAL/MOL
REMARK 924 INTRA-LIGAND FREE ENERGY PREDICTED BY IDOCK:   -0.41 KCAL/MOL
REMARK 927      BINDING AFFINITY PREDICTED BY RF-SCORE:    0.00 PKD
ROOT
HETATM    1  C   UNL     1     -11.321  15.192  67.592  1.00  0.00    -0.321 C  
HETATM    2  O   UNL     1     -10.789  16.033  66.569  1.00  0.00    -0.276 OA 
HETATM    3  C   UNL     1     -10.817  15.319  65.320  1.00  0.00    -0.403 C  
HETATM    4  C   UNL     1     -11.545  13.994  65.542  1.00  0.00    -0.332 C  
HETATM    5  C   UNL     1     -10.251  14.452  68.394  1.00  0.00    -0.243 C  
HETATM    6  C   UNL     1     -12.127  14.082  66.947  1.00  0.00    -0.430 C  
HETATM    7  C   UNL     1     -11.033  13.214  68.813  1.00  0.00    -0.262 C  
HETATM    8  O   UNL     1     -11.889  12.880  67.701  1.00  0.00    -0.356 OA 
ENDROOT
BRANCH   4   9
HETATM    9  O   UNL     1     -12.426  13.569  64.508  1.00  0.00    -0.556 OA 
HETATM   10  O   UNL     1     -13.023  11.960  63.129  1.00  0.00    -0.640 OA 
HETATM   11  O   UNL     1     -11.293  11.610  64.485  1.00  0.00    -0.308 OA 
HETATM   12  N   UNL     1     -12.217  12.263  64.005  1.00  0.00    -0.455 N  
ENDBRANCH   4   9
BRANCH   5  13
HETATM   13  O   UNL     1      -9.173  14.105  67.518  1.00  0.00    -0.180 OA 
HETATM   14  N   UNL     1      -7.900  14.418  68.037  1.00  0.00    -0.127 N  
HETATM   15  O   UNL     1      -7.004  14.287  67.209  1.00  0.00    -0.199 OA 
HETATM   16  O   UNL     1      -7.844  14.740  69.225  1.00  0.00    -0.161 OA 
ENDBRANCH   5  13
TORSDOF 2
ENDMDL
MODEL       28
REMARK 921   NORMALIZED FREE ENERGY PREDICTED BY IDOCK:   -4.73 KCAL/MOL
REMARK 922        TOTAL FREE ENERGY PREDICTED BY IDOCK:   -5.62 KCAL/MOL
REMARK 923 INTER-LIGAND FREE ENERGY PREDICTED BY IDOCK:   -5.22 KCAL/MOL
REMARK 924 INTRA-LIGAND FREE ENERGY PREDICTED BY IDOCK:   -0.40 KCAL/MOL
REMARK 927      BINDING AFFINITY PREDICTED BY RF-SCORE:    0.00 PKD
ROOT
HETATM    1  C   UNL     1      -9.726  12.519  67.162  1.00  0.00    -0.205 C  
HETATM    2  O   UNL     1      -9.618  13.742  66.433  1.00  0.00    -0.278 OA 
HETATM    3  C   UNL     1     -10.284  14.783  67.171  1.00  0.00    -0.245 C  
HETATM    4  C   UNL     1     -10.716  14.212  68.521  1.00  0.00    -0.254 C  
HETATM    5  C   UNL     1     -10.877  11.629  66.698  1.00  0.00    -0.283 C  
HETATM    6  C   UNL     1     -10.068  12.836  68.604  1.00  0.00    -0.124 C  
HETATM    7  C   UNL     1     -11.184  10.884  67.991  1.00  0.00    -0.314 C  
HETATM    8  O   UNL     1     -10.994  11.835  69.060  1.00  0.00    -0.221 OA 
ENDROOT
BRANCH   4   9
HETATM    9  O   UNL     1     -10.565  15.063  69.651  1.00  0.00    -0.248 OA 
HETATM   10  O   UNL     1     -11.459  15.870  71.494  1.00  0.00    -0.402 OA 
HETATM   11  O   UNL     1     -12.664  14.468  70.254  1.00  0.00    -0.343 OA 
HETATM   12  N   UNL     1     -11.667  15.132  70.535  1.00  0.00    -0.278 N  
ENDBRANCH   4   9
BRANCH   5  13
HETATM   13  O   UNL     1     -11.978  12.459  66.312  1.00  0.00    -0.553 OA 
HETATM   14  N   UNL     1     -12.171  12.530  64.916  1.00  0.00    -0.465 N  
HETATM   15  O   UNL     1     -12.993  13.383  64.593  1.00  0.00    -0.675 OA 
HETATM   16  O   UNL     1     -11.537  11.733  64.224  1.00  0.00    -0.333 OA 
ENDBRANCH   5  13
TORSDOF 2
ENDMDL
MODEL       29
REMARK 921   NORMALIZED FREE ENERGY PREDICTED BY IDOCK:   -4.73 KCAL/MOL
REMARK 922        TOTAL FREE ENERGY PREDICTED BY IDOCK:   -5.62 KCAL/MOL
REMARK 923 INTER-LIGAND FREE ENERGY PREDICTED BY IDOCK:   -5.35 KCAL/MOL
REMARK 924 INTRA-LIGAND FREE ENERGY PREDICTED BY IDOCK:   -0.27 KCAL/MOL
REMARK 927      BINDING AFFINITY PREDICTED BY RF-SCORE:    0.00 PKD
ROOT
HETATM    1  C   UNL     1     -11.656  11.737  66.883  1.00  0.00    -0.234 C  
HETATM    2  O   UNL     1     -11.746  12.699  67.933  1.00  0.00    -0.330 OA 
HETATM    3  C   UNL     1     -11.416  13.996  67.404  1.00  0.00    -0.348 C  
HETATM    4  C   UNL     1     -11.246  13.867  65.891  1.00  0.00    -0.297 C  
HETATM    5  C   UNL     1     -10.321  10.994  66.846  1.00  0.00    -0.235 C  
HETATM    6  C   UNL     1     -11.710  12.457  65.550  1.00  0.00    -0.407 C  
HETATM    7  C   UNL     1     -10.235  10.662  65.362  1.00  0.00    -0.273 C  
HETATM    8  O   UNL     1     -10.795  11.793  64.661  1.00  0.00    -0.284 OA 
ENDROOT
BRANCH   4   9
HETATM    9  O   UNL     1     -11.770  14.926  65.097  1.00  0.00    -0.348 OA 
HETATM   10  O   UNL     1     -11.430  16.900  64.185  1.00  0.00    -1.174 OA 
HETATM   11  O   UNL     1      -9.808  16.007  65.420  1.00  0.00    -0.440 OA 
HETATM   12  N   UNL     1     -10.919  16.036  64.891  1.00  0.00    -0.439 N  
ENDBRANCH   4   9
BRANCH   5  13
HETATM   13  O   UNL     1      -9.278  11.898  67.229  1.00  0.00    -0.172 OA 
HETATM   14  N   UNL     1      -8.574  11.490  68.382  1.00  0.00    -0.157 N  
HETATM   15  O   UNL     1      -7.812  12.356  68.804  1.00  0.00    -0.085 OA 
HETATM   16  O   UNL     1      -8.778  10.345  68.786  1.00  0.00    -0.129 OA 
ENDBRANCH   5  13
TORSDOF 2
ENDMDL
MODEL       30
REMARK 921   NORMALIZED FREE ENERGY PREDICTED BY IDOCK:   -4.72 KCAL/MOL
REMARK 922        TOTAL FREE ENERGY PREDICTED BY IDOCK:   -5.61 KCAL/MOL
REMARK 923 INTER-LIGAND FREE ENERGY PREDICTED BY IDOCK:   -5.17 KCAL/MOL
REMARK 924 INTRA-LIGAND FREE ENERGY PREDICTED BY IDOCK:   -0.44 KCAL/MOL
REMARK 927      BINDING AFFINITY PREDICTED BY RF-SCORE:    0.00 PKD
ROOT
HETATM    1  C   UNL     1     -10.839  12.194  66.317  1.00  0.00    -0.282 C  
HETATM    2  O   UNL     1     -12.235  12.496  66.329  1.00  0.00    -0.600 OA 
HETATM    3  C   UNL     1     -12.399  13.924  66.400  1.00  0.00    -0.426 C  
HETATM    4  C   UNL     1     -11.021  14.572  66.280  1.00  0.00    -0.323 C  
HETATM    5  C   UNL     1     -10.278  11.838  67.693  1.00  0.00    -0.199 C  
HETATM    6  C   UNL     1     -10.070  13.438  65.919  1.00  0.00    -0.293 C  
HETATM    7  C   UNL     1      -8.831  12.283  67.520  1.00  0.00    -0.182 C  
HETATM    8  O   UNL     1      -8.868  13.475  66.708  1.00  0.00    -0.213 OA 
ENDROOT
BRANCH   4   9
HETATM    9  O   UNL     1     -10.938  15.755  65.493  1.00  0.00    -0.322 OA 
HETATM   10  O   UNL     1     -10.454  17.901  65.421  1.00  0.00    -0.635 OA 
HETATM   11  O   UNL     1     -10.273  16.836  67.367  1.00  0.00    -0.275 OA 
HETATM   12  N   UNL     1     -10.518  16.927  66.165  1.00  0.00    -0.305 N  
ENDBRANCH   4   9
BRANCH   5  13
HETATM   13  O   UNL     1     -10.942  12.632  68.683  1.00  0.00    -0.237 OA 
HETATM   14  N   UNL     1     -11.672  11.872  69.619  1.00  0.00    -0.326 N  
HETATM   15  O   UNL     1     -12.380  12.564  70.345  1.00  0.00    -0.309 OA 
HETATM   16  O   UNL     1     -11.489  10.654  69.615  1.00  0.00    -0.248 OA 
ENDBRANCH   5  13
TORSDOF 2
ENDMDL
MODEL       31
REMARK 921   NORMALIZED FREE ENERGY PREDICTED BY IDOCK:   -4.71 KCAL/MOL
REMARK 922        TOTAL FREE ENERGY PREDICTED BY IDOCK:   -5.60 KCAL/MOL
REMARK 923 INTER-LIGAND FREE ENERGY PREDICTED BY IDOCK:   -5.18 KCAL/MOL
REMARK 924 INTRA-LIGAND FREE ENERGY PREDICTED BY IDOCK:   -0.42 KCAL/MOL
REMARK 927      BINDING AFFINITY PREDICTED BY RF-SCORE:    0.00 PKD
ROOT
HETATM    1  C   UNL     1     -12.193  14.016  66.513  1.00  0.00    -0.451 C  
HETATM    2  O   UNL     1     -11.555  15.092  65.824  1.00  0.00    -0.292 OA 
HETATM    3  C   UNL     1     -10.565  14.549  64.932  1.00  0.00    -0.427 C  
HETATM    4  C   UNL     1     -10.684  13.026  64.954  1.00  0.00    -0.332 C  
HETATM    5  C   UNL     1     -11.605  13.742  67.897  1.00  0.00    -0.341 C  
HETATM    6  C   UNL     1     -11.948  12.730  65.750  1.00  0.00    -0.449 C  
HETATM    7  C   UNL     1     -11.910  12.256  68.032  1.00  0.00    -0.305 C  
HETATM    8  O   UNL     1     -11.739  11.686  66.718  1.00  0.00    -0.541 OA 
ENDROOT
BRANCH   4   9
HETATM    9  O   UNL     1     -10.539  12.356  63.706  1.00  0.00    -0.399 OA 
HETATM   10  O   UNL     1      -9.613  10.700  62.590  1.00  0.00    -0.292 OA 
HETATM   11  O   UNL     1      -9.112  10.939  64.746  1.00  0.00    -0.200 OA 
HETATM   12  N   UNL     1      -9.675  11.236  63.693  1.00  0.00    -0.291 N  
ENDBRANCH   4   9
BRANCH   5  13
HETATM   13  O   UNL     1     -10.192  13.972  67.853  1.00  0.00    -0.232 OA 
HETATM   14  N   UNL     1      -9.732  14.848  68.859  1.00  0.00    -0.219 N  
HETATM   15  O   UNL     1      -8.561  15.180  68.699  1.00  0.00    -0.155 OA 
HETATM   16  O   UNL     1     -10.524  15.132  69.758  1.00  0.00    -0.250 OA 
ENDBRANCH   5  13
TORSDOF 2
ENDMDL
MODEL       32
REMARK 921   NORMALIZED FREE ENERGY PREDICTED BY IDOCK:   -4.70 KCAL/MOL
REMARK 922        TOTAL FREE ENERGY PREDICTED BY IDOCK:   -5.58 KCAL/MOL
REMARK 923 INTER-LIGAND FREE ENERGY PREDICTED BY IDOCK:   -5.32 KCAL/MOL
REMARK 924 INTRA-LIGAND FREE ENERGY PREDICTED BY IDOCK:   -0.26 KCAL/MOL
REMARK 927      BINDING AFFINITY PREDICTED BY RF-SCORE:    0.00 PKD
ROOT
HETATM    1  C   UNL     1     -12.582  13.527  66.020  1.00  0.00    -0.348 C  
HETATM    2  O   UNL     1     -12.606  13.880  64.637  1.00  0.00    -0.616 OA 
HETATM    3  C   UNL     1     -11.563  13.159  63.955  1.00  0.00    -0.428 C  
HETATM    4  C   UNL     1     -10.933  12.180  64.944  1.00  0.00    -0.309 C  
HETATM    5  C   UNL     1     -11.811  14.516  66.891  1.00  0.00    -0.377 C  
HETATM    6  C   UNL     1     -11.820  12.226  66.182  1.00  0.00    -0.329 C  
HETATM    7  C   UNL     1     -11.350  13.592  68.011  1.00  0.00    -0.285 C  
HETATM    8  O   UNL     1     -11.047  12.325  67.391  1.00  0.00    -0.253 OA 
ENDROOT
BRANCH   4   9
HETATM    9  O   UNL     1     -10.599  10.891  64.441  1.00  0.00    -0.360 OA 
HETATM   10  O   UNL     1      -9.147   9.237  64.404  1.00  0.00    -0.189 OA 
HETATM   11  O   UNL     1      -8.668  11.043  65.613  1.00  0.00    -0.186 OA 
HETATM   12  N   UNL     1      -9.360  10.355  64.863  1.00  0.00    -0.220 N  
ENDBRANCH   4   9
BRANCH   5  13
HETATM   13  O   UNL     1     -10.693  15.015  66.147  1.00  0.00    -0.310 OA 
HETATM   14  N   UNL     1     -10.360  16.351  66.455  1.00  0.00    -0.308 N  
HETATM   15  O   UNL     1      -9.527  16.822  65.686  1.00  0.00    -0.523 OA 
HETATM   16  O   UNL     1     -10.902  16.848  67.443  1.00  0.00    -0.278 OA 
ENDBRANCH   5  13
TORSDOF 2
ENDMDL
MODEL       33
REMARK 921   NORMALIZED FREE ENERGY PREDICTED BY IDOCK:   -4.63 KCAL/MOL
REMARK 922        TOTAL FREE ENERGY PREDICTED BY IDOCK:   -5.51 KCAL/MOL
REMARK 923 INTER-LIGAND FREE ENERGY PREDICTED BY IDOCK:   -5.16 KCAL/MOL
REMARK 924 INTRA-LIGAND FREE ENERGY PREDICTED BY IDOCK:   -0.35 KCAL/MOL
REMARK 927      BINDING AFFINITY PREDICTED BY RF-SCORE:    0.00 PKD
ROOT
HETATM    1  C   UNL     1     -11.514  12.443  68.343  1.00  0.00    -0.310 C  
HETATM    2  O   UNL     1     -12.075  11.138  68.202  1.00  0.00    -0.633 OA 
HETATM    3  C   UNL     1     -11.072  10.258  67.662  1.00  0.00    -0.251 C  
HETATM    4  C   UNL     1      -9.751  11.022  67.593  1.00  0.00    -0.168 C  
HETATM    5  C   UNL     1     -11.827  13.375  67.174  1.00  0.00    -0.382 C  
HETATM    6  C   UNL     1     -10.002  12.333  68.328  1.00  0.00    -0.216 C  
HETATM    7  C   UNL     1     -10.612  14.292  67.223  1.00  0.00    -0.278 C  
HETATM    8  O   UNL     1      -9.493  13.462  67.598  1.00  0.00    -0.203 OA 
ENDROOT
BRANCH   4   9
HETATM    9  O   UNL     1      -8.577  10.301  67.950  1.00  0.00    -0.118 OA 
HETATM   10  O   UNL     1      -6.560   9.639  67.365  1.00  0.00    -0.068 OA 
HETATM   11  O   UNL     1      -7.748  10.839  65.914  1.00  0.00    -0.154 OA 
HETATM   12  N   UNL     1      -7.546  10.263  66.982  1.00  0.00    -0.098 N  
ENDBRANCH   4   9
BRANCH   5  13
HETATM   13  O   UNL     1     -11.840  12.609  65.963  1.00  0.00    -0.404 OA 
HETATM   14  N   UNL     1     -12.827  13.023  65.044  1.00  0.00    -0.412 N  
HETATM   15  O   UNL     1     -12.950  12.249  64.099  1.00  0.00    -0.721 OA 
HETATM   16  O   UNL     1     -13.398  14.089  65.279  1.00  0.00    -0.741 OA 
ENDBRANCH   5  13
TORSDOF 2
ENDMDL
MODEL       34
REMARK 921   NORMALIZED FREE ENERGY PREDICTED BY IDOCK:   -4.59 KCAL/MOL
REMARK 922        TOTAL FREE ENERGY PREDICTED BY IDOCK:   -5.46 KCAL/MOL
REMARK 923 INTER-LIGAND FREE ENERGY PREDICTED BY IDOCK:   -5.06 KCAL/MOL
REMARK 924 INTRA-LIGAND FREE ENERGY PREDICTED BY IDOCK:   -0.40 KCAL/MOL
REMARK 927      BINDING AFFINITY PREDICTED BY RF-SCORE:    0.00 PKD
ROOT
HETATM    1  C   UNL     1     -10.663  13.799  68.110  1.00  0.00    -0.248 C  
HETATM    2  O   UNL     1     -11.527  14.893  67.798  1.00  0.00    -0.318 OA 
HETATM    3  C   UNL     1     -12.041  14.713  66.466  1.00  0.00    -0.211 C  
HETATM    4  C   UNL     1     -11.586  13.346  65.957  1.00  0.00    -0.344 C  
HETATM    5  C   UNL     1      -9.184  14.101  67.876  1.00  0.00    -0.196 C  
HETATM    6  C   UNL     1     -10.958  12.655  67.161  1.00  0.00    -0.261 C  
HETATM    7  C   UNL     1      -8.664  12.701  67.576  1.00  0.00    -0.184 C  
HETATM    8  O   UNL     1      -9.703  12.036  66.827  1.00  0.00    -0.200 OA 
ENDROOT
BRANCH   4   9
HETATM    9  O   UNL     1     -12.536  12.596  65.209  1.00  0.00    -0.630 OA 
HETATM   10  O   UNL     1     -13.049  11.646  63.290  1.00  0.00    -0.501 OA 
HETATM   11  O   UNL     1     -11.116  12.738  63.453  1.00  0.00    -0.408 OA 
HETATM   12  N   UNL     1     -12.192  12.309  63.867  1.00  0.00    -0.484 N  
ENDBRANCH   4   9
BRANCH   5  13
HETATM   13  O   UNL     1      -9.061  14.949  66.729  1.00  0.00    -0.239 OA 
HETATM   14  N   UNL     1      -8.744  16.286  67.046  1.00  0.00    -0.183 N  
HETATM   15  O   UNL     1      -8.822  17.036  66.078  1.00  0.00    -0.477 OA 
HETATM   16  O   UNL     1      -8.407  16.520  68.208  1.00  0.00    -0.178 OA 
ENDBRANCH   5  13
TORSDOF 2
ENDMDL
MODEL       35
REMARK 921   NORMALIZED FREE ENERGY PREDICTED BY IDOCK:   -4.58 KCAL/MOL
REMARK 922        TOTAL FREE ENERGY PREDICTED BY IDOCK:   -5.45 KCAL/MOL
REMARK 923 INTER-LIGAND FREE ENERGY PREDICTED BY IDOCK:   -5.04 KCAL/MOL
REMARK 924 INTRA-LIGAND FREE ENERGY PREDICTED BY IDOCK:   -0.41 KCAL/MOL
REMARK 927      BINDING AFFINITY PREDICTED BY RF-SCORE:    0.00 PKD
ROOT
HETATM    1  C   UNL     1     -10.769  17.977  67.650  1.00  0.00    -0.344 C  
HETATM    2  O   UNL     1     -10.143  18.608  68.767  1.00  0.00    -0.382 OA 
HETATM    3  C   UNL     1      -8.886  19.166  68.342  1.00  0.00    -0.347 C  
HETATM    4  C   UNL     1      -8.777  19.001  66.827  1.00  0.00    -0.309 C  
HETATM    5  C   UNL     1     -10.524  16.471  67.581  1.00  0.00    -0.305 C  
HETATM    6  C   UNL     1     -10.146  18.507  66.374  1.00  0.00    -0.405 C  
HETATM    7  C   UNL     1     -10.628  16.246  66.078  1.00  0.00    -0.281 C  
HETATM    8  O   UNL     1     -10.040  17.406  65.454  1.00  0.00    -0.562 OA 
ENDROOT
BRANCH   4   9
HETATM    9  O   UNL     1      -8.217  20.092  66.105  1.00  0.00    -0.329 OA 
HETATM   10  O   UNL     1      -6.709  20.771  64.652  1.00  0.00    -0.273 OA 
HETATM   11  O   UNL     1      -6.748  18.617  65.214  1.00  0.00    -0.473 OA 
HETATM   12  N   UNL     1      -7.129  19.786  65.254  1.00  0.00    -0.235 N  
ENDBRANCH   4   9
BRANCH   5  13
HETATM   13  O   UNL     1      -9.199  16.195  68.049  1.00  0.00    -0.193 OA 
HETATM   14  N   UNL     1      -9.138  15.141  68.984  1.00  0.00    -0.208 N  
HETATM   15  O   UNL     1      -8.035  15.037  69.512  1.00  0.00    -0.196 OA 
HETATM   16  O   UNL     1     -10.154  14.458  69.124  1.00  0.00    -0.197 OA 
ENDBRANCH   5  13
TORSDOF 2
ENDMDL
MODEL       36
REMARK 921   NORMALIZED FREE ENERGY PREDICTED BY IDOCK:   -4.49 KCAL/MOL
REMARK 922        TOTAL FREE ENERGY PREDICTED BY IDOCK:   -5.35 KCAL/MOL
REMARK 923 INTER-LIGAND FREE ENERGY PREDICTED BY IDOCK:   -4.92 KCAL/MOL
REMARK 924 INTRA-LIGAND FREE ENERGY PREDICTED BY IDOCK:   -0.43 KCAL/MOL
REMARK 927      BINDING AFFINITY PREDICTED BY RF-SCORE:    0.00 PKD
ROOT
HETATM    1  C   UNL     1     -10.635  18.226  66.573  1.00  0.00    -0.288 C  
HETATM    2  O   UNL     1     -10.588  17.552  65.315  1.00  0.00    -0.664 OA 
HETATM    3  C   UNL     1     -10.291  16.163  65.543  1.00  0.00    -0.367 C  
HETATM    4  C   UNL     1     -10.292  15.914  67.051  1.00  0.00    -0.297 C  
HETATM    5  C   UNL     1      -9.328  18.928  66.940  1.00  0.00    -0.309 C  
HETATM    6  C   UNL     1     -10.821  17.200  67.673  1.00  0.00    -0.241 C  
HETATM    7  C   UNL     1      -9.414  18.883  68.461  1.00  0.00    -0.366 C  
HETATM    8  O   UNL     1     -10.024  17.619  68.795  1.00  0.00    -0.334 OA 
ENDROOT
BRANCH   4   9
HETATM    9  O   UNL     1     -10.878  14.696  67.496  1.00  0.00    -0.274 OA 
HETATM   10  O   UNL     1     -10.694  12.909  68.767  1.00  0.00    -0.247 OA 
HETATM   11  O   UNL     1      -9.017  14.373  68.743  1.00  0.00    -0.185 OA 
HETATM   12  N   UNL     1     -10.119  13.935  68.415  1.00  0.00    -0.234 N  
ENDBRANCH   4   9
BRANCH   5  13
HETATM   13  O   UNL     1      -8.231  18.140  66.466  1.00  0.00    -0.253 OA 
HETATM   14  N   UNL     1      -7.332  18.857  65.649  1.00  0.00    -0.177 N  
HETATM   15  O   UNL     1      -6.504  18.132  65.104  1.00  0.00    -0.349 OA 
HETATM   16  O   UNL     1      -7.464  20.081  65.613  1.00  0.00    -0.330 OA 
ENDBRANCH   5  13
TORSDOF 2
ENDMDL
MODEL       37
REMARK 921   NORMALIZED FREE ENERGY PREDICTED BY IDOCK:   -4.48 KCAL/MOL
REMARK 922        TOTAL FREE ENERGY PREDICTED BY IDOCK:   -5.34 KCAL/MOL
REMARK 923 INTER-LIGAND FREE ENERGY PREDICTED BY IDOCK:   -4.91 KCAL/MOL
REMARK 924 INTRA-LIGAND FREE ENERGY PREDICTED BY IDOCK:   -0.43 KCAL/MOL
REMARK 927      BINDING AFFINITY PREDICTED BY RF-SCORE:    0.00 PKD
ROOT
HETATM    1  C   UNL     1     -10.552  13.063  68.466  1.00  0.00    -0.258 C  
HETATM    2  O   UNL     1      -9.512  13.890  67.946  1.00  0.00    -0.198 OA 
HETATM    3  C   UNL     1      -9.640  13.951  66.513  1.00  0.00    -0.287 C  
HETATM    4  C   UNL     1     -10.929  13.233  66.116  1.00  0.00    -0.279 C  
HETATM    5  C   UNL     1     -10.119  11.619  68.717  1.00  0.00    -0.156 C  
HETATM    6  C   UNL     1     -11.649  12.940  67.427  1.00  0.00    -0.360 C  
HETATM    7  C   UNL     1     -11.450  10.900  68.537  1.00  0.00    -0.310 C  
HETATM    8  O   UNL     1     -12.143  11.590  67.475  1.00  0.00    -0.614 OA 
ENDROOT
BRANCH   4   9
HETATM    9  O   UNL     1     -11.700  13.831  65.080  1.00  0.00    -0.323 OA 
HETATM   10  O   UNL     1     -12.641  13.599  63.104  1.00  0.00    -0.792 OA 
HETATM   11  O   UNL     1     -11.491  11.886  63.940  1.00  0.00    -0.381 OA 
HETATM   12  N   UNL     1     -11.959  13.024  63.947  1.00  0.00    -0.450 N  
ENDBRANCH   4   9
BRANCH   5  13
HETATM   13  O   UNL     1      -9.188  11.232  67.700  1.00  0.00    -0.153 OA 
HETATM   14  N   UNL     1      -7.972  10.729  68.210  1.00  0.00    -0.113 N  
HETATM   15  O   UNL     1      -7.120  10.576  67.340  1.00  0.00    -0.087 OA 
HETATM   16  O   UNL     1      -7.931  10.483  69.416  1.00  0.00    -0.153 OA 
ENDBRANCH   5  13
TORSDOF 2
ENDMDL
MODEL       38
REMARK 921   NORMALIZED FREE ENERGY PREDICTED BY IDOCK:   -4.45 KCAL/MOL
REMARK 922        TOTAL FREE ENERGY PREDICTED BY IDOCK:   -5.31 KCAL/MOL
REMARK 923 INTER-LIGAND FREE ENERGY PREDICTED BY IDOCK:   -4.95 KCAL/MOL
REMARK 924 INTRA-LIGAND FREE ENERGY PREDICTED BY IDOCK:   -0.36 KCAL/MOL
REMARK 927      BINDING AFFINITY PREDICTED BY RF-SCORE:    0.00 PKD
ROOT
HETATM    1  C   UNL     1     -10.693  16.688  68.165  1.00  0.00    -0.349 C  
HETATM    2  O   UNL     1     -10.290  17.086  66.854  1.00  0.00    -0.308 OA 
HETATM    3  C   UNL     1     -10.549  16.004  65.941  1.00  0.00    -0.328 C  
HETATM    4  C   UNL     1     -11.296  14.906  66.698  1.00  0.00    -0.326 C  
HETATM    5  C   UNL     1      -9.547  16.154  69.023  1.00  0.00    -0.251 C  
HETATM    6  C   UNL     1     -11.643  15.512  68.052  1.00  0.00    -0.268 C  
HETATM    7  C   UNL     1     -10.311  15.208  69.940  1.00  0.00    -0.189 C  
HETATM    8  O   UNL     1     -11.348  14.611  69.133  1.00  0.00    -0.252 OA 
ENDROOT
BRANCH   4   9
HETATM    9  O   UNL     1     -12.348  14.252  65.998  1.00  0.00    -0.432 OA 
HETATM   10  O   UNL     1     -12.998  12.476  64.872  1.00  0.00    -0.821 OA 
HETATM   11  O   UNL     1     -10.896  12.562  65.598  1.00  0.00    -0.266 OA 
HETATM   12  N   UNL     1     -12.040  12.987  65.445  1.00  0.00    -0.417 N  
ENDBRANCH   4   9
BRANCH   5  13
HETATM   13  O   UNL     1      -8.639  15.431  68.184  1.00  0.00    -0.149 OA 
HETATM   14  N   UNL     1      -7.422  16.107  67.955  1.00  0.00    -0.129 N  
HETATM   15  O   UNL     1      -6.734  15.567  67.094  1.00  0.00    -0.259 OA 
HETATM   16  O   UNL     1      -7.195  17.100  68.647  1.00  0.00    -0.206 OA 
ENDBRANCH   5  13
TORSDOF 2
ENDMDL
MODEL       39
REMARK 921   NORMALIZED FREE ENERGY PREDICTED BY IDOCK:   -4.44 KCAL/MOL
REMARK 922        TOTAL FREE ENERGY PREDICTED BY IDOCK:   -5.29 KCAL/MOL
REMARK 923 INTER-LIGAND FREE ENERGY PREDICTED BY IDOCK:   -4.95 KCAL/MOL
REMARK 924 INTRA-LIGAND FREE ENERGY PREDICTED BY IDOCK:   -0.34 KCAL/MOL
REMARK 927      BINDING AFFINITY PREDICTED BY RF-SCORE:    0.00 PKD
ROOT
HETATM    1  C   UNL     1     -11.292  11.975  66.276  1.00  0.00    -0.357 C  
HETATM    2  O   UNL     1     -12.457  12.801  66.272  1.00  0.00    -0.477 OA 
HETATM    3  C   UNL     1     -12.050  14.176  66.402  1.00  0.00    -0.451 C  
HETATM    4  C   UNL     1     -10.525  14.233  66.340  1.00  0.00    -0.282 C  
HETATM    5  C   UNL     1     -10.966  11.382  67.646  1.00  0.00    -0.250 C  
HETATM    6  C   UNL     1     -10.083  12.828  65.949  1.00  0.00    -0.276 C  
HETATM    7  C   UNL     1      -9.456  11.227  67.523  1.00  0.00    -0.169 C  
HETATM    8  O   UNL     1      -8.993  12.364  66.764  1.00  0.00    -0.207 OA 
ENDROOT
BRANCH   4   9
HETATM    9  O   UNL     1      -9.956  15.312  65.608  1.00  0.00    -0.325 OA 
HETATM   10  O   UNL     1      -8.819  17.196  65.671  1.00  0.00    -0.482 OA 
HETATM   11  O   UNL     1      -9.283  16.171  67.591  1.00  0.00    -0.203 OA 
HETATM   12  N   UNL     1      -9.299  16.307  66.369  1.00  0.00    -0.268 N  
ENDBRANCH   4   9
BRANCH   5  13
HETATM   13  O   UNL     1     -11.302  12.341  68.656  1.00  0.00    -0.244 OA 
HETATM   14  N   UNL     1     -11.878  11.768  69.809  1.00  0.00    -0.332 N  
HETATM   15  O   UNL     1     -12.326  12.609  70.583  1.00  0.00    -0.359 OA 
HETATM   16  O   UNL     1     -11.831  10.541  69.907  1.00  0.00    -0.268 OA 
ENDBRANCH   5  13
TORSDOF 2
ENDMDL
MODEL       40
REMARK 921   NORMALIZED FREE ENERGY PREDICTED BY IDOCK:   -4.40 KCAL/MOL
REMARK 922        TOTAL FREE ENERGY PREDICTED BY IDOCK:   -5.25 KCAL/MOL
REMARK 923 INTER-LIGAND FREE ENERGY PREDICTED BY IDOCK:   -4.86 KCAL/MOL
REMARK 924 INTRA-LIGAND FREE ENERGY PREDICTED BY IDOCK:   -0.39 KCAL/MOL
REMARK 927      BINDING AFFINITY PREDICTED BY RF-SCORE:    0.00 PKD
ROOT
HETATM    1  C   UNL     1     -10.567  13.714  65.547  1.00  0.00    -0.296 C  
HETATM    2  O   UNL     1      -9.351  13.599  66.286  1.00  0.00    -0.231 OA 
HETATM    3  C   UNL     1      -9.282  12.282  66.862  1.00  0.00    -0.209 C  
HETATM    4  C   UNL     1     -10.460  11.465  66.335  1.00  0.00    -0.254 C  
HETATM    5  C   UNL     1     -11.699  14.379  66.329  1.00  0.00    -0.385 C  
HETATM    6  C   UNL     1     -11.095  12.325  65.249  1.00  0.00    -0.316 C  
HETATM    7  C   UNL     1     -12.907  13.732  65.663  1.00  0.00    -0.408 C  
HETATM    8  O   UNL     1     -12.527  12.371  65.372  1.00  0.00    -0.637 OA 
ENDROOT
BRANCH   4   9
HETATM    9  O   UNL     1     -10.198  10.106  66.006  1.00  0.00    -0.252 OA 
HETATM   10  O   UNL     1     -10.357   7.993  66.603  1.00  0.00    -0.297 OA 
HETATM   11  O   UNL     1     -11.124   9.550  67.995  1.00  0.00    -0.157 OA 
HETATM   12  N   UNL     1     -10.599   9.142  66.961  1.00  0.00    -0.233 N  
ENDBRANCH   4   9
BRANCH   5  13
HETATM   13  O   UNL     1     -11.603  13.988  67.704  1.00  0.00    -0.313 OA 
HETATM   14  N   UNL     1     -11.333  15.061  68.578  1.00  0.00    -0.288 N  
HETATM   15  O   UNL     1     -11.072  14.691  69.719  1.00  0.00    -0.260 OA 
HETATM   16  O   UNL     1     -11.424  16.198  68.113  1.00  0.00    -0.326 OA 
ENDBRANCH   5  13
TORSDOF 2
ENDMDL
MODEL       41
REMARK 921   NORMALIZED FREE ENERGY PREDICTED BY IDOCK:   -4.33 KCAL/MOL
REMARK 922        TOTAL FREE ENERGY PREDICTED BY IDOCK:   -5.17 KCAL/MOL
REMARK 923 INTER-LIGAND FREE ENERGY PREDICTED BY IDOCK:   -5.17 KCAL/MOL
REMARK 924 INTRA-LIGAND FREE ENERGY PREDICTED BY IDOCK:    0.00 KCAL/MOL
REMARK 927      BINDING AFFINITY PREDICTED BY RF-SCORE:    0.00 PKD
ROOT
HETATM    1  C   UNL     1     -10.759  12.815  64.823  1.00  0.00    -0.316 C  
HETATM    2  O   UNL     1      -9.711  11.912  65.174  1.00  0.00    -0.239 OA 
HETATM    3  C   UNL     1      -9.899  11.491  66.538  1.00  0.00    -0.202 C  
HETATM    4  C   UNL     1     -11.230  12.052  67.034  1.00  0.00    -0.320 C  
HETATM    5  C   UNL     1     -10.372  14.286  64.961  1.00  0.00    -0.421 C  
HETATM    6  C   UNL     1     -11.904  12.645  65.802  1.00  0.00    -0.444 C  
HETATM    7  C   UNL     1     -11.736  14.902  65.245  1.00  0.00    -0.263 C  
HETATM    8  O   UNL     1     -12.446  13.950  66.065  1.00  0.00    -0.463 OA 
ENDROOT
BRANCH   4   9
HETATM    9  O   UNL     1     -12.021  11.193  67.848  1.00  0.00    -0.624 OA 
HETATM   10  O   UNL     1     -12.698  10.671  69.876  1.00  0.00    -0.241 OA 
HETATM   11  O   UNL     1     -11.262  12.355  69.636  1.00  0.00    -0.166 OA 
HETATM   12  N   UNL     1     -11.980  11.438  69.240  1.00  0.00    -0.334 N  
ENDBRANCH   4   9
BRANCH   5  13
HETATM   13  O   UNL     1      -9.501  14.431  66.089  1.00  0.00    -0.290 OA 
HETATM   14  N   UNL     1      -8.835  15.674  66.133  1.00  0.00    -0.325 N  
HETATM   15  O   UNL     1      -7.960  15.714  66.993  1.00  0.00    -0.194 OA 
HETATM   16  O   UNL     1      -9.224  16.544  65.352  1.00  0.00    -0.326 OA 
ENDBRANCH   5  13
TORSDOF 2
ENDMDL
MODEL       42
REMARK 921   NORMALIZED FREE ENERGY PREDICTED BY IDOCK:   -4.32 KCAL/MOL
REMARK 922        TOTAL FREE ENERGY PREDICTED BY IDOCK:   -5.16 KCAL/MOL
REMARK 923 INTER-LIGAND FREE ENERGY PREDICTED BY IDOCK:   -4.77 KCAL/MOL
REMARK 924 INTRA-LIGAND FREE ENERGY PREDICTED BY IDOCK:   -0.39 KCAL/MOL
REMARK 927      BINDING AFFINITY PREDICTED BY RF-SCORE:    0.00 PKD
ROOT
HETATM    1  C   UNL     1      -9.212  18.908  68.425  1.00  0.00    -0.347 C  
HETATM    2  O   UNL     1      -8.068  18.130  68.776  1.00  0.00    -0.299 OA 
HETATM    3  C   UNL     1      -7.031  18.367  67.806  1.00  0.00    -0.213 C  
HETATM    4  C   UNL     1      -7.499  19.474  66.865  1.00  0.00    -0.231 C  
HETATM    5  C   UNL     1     -10.262  18.132  67.631  1.00  0.00    -0.374 C  
HETATM    6  C   UNL     1      -8.784  20.014  67.481  1.00  0.00    -0.344 C  
HETATM    7  C   UNL     1     -10.895  19.266  66.835  1.00  0.00    -0.381 C  
HETATM    8  O   UNL     1      -9.823  20.172  66.499  1.00  0.00    -0.416 OA 
ENDROOT
BRANCH   4   9
HETATM    9  O   UNL     1      -6.523  20.433  66.472  1.00  0.00    -0.207 OA 
HETATM   10  O   UNL     1      -5.239  21.217  64.865  1.00  0.00    -0.210 OA 
HETATM   11  O   UNL     1      -6.531  19.458  64.430  1.00  0.00    -0.399 OA 
HETATM   12  N   UNL     1      -6.065  20.350  65.136  1.00  0.00    -0.230 N  
ENDBRANCH   4   9
BRANCH   5  13
HETATM   13  O   UNL     1      -9.595  17.208  66.764  1.00  0.00    -0.250 OA 
HETATM   14  N   UNL     1     -10.072  15.885  66.875  1.00  0.00    -0.259 N  
HETATM   15  O   UNL     1      -9.375  15.076  66.268  1.00  0.00    -0.282 OA 
HETATM   16  O   UNL     1     -11.109  15.717  67.517  1.00  0.00    -0.326 OA 
ENDBRANCH   5  13
TORSDOF 2
ENDMDL
MODEL       43
REMARK 921   NORMALIZED FREE ENERGY PREDICTED BY IDOCK:   -4.30 KCAL/MOL
REMARK 922        TOTAL FREE ENERGY PREDICTED BY IDOCK:   -5.14 KCAL/MOL
REMARK 923 INTER-LIGAND FREE ENERGY PREDICTED BY IDOCK:   -4.69 KCAL/MOL
REMARK 924 INTRA-LIGAND FREE ENERGY PREDICTED BY IDOCK:   -0.45 KCAL/MOL
REMARK 927      BINDING AFFINITY PREDICTED BY RF-SCORE:    0.00 PKD
ROOT
HETATM    1  C   UNL     1     -11.751  12.005  67.849  1.00  0.00    -0.323 C  
HETATM    2  O   UNL     1     -11.541  10.648  67.460  1.00  0.00    -0.482 OA 
HETATM    3  C   UNL     1     -10.125  10.399  67.389  1.00  0.00    -0.196 C  
HETATM    4  C   UNL     1      -9.394  11.638  67.904  1.00  0.00    -0.174 C  
HETATM    5  C   UNL     1     -12.000  12.948  66.673  1.00  0.00    -0.366 C  
HETATM    6  C   UNL     1     -10.480  12.537  68.481  1.00  0.00    -0.231 C  
HETATM    7  C   UNL     1     -11.470  14.253  67.252  1.00  0.00    -0.352 C  
HETATM    8  O   UNL     1     -10.324  13.903  68.057  1.00  0.00    -0.234 OA 
ENDROOT
BRANCH   4   9
HETATM    9  O   UNL     1      -8.249  11.410  68.718  1.00  0.00    -0.151 OA 
HETATM   10  O   UNL     1      -6.117  11.829  69.073  1.00  0.00    -0.057 OA 
HETATM   11  O   UNL     1      -7.099  12.747  67.299  1.00  0.00    -0.148 OA 
HETATM   12  N   UNL     1      -7.057  12.057  68.316  1.00  0.00    -0.079 N  
ENDBRANCH   4   9
BRANCH   5  13
HETATM   13  O   UNL     1     -11.204  12.521  65.561  1.00  0.00    -0.294 OA 
HETATM   14  N   UNL     1     -11.963  12.150  64.432  1.00  0.00    -0.374 N  
HETATM   15  O   UNL     1     -11.285  11.616  63.558  1.00  0.00    -0.410 OA 
HETATM   16  O   UNL     1     -13.162  12.429  64.449  1.00  0.00    -0.816 OA 
ENDBRANCH   5  13
TORSDOF 2
ENDMDL
MODEL       44
REMARK 921   NORMALIZED FREE ENERGY PREDICTED BY IDOCK:   -4.26 KCAL/MOL
REMARK 922        TOTAL FREE ENERGY PREDICTED BY IDOCK:   -5.09 KCAL/MOL
REMARK 923 INTER-LIGAND FREE ENERGY PREDICTED BY IDOCK:   -4.76 KCAL/MOL
REMARK 924 INTRA-LIGAND FREE ENERGY PREDICTED BY IDOCK:   -0.34 KCAL/MOL
REMARK 927      BINDING AFFINITY PREDICTED BY RF-SCORE:    0.00 PKD
ROOT
HETATM    1  C   UNL     1     -11.699  12.514  66.960  1.00  0.00    -0.367 C  
HETATM    2  O   UNL     1     -11.794  11.462  67.921  1.00  0.00    -0.588 OA 
HETATM    3  C   UNL     1     -11.635  12.020  69.238  1.00  0.00    -0.321 C  
HETATM    4  C   UNL     1     -11.578  13.541  69.110  1.00  0.00    -0.310 C  
HETATM    5  C   UNL     1     -10.307  12.660  66.348  1.00  0.00    -0.249 C  
HETATM    6  C   UNL     1     -11.932  13.839  67.658  1.00  0.00    -0.356 C  
HETATM    7  C   UNL     1     -10.312  14.145  66.010  1.00  0.00    -0.309 C  
HETATM    8  O   UNL     1     -11.035  14.799  67.075  1.00  0.00    -0.308 OA 
ENDROOT
BRANCH   4   9
HETATM    9  O   UNL     1     -12.266  14.292  70.105  1.00  0.00    -0.307 OA 
HETATM   10  O   UNL     1     -12.286  16.076  71.393  1.00  0.00    -0.440 OA 
HETATM   11  O   UNL     1     -10.537  15.752  70.056  1.00  0.00    -0.292 OA 
HETATM   12  N   UNL     1     -11.629  15.474  70.549  1.00  0.00    -0.312 N  
ENDBRANCH   4   9
BRANCH   5  13
HETATM   13  O   UNL     1      -9.328  12.366  67.350  1.00  0.00    -0.173 OA 
HETATM   14  N   UNL     1      -8.431  11.342  66.981  1.00  0.00    -0.153 N  
HETATM   15  O   UNL     1      -7.719  10.976  67.912  1.00  0.00    -0.100 OA 
HETATM   16  O   UNL     1      -8.450  10.980  65.804  1.00  0.00    -0.169 OA 
ENDBRANCH   5  13
TORSDOF 2
ENDMDL
MODEL       45
REMARK 921   NORMALIZED FREE ENERGY PREDICTED BY IDOCK:   -4.26 KCAL/MOL
REMARK 922        TOTAL FREE ENERGY PREDICTED BY IDOCK:   -5.09 KCAL/MOL
REMARK 923 INTER-LIGAND FREE ENERGY PREDICTED BY IDOCK:   -4.79 KCAL/MOL
REMARK 924 INTRA-LIGAND FREE ENERGY PREDICTED BY IDOCK:   -0.30 KCAL/MOL
REMARK 927      BINDING AFFINITY PREDICTED BY RF-SCORE:    0.00 PKD
ROOT
HETATM    1  C   UNL     1     -10.182  14.964  67.466  1.00  0.00    -0.233 C  
HETATM    2  O   UNL     1     -11.605  15.013  67.373  1.00  0.00    -0.348 OA 
HETATM    3  C   UNL     1     -12.153  15.134  68.699  1.00  0.00    -0.151 C  
HETATM    4  C   UNL     1     -10.997  15.318  69.680  1.00  0.00    -0.284 C  
HETATM    5  C   UNL     1      -9.614  13.546  67.451  1.00  0.00    -0.227 C  
HETATM    6  C   UNL     1      -9.758  15.513  68.814  1.00  0.00    -0.213 C  
HETATM    7  C   UNL     1      -8.335  13.755  68.250  1.00  0.00    -0.161 C  
HETATM    8  O   UNL     1      -8.652  14.718  69.277  1.00  0.00    -0.135 OA 
ENDROOT
BRANCH   4   9
HETATM    9  O   UNL     1     -11.197  16.254  70.734  1.00  0.00    -0.366 OA 
HETATM   10  O   UNL     1     -11.825  16.590  72.816  1.00  0.00    -0.539 OA 
HETATM   11  O   UNL     1     -11.924  14.523  71.998  1.00  0.00    -0.283 OA 
HETATM   12  N   UNL     1     -11.694  15.730  71.950  1.00  0.00    -0.441 N  
ENDBRANCH   4   9
BRANCH   5  13
HETATM   13  O   UNL     1     -10.517  12.679  68.148  1.00  0.00    -0.217 OA 
HETATM   14  N   UNL     1     -11.260  11.834  67.297  1.00  0.00    -0.286 N  
HETATM   15  O   UNL     1     -12.153  11.233  67.886  1.00  0.00    -0.634 OA 
HETATM   16  O   UNL     1     -10.909  11.782  66.117  1.00  0.00    -0.270 OA 
ENDBRANCH   5  13
TORSDOF 2
ENDMDL
MODEL       46
REMARK 921   NORMALIZED FREE ENERGY PREDICTED BY IDOCK:   -4.25 KCAL/MOL
REMARK 922        TOTAL FREE ENERGY PREDICTED BY IDOCK:   -5.08 KCAL/MOL
REMARK 923 INTER-LIGAND FREE ENERGY PREDICTED BY IDOCK:   -4.64 KCAL/MOL
REMARK 924 INTRA-LIGAND FREE ENERGY PREDICTED BY IDOCK:   -0.44 KCAL/MOL
REMARK 927      BINDING AFFINITY PREDICTED BY RF-SCORE:    0.00 PKD
ROOT
HETATM    1  C   UNL     1     -11.577  14.591  66.867  1.00  0.00    -0.385 C  
HETATM    2  O   UNL     1     -11.450  14.897  68.256  1.00  0.00    -0.297 OA 
HETATM    3  C   UNL     1     -10.670  16.099  68.397  1.00  0.00    -0.298 C  
HETATM    4  C   UNL     1     -10.409  16.667  67.003  1.00  0.00    -0.301 C  
HETATM    5  C   UNL     1     -10.557  13.569  66.370  1.00  0.00    -0.283 C  
HETATM    6  C   UNL     1     -11.271  15.837  66.060  1.00  0.00     0.018 C  
HETATM    7  C   UNL     1     -10.443  13.986  64.909  1.00  0.00    -0.431 C  
HETATM    8  O   UNL     1     -10.540  15.426  64.891  1.00  0.00    -0.416 OA 
ENDROOT
BRANCH   4   9
HETATM    9  O   UNL     1     -10.487  18.082  66.866  1.00  0.00    -0.360 OA 
HETATM   10  O   UNL     1      -9.509  19.932  66.182  1.00  0.00    -0.394 OA 
HETATM   11  O   UNL     1      -8.415  18.006  65.957  1.00  0.00    -0.494 OA 
HETATM   12  N   UNL     1      -9.365  18.717  66.284  1.00  0.00    -0.285 N  
ENDBRANCH   4   9
BRANCH   5  13
HETATM   13  O   UNL     1      -9.319  13.777  67.059  1.00  0.00    -0.229 OA 
HETATM   14  N   UNL     1      -8.870  12.644  67.769  1.00  0.00    -0.169 N  
HETATM   15  O   UNL     1      -7.914  12.889  68.499  1.00  0.00    -0.144 OA 
HETATM   16  O   UNL     1      -9.453  11.581  67.551  1.00  0.00    -0.167 OA 
ENDBRANCH   5  13
TORSDOF 2
ENDMDL
MODEL       47
REMARK 921   NORMALIZED FREE ENERGY PREDICTED BY IDOCK:   -4.22 KCAL/MOL
REMARK 922        TOTAL FREE ENERGY PREDICTED BY IDOCK:   -5.04 KCAL/MOL
REMARK 923 INTER-LIGAND FREE ENERGY PREDICTED BY IDOCK:   -4.69 KCAL/MOL
REMARK 924 INTRA-LIGAND FREE ENERGY PREDICTED BY IDOCK:   -0.35 KCAL/MOL
REMARK 927      BINDING AFFINITY PREDICTED BY RF-SCORE:    0.00 PKD
ROOT
HETATM    1  C   UNL     1     -10.903  15.619  67.366  1.00  0.00    -0.315 C  
HETATM    2  O   UNL     1     -11.473  14.311  67.316  1.00  0.00    -0.317 OA 
HETATM    3  C   UNL     1     -11.971  13.971  68.623  1.00  0.00    -0.354 C  
HETATM    4  C   UNL     1     -11.835  15.199  69.522  1.00  0.00    -0.332 C  
HETATM    5  C   UNL     1      -9.387  15.619  67.558  1.00  0.00    -0.206 C  
HETATM    6  C   UNL     1     -11.427  16.337  68.594  1.00  0.00    -0.288 C  
HETATM    7  C   UNL     1      -9.203  16.953  68.269  1.00  0.00    -0.241 C  
HETATM    8  O   UNL     1     -10.344  17.109  69.139  1.00  0.00    -0.312 OA 
ENDROOT
BRANCH   4   9
HETATM    9  O   UNL     1     -12.910  15.456  70.418  1.00  0.00    -0.390 OA 
HETATM   10  O   UNL     1     -13.539  15.844  72.492  1.00  0.00    -0.497 OA 
HETATM   11  O   UNL     1     -11.379  15.496  72.084  1.00  0.00    -0.417 OA 
HETATM   12  N   UNL     1     -12.566  15.609  71.782  1.00  0.00    -0.412 N  
ENDBRANCH   4   9
BRANCH   5  13
HETATM   13  O   UNL     1      -9.030  14.529  68.416  1.00  0.00    -0.175 OA 
HETATM   14  N   UNL     1      -7.813  13.908  68.063  1.00  0.00    -0.138 N  
HETATM   15  O   UNL     1      -7.612  12.870  68.686  1.00  0.00    -0.126 OA 
HETATM   16  O   UNL     1      -7.113  14.484  67.228  1.00  0.00    -0.171 OA 
ENDBRANCH   5  13
TORSDOF 2
ENDMDL
MODEL       48
REMARK 921   NORMALIZED FREE ENERGY PREDICTED BY IDOCK:   -4.14 KCAL/MOL
REMARK 922        TOTAL FREE ENERGY PREDICTED BY IDOCK:   -4.96 KCAL/MOL
REMARK 923 INTER-LIGAND FREE ENERGY PREDICTED BY IDOCK:   -4.53 KCAL/MOL
REMARK 924 INTRA-LIGAND FREE ENERGY PREDICTED BY IDOCK:   -0.43 KCAL/MOL
REMARK 927      BINDING AFFINITY PREDICTED BY RF-SCORE:    0.00 PKD
ROOT
HETATM    1  C   UNL     1      -9.846  13.440  68.298  1.00  0.00    -0.235 C  
HETATM    2  O   UNL     1      -8.655  13.995  67.739  1.00  0.00    -0.160 OA 
HETATM    3  C   UNL     1      -8.945  14.473  66.412  1.00  0.00    -0.118 C  
HETATM    4  C   UNL     1     -10.448  14.340  66.173  1.00  0.00    -0.292 C  
HETATM    5  C   UNL     1      -9.941  11.922  68.152  1.00  0.00    -0.197 C  
HETATM    6  C   UNL     1     -11.041  13.958  67.523  1.00  0.00    -0.286 C  
HETATM    7  C   UNL     1     -11.454  11.745  68.129  1.00  0.00    -0.316 C  
HETATM    8  O   UNL     1     -11.983  12.877  67.407  1.00  0.00    -0.363 OA 
ENDROOT
BRANCH   4   9
HETATM    9  O   UNL     1     -11.079  15.407  65.473  1.00  0.00    -0.333 OA 
HETATM   10  O   UNL     1     -12.410  16.011  63.827  1.00  0.00    -0.858 OA 
HETATM   11  O   UNL     1     -11.967  13.846  64.096  1.00  0.00    -0.443 OA 
HETATM   12  N   UNL     1     -11.886  15.042  64.370  1.00  0.00    -0.392 N  
ENDBRANCH   4   9
BRANCH   5  13
HETATM   13  O   UNL     1      -9.362  11.541  66.899  1.00  0.00    -0.174 OA 
HETATM   14  N   UNL     1      -8.342  10.575  67.019  1.00  0.00    -0.127 N  
HETATM   15  O   UNL     1      -7.733  10.394  65.968  1.00  0.00    -0.124 OA 
HETATM   16  O   UNL     1      -8.216  10.028  68.116  1.00  0.00    -0.107 OA 
ENDBRANCH   5  13
TORSDOF 2
ENDMDL
MODEL       49
REMARK 921   NORMALIZED FREE ENERGY PREDICTED BY IDOCK:   -4.13 KCAL/MOL
REMARK 922        TOTAL FREE ENERGY PREDICTED BY IDOCK:   -4.95 KCAL/MOL
REMARK 923 INTER-LIGAND FREE ENERGY PREDICTED BY IDOCK:   -4.51 KCAL/MOL
REMARK 924 INTRA-LIGAND FREE ENERGY PREDICTED BY IDOCK:   -0.44 KCAL/MOL
REMARK 927      BINDING AFFINITY PREDICTED BY RF-SCORE:    0.00 PKD
ROOT
HETATM    1  C   UNL     1     -11.656  14.806  67.164  1.00  0.00    -0.359 C  
HETATM    2  O   UNL     1     -11.849  14.757  68.577  1.00  0.00    -0.329 OA 
HETATM    3  C   UNL     1     -10.685  15.302  69.224  1.00  0.00    -0.252 C  
HETATM    4  C   UNL     1      -9.757  15.863  68.148  1.00  0.00    -0.212 C  
HETATM    5  C   UNL     1     -11.144  13.495  66.569  1.00  0.00    -0.300 C  
HETATM    6  C   UNL     1     -10.557  15.802  66.852  1.00  0.00    -0.317 C  
HETATM    7  C   UNL     1     -10.387  14.022  65.357  1.00  0.00    -0.359 C  
HETATM    8  O   UNL     1      -9.779  15.264  65.769  1.00  0.00    -0.327 OA 
ENDROOT
BRANCH   4   9
HETATM    9  O   UNL     1      -9.107  17.094  68.444  1.00  0.00    -0.247 OA 
HETATM   10  O   UNL     1      -7.209  18.203  68.566  1.00  0.00    -0.249 OA 
HETATM   11  O   UNL     1      -7.151  16.060  67.967  1.00  0.00    -0.122 OA 
HETATM   12  N   UNL     1      -7.699  17.106  68.311  1.00  0.00    -0.211 N  
ENDBRANCH   4   9
BRANCH   5  13
HETATM   13  O   UNL     1     -10.248  12.882  67.504  1.00  0.00    -0.211 OA 
HETATM   14  N   UNL     1     -10.763  11.708  68.093  1.00  0.00    -0.203 N  
HETATM   15  O   UNL     1     -10.070  11.298  69.020  1.00  0.00    -0.198 OA 
HETATM   16  O   UNL     1     -11.790  11.239  67.599  1.00  0.00    -0.614 OA 
ENDBRANCH   5  13
TORSDOF 2
ENDMDL
MODEL       50
REMARK 921   NORMALIZED FREE ENERGY PREDICTED BY IDOCK:   -4.09 KCAL/MOL
REMARK 922        TOTAL FREE ENERGY PREDICTED BY IDOCK:   -4.90 KCAL/MOL
REMARK 923 INTER-LIGAND FREE ENERGY PREDICTED BY IDOCK:   -4.53 KCAL/MOL
REMARK 924 INTRA-LIGAND FREE ENERGY PREDICTED BY IDOCK:   -0.36 KCAL/MOL
REMARK 927      BINDING AFFINITY PREDICTED BY RF-SCORE:    0.00 PKD
ROOT
HETATM    1  C   UNL     1     -10.784  12.887  68.285  1.00  0.00    -0.244 C  
HETATM    2  O   UNL     1     -12.078  12.432  68.683  1.00  0.00    -0.267 OA 
HETATM    3  C   UNL     1     -12.100  10.994  68.633  1.00  0.00    -0.059 C  
HETATM    4  C   UNL     1     -10.687  10.504  68.321  1.00  0.00    -0.229 C  
HETATM    5  C   UNL     1     -10.701  13.287  66.813  1.00  0.00    -0.276 C  
HETATM    6  C   UNL     1      -9.801  11.741  68.408  1.00  0.00    -0.199 C  
HETATM    7  C   UNL     1      -9.230  13.007  66.537  1.00  0.00    -0.181 C  
HETATM    8  O   UNL     1      -8.893  11.827  67.296  1.00  0.00    -0.157 OA 
ENDROOT
BRANCH   4   9
HETATM    9  O   UNL     1     -10.244   9.347  69.021  1.00  0.00    -0.191 OA 
HETATM   10  O   UNL     1      -9.858   7.180  68.960  1.00  0.00    -0.152 OA 
HETATM   11  O   UNL     1     -10.678   8.165  67.140  1.00  0.00    -0.316 OA 
HETATM   12  N   UNL     1     -10.269   8.130  68.300  1.00  0.00    -0.202 N  
ENDBRANCH   4   9
BRANCH   5  13
HETATM   13  O   UNL     1     -11.540  12.414  66.048  1.00  0.00    -0.362 OA 
HETATM   14  N   UNL     1     -12.416  13.093  65.175  1.00  0.00    -0.473 N  
HETATM   15  O   UNL     1     -13.250  12.349  64.666  1.00  0.00    -0.822 OA 
HETATM   16  O   UNL     1     -12.219  14.298  65.012  1.00  0.00    -0.402 OA 
ENDBRANCH   5  13
TORSDOF 2
ENDMDL
MODEL       51
REMARK 921   NORMALIZED FREE ENERGY PREDICTED BY IDOCK:   -4.08 KCAL/MOL
REMARK 922        TOTAL FREE ENERGY PREDICTED BY IDOCK:   -4.89 KCAL/MOL
REMARK 923 INTER-LIGAND FREE ENERGY PREDICTED BY IDOCK:   -4.59 KCAL/MOL
REMARK 924 INTRA-LIGAND FREE ENERGY PREDICTED BY IDOCK:   -0.30 KCAL/MOL
REMARK 927      BINDING AFFINITY PREDICTED BY RF-SCORE:    0.00 PKD
ROOT
HETATM    1  C   UNL     1     -11.244  11.493  68.295  1.00  0.00    -0.261 C  
HETATM    2  O   UNL     1     -11.555  12.668  69.044  1.00  0.00    -0.276 OA 
HETATM    3  C   UNL     1     -11.660  13.782  68.138  1.00  0.00    -0.335 C  
HETATM    4  C   UNL     1     -11.551  13.250  66.710  1.00  0.00    -0.365 C  
HETATM    5  C   UNL     1      -9.753  11.160  68.268  1.00  0.00    -0.188 C  
HETATM    6  C   UNL     1     -11.592  11.732  66.839  1.00  0.00    -0.234 C  
HETATM    7  C   UNL     1      -9.661  10.429  66.935  1.00  0.00    -0.181 C  
HETATM    8  O   UNL     1     -10.576  11.100  66.042  1.00  0.00    -0.256 OA 
ENDROOT
BRANCH   4   9
HETATM    9  O   UNL     1     -12.415  13.835  65.743  1.00  0.00    -0.455 OA 
HETATM   10  O   UNL     1     -12.626  14.691  63.726  1.00  0.00    -0.820 OA 
HETATM   11  O   UNL     1     -10.612  14.013  64.387  1.00  0.00    -0.382 OA 
HETATM   12  N   UNL     1     -11.819  14.209  64.516  1.00  0.00    -0.419 N  
ENDBRANCH   4   9
BRANCH   5  13
HETATM   13  O   UNL     1      -9.007  12.382  68.233  1.00  0.00    -0.190 OA 
HETATM   14  N   UNL     1      -7.762  12.303  68.892  1.00  0.00    -0.009 N  
HETATM   15  O   UNL     1      -7.219  13.397  69.015  1.00  0.00    -0.094 OA 
HETATM   16  O   UNL     1      -7.374  11.181  69.220  1.00  0.00    -0.121 OA 
ENDBRANCH   5  13
TORSDOF 2
ENDMDL
MODEL       52
REMARK 921   NORMALIZED FREE ENERGY PREDICTED BY IDOCK:   -4.08 KCAL/MOL
REMARK 922        TOTAL FREE ENERGY PREDICTED BY IDOCK:   -4.89 KCAL/MOL
REMARK 923 INTER-LIGAND FREE ENERGY PREDICTED BY IDOCK:   -4.53 KCAL/MOL
REMARK 924 INTRA-LIGAND FREE ENERGY PREDICTED BY IDOCK:   -0.36 KCAL/MOL
REMARK 927      BINDING AFFINITY PREDICTED BY RF-SCORE:    0.00 PKD
ROOT
HETATM    1  C   UNL     1     -11.435  10.440  68.584  1.00  0.00    -0.172 C  
HETATM    2  O   UNL     1     -12.402  11.376  68.105  1.00  0.00    -0.502 OA 
HETATM    3  C   UNL     1     -11.780  12.668  67.990  1.00  0.00    -0.350 C  
HETATM    4  C   UNL     1     -10.288  12.509  68.277  1.00  0.00    -0.236 C  
HETATM    5  C   UNL     1     -11.496  10.215  70.094  1.00  0.00    -0.296 C  
HETATM    6  C   UNL     1     -10.048  11.006  68.354  1.00  0.00    -0.184 C  
HETATM    7  C   UNL     1     -10.046   9.839  70.372  1.00  0.00    -0.252 C  
HETATM    8  O   UNL     1      -9.242  10.651  69.491  1.00  0.00    -0.115 OA 
ENDROOT
BRANCH   4   9
HETATM    9  O   UNL     1      -9.397  13.260  67.460  1.00  0.00    -0.202 OA 
HETATM   10  O   UNL     1      -8.141  15.057  67.255  1.00  0.00    -0.181 OA 
HETATM   11  O   UNL     1      -9.311  14.786  69.130  1.00  0.00    -0.180 OA 
HETATM   12  N   UNL     1      -8.916  14.472  68.008  1.00  0.00    -0.174 N  
ENDBRANCH   4   9
BRANCH   5  13
HETATM   13  O   UNL     1     -11.835  11.451  70.732  1.00  0.00    -0.309 OA 
HETATM   14  N   UNL     1     -12.954  11.357  71.586  1.00  0.00    -0.453 N  
HETATM   15  O   UNL     1     -13.344  12.453  71.980  1.00  0.00    -0.507 OA 
HETATM   16  O   UNL     1     -13.365  10.226  71.847  1.00  0.00    -0.415 OA 
ENDBRANCH   5  13
TORSDOF 2
ENDMDL
MODEL       53
REMARK 921   NORMALIZED FREE ENERGY PREDICTED BY IDOCK:   -4.07 KCAL/MOL
REMARK 922        TOTAL FREE ENERGY PREDICTED BY IDOCK:   -4.87 KCAL/MOL
REMARK 923 INTER-LIGAND FREE ENERGY PREDICTED BY IDOCK:   -4.53 KCAL/MOL
REMARK 924 INTRA-LIGAND FREE ENERGY PREDICTED BY IDOCK:   -0.34 KCAL/MOL
REMARK 927      BINDING AFFINITY PREDICTED BY RF-SCORE:    0.00 PKD
ROOT
HETATM    1  C   UNL     1     -11.742  14.699  67.892  1.00  0.00    -0.351 C  
HETATM    2  O   UNL     1     -11.411  16.086  67.827  1.00  0.00    -0.282 OA 
HETATM    3  C   UNL     1      -9.989  16.232  67.995  1.00  0.00    -0.240 C  
HETATM    4  C   UNL     1      -9.364  14.838  68.025  1.00  0.00    -0.196 C  
HETATM    5  C   UNL     1     -12.213  14.245  69.273  1.00  0.00    -0.252 C  
HETATM    6  C   UNL     1     -10.489  13.882  67.646  1.00  0.00    -0.245 C  
HETATM    7  C   UNL     1     -11.789  12.783  69.239  1.00  0.00    -0.303 C  
HETATM    8  O   UNL     1     -10.538  12.741  68.520  1.00  0.00    -0.244 OA 
ENDROOT
BRANCH   4   9
HETATM    9  O   UNL     1      -8.128  14.678  67.338  1.00  0.00    -0.170 OA 
HETATM   10  O   UNL     1      -5.930  14.660  67.462  1.00  0.00    -0.333 OA 
HETATM   11  O   UNL     1      -7.095  15.096  69.308  1.00  0.00    -0.142 OA 
HETATM   12  N   UNL     1      -6.956  14.828  68.116  1.00  0.00    -0.112 N  
ENDBRANCH   4   9
BRANCH   5  13
HETATM   13  O   UNL     1     -11.481  14.967  70.271  1.00  0.00    -0.252 OA 
HETATM   14  N   UNL     1     -12.291  15.794  71.077  1.00  0.00    -0.420 N  
HETATM   15  O   UNL     1     -11.636  16.540  71.800  1.00  0.00    -0.415 OA 
HETATM   16  O   UNL     1     -13.510  15.645  70.983  1.00  0.00    -0.575 OA 
ENDBRANCH   5  13
TORSDOF 2
ENDMDL
MODEL       54
REMARK 921   NORMALIZED FREE ENERGY PREDICTED BY IDOCK:   -4.06 KCAL/MOL
REMARK 922        TOTAL FREE ENERGY PREDICTED BY IDOCK:   -4.87 KCAL/MOL
REMARK 923 INTER-LIGAND FREE ENERGY PREDICTED BY IDOCK:   -4.45 KCAL/MOL
REMARK 924 INTRA-LIGAND FREE ENERGY PREDICTED BY IDOCK:   -0.42 KCAL/MOL
REMARK 927      BINDING AFFINITY PREDICTED BY RF-SCORE:    0.00 PKD
ROOT
HETATM    1  C   UNL     1      -9.732  14.539  66.692  1.00  0.00    -0.273 C  
HETATM    2  O   UNL     1     -11.003  14.299  66.086  1.00  0.00    -0.304 OA 
HETATM    3  C   UNL     1     -12.014  14.308  67.110  1.00  0.00    -0.417 C  
HETATM    4  C   UNL     1     -11.359  14.723  68.427  1.00  0.00    -0.299 C  
HETATM    5  C   UNL     1      -8.945  13.265  66.989  1.00  0.00    -0.228 C  
HETATM    6  C   UNL     1      -9.948  15.163  68.056  1.00  0.00    -0.221 C  
HETATM    7  C   UNL     1      -8.115  13.728  68.179  1.00  0.00    -0.155 C  
HETATM    8  O   UNL     1      -8.964  14.608  68.946  1.00  0.00    -0.181 OA 
ENDROOT
BRANCH   4   9
HETATM    9  O   UNL     1     -12.106  15.599  69.263  1.00  0.00    -0.347 OA 
HETATM   10  O   UNL     1     -13.211  15.865  71.149  1.00  0.00    -0.518 OA 
HETATM   11  O   UNL     1     -12.345  13.865  70.698  1.00  0.00    -0.338 OA 
HETATM   12  N   UNL     1     -12.592  15.048  70.472  1.00  0.00    -0.359 N  
ENDBRANCH   4   9
BRANCH   5  13
HETATM   13  O   UNL     1      -9.861  12.234  67.375  1.00  0.00    -0.195 OA 
HETATM   14  N   UNL     1      -9.868  11.128  66.500  1.00  0.00    -0.203 N  
HETATM   15  O   UNL     1     -10.781  10.341  66.736  1.00  0.00    -0.217 OA 
HETATM   16  O   UNL     1      -8.969  11.074  65.660  1.00  0.00    -0.197 OA 
ENDBRANCH   5  13
TORSDOF 2
ENDMDL
MODEL       55
REMARK 921   NORMALIZED FREE ENERGY PREDICTED BY IDOCK:   -4.05 KCAL/MOL
REMARK 922        TOTAL FREE ENERGY PREDICTED BY IDOCK:   -4.86 KCAL/MOL
REMARK 923 INTER-LIGAND FREE ENERGY PREDICTED BY IDOCK:   -4.59 KCAL/MOL
REMARK 924 INTRA-LIGAND FREE ENERGY PREDICTED BY IDOCK:   -0.27 KCAL/MOL
REMARK 927      BINDING AFFINITY PREDICTED BY RF-SCORE:    0.00 PKD
ROOT
HETATM    1  C   UNL     1      -9.233  17.948  66.962  1.00  0.00    -0.260 C  
HETATM    2  O   UNL     1      -8.427  16.954  67.595  1.00  0.00    -0.196 OA 
HETATM    3  C   UNL     1      -9.161  16.395  68.699  1.00  0.00    -0.233 C  
HETATM    4  C   UNL     1     -10.575  16.972  68.676  1.00  0.00    -0.362 C  
HETATM    5  C   UNL     1      -8.928  19.371  67.428  1.00  0.00    -0.300 C  
HETATM    6  C   UNL     1     -10.680  17.735  67.361  1.00  0.00    -0.279 C  
HETATM    7  C   UNL     1     -10.285  20.027  67.206  1.00  0.00    -0.424 C  
HETATM    8  O   UNL     1     -11.275  19.032  67.540  1.00  0.00    -0.261 OA 
ENDROOT
BRANCH   4   9
HETATM    9  O   UNL     1     -11.636  16.075  68.983  1.00  0.00    -0.367 OA 
HETATM   10  O   UNL     1     -12.891  15.155  70.541  1.00  0.00    -0.369 OA 
HETATM   11  O   UNL     1     -11.294  16.576  71.164  1.00  0.00    -0.298 OA 
HETATM   12  N   UNL     1     -11.957  15.931  70.353  1.00  0.00    -0.348 N  
ENDBRANCH   4   9
BRANCH   5  13
HETATM   13  O   UNL     1      -8.597  19.341  68.821  1.00  0.00    -0.357 OA 
HETATM   14  N   UNL     1      -7.248  19.654  69.088  1.00  0.00    -0.353 N  
HETATM   15  O   UNL     1      -6.934  19.446  70.256  1.00  0.00     0.090 OA 
HETATM   16  O   UNL     1      -6.586  20.113  68.156  1.00  0.00    -0.268 OA 
ENDBRANCH   5  13
TORSDOF 2
ENDMDL
MODEL       56
REMARK 921   NORMALIZED FREE ENERGY PREDICTED BY IDOCK:   -4.04 KCAL/MOL
REMARK 922        TOTAL FREE ENERGY PREDICTED BY IDOCK:   -4.85 KCAL/MOL
REMARK 923 INTER-LIGAND FREE ENERGY PREDICTED BY IDOCK:   -4.41 KCAL/MOL
REMARK 924 INTRA-LIGAND FREE ENERGY PREDICTED BY IDOCK:   -0.44 KCAL/MOL
REMARK 927      BINDING AFFINITY PREDICTED BY RF-SCORE:    0.00 PKD
ROOT
HETATM    1  C   UNL     1      -9.686  15.932  67.401  1.00  0.00    -0.227 C  
HETATM    2  O   UNL     1     -10.905  16.668  67.293  1.00  0.00    -0.273 OA 
HETATM    3  C   UNL     1     -10.636  18.055  67.568  1.00  0.00    -0.388 C  
HETATM    4  C   UNL     1      -9.126  18.229  67.719  1.00  0.00    -0.267 C  
HETATM    5  C   UNL     1      -9.494  15.262  68.761  1.00  0.00    -0.212 C  
HETATM    6  C   UNL     1      -8.520  16.895  67.300  1.00  0.00    -0.196 C  
HETATM    7  C   UNL     1      -7.973  15.229  68.835  1.00  0.00    -0.176 C  
HETATM    8  O   UNL     1      -7.511  16.452  68.224  1.00  0.00    -0.151 OA 
ENDROOT
BRANCH   4   9
HETATM    9  O   UNL     1      -8.558  19.401  67.145  1.00  0.00    -0.281 OA 
HETATM   10  O   UNL     1      -7.199  21.114  67.396  1.00  0.00    -0.438 OA 
HETATM   11  O   UNL     1      -7.454  19.702  69.098  1.00  0.00    -0.357 OA 
HETATM   12  N   UNL     1      -7.661  20.128  67.962  1.00  0.00    -0.276 N  
ENDBRANCH   4   9
BRANCH   5  13
HETATM   13  O   UNL     1     -10.038  16.113  69.776  1.00  0.00    -0.245 OA 
HETATM   14  N   UNL     1     -11.138  15.549  70.456  1.00  0.00    -0.322 N  
HETATM   15  O   UNL     1     -11.705  16.353  71.190  1.00  0.00    -0.374 OA 
HETATM   16  O   UNL     1     -11.363  14.354  70.260  1.00  0.00    -0.227 OA 
ENDBRANCH   5  13
TORSDOF 2
ENDMDL
MODEL       57
REMARK 921   NORMALIZED FREE ENERGY PREDICTED BY IDOCK:   -4.04 KCAL/MOL
REMARK 922        TOTAL FREE ENERGY PREDICTED BY IDOCK:   -4.85 KCAL/MOL
REMARK 923 INTER-LIGAND FREE ENERGY PREDICTED BY IDOCK:   -4.42 KCAL/MOL
REMARK 924 INTRA-LIGAND FREE ENERGY PREDICTED BY IDOCK:   -0.43 KCAL/MOL
REMARK 927      BINDING AFFINITY PREDICTED BY RF-SCORE:    0.00 PKD
ROOT
HETATM    1  C   UNL     1     -11.610  13.910  65.987  1.00  0.00    -0.349 C  
HETATM    2  O   UNL     1     -10.635  13.449  65.051  1.00  0.00    -0.319 OA 
HETATM    3  C   UNL     1      -9.962  12.305  65.609  1.00  0.00    -0.251 C  
HETATM    4  C   UNL     1     -10.654  11.933  66.918  1.00  0.00    -0.230 C  
HETATM    5  C   UNL     1     -11.123  15.063  66.862  1.00  0.00    -0.331 C  
HETATM    6  C   UNL     1     -11.906  12.800  66.975  1.00  0.00    -0.361 C  
HETATM    7  C   UNL     1     -11.970  14.836  68.108  1.00  0.00    -0.230 C  
HETATM    8  O   UNL     1     -12.078  13.406  68.268  1.00  0.00    -0.343 OA 
ENDROOT
BRANCH   4   9
HETATM    9  O   UNL     1     -10.823  10.543  67.178  1.00  0.00    -0.279 OA 
HETATM   10  O   UNL     1     -10.549   8.877  68.590  1.00  0.00    -0.209 OA 
HETATM   11  O   UNL     1      -9.833  10.900  69.182  1.00  0.00    -0.205 OA 
HETATM   12  N   UNL     1     -10.356  10.079  68.429  1.00  0.00    -0.181 N  
ENDBRANCH   4   9
BRANCH   5  13
HETATM   13  O   UNL     1      -9.732  14.872  67.147  1.00  0.00    -0.222 OA 
HETATM   14  N   UNL     1      -8.889  15.790  66.486  1.00  0.00    -0.282 N  
HETATM   15  O   UNL     1      -7.700  15.503  66.591  1.00  0.00    -0.160 OA 
HETATM   16  O   UNL     1      -9.431  16.749  65.934  1.00  0.00    -0.466 OA 
ENDBRANCH   5  13
TORSDOF 2
ENDMDL
MODEL       58
REMARK 921   NORMALIZED FREE ENERGY PREDICTED BY IDOCK:   -4.04 KCAL/MOL
REMARK 922        TOTAL FREE ENERGY PREDICTED BY IDOCK:   -4.84 KCAL/MOL
REMARK 923 INTER-LIGAND FREE ENERGY PREDICTED BY IDOCK:   -5.47 KCAL/MOL
REMARK 924 INTRA-LIGAND FREE ENERGY PREDICTED BY IDOCK:    0.63 KCAL/MOL
REMARK 927      BINDING AFFINITY PREDICTED BY RF-SCORE:    0.00 PKD
ROOT
HETATM    1  C   UNL     1     -11.367  14.937  66.174  1.00  0.00    -0.307 C  
HETATM    2  O   UNL     1     -10.434  14.153  66.917  1.00  0.00    -0.269 OA 
HETATM    3  C   UNL     1      -9.102  14.608  66.617  1.00  0.00    -0.258 C  
HETATM    4  C   UNL     1      -9.208  15.853  65.738  1.00  0.00    -0.206 C  
HETATM    5  C   UNL     1     -11.815  14.282  64.868  1.00  0.00    -0.410 C  
HETATM    6  C   UNL     1     -10.688  16.216  65.727  1.00  0.00    -0.280 C  
HETATM    7  C   UNL     1     -12.137  15.519  64.039  1.00  0.00     0.074 C  
HETATM    8  O   UNL     1     -11.155  16.514  64.400  1.00  0.00    -0.894 OA 
ENDROOT
BRANCH   4   9
HETATM    9  O   UNL     1      -8.291  16.907  66.010  1.00  0.00    -0.453 OA 
HETATM   10  O   UNL     1      -7.579  18.418  67.445  1.00  0.00    -0.216 OA 
HETATM   11  O   UNL     1      -9.299  17.129  68.025  1.00  0.00    -0.243 OA 
HETATM   12  N   UNL     1      -8.412  17.532  67.274  1.00  0.00    -0.211 N  
ENDBRANCH   4   9
BRANCH   5  13
HETATM   13  O   UNL     1     -10.710  13.564  64.308  1.00  0.00    -0.403 OA 
HETATM   14  N   UNL     1     -11.094  12.445  63.539  1.00  0.00    -0.461 N  
HETATM   15  O   UNL     1     -10.143  11.738  63.221  1.00  0.00    -0.411 OA 
HETATM   16  O   UNL     1     -12.290  12.340  63.265  1.00  0.00    -0.522 OA 
ENDBRANCH   5  13
TORSDOF 2
ENDMDL
MODEL       59
REMARK 921   NORMALIZED FREE ENERGY PREDICTED BY IDOCK:   -4.03 KCAL/MOL
REMARK 922        TOTAL FREE ENERGY PREDICTED BY IDOCK:   -4.83 KCAL/MOL
REMARK 923 INTER-LIGAND FREE ENERGY PREDICTED BY IDOCK:   -4.46 KCAL/MOL
REMARK 924 INTRA-LIGAND FREE ENERGY PREDICTED BY IDOCK:   -0.37 KCAL/MOL
REMARK 927      BINDING AFFINITY PREDICTED BY RF-SCORE:    0.00 PKD
ROOT
HETATM    1  C   UNL     1      -8.683  11.449  66.776  1.00  0.00    -0.174 C  
HETATM    2  O   UNL     1      -8.779  10.087  66.358  1.00  0.00    -0.128 OA 
HETATM    3  C   UNL     1     -10.007   9.912  65.627  1.00  0.00    -0.283 C  
HETATM    4  C   UNL     1     -10.659  11.282  65.450  1.00  0.00    -0.250 C  
HETATM    5  C   UNL     1      -9.159  11.685  68.208  1.00  0.00    -0.187 C  
HETATM    6  C   UNL     1      -9.623  12.289  65.935  1.00  0.00    -0.198 C  
HETATM    7  C   UNL     1      -9.618  13.133  68.108  1.00  0.00    -0.227 C  
HETATM    8  O   UNL     1     -10.206  13.281  66.798  1.00  0.00    -0.247 OA 
ENDROOT
BRANCH   4   9
HETATM    9  O   UNL     1     -11.265  11.542  64.189  1.00  0.00    -0.358 OA 
HETATM   10  O   UNL     1     -12.953  12.436  63.095  1.00  0.00    -0.602 OA 
HETATM   11  O   UNL     1     -12.952  12.542  65.318  1.00  0.00    -0.588 OA 
HETATM   12  N   UNL     1     -12.498  12.234  64.217  1.00  0.00    -0.443 N  
ENDBRANCH   4   9
BRANCH   5  13
HETATM   13  O   UNL     1     -10.264  10.815  68.478  1.00  0.00    -0.163 OA 
HETATM   14  N   UNL     1     -10.012   9.883  69.506  1.00  0.00    -0.208 N  
HETATM   15  O   UNL     1     -10.890   9.031  69.601  1.00  0.00    -0.231 OA 
HETATM   16  O   UNL     1      -8.994  10.055  70.179  1.00  0.00    -0.173 OA 
ENDBRANCH   5  13
TORSDOF 2
ENDMDL
MODEL       60
REMARK 921   NORMALIZED FREE ENERGY PREDICTED BY IDOCK:   -4.02 KCAL/MOL
REMARK 922        TOTAL FREE ENERGY PREDICTED BY IDOCK:   -4.82 KCAL/MOL
REMARK 923 INTER-LIGAND FREE ENERGY PREDICTED BY IDOCK:   -4.38 KCAL/MOL
REMARK 924 INTRA-LIGAND FREE ENERGY PREDICTED BY IDOCK:   -0.44 KCAL/MOL
REMARK 927      BINDING AFFINITY PREDICTED BY RF-SCORE:    0.00 PKD
ROOT
HETATM    1  C   UNL     1     -11.111   5.595  71.962  1.00  0.00    -0.230 C  
HETATM    2  O   UNL     1     -10.542   6.011  73.204  1.00  0.00    -0.219 OA 
HETATM    3  C   UNL     1     -10.684   7.438  73.324  1.00  0.00    -0.391 C  
HETATM    4  C   UNL     1     -11.524   7.937  72.150  1.00  0.00    -0.324 C  
HETATM    5  C   UNL     1     -10.086   5.439  70.840  1.00  0.00    -0.219 C  
HETATM    6  C   UNL     1     -12.041   6.681  71.459  1.00  0.00    -0.355 C  
HETATM    7  C   UNL     1     -10.963   5.723  69.628  1.00  0.00    -0.315 C  
HETATM    8  O   UNL     1     -11.889   6.754  70.031  1.00  0.00    -0.316 OA 
ENDROOT
BRANCH   4   9
HETATM    9  O   UNL     1     -12.479   8.952  72.434  1.00  0.00    -0.375 OA 
HETATM   10  O   UNL     1     -13.222  10.975  71.983  1.00  0.00    -0.499 OA 
HETATM   11  O   UNL     1     -11.434  10.230  70.886  1.00  0.00    -0.338 OA 
HETATM   12  N   UNL     1     -12.355  10.153  71.697  1.00  0.00    -0.397 N  
ENDBRANCH   4   9
BRANCH   5  13
HETATM   13  O   UNL     1      -9.079   6.446  70.990  1.00  0.00    -0.152 OA 
HETATM   14  N   UNL     1      -7.801   5.928  71.286  1.00  0.00    -0.109 N  
HETATM   15  O   UNL     1      -6.993   6.801  71.592  1.00  0.00    -0.068 OA 
HETATM   16  O   UNL     1      -7.651   4.711  71.171  1.00  0.00    -0.074 OA 
ENDBRANCH   5  13
TORSDOF 2
ENDMDL
MODEL       61
REMARK 921   NORMALIZED FREE ENERGY PREDICTED BY IDOCK:   -4.00 KCAL/MOL
REMARK 922        TOTAL FREE ENERGY PREDICTED BY IDOCK:   -4.80 KCAL/MOL
REMARK 923 INTER-LIGAND FREE ENERGY PREDICTED BY IDOCK:   -4.58 KCAL/MOL
REMARK 924 INTRA-LIGAND FREE ENERGY PREDICTED BY IDOCK:   -0.22 KCAL/MOL
REMARK 927      BINDING AFFINITY PREDICTED BY RF-SCORE:    0.00 PKD
ROOT
HETATM    1  C   UNL     1     -11.983  14.149  68.335  1.00  0.00    -0.331 C  
HETATM    2  O   UNL     1     -11.998  12.996  67.493  1.00  0.00    -0.357 OA 
HETATM    3  C   UNL     1     -11.836  11.822  68.310  1.00  0.00    -0.271 C  
HETATM    4  C   UNL     1     -11.865  12.251  69.776  1.00  0.00    -0.318 C  
HETATM    5  C   UNL     1     -10.616  14.826  68.422  1.00  0.00    -0.242 C  
HETATM    6  C   UNL     1     -12.270  13.720  69.760  1.00  0.00    -0.310 C  
HETATM    7  C   UNL     1     -10.710  15.451  69.808  1.00  0.00    -0.291 C  
HETATM    8  O   UNL     1     -11.439  14.513  70.626  1.00  0.00    -0.252 OA 
ENDROOT
BRANCH   4   9
HETATM    9  O   UNL     1     -12.567  11.401  70.676  1.00  0.00    -0.314 OA 
HETATM   10  O   UNL     1     -12.515   9.605  71.949  1.00  0.00    -0.376 OA 
HETATM   11  O   UNL     1     -10.699  10.126  70.771  1.00  0.00    -0.282 OA 
HETATM   12  N   UNL     1     -11.853  10.282  71.166  1.00  0.00    -0.367 N  
ENDBRANCH   4   9
BRANCH   5  13
HETATM   13  O   UNL     1      -9.598  13.820  68.382  1.00  0.00    -0.212 OA 
HETATM   14  N   UNL     1      -8.848  13.822  67.187  1.00  0.00    -0.225 N  
HETATM   15  O   UNL     1      -8.109  12.847  67.088  1.00  0.00    -0.173 OA 
HETATM   16  O   UNL     1      -8.999  14.785  66.434  1.00  0.00    -0.259 OA 
ENDBRANCH   5  13
TORSDOF 2
ENDMDL
MODEL       62
REMARK 921   NORMALIZED FREE ENERGY PREDICTED BY IDOCK:   -3.95 KCAL/MOL
REMARK 922        TOTAL FREE ENERGY PREDICTED BY IDOCK:   -4.74 KCAL/MOL
REMARK 923 INTER-LIGAND FREE ENERGY PREDICTED BY IDOCK:   -4.30 KCAL/MOL
REMARK 924 INTRA-LIGAND FREE ENERGY PREDICTED BY IDOCK:   -0.44 KCAL/MOL
REMARK 927      BINDING AFFINITY PREDICTED BY RF-SCORE:    0.00 PKD
ROOT
HETATM    1  C   UNL     1     -10.678  17.062  67.247  1.00  0.00    -0.206 C  
HETATM    2  O   UNL     1      -9.744  17.230  66.180  1.00  0.00    -0.368 OA 
HETATM    3  C   UNL     1      -9.123  15.962  65.903  1.00  0.00    -0.269 C  
HETATM    4  C   UNL     1      -9.812  14.895  66.752  1.00  0.00    -0.246 C  
HETATM    5  C   UNL     1     -10.116  17.434  68.617  1.00  0.00    -0.355 C  
HETATM    6  C   UNL     1     -11.015  15.590  67.377  1.00  0.00    -0.306 C  
HETATM    7  C   UNL     1     -10.952  16.527  69.511  1.00  0.00    -0.289 C  
HETATM    8  O   UNL     1     -11.133  15.295  68.780  1.00  0.00    -0.244 OA 
ENDROOT
BRANCH   4   9
HETATM    9  O   UNL     1     -10.049  13.638  66.128  1.00  0.00    -0.291 OA 
HETATM   10  O   UNL     1      -9.799  11.452  66.212  1.00  0.00    -0.206 OA 
HETATM   11  O   UNL     1      -8.932  12.685  67.850  1.00  0.00    -0.173 OA 
HETATM   12  N   UNL     1      -9.543  12.500  66.799  1.00  0.00    -0.225 N  
ENDBRANCH   4   9
BRANCH   5  13
HETATM   13  O   UNL     1      -8.733  17.066  68.665  1.00  0.00    -0.251 OA 
HETATM   14  N   UNL     1      -7.855  18.170  68.688  1.00  0.00    -0.305 N  
HETATM   15  O   UNL     1      -6.680  17.846  68.544  1.00  0.00    -0.210 OA 
HETATM   16  O   UNL     1      -8.356  19.279  68.876  1.00  0.00    -0.360 OA 
ENDBRANCH   5  13
TORSDOF 2
ENDMDL
MODEL       63
REMARK 921   NORMALIZED FREE ENERGY PREDICTED BY IDOCK:   -3.93 KCAL/MOL
REMARK 922        TOTAL FREE ENERGY PREDICTED BY IDOCK:   -4.72 KCAL/MOL
REMARK 923 INTER-LIGAND FREE ENERGY PREDICTED BY IDOCK:   -4.49 KCAL/MOL
REMARK 924 INTRA-LIGAND FREE ENERGY PREDICTED BY IDOCK:   -0.23 KCAL/MOL
REMARK 927      BINDING AFFINITY PREDICTED BY RF-SCORE:    0.00 PKD
ROOT
HETATM    1  C   UNL     1      -9.290  11.965  66.010  1.00  0.00    -0.206 C  
HETATM    2  O   UNL     1      -9.971  12.574  67.108  1.00  0.00    -0.212 OA 
HETATM    3  C   UNL     1     -10.603  11.544  67.890  1.00  0.00    -0.191 C  
HETATM    4  C   UNL     1     -10.174  10.188  67.333  1.00  0.00    -0.218 C  
HETATM    5  C   UNL     1     -10.098  11.964  64.713  1.00  0.00    -0.262 C  
HETATM    6  C   UNL     1      -9.083  10.495  66.314  1.00  0.00    -0.164 C  
HETATM    7  C   UNL     1      -9.524  10.725  64.037  1.00  0.00    -0.272 C  
HETATM    8  O   UNL     1      -9.277   9.768  65.088  1.00  0.00    -0.205 OA 
ENDROOT
BRANCH   4   9
HETATM    9  O   UNL     1      -9.895   9.166  68.284  1.00  0.00    -0.152 OA 
HETATM   10  O   UNL     1     -10.033   7.031  68.802  1.00  0.00    -0.153 OA 
HETATM   11  O   UNL     1     -10.906   7.714  66.872  1.00  0.00    -0.328 OA 
HETATM   12  N   UNL     1     -10.322   7.861  67.944  1.00  0.00    -0.218 N  
ENDBRANCH   4   9
BRANCH   5  13
HETATM   13  O   UNL     1     -11.482  11.779  65.030  1.00  0.00    -0.278 OA 
HETATM   14  N   UNL     1     -12.357  12.461  64.160  1.00  0.00    -0.460 N  
HETATM   15  O   UNL     1     -13.521  12.446  64.548  1.00  0.00    -0.668 OA 
HETATM   16  O   UNL     1     -11.866  12.941  63.137  1.00  0.00    -0.506 OA 
ENDBRANCH   5  13
TORSDOF 2
ENDMDL
MODEL       64
REMARK 921   NORMALIZED FREE ENERGY PREDICTED BY IDOCK:   -3.91 KCAL/MOL
REMARK 922        TOTAL FREE ENERGY PREDICTED BY IDOCK:   -4.71 KCAL/MOL
REMARK 923 INTER-LIGAND FREE ENERGY PREDICTED BY IDOCK:   -4.27 KCAL/MOL
REMARK 924 INTRA-LIGAND FREE ENERGY PREDICTED BY IDOCK:   -0.44 KCAL/MOL
REMARK 927      BINDING AFFINITY PREDICTED BY RF-SCORE:    0.00 PKD
ROOT
HETATM    1  C   UNL     1     -11.175  11.522  66.797  1.00  0.00    -0.285 C  
HETATM    2  O   UNL     1     -10.847  11.386  65.415  1.00  0.00    -0.281 OA 
HETATM    3  C   UNL     1      -9.459  11.721  65.232  1.00  0.00    -0.114 C  
HETATM    4  C   UNL     1      -8.835  11.945  66.609  1.00  0.00    -0.191 C  
HETATM    5  C   UNL     1     -11.816  12.864  67.145  1.00  0.00    -0.362 C  
HETATM    6  C   UNL     1      -9.896  11.506  67.610  1.00  0.00    -0.181 C  
HETATM    7  C   UNL     1     -11.383  13.005  68.599  1.00  0.00    -0.291 C  
HETATM    8  O   UNL     1     -10.050  12.458  68.678  1.00  0.00    -0.210 OA 
ENDROOT
BRANCH   4   9
HETATM    9  O   UNL     1      -7.520  11.437  66.803  1.00  0.00    -0.141 OA 
HETATM   10  O   UNL     1      -5.454  11.845  67.446  1.00  0.00    -0.080 OA 
HETATM   11  O   UNL     1      -6.928  13.512  67.487  1.00  0.00    -0.163 OA 
HETATM   12  N   UNL     1      -6.559  12.356  67.287  1.00  0.00    -0.154 N  
ENDBRANCH   4   9
BRANCH   5  13
HETATM   13  O   UNL     1     -11.223  13.884  66.334  1.00  0.00    -0.306 OA 
HETATM   14  N   UNL     1     -12.093  14.401  65.351  1.00  0.00    -0.376 N  
HETATM   15  O   UNL     1     -11.522  15.136  64.550  1.00  0.00    -0.375 OA 
HETATM   16  O   UNL     1     -13.282  14.089  65.437  1.00  0.00    -0.761 OA 
ENDBRANCH   5  13
TORSDOF 2
ENDMDL
MODEL       65
REMARK 921   NORMALIZED FREE ENERGY PREDICTED BY IDOCK:   -3.88 KCAL/MOL
REMARK 922        TOTAL FREE ENERGY PREDICTED BY IDOCK:   -4.67 KCAL/MOL
REMARK 923 INTER-LIGAND FREE ENERGY PREDICTED BY IDOCK:   -4.36 KCAL/MOL
REMARK 924 INTRA-LIGAND FREE ENERGY PREDICTED BY IDOCK:   -0.31 KCAL/MOL
REMARK 927      BINDING AFFINITY PREDICTED BY RF-SCORE:    0.00 PKD
ROOT
HETATM    1  C   UNL     1      -9.535  15.378  69.384  1.00  0.00    -0.267 C  
HETATM    2  O   UNL     1      -8.240  14.866  69.071  1.00  0.00    -0.162 OA 
HETATM    3  C   UNL     1      -7.634  15.713  68.078  1.00  0.00    -0.124 C  
HETATM    4  C   UNL     1      -8.546  16.918  67.854  1.00  0.00    -0.208 C  
HETATM    5  C   UNL     1     -10.667  14.695  68.618  1.00  0.00    -0.250 C  
HETATM    6  C   UNL     1      -9.613  16.825  68.938  1.00  0.00    -0.249 C  
HETATM    7  C   UNL     1     -11.687  15.825  68.573  1.00  0.00    -0.319 C  
HETATM    8  O   UNL     1     -10.933  17.044  68.410  1.00  0.00    -0.352 OA 
ENDROOT
BRANCH   4   9
HETATM    9  O   UNL     1      -7.908  18.179  67.689  1.00  0.00    -0.220 OA 
HETATM   10  O   UNL     1      -7.795  20.063  66.555  1.00  0.00    -0.290 OA 
HETATM   11  O   UNL     1      -9.285  18.532  65.928  1.00  0.00    -0.486 OA 
HETATM   12  N   UNL     1      -8.379  18.985  66.626  1.00  0.00    -0.290 N  
ENDBRANCH   4   9
BRANCH   5  13
HETATM   13  O   UNL     1     -10.204  14.371  67.302  1.00  0.00    -0.250 OA 
HETATM   14  N   UNL     1     -10.749  13.175  66.790  1.00  0.00    -0.266 N  
HETATM   15  O   UNL     1     -10.210  12.815  65.748  1.00  0.00    -0.280 OA 
HETATM   16  O   UNL     1     -11.689  12.678  67.412  1.00  0.00    -0.344 OA 
ENDBRANCH   5  13
TORSDOF 2
ENDMDL
MODEL       66
REMARK 921   NORMALIZED FREE ENERGY PREDICTED BY IDOCK:   -3.87 KCAL/MOL
REMARK 922        TOTAL FREE ENERGY PREDICTED BY IDOCK:   -4.66 KCAL/MOL
REMARK 923 INTER-LIGAND FREE ENERGY PREDICTED BY IDOCK:   -4.22 KCAL/MOL
REMARK 924 INTRA-LIGAND FREE ENERGY PREDICTED BY IDOCK:   -0.44 KCAL/MOL
REMARK 927      BINDING AFFINITY PREDICTED BY RF-SCORE:    0.00 PKD
ROOT
HETATM    1  C   UNL     1     -11.483  14.107  67.310  1.00  0.00    -0.350 C  
HETATM    2  O   UNL     1     -11.633  12.741  67.697  1.00  0.00    -0.315 OA 
HETATM    3  C   UNL     1     -10.328  12.178  67.927  1.00  0.00    -0.206 C  
HETATM    4  C   UNL     1      -9.297  13.299  67.817  1.00  0.00    -0.209 C  
HETATM    5  C   UNL     1     -11.510  14.321  65.797  1.00  0.00    -0.335 C  
HETATM    6  C   UNL     1     -10.106  14.587  67.723  1.00  0.00    -0.225 C  
HETATM    7  C   UNL     1     -10.654  15.577  65.685  1.00  0.00    -0.373 C  
HETATM    8  O   UNL     1      -9.618  15.450  66.681  1.00  0.00    -0.231 OA 
ENDROOT
BRANCH   4   9
HETATM    9  O   UNL     1      -8.230  13.279  68.759  1.00  0.00    -0.057 OA 
HETATM   10  O   UNL     1      -6.057  13.167  69.093  1.00  0.00    -0.083 OA 
HETATM   11  O   UNL     1      -6.817  13.072  67.003  1.00  0.00    -0.058 OA 
HETATM   12  N   UNL     1      -6.925  13.161  68.225  1.00  0.00    -0.093 N  
ENDBRANCH   4   9
BRANCH   5  13
HETATM   13  O   UNL     1     -10.871  13.208  65.161  1.00  0.00    -0.288 OA 
HETATM   14  N   UNL     1     -11.728  12.475  64.313  1.00  0.00    -0.356 N  
HETATM   15  O   UNL     1     -11.224  11.426  63.922  1.00  0.00    -0.386 OA 
HETATM   16  O   UNL     1     -12.822  12.977  64.054  1.00  0.00    -0.657 OA 
ENDBRANCH   5  13
TORSDOF 2
ENDMDL
MODEL       67
REMARK 921   NORMALIZED FREE ENERGY PREDICTED BY IDOCK:   -3.87 KCAL/MOL
REMARK 922        TOTAL FREE ENERGY PREDICTED BY IDOCK:   -4.65 KCAL/MOL
REMARK 923 INTER-LIGAND FREE ENERGY PREDICTED BY IDOCK:   -4.24 KCAL/MOL
REMARK 924 INTRA-LIGAND FREE ENERGY PREDICTED BY IDOCK:   -0.41 KCAL/MOL
REMARK 927      BINDING AFFINITY PREDICTED BY RF-SCORE:    0.00 PKD
ROOT
HETATM    1  C   UNL     1      -9.976   9.817  66.303  1.00  0.00    -0.262 C  
HETATM    2  O   UNL     1     -10.754  10.368  67.366  1.00  0.00    -0.250 OA 
HETATM    3  C   UNL     1     -11.323  11.615  66.927  1.00  0.00    -0.295 C  
HETATM    4  C   UNL     1     -11.001  11.793  65.444  1.00  0.00    -0.297 C  
HETATM    5  C   UNL     1      -8.485  10.131  66.409  1.00  0.00    -0.131 C  
HETATM    6  C   UNL     1     -10.396  10.467  65.000  1.00  0.00    -0.240 C  
HETATM    7  C   UNL     1      -8.095  10.099  64.937  1.00  0.00    -0.153 C  
HETATM    8  O   UNL     1      -9.209  10.660  64.210  1.00  0.00    -0.203 OA 
ENDROOT
BRANCH   4   9
HETATM    9  O   UNL     1     -12.034  12.333  64.628  1.00  0.00    -0.375 OA 
HETATM   10  O   UNL     1     -12.760  14.047  63.453  1.00  0.00    -0.796 OA 
HETATM   11  O   UNL     1     -10.809  14.233  64.509  1.00  0.00    -0.381 OA 
HETATM   12  N   UNL     1     -11.839  13.655  64.163  1.00  0.00    -0.425 N  
ENDBRANCH   4   9
BRANCH   5  13
HETATM   13  O   UNL     1      -8.327  11.447  66.951  1.00  0.00    -0.147 OA 
HETATM   14  N   UNL     1      -7.597  11.477  68.158  1.00  0.00    -0.106 N  
HETATM   15  O   UNL     1      -7.626  12.576  68.703  1.00  0.00    -0.119 OA 
HETATM   16  O   UNL     1      -7.014  10.442  68.484  1.00  0.00    -0.060 OA 
ENDBRANCH   5  13
TORSDOF 2
ENDMDL
MODEL       68
REMARK 921   NORMALIZED FREE ENERGY PREDICTED BY IDOCK:   -3.85 KCAL/MOL
REMARK 922        TOTAL FREE ENERGY PREDICTED BY IDOCK:   -4.63 KCAL/MOL
REMARK 923 INTER-LIGAND FREE ENERGY PREDICTED BY IDOCK:   -4.25 KCAL/MOL
REMARK 924 INTRA-LIGAND FREE ENERGY PREDICTED BY IDOCK:   -0.38 KCAL/MOL
REMARK 927      BINDING AFFINITY PREDICTED BY RF-SCORE:    0.00 PKD
ROOT
HETATM    1  C   UNL     1      -9.924  13.892  67.811  1.00  0.00    -0.241 C  
HETATM    2  O   UNL     1     -11.145  14.366  68.379  1.00  0.00    -0.239 OA 
HETATM    3  C   UNL     1     -11.887  13.243  68.890  1.00  0.00    -0.327 C  
HETATM    4  C   UNL     1     -11.014  11.996  68.764  1.00  0.00    -0.239 C  
HETATM    5  C   UNL     1      -9.989  13.695  66.298  1.00  0.00    -0.300 C  
HETATM    6  C   UNL     1      -9.639  12.504  68.349  1.00  0.00    -0.176 C  
HETATM    7  C   UNL     1      -8.954  12.591  66.122  1.00  0.00     0.078 C  
HETATM    8  O   UNL     1      -9.085  11.728  67.272  1.00  0.00    -0.163 OA 
ENDROOT
BRANCH   4   9
HETATM    9  O   UNL     1     -11.057  11.075  69.849  1.00  0.00    -0.259 OA 
HETATM   10  O   UNL     1     -11.111   8.969  70.489  1.00  0.00    -0.242 OA 
HETATM   11  O   UNL     1     -11.094   9.417  68.308  1.00  0.00    -0.097 OA 
HETATM   12  N   UNL     1     -11.091   9.703  69.505  1.00  0.00    -0.207 N  
ENDBRANCH   4   9
BRANCH   5  13
HETATM   13  O   UNL     1     -11.297  13.230  65.947  1.00  0.00    -0.302 OA 
HETATM   14  N   UNL     1     -12.064  14.182  65.242  1.00  0.00    -0.386 N  
HETATM   15  O   UNL     1     -13.237  13.843  65.110  1.00  0.00    -0.768 OA 
HETATM   16  O   UNL     1     -11.474  15.182  64.832  1.00  0.00    -0.385 OA 
ENDBRANCH   5  13
TORSDOF 2
ENDMDL
MODEL       69
REMARK 921   NORMALIZED FREE ENERGY PREDICTED BY IDOCK:   -3.85 KCAL/MOL
REMARK 922        TOTAL FREE ENERGY PREDICTED BY IDOCK:   -4.63 KCAL/MOL
REMARK 923 INTER-LIGAND FREE ENERGY PREDICTED BY IDOCK:   -4.19 KCAL/MOL
REMARK 924 INTRA-LIGAND FREE ENERGY PREDICTED BY IDOCK:   -0.44 KCAL/MOL
REMARK 927      BINDING AFFINITY PREDICTED BY RF-SCORE:    0.00 PKD
ROOT
HETATM    1  C   UNL     1      -9.083   8.600  68.450  1.00  0.00    -0.138 C  
HETATM    2  O   UNL     1      -8.886   9.600  69.450  1.00  0.00    -0.153 OA 
HETATM    3  C   UNL     1      -9.695   9.277  70.596  1.00  0.00    -0.272 C  
HETATM    4  C   UNL     1     -10.334   7.910  70.361  1.00  0.00    -0.212 C  
HETATM    5  C   UNL     1     -10.115   8.987  67.392  1.00  0.00    -0.230 C  
HETATM    6  C   UNL     1      -9.673   7.365  69.101  1.00  0.00    -0.165 C  
HETATM    7  C   UNL     1     -10.617   7.608  66.984  1.00  0.00    -0.336 C  
HETATM    8  O   UNL     1     -10.636   6.812  68.188  1.00  0.00    -0.194 OA 
ENDROOT
BRANCH   4   9
HETATM    9  O   UNL     1     -10.400   7.035  71.482  1.00  0.00    -0.203 OA 
HETATM   10  O   UNL     1     -11.662   5.796  72.792  1.00  0.00    -0.264 OA 
HETATM   11  O   UNL     1     -12.636   6.939  71.149  1.00  0.00    -0.376 OA 
HETATM   12  N   UNL     1     -11.685   6.556  71.828  1.00  0.00    -0.311 N  
ENDBRANCH   4   9
BRANCH   5  13
HETATM   13  O   UNL     1     -11.156   9.746  68.017  1.00  0.00    -0.222 OA 
HETATM   14  N   UNL     1     -11.297  11.049  67.494  1.00  0.00    -0.297 N  
HETATM   15  O   UNL     1     -12.061  11.746  68.156  1.00  0.00    -0.556 OA 
HETATM   16  O   UNL     1     -10.683  11.304  66.457  1.00  0.00    -0.257 OA 
ENDBRANCH   5  13
TORSDOF 2
ENDMDL
MODEL       70
REMARK 921   NORMALIZED FREE ENERGY PREDICTED BY IDOCK:   -3.85 KCAL/MOL
REMARK 922        TOTAL FREE ENERGY PREDICTED BY IDOCK:   -4.63 KCAL/MOL
REMARK 923 INTER-LIGAND FREE ENERGY PREDICTED BY IDOCK:   -4.68 KCAL/MOL
REMARK 924 INTRA-LIGAND FREE ENERGY PREDICTED BY IDOCK:    0.05 KCAL/MOL
REMARK 927      BINDING AFFINITY PREDICTED BY RF-SCORE:    0.00 PKD
ROOT
HETATM    1  C   UNL     1      -9.252  14.498  67.971  1.00  0.00    -0.190 C  
HETATM    2  O   UNL     1      -8.438  14.718  66.818  1.00  0.00    -0.222 OA 
HETATM    3  C   UNL     1      -7.778  15.990  66.953  1.00  0.00    -0.244 C  
HETATM    4  C   UNL     1      -8.082  16.544  68.343  1.00  0.00    -0.196 C  
HETATM    5  C   UNL     1     -10.716  14.883  67.769  1.00  0.00    -0.271 C  
HETATM    6  C   UNL     1      -8.783  15.412  69.085  1.00  0.00    -0.242 C  
HETATM    7  C   UNL     1     -11.105  15.236  69.199  1.00  0.00    -0.263 C  
HETATM    8  O   UNL     1      -9.951  15.874  69.786  1.00  0.00    -0.267 OA 
ENDROOT
BRANCH   4   9
HETATM    9  O   UNL     1      -7.011  17.189  69.022  1.00  0.00    -0.218 OA 
HETATM   10  O   UNL     1      -6.165  19.079  69.771  1.00  0.00    -0.266 OA 
HETATM   11  O   UNL     1      -8.104  19.142  68.681  1.00  0.00    -0.349 OA 
HETATM   12  N   UNL     1      -7.114  18.593  69.162  1.00  0.00    -0.263 N  
ENDBRANCH   4   9
BRANCH   5  13
HETATM   13  O   UNL     1     -10.778  16.037  66.923  1.00  0.00    -0.314 OA 
HETATM   14  N   UNL     1     -10.868  15.726  65.550  1.00  0.00    -0.346 N  
HETATM   15  O   UNL     1     -10.736  16.712  64.830  1.00  0.00    -0.710 OA 
HETATM   16  O   UNL     1     -11.094  14.552  65.256  1.00  0.00    -0.318 OA 
ENDBRANCH   5  13
TORSDOF 2
ENDMDL
MODEL       71
REMARK 921   NORMALIZED FREE ENERGY PREDICTED BY IDOCK:   -3.84 KCAL/MOL
REMARK 922        TOTAL FREE ENERGY PREDICTED BY IDOCK:   -4.62 KCAL/MOL
REMARK 923 INTER-LIGAND FREE ENERGY PREDICTED BY IDOCK:   -4.25 KCAL/MOL
REMARK 924 INTRA-LIGAND FREE ENERGY PREDICTED BY IDOCK:   -0.36 KCAL/MOL
REMARK 927      BINDING AFFINITY PREDICTED BY RF-SCORE:    0.00 PKD
ROOT
HETATM    1  C   UNL     1     -10.695   6.979  70.503  1.00  0.00    -0.238 C  
HETATM    2  O   UNL     1     -10.776   8.325  70.032  1.00  0.00    -0.237 OA 
HETATM    3  C   UNL     1     -10.024   9.173  70.920  1.00  0.00    -0.288 C  
HETATM    4  C   UNL     1      -9.304   8.286  71.934  1.00  0.00    -0.216 C  
HETATM    5  C   UNL     1     -11.890   6.555  71.355  1.00  0.00    -0.329 C  
HETATM    6  C   UNL     1      -9.514   6.858  71.445  1.00  0.00    -0.160 C  
HETATM    7  C   UNL     1     -11.235   5.502  72.239  1.00  0.00    -0.220 C  
HETATM    8  O   UNL     1      -9.901   5.978  72.515  1.00  0.00    -0.164 OA 
ENDROOT
BRANCH   4   9
HETATM    9  O   UNL     1      -7.974   8.659  72.276  1.00  0.00    -0.301 OA 
HETATM   10  O   UNL     1      -6.451   8.847  73.855  1.00  0.00    -0.299 OA 
HETATM   11  O   UNL     1      -8.477   8.112  74.414  1.00  0.00    -0.230 OA 
HETATM   12  N   UNL     1      -7.616   8.524  73.638  1.00  0.00    -0.068 N  
ENDBRANCH   4   9
BRANCH   5  13
HETATM   13  O   UNL     1     -12.326   7.676  72.132  1.00  0.00    -0.292 OA 
HETATM   14  N   UNL     1     -13.662   8.052  71.882  1.00  0.00    -0.340 N  
HETATM   15  O   UNL     1     -13.963   9.117  72.412  1.00  0.00    -0.471 OA 
HETATM   16  O   UNL     1     -14.346   7.275  71.214  1.00  0.00    -0.402 OA 
ENDBRANCH   5  13
TORSDOF 2
ENDMDL
MODEL       72
REMARK 921   NORMALIZED FREE ENERGY PREDICTED BY IDOCK:   -3.83 KCAL/MOL
REMARK 922        TOTAL FREE ENERGY PREDICTED BY IDOCK:   -4.61 KCAL/MOL
REMARK 923 INTER-LIGAND FREE ENERGY PREDICTED BY IDOCK:   -4.35 KCAL/MOL
REMARK 924 INTRA-LIGAND FREE ENERGY PREDICTED BY IDOCK:   -0.26 KCAL/MOL
REMARK 927      BINDING AFFINITY PREDICTED BY RF-SCORE:    0.00 PKD
ROOT
HETATM    1  C   UNL     1     -11.861  11.306  68.182  1.00  0.00    -0.205 C  
HETATM    2  O   UNL     1     -11.134  10.182  67.685  1.00  0.00    -0.301 OA 
HETATM    3  C   UNL     1     -10.560   9.472  68.798  1.00  0.00    -0.214 C  
HETATM    4  C   UNL     1     -11.077  10.105  70.089  1.00  0.00    -0.315 C  
HETATM    5  C   UNL     1     -11.067  12.611  68.154  1.00  0.00    -0.249 C  
HETATM    6  C   UNL     1     -12.155  11.089  69.653  1.00  0.00    -0.340 C  
HETATM    7  C   UNL     1     -11.722  13.354  69.311  1.00  0.00    -0.330 C  
HETATM    8  O   UNL     1     -12.018  12.360  70.314  1.00  0.00    -0.349 OA 
ENDROOT
BRANCH   4   9
HETATM    9  O   UNL     1     -11.409   9.215  71.148  1.00  0.00    -0.272 OA 
HETATM   10  O   UNL     1     -10.709   8.065  72.889  1.00  0.00    -0.355 OA 
HETATM   11  O   UNL     1      -9.225   9.258  71.737  1.00  0.00    -0.306 OA 
HETATM   12  N   UNL     1     -10.345   8.818  71.991  1.00  0.00    -0.343 N  
ENDBRANCH   4   9
BRANCH   5  13
HETATM   13  O   UNL     1      -9.694  12.323  68.442  1.00  0.00    -0.213 OA 
HETATM   14  N   UNL     1      -8.823  12.584  67.363  1.00  0.00    -0.178 N  
HETATM   15  O   UNL     1      -7.687  12.164  67.557  1.00  0.00    -0.137 OA 
HETATM   16  O   UNL     1      -9.288  13.210  66.409  1.00  0.00    -0.246 OA 
ENDBRANCH   5  13
TORSDOF 2
ENDMDL
MODEL       73
REMARK 921   NORMALIZED FREE ENERGY PREDICTED BY IDOCK:   -3.83 KCAL/MOL
REMARK 922        TOTAL FREE ENERGY PREDICTED BY IDOCK:   -4.61 KCAL/MOL
REMARK 923 INTER-LIGAND FREE ENERGY PREDICTED BY IDOCK:   -4.26 KCAL/MOL
REMARK 924 INTRA-LIGAND FREE ENERGY PREDICTED BY IDOCK:   -0.36 KCAL/MOL
REMARK 927      BINDING AFFINITY PREDICTED BY RF-SCORE:    0.00 PKD
ROOT
HETATM    1  C   UNL     1     -10.023   8.911  71.346  1.00  0.00    -0.308 C  
HETATM    2  O   UNL     1      -9.838   7.524  71.628  1.00  0.00    -0.162 OA 
HETATM    3  C   UNL     1      -9.825   6.796  70.387  1.00  0.00    -0.175 C  
HETATM    4  C   UNL     1      -9.862   7.803  69.239  1.00  0.00    -0.173 C  
HETATM    5  C   UNL     1     -11.475   9.372  71.466  1.00  0.00    -0.397 C  
HETATM    6  C   UNL     1      -9.677   9.168  69.893  1.00  0.00    -0.191 C  
HETATM    7  C   UNL     1     -11.476  10.531  70.477  1.00  0.00    -0.345 C  
HETATM    8  O   UNL     1     -10.616  10.133  69.388  1.00  0.00    -0.206 OA 
ENDROOT
BRANCH   4   9
HETATM    9  O   UNL     1      -9.043   7.516  68.111  1.00  0.00    -0.130 OA 
HETATM   10  O   UNL     1      -8.951   6.917  65.995  1.00  0.00    -0.155 OA 
HETATM   11  O   UNL     1     -10.946   7.066  66.971  1.00  0.00    -0.375 OA 
HETATM   12  N   UNL     1      -9.718   7.133  66.929  1.00  0.00    -0.175 N  
ENDBRANCH   4   9
BRANCH   5  13
HETATM   13  O   UNL     1     -12.334   8.317  71.020  1.00  0.00    -0.253 OA 
HETATM   14  N   UNL     1     -13.474   8.136  71.829  1.00  0.00    -0.347 N  
HETATM   15  O   UNL     1     -14.101   7.119  71.546  1.00  0.00    -0.395 OA 
HETATM   16  O   UNL     1     -13.709   9.008  72.667  1.00  0.00    -0.470 OA 
ENDBRANCH   5  13
TORSDOF 2
ENDMDL
MODEL       74
REMARK 921   NORMALIZED FREE ENERGY PREDICTED BY IDOCK:   -3.81 KCAL/MOL
REMARK 922        TOTAL FREE ENERGY PREDICTED BY IDOCK:   -4.59 KCAL/MOL
REMARK 923 INTER-LIGAND FREE ENERGY PREDICTED BY IDOCK:   -4.21 KCAL/MOL
REMARK 924 INTRA-LIGAND FREE ENERGY PREDICTED BY IDOCK:   -0.38 KCAL/MOL
REMARK 927      BINDING AFFINITY PREDICTED BY RF-SCORE:    0.00 PKD
ROOT
HETATM    1  C   UNL     1     -12.010   6.585  71.944  1.00  0.00    -0.341 C  
HETATM    2  O   UNL     1     -12.443   6.744  70.593  1.00  0.00    -0.320 OA 
HETATM    3  C   UNL     1     -11.402   6.279  69.714  1.00  0.00    -0.436 C  
HETATM    4  C   UNL     1     -10.299   5.654  70.567  1.00  0.00    -0.258 C  
HETATM    5  C   UNL     1     -11.414   7.856  72.550  1.00  0.00    -0.398 C  
HETATM    6  C   UNL     1     -10.865   5.592  71.980  1.00  0.00    -0.242 C  
HETATM    7  C   UNL     1     -10.457   7.250  73.567  1.00  0.00    -0.374 C  
HETATM    8  O   UNL     1      -9.917   6.059  72.956  1.00  0.00    -0.170 OA 
ENDROOT
BRANCH   4   9
HETATM    9  O   UNL     1      -9.699   4.466  70.063  1.00  0.00    -0.186 OA 
HETATM   10  O   UNL     1      -7.922   3.526  69.166  1.00  0.00    -0.054 OA 
HETATM   11  O   UNL     1      -7.865   5.709  69.599  1.00  0.00    -0.088 OA 
HETATM   12  N   UNL     1      -8.380   4.592  69.568  1.00  0.00    -0.073 N  
ENDBRANCH   4   9
BRANCH   5  13
HETATM   13  O   UNL     1     -10.698   8.562  71.530  1.00  0.00    -0.226 OA 
HETATM   14  N   UNL     1     -11.353   9.729  71.085  1.00  0.00    -0.373 N  
HETATM   15  O   UNL     1     -10.825  10.221  70.092  1.00  0.00    -0.281 OA 
HETATM   16  O   UNL     1     -12.319  10.114  71.745  1.00  0.00    -0.388 OA 
ENDBRANCH   5  13
TORSDOF 2
ENDMDL
MODEL       75
REMARK 921   NORMALIZED FREE ENERGY PREDICTED BY IDOCK:   -3.79 KCAL/MOL
REMARK 922        TOTAL FREE ENERGY PREDICTED BY IDOCK:   -4.57 KCAL/MOL
REMARK 923 INTER-LIGAND FREE ENERGY PREDICTED BY IDOCK:   -4.13 KCAL/MOL
REMARK 924 INTRA-LIGAND FREE ENERGY PREDICTED BY IDOCK:   -0.44 KCAL/MOL
REMARK 927      BINDING AFFINITY PREDICTED BY RF-SCORE:    0.00 PKD
ROOT
HETATM    1  C   UNL     1     -10.305  13.078  66.695  1.00  0.00    -0.260 C  
HETATM    2  O   UNL     1      -9.279  12.139  67.016  1.00  0.00    -0.189 OA 
HETATM    3  C   UNL     1      -9.588  11.527  68.281  1.00  0.00    -0.189 C  
HETATM    4  C   UNL     1     -10.971  12.006  68.719  1.00  0.00    -0.239 C  
HETATM    5  C   UNL     1      -9.960  14.517  67.078  1.00  0.00    -0.255 C  
HETATM    6  C   UNL     1     -11.535  12.764  67.524  1.00  0.00    -0.336 C  
HETATM    7  C   UNL     1     -11.356  15.079  67.312  1.00  0.00    -0.332 C  
HETATM    8  O   UNL     1     -12.124  14.017  67.915  1.00  0.00    -0.363 OA 
ENDROOT
BRANCH   4   9
HETATM    9  O   UNL     1     -11.821  11.036  69.323  1.00  0.00    -0.298 OA 
HETATM   10  O   UNL     1     -13.195  10.548  70.972  1.00  0.00    -0.363 OA 
HETATM   11  O   UNL     1     -12.237  12.557  70.946  1.00  0.00    -0.347 OA 
HETATM   12  N   UNL     1     -12.467  11.427  70.519  1.00  0.00    -0.311 N  
ENDBRANCH   4   9
BRANCH   5  13
HETATM   13  O   UNL     1      -9.204  14.503  68.294  1.00  0.00    -0.188 OA 
HETATM   14  N   UNL     1      -7.874  14.946  68.137  1.00  0.00    -0.116 N  
HETATM   15  O   UNL     1      -7.189  14.757  69.138  1.00  0.00    -0.128 OA 
HETATM   16  O   UNL     1      -7.585  15.479  67.065  1.00  0.00    -0.215 OA 
ENDBRANCH   5  13
TORSDOF 2
ENDMDL
MODEL       76
REMARK 921   NORMALIZED FREE ENERGY PREDICTED BY IDOCK:   -3.77 KCAL/MOL
REMARK 922        TOTAL FREE ENERGY PREDICTED BY IDOCK:   -4.54 KCAL/MOL
REMARK 923 INTER-LIGAND FREE ENERGY PREDICTED BY IDOCK:   -4.15 KCAL/MOL
REMARK 924 INTRA-LIGAND FREE ENERGY PREDICTED BY IDOCK:   -0.39 KCAL/MOL
REMARK 927      BINDING AFFINITY PREDICTED BY RF-SCORE:    0.00 PKD
ROOT
HETATM    1  C   UNL     1     -11.586  11.910  66.992  1.00  0.00    -0.291 C  
HETATM    2  O   UNL     1     -12.271  11.865  68.244  1.00  0.00    -0.447 OA 
HETATM    3  C   UNL     1     -11.865  12.996  69.036  1.00  0.00    -0.316 C  
HETATM    4  C   UNL     1     -10.976  13.891  68.174  1.00  0.00    -0.249 C  
HETATM    5  C   UNL     1     -10.329  11.044  66.950  1.00  0.00    -0.235 C  
HETATM    6  C   UNL     1     -11.069  13.317  66.765  1.00  0.00    -0.292 C  
HETATM    7  C   UNL     1      -9.505  11.808  65.921  1.00  0.00    -0.223 C  
HETATM    8  O   UNL     1      -9.775  13.207  66.146  1.00  0.00    -0.276 OA 
ENDROOT
BRANCH   4   9
HETATM    9  O   UNL     1     -11.161  15.295  68.308  1.00  0.00    -0.285 OA 
HETATM   10  O   UNL     1     -10.349  17.210  69.029  1.00  0.00    -0.314 OA 
HETATM   11  O   UNL     1      -9.167  15.356  69.376  1.00  0.00    -0.255 OA 
HETATM   12  N   UNL     1     -10.128  16.004  68.965  1.00  0.00    -0.225 N  
ENDBRANCH   4   9
BRANCH   5  13
HETATM   13  O   UNL     1      -9.700  11.078  68.236  1.00  0.00    -0.164 OA 
HETATM   14  N   UNL     1      -9.829   9.875  68.961  1.00  0.00    -0.180 N  
HETATM   15  O   UNL     1      -9.450   9.977  70.124  1.00  0.00    -0.213 OA 
HETATM   16  O   UNL     1     -10.260   8.897  68.347  1.00  0.00    -0.188 OA 
ENDBRANCH   5  13
TORSDOF 2
ENDMDL
MODEL       77
REMARK 921   NORMALIZED FREE ENERGY PREDICTED BY IDOCK:   -3.75 KCAL/MOL
REMARK 922        TOTAL FREE ENERGY PREDICTED BY IDOCK:   -4.52 KCAL/MOL
REMARK 923 INTER-LIGAND FREE ENERGY PREDICTED BY IDOCK:   -4.13 KCAL/MOL
REMARK 924 INTRA-LIGAND FREE ENERGY PREDICTED BY IDOCK:   -0.39 KCAL/MOL
REMARK 927      BINDING AFFINITY PREDICTED BY RF-SCORE:    0.00 PKD
ROOT
HETATM    1  C   UNL     1     -10.900  15.752  67.671  1.00  0.00    -0.310 C  
HETATM    2  O   UNL     1     -11.283  17.039  68.157  1.00  0.00    -0.272 OA 
HETATM    3  C   UNL     1     -10.102  17.748  68.573  1.00  0.00    -0.377 C  
HETATM    4  C   UNL     1      -8.881  16.912  68.192  1.00  0.00    -0.223 C  
HETATM    5  C   UNL     1     -11.025  14.641  68.712  1.00  0.00    -0.258 C  
HETATM    6  C   UNL     1      -9.421  15.774  67.336  1.00  0.00    -0.212 C  
HETATM    7  C   UNL     1      -9.950  13.682  68.218  1.00  0.00    -0.236 C  
HETATM    8  O   UNL     1      -8.871  14.503  67.725  1.00  0.00    -0.170 OA 
ENDROOT
BRANCH   4   9
HETATM    9  O   UNL     1      -7.756  17.620  67.684  1.00  0.00    -0.200 OA 
HETATM   10  O   UNL     1      -5.684  18.287  68.015  1.00  0.00    -0.159 OA 
HETATM   11  O   UNL     1      -6.696  17.126  69.622  1.00  0.00    -0.201 OA 
HETATM   12  N   UNL     1      -6.619  17.676  68.524  1.00  0.00    -0.196 N  
ENDBRANCH   4   9
BRANCH   5  13
HETATM   13  O   UNL     1     -10.685  15.172  69.998  1.00  0.00    -0.258 OA 
HETATM   14  N   UNL     1     -11.623  14.859  71.004  1.00  0.00    -0.307 N  
HETATM   15  O   UNL     1     -11.419  15.468  72.050  1.00  0.00    -0.423 OA 
HETATM   16  O   UNL     1     -12.479  14.017  70.728  1.00  0.00    -0.329 OA 
ENDBRANCH   5  13
TORSDOF 2
ENDMDL
MODEL       78
REMARK 921   NORMALIZED FREE ENERGY PREDICTED BY IDOCK:   -3.70 KCAL/MOL
REMARK 922        TOTAL FREE ENERGY PREDICTED BY IDOCK:   -4.46 KCAL/MOL
REMARK 923 INTER-LIGAND FREE ENERGY PREDICTED BY IDOCK:   -4.19 KCAL/MOL
REMARK 924 INTRA-LIGAND FREE ENERGY PREDICTED BY IDOCK:   -0.27 KCAL/MOL
REMARK 927      BINDING AFFINITY PREDICTED BY RF-SCORE:    0.00 PKD
ROOT
HETATM    1  C   UNL     1      -9.557   6.820  70.651  1.00  0.00    -0.169 C  
HETATM    2  O   UNL     1      -8.974   7.917  71.355  1.00  0.00    -0.129 OA 
HETATM    3  C   UNL     1     -10.027   8.785  71.814  1.00  0.00    -0.326 C  
HETATM    4  C   UNL     1     -11.366   8.119  71.505  1.00  0.00    -0.263 C  
HETATM    5  C   UNL     1      -9.584   7.010  69.135  1.00  0.00    -0.149 C  
HETATM    6  C   UNL     1     -11.020   6.713  71.032  1.00  0.00    -0.259 C  
HETATM    7  C   UNL     1     -10.801   6.167  68.776  1.00  0.00    -0.336 C  
HETATM    8  O   UNL     1     -11.751   6.352  69.847  1.00  0.00    -0.426 OA 
ENDROOT
BRANCH   4   9
HETATM    9  O   UNL     1     -12.380   8.232  72.498  1.00  0.00    -0.353 OA 
HETATM   10  O   UNL     1     -14.325   9.088  73.070  1.00  0.00    -0.462 OA 
HETATM   11  O   UNL     1     -13.479   9.609  71.078  1.00  0.00    -0.328 OA 
HETATM   12  N   UNL     1     -13.485   9.052  72.174  1.00  0.00    -0.426 N  
ENDBRANCH   4   9
BRANCH   5  13
HETATM   13  O   UNL     1      -9.817   8.393  68.846  1.00  0.00    -0.171 OA 
HETATM   14  N   UNL     1      -9.213   8.830  67.649  1.00  0.00    -0.133 N  
HETATM   15  O   UNL     1      -9.263  10.048  67.508  1.00  0.00    -0.137 OA 
HETATM   16  O   UNL     1      -8.756   7.961  66.904  1.00  0.00    -0.125 OA 
ENDBRANCH   5  13
TORSDOF 2
ENDMDL
MODEL       79
REMARK 921   NORMALIZED FREE ENERGY PREDICTED BY IDOCK:   -3.65 KCAL/MOL
REMARK 922        TOTAL FREE ENERGY PREDICTED BY IDOCK:   -4.41 KCAL/MOL
REMARK 923 INTER-LIGAND FREE ENERGY PREDICTED BY IDOCK:   -4.00 KCAL/MOL
REMARK 924 INTRA-LIGAND FREE ENERGY PREDICTED BY IDOCK:   -0.41 KCAL/MOL
REMARK 927      BINDING AFFINITY PREDICTED BY RF-SCORE:    0.00 PKD
ROOT
HETATM    1  C   UNL     1     -11.629   8.851  72.039  1.00  0.00    -0.364 C  
HETATM    2  O   UNL     1     -12.829   8.479  71.359  1.00  0.00    -0.310 OA 
HETATM    3  C   UNL     1     -12.901   7.043  71.297  1.00  0.00    -0.323 C  
HETATM    4  C   UNL     1     -11.745   6.469  72.115  1.00  0.00    -0.311 C  
HETATM    5  C   UNL     1     -10.471   9.183  71.100  1.00  0.00    -0.315 C  
HETATM    6  C   UNL     1     -11.126   7.662  72.833  1.00  0.00    -0.393 C  
HETATM    7  C   UNL     1      -9.287   8.818  71.987  1.00  0.00    -0.252 C  
HETATM    8  O   UNL     1      -9.690   7.655  72.740  1.00  0.00    -0.168 OA 
ENDROOT
BRANCH   4   9
HETATM    9  O   UNL     1     -12.032   5.321  72.906  1.00  0.00    -0.227 OA 
HETATM   10  O   UNL     1     -11.402   3.313  73.551  1.00  0.00    -0.224 OA 
HETATM   11  O   UNL     1     -10.131   4.405  72.086  1.00  0.00    -0.184 OA 
HETATM   12  N   UNL     1     -11.099   4.260  72.831  1.00  0.00    -0.117 N  
ENDBRANCH   4   9
BRANCH   5  13
HETATM   13  O   UNL     1     -10.539   8.322  69.958  1.00  0.00    -0.228 OA 
HETATM   14  N   UNL     1     -10.486   9.010  68.727  1.00  0.00    -0.218 N  
HETATM   15  O   UNL     1     -10.729   8.286  67.767  1.00  0.00    -0.195 OA 
HETATM   16  O   UNL     1     -10.179  10.203  68.767  1.00  0.00    -0.170 OA 
ENDBRANCH   5  13
TORSDOF 2
ENDMDL
MODEL       80
REMARK 921   NORMALIZED FREE ENERGY PREDICTED BY IDOCK:   -3.64 KCAL/MOL
REMARK 922        TOTAL FREE ENERGY PREDICTED BY IDOCK:   -4.40 KCAL/MOL
REMARK 923 INTER-LIGAND FREE ENERGY PREDICTED BY IDOCK:   -4.07 KCAL/MOL
REMARK 924 INTRA-LIGAND FREE ENERGY PREDICTED BY IDOCK:   -0.34 KCAL/MOL
REMARK 927      BINDING AFFINITY PREDICTED BY RF-SCORE:    0.00 PKD
ROOT
HETATM    1  C   UNL     1      -8.123  15.880  68.762  1.00  0.00    -0.190 C  
HETATM    2  O   UNL     1      -9.456  16.300  69.057  1.00  0.00    -0.239 OA 
HETATM    3  C   UNL     1     -10.266  16.133  67.879  1.00  0.00    -0.261 C  
HETATM    4  C   UNL     1      -9.426  15.429  66.815  1.00  0.00    -0.241 C  
HETATM    5  C   UNL     1      -7.189  17.028  68.384  1.00  0.00    -0.202 C  
HETATM    6  C   UNL     1      -8.146  15.004  67.525  1.00  0.00    -0.181 C  
HETATM    7  C   UNL     1      -6.204  16.292  67.484  1.00  0.00    -0.157 C  
HETATM    8  O   UNL     1      -6.976  15.318  66.751  1.00  0.00    -0.080 OA 
ENDROOT
BRANCH   4   9
HETATM    9  O   UNL     1     -10.085  14.439  66.033  1.00  0.00    -0.294 OA 
HETATM   10  O   UNL     1     -11.145  13.958  64.165  1.00  0.00    -0.295 OA 
HETATM   11  O   UNL     1     -10.463  16.051  64.491  1.00  0.00    -0.387 OA 
HETATM   12  N   UNL     1     -10.606  14.867  64.790  1.00  0.00    -0.375 N  
ENDBRANCH   4   9
BRANCH   5  13
HETATM   13  O   UNL     1      -7.930  18.002  67.641  1.00  0.00    -0.217 OA 
HETATM   14  N   UNL     1      -7.838  19.306  68.171  1.00  0.00    -0.296 N  
HETATM   15  O   UNL     1      -8.618  20.091  67.640  1.00  0.00    -0.322 OA 
HETATM   16  O   UNL     1      -6.992  19.495  69.047  1.00  0.00    -0.331 OA 
ENDBRANCH   5  13
TORSDOF 2
ENDMDL
MODEL       81
REMARK 921   NORMALIZED FREE ENERGY PREDICTED BY IDOCK:   -3.63 KCAL/MOL
REMARK 922        TOTAL FREE ENERGY PREDICTED BY IDOCK:   -4.39 KCAL/MOL
REMARK 923 INTER-LIGAND FREE ENERGY PREDICTED BY IDOCK:   -4.05 KCAL/MOL
REMARK 924 INTRA-LIGAND FREE ENERGY PREDICTED BY IDOCK:   -0.34 KCAL/MOL
REMARK 927      BINDING AFFINITY PREDICTED BY RF-SCORE:    0.00 PKD
ROOT
HETATM    1  C   UNL     1      -9.551  17.511  67.530  1.00  0.00    -0.265 C  
HETATM    2  O   UNL     1     -10.068  17.095  66.266  1.00  0.00    -0.299 OA 
HETATM    3  C   UNL     1      -9.429  15.862  65.886  1.00  0.00    -0.337 C  
HETATM    4  C   UNL     1      -8.558  15.396  67.051  1.00  0.00    -0.234 C  
HETATM    5  C   UNL     1      -8.424  18.537  67.423  1.00  0.00    -0.257 C  
HETATM    6  C   UNL     1      -8.901  16.323  68.210  1.00  0.00    -0.188 C  
HETATM    7  C   UNL     1      -7.655  18.231  68.702  1.00  0.00    -0.296 C  
HETATM    8  O   UNL     1      -7.722  16.800  68.881  1.00  0.00    -0.232 OA 
ENDROOT
BRANCH   4   9
HETATM    9  O   UNL     1      -8.553  13.999  67.326  1.00  0.00    -0.197 OA 
HETATM   10  O   UNL     1      -7.357  12.188  67.693  1.00  0.00    -0.102 OA 
HETATM   11  O   UNL     1      -6.292  14.099  67.282  1.00  0.00    -0.295 OA 
HETATM   12  N   UNL     1      -7.283  13.387  67.440  1.00  0.00    -0.145 N  
ENDBRANCH   4   9
BRANCH   5  13
HETATM   13  O   UNL     1      -7.634  18.237  66.267  1.00  0.00    -0.241 OA 
HETATM   14  N   UNL     1      -7.134  19.382  65.612  1.00  0.00    -0.286 N  
HETATM   15  O   UNL     1      -6.619  19.123  64.528  1.00  0.00    -0.410 OA 
HETATM   16  O   UNL     1      -7.244  20.457  66.204  1.00  0.00    -0.265 OA 
ENDBRANCH   5  13
TORSDOF 2
ENDMDL
MODEL       82
REMARK 921   NORMALIZED FREE ENERGY PREDICTED BY IDOCK:   -3.62 KCAL/MOL
REMARK 922        TOTAL FREE ENERGY PREDICTED BY IDOCK:   -4.38 KCAL/MOL
REMARK 923 INTER-LIGAND FREE ENERGY PREDICTED BY IDOCK:   -4.13 KCAL/MOL
REMARK 924 INTRA-LIGAND FREE ENERGY PREDICTED BY IDOCK:   -0.25 KCAL/MOL
REMARK 927      BINDING AFFINITY PREDICTED BY RF-SCORE:    0.00 PKD
ROOT
HETATM    1  C   UNL     1      -8.978   7.957  68.802  1.00  0.00    -0.141 C  
HETATM    2  O   UNL     1      -9.638   7.122  67.850  1.00  0.00    -0.132 OA 
HETATM    3  C   UNL     1     -10.568   7.923  67.098  1.00  0.00    -0.313 C  
HETATM    4  C   UNL     1     -10.381   9.384  67.503  1.00  0.00    -0.255 C  
HETATM    5  C   UNL     1      -9.603   7.910  70.196  1.00  0.00    -0.175 C  
HETATM    6  C   UNL     1      -9.134   9.404  68.380  1.00  0.00    -0.128 C  
HETATM    7  C   UNL     1      -9.236   9.298  70.706  1.00  0.00    -0.253 C  
HETATM    8  O   UNL     1      -9.331  10.184  69.572  1.00  0.00    -0.210 OA 
ENDROOT
BRANCH   4   9
HETATM    9  O   UNL     1     -10.448  10.349  66.460  1.00  0.00    -0.236 OA 
HETATM   10  O   UNL     1     -11.338  12.224  65.726  1.00  0.00    -0.326 OA 
HETATM   11  O   UNL     1     -12.001  11.433  67.698  1.00  0.00    -0.630 OA 
HETATM   12  N   UNL     1     -11.346  11.424  66.658  1.00  0.00    -0.242 N  
ENDBRANCH   4   9
BRANCH   5  13
HETATM   13  O   UNL     1     -11.023   7.775  70.061  1.00  0.00    -0.249 OA 
HETATM   14  N   UNL     1     -11.638   7.151  71.166  1.00  0.00    -0.287 N  
HETATM   15  O   UNL     1     -12.817   6.876  70.962  1.00  0.00    -0.333 OA 
HETATM   16  O   UNL     1     -10.949   6.996  72.176  1.00  0.00    -0.223 OA 
ENDBRANCH   5  13
TORSDOF 2
ENDMDL
MODEL       83
REMARK 921   NORMALIZED FREE ENERGY PREDICTED BY IDOCK:   -3.61 KCAL/MOL
REMARK 922        TOTAL FREE ENERGY PREDICTED BY IDOCK:   -4.37 KCAL/MOL
REMARK 923 INTER-LIGAND FREE ENERGY PREDICTED BY IDOCK:   -4.14 KCAL/MOL
REMARK 924 INTRA-LIGAND FREE ENERGY PREDICTED BY IDOCK:   -0.23 KCAL/MOL
REMARK 927      BINDING AFFINITY PREDICTED BY RF-SCORE:    0.00 PKD
ROOT
HETATM    1  C   UNL     1     -10.994  11.343  67.374  1.00  0.00    -0.273 C  
HETATM    2  O   UNL     1     -10.341  10.309  68.111  1.00  0.00    -0.160 OA 
HETATM    3  C   UNL     1     -10.564  10.528  69.516  1.00  0.00    -0.246 C  
HETATM    4  C   UNL     1     -11.540  11.694  69.670  1.00  0.00    -0.330 C  
HETATM    5  C   UNL     1     -10.069  12.495  66.983  1.00  0.00    -0.216 C  
HETATM    6  C   UNL     1     -12.035  11.996  68.261  1.00  0.00    -0.179 C  
HETATM    7  C   UNL     1     -11.071  13.640  66.919  1.00  0.00    -0.304 C  
HETATM    8  O   UNL     1     -12.021  13.406  67.980  1.00  0.00    -0.350 OA 
ENDROOT
BRANCH   4   9
HETATM    9  O   UNL     1     -12.529  11.568  70.685  1.00  0.00    -0.339 OA 
HETATM   10  O   UNL     1     -13.678  12.553  72.284  1.00  0.00    -0.482 OA 
HETATM   11  O   UNL     1     -12.165  13.748  71.171  1.00  0.00    -0.349 OA 
HETATM   12  N   UNL     1     -12.804  12.732  71.440  1.00  0.00    -0.339 N  
ENDBRANCH   4   9
BRANCH   5  13
HETATM   13  O   UNL     1      -9.121  12.704  68.036  1.00  0.00    -0.194 OA 
HETATM   14  N   UNL     1      -7.869  12.099  67.797  1.00  0.00    -0.137 N  
HETATM   15  O   UNL     1      -7.132  12.129  68.779  1.00  0.00    -0.102 OA 
HETATM   16  O   UNL     1      -7.666  11.663  66.663  1.00  0.00    -0.139 OA 
ENDBRANCH   5  13
TORSDOF 2
ENDMDL
MODEL       84
REMARK 921   NORMALIZED FREE ENERGY PREDICTED BY IDOCK:   -3.60 KCAL/MOL
REMARK 922        TOTAL FREE ENERGY PREDICTED BY IDOCK:   -4.36 KCAL/MOL
REMARK 923 INTER-LIGAND FREE ENERGY PREDICTED BY IDOCK:   -4.10 KCAL/MOL
REMARK 924 INTRA-LIGAND FREE ENERGY PREDICTED BY IDOCK:   -0.26 KCAL/MOL
REMARK 927      BINDING AFFINITY PREDICTED BY RF-SCORE:    0.00 PKD
ROOT
HETATM    1  C   UNL     1      -9.293   7.151  70.818  1.00  0.00    -0.160 C  
HETATM    2  O   UNL     1     -10.473   6.706  70.149  1.00  0.00    -0.197 OA 
HETATM    3  C   UNL     1     -11.564   7.574  70.506  1.00  0.00    -0.200 C  
HETATM    4  C   UNL     1     -11.007   8.726  71.341  1.00  0.00    -0.289 C  
HETATM    5  C   UNL     1      -9.005   6.400  72.117  1.00  0.00    -0.136 C  
HETATM    6  C   UNL     1      -9.492   8.587  71.263  1.00  0.00    -0.205 C  
HETATM    7  C   UNL     1      -8.250   7.473  72.891  1.00  0.00    -0.118 C  
HETATM    8  O   UNL     1      -8.874   8.729  72.554  1.00  0.00    -0.402 OA 
ENDROOT
BRANCH   4   9
HETATM    9  O   UNL     1     -11.547  10.018  71.087  1.00  0.00    -0.355 OA 
HETATM   10  O   UNL     1     -13.129  11.483  71.530  1.00  0.00    -0.422 OA 
HETATM   11  O   UNL     1     -13.205   9.501  72.539  1.00  0.00    -0.408 OA 
HETATM   12  N   UNL     1     -12.732  10.350  71.786  1.00  0.00    -0.435 N  
ENDBRANCH   4   9
BRANCH   5  13
HETATM   13  O   UNL     1     -10.247   6.087  72.756  1.00  0.00    -0.180 OA 
HETATM   14  N   UNL     1     -10.439   4.706  72.973  1.00  0.00    -0.186 N  
HETATM   15  O   UNL     1     -11.576   4.438  73.349  1.00  0.00    -0.282 OA 
HETATM   16  O   UNL     1      -9.466   3.972  72.796  1.00  0.00    -0.120 OA 
ENDBRANCH   5  13
TORSDOF 2
ENDMDL
MODEL       85
REMARK 921   NORMALIZED FREE ENERGY PREDICTED BY IDOCK:   -3.60 KCAL/MOL
REMARK 922        TOTAL FREE ENERGY PREDICTED BY IDOCK:   -4.36 KCAL/MOL
REMARK 923 INTER-LIGAND FREE ENERGY PREDICTED BY IDOCK:   -4.84 KCAL/MOL
REMARK 924 INTRA-LIGAND FREE ENERGY PREDICTED BY IDOCK:    0.48 KCAL/MOL
REMARK 927      BINDING AFFINITY PREDICTED BY RF-SCORE:    0.00 PKD
ROOT
HETATM    1  C   UNL     1     -10.858  14.611  66.901  1.00  0.00    -0.305 C  
HETATM    2  O   UNL     1     -12.078  14.965  67.554  1.00  0.00    -0.246 OA 
HETATM    3  C   UNL     1     -11.767  15.724  68.737  1.00  0.00    -0.378 C  
HETATM    4  C   UNL     1     -10.263  15.989  68.755  1.00  0.00    -0.225 C  
HETATM    5  C   UNL     1     -10.363  13.208  67.246  1.00  0.00    -0.243 C  
HETATM    6  C   UNL     1      -9.753  15.522  67.397  1.00  0.00    -0.218 C  
HETATM    7  C   UNL     1      -8.863  13.395  67.057  1.00  0.00    -0.211 C  
HETATM    8  O   UNL     1      -8.560  14.728  67.519  1.00  0.00    -0.166 OA 
ENDROOT
BRANCH   4   9
HETATM    9  O   UNL     1      -9.848  17.280  69.187  1.00  0.00    -0.254 OA 
HETATM   10  O   UNL     1      -9.928  19.456  68.862  1.00  0.00    -0.434 OA 
HETATM   11  O   UNL     1     -11.017  18.129  67.445  1.00  0.00    -0.312 OA 
HETATM   12  N   UNL     1     -10.311  18.376  68.422  1.00  0.00    -0.358 N  
ENDBRANCH   4   9
BRANCH   5  13
HETATM   13  O   UNL     1     -10.675  12.931  68.616  1.00  0.00    -0.246 OA 
HETATM   14  N   UNL     1     -11.712  11.989  68.779  1.00  0.00    -0.304 N  
HETATM   15  O   UNL     1     -12.093  11.898  69.943  1.00  0.00    -0.301 OA 
HETATM   16  O   UNL     1     -12.069  11.371  67.775  1.00  0.00    -0.637 OA 
ENDBRANCH   5  13
TORSDOF 2
ENDMDL
MODEL       86
REMARK 921   NORMALIZED FREE ENERGY PREDICTED BY IDOCK:   -3.57 KCAL/MOL
REMARK 922        TOTAL FREE ENERGY PREDICTED BY IDOCK:   -4.32 KCAL/MOL
REMARK 923 INTER-LIGAND FREE ENERGY PREDICTED BY IDOCK:   -3.88 KCAL/MOL
REMARK 924 INTRA-LIGAND FREE ENERGY PREDICTED BY IDOCK:   -0.45 KCAL/MOL
REMARK 927      BINDING AFFINITY PREDICTED BY RF-SCORE:    0.00 PKD
ROOT
HETATM    1  C   UNL     1      -8.454  10.352  66.002  1.00  0.00    -0.146 C  
HETATM    2  O   UNL     1      -8.975   9.727  64.829  1.00  0.00    -0.194 OA 
HETATM    3  C   UNL     1     -10.234  10.339  64.497  1.00  0.00    -0.091 C  
HETATM    4  C   UNL     1     -10.454  11.523  65.437  1.00  0.00    -0.281 C  
HETATM    5  C   UNL     1      -8.763   9.592  67.291  1.00  0.00    -0.132 C  
HETATM    6  C   UNL     1      -9.142  11.690  66.193  1.00  0.00    -0.203 C  
HETATM    7  C   UNL     1      -8.773  10.742  68.290  1.00  0.00    -0.136 C  
HETATM    8  O   UNL     1      -9.356  11.870  67.603  1.00  0.00    -0.175 OA 
ENDROOT
BRANCH   4   9
HETATM    9  O   UNL     1     -11.019  12.697  64.864  1.00  0.00    -0.277 OA 
HETATM   10  O   UNL     1     -12.555  14.268  64.996  1.00  0.00    -0.550 OA 
HETATM   11  O   UNL     1     -12.530  12.672  66.548  1.00  0.00    -0.407 OA 
HETATM   12  N   UNL     1     -12.133  13.250  65.538  1.00  0.00    -0.408 N  
ENDBRANCH   4   9
BRANCH   5  13
HETATM   13  O   UNL     1     -10.063   9.001  67.179  1.00  0.00    -0.202 OA 
HETATM   14  N   UNL     1     -10.051   7.592  67.242  1.00  0.00    -0.210 N  
HETATM   15  O   UNL     1     -11.137   7.094  66.962  1.00  0.00    -0.345 OA 
HETATM   16  O   UNL     1      -8.997   7.058  67.592  1.00  0.00    -0.119 OA 
ENDBRANCH   5  13
TORSDOF 2
ENDMDL
MODEL       87
REMARK 921   NORMALIZED FREE ENERGY PREDICTED BY IDOCK:   -3.57 KCAL/MOL
REMARK 922        TOTAL FREE ENERGY PREDICTED BY IDOCK:   -4.32 KCAL/MOL
REMARK 923 INTER-LIGAND FREE ENERGY PREDICTED BY IDOCK:   -3.93 KCAL/MOL
REMARK 924 INTRA-LIGAND FREE ENERGY PREDICTED BY IDOCK:   -0.38 KCAL/MOL
REMARK 927      BINDING AFFINITY PREDICTED BY RF-SCORE:    0.00 PKD
ROOT
HETATM    1  C   UNL     1     -11.424   6.367  71.502  1.00  0.00    -0.306 C  
HETATM    2  O   UNL     1     -11.888   6.693  70.192  1.00  0.00    -0.389 OA 
HETATM    3  C   UNL     1     -10.775   7.164  69.410  1.00  0.00    -0.231 C  
HETATM    4  C   UNL     1      -9.501   6.988  70.234  1.00  0.00    -0.165 C  
HETATM    5  C   UNL     1     -11.632   7.486  72.522  1.00  0.00    -0.303 C  
HETATM    6  C   UNL     1      -9.920   6.186  71.461  1.00  0.00    -0.182 C  
HETATM    7  C   UNL     1     -10.488   7.194  73.484  1.00  0.00    -0.380 C  
HETATM    8  O   UNL     1      -9.383   6.743  72.673  1.00  0.00    -0.140 OA 
ENDROOT
BRANCH   4   9
HETATM    9  O   UNL     1      -8.346   6.537  69.536  1.00  0.00    -0.127 OA 
HETATM   10  O   UNL     1      -6.431   7.067  68.587  1.00  0.00    -0.033 OA 
HETATM   11  O   UNL     1      -7.667   8.695  69.469  1.00  0.00    -0.086 OA 
HETATM   12  N   UNL     1      -7.408   7.530  69.170  1.00  0.00    -0.084 N  
ENDBRANCH   4   9
BRANCH   5  13
HETATM   13  O   UNL     1     -11.444   8.747  71.870  1.00  0.00    -0.312 OA 
HETATM   14  N   UNL     1     -12.605   9.548  71.843  1.00  0.00    -0.386 N  
HETATM   15  O   UNL     1     -12.482  10.537  71.127  1.00  0.00    -0.339 OA 
HETATM   16  O   UNL     1     -13.551   9.185  72.543  1.00  0.00    -0.470 OA 
ENDBRANCH   5  13
TORSDOF 2
ENDMDL
MODEL       88
REMARK 921   NORMALIZED FREE ENERGY PREDICTED BY IDOCK:   -3.53 KCAL/MOL
REMARK 922        TOTAL FREE ENERGY PREDICTED BY IDOCK:   -4.27 KCAL/MOL
REMARK 923 INTER-LIGAND FREE ENERGY PREDICTED BY IDOCK:   -3.83 KCAL/MOL
REMARK 924 INTRA-LIGAND FREE ENERGY PREDICTED BY IDOCK:   -0.44 KCAL/MOL
REMARK 927      BINDING AFFINITY PREDICTED BY RF-SCORE:    0.00 PKD
ROOT
HETATM    1  C   UNL     1      -9.843   7.779  73.030  1.00  0.00    -0.282 C  
HETATM    2  O   UNL     1     -10.749   6.969  73.778  1.00  0.00    -0.360 OA 
HETATM    3  C   UNL     1     -10.877   5.692  73.126  1.00  0.00    -0.281 C  
HETATM    4  C   UNL     1      -9.879   5.642  71.971  1.00  0.00    -0.163 C  
HETATM    5  C   UNL     1     -10.534   8.738  72.062  1.00  0.00    -0.344 C  
HETATM    6  C   UNL     1      -9.013   6.886  72.129  1.00  0.00    -0.132 C  
HETATM    7  C   UNL     1      -9.455   8.874  70.996  1.00  0.00    -0.252 C  
HETATM    8  O   UNL     1      -8.835   7.577  70.880  1.00  0.00    -0.142 OA 
ENDROOT
BRANCH   4   9
HETATM    9  O   UNL     1      -9.199   4.409  71.768  1.00  0.00    -0.126 OA 
HETATM   10  O   UNL     1      -8.699   2.777  70.377  1.00  0.00    -0.060 OA 
HETATM   11  O   UNL     1     -10.014   4.422  69.656  1.00  0.00    -0.222 OA 
HETATM   12  N   UNL     1      -9.324   3.828  70.484  1.00  0.00    -0.142 N  
ENDBRANCH   4   9
BRANCH   5  13
HETATM   13  O   UNL     1     -11.700   8.098  71.532  1.00  0.00    -0.268 OA 
HETATM   14  N   UNL     1     -12.899   8.789  71.807  1.00  0.00    -0.340 N  
HETATM   15  O   UNL     1     -13.899   8.142  71.510  1.00  0.00    -0.357 OA 
HETATM   16  O   UNL     1     -12.795   9.928  72.264  1.00  0.00    -0.360 OA 
ENDBRANCH   5  13
TORSDOF 2
ENDMDL
MODEL       89
REMARK 921   NORMALIZED FREE ENERGY PREDICTED BY IDOCK:   -3.52 KCAL/MOL
REMARK 922        TOTAL FREE ENERGY PREDICTED BY IDOCK:   -4.26 KCAL/MOL
REMARK 923 INTER-LIGAND FREE ENERGY PREDICTED BY IDOCK:   -3.86 KCAL/MOL
REMARK 924 INTRA-LIGAND FREE ENERGY PREDICTED BY IDOCK:   -0.40 KCAL/MOL
REMARK 927      BINDING AFFINITY PREDICTED BY RF-SCORE:    0.00 PKD
ROOT
HETATM    1  C   UNL     1     -11.486   6.344  70.180  1.00  0.00    -0.417 C  
HETATM    2  O   UNL     1     -12.364   7.118  70.997  1.00  0.00    -0.352 OA 
HETATM    3  C   UNL     1     -11.865   8.466  71.066  1.00  0.00    -0.252 C  
HETATM    4  C   UNL     1     -10.674   8.586  70.116  1.00  0.00    -0.235 C  
HETATM    5  C   UNL     1     -10.453   5.547  70.975  1.00  0.00    -0.244 C  
HETATM    6  C   UNL     1     -10.650   7.281  69.331  1.00  0.00    -0.229 C  
HETATM    7  C   UNL     1      -9.325   5.467  69.954  1.00  0.00    -0.147 C  
HETATM    8  O   UNL     1      -9.325   6.728  69.252  1.00  0.00    -0.144 OA 
ENDROOT
BRANCH   4   9
HETATM    9  O   UNL     1     -10.577   9.790  69.364  1.00  0.00    -0.207 OA 
HETATM   10  O   UNL     1      -9.296  11.439  68.666  1.00  0.00    -0.185 OA 
HETATM   11  O   UNL     1      -8.403   9.886  69.987  1.00  0.00    -0.186 OA 
HETATM   12  N   UNL     1      -9.309  10.417  69.347  1.00  0.00    -0.196 N  
ENDBRANCH   4   9
BRANCH   5  13
HETATM   13  O   UNL     1     -10.055   6.315  72.117  1.00  0.00    -0.181 OA 
HETATM   14  N   UNL     1     -10.601   5.847  73.330  1.00  0.00    -0.244 N  
HETATM   15  O   UNL     1     -10.404   6.615  74.267  1.00  0.00    -0.361 OA 
HETATM   16  O   UNL     1     -11.158   4.748  73.306  1.00  0.00    -0.282 OA 
ENDBRANCH   5  13
TORSDOF 2
ENDMDL
MODEL       90
REMARK 921   NORMALIZED FREE ENERGY PREDICTED BY IDOCK:   -3.50 KCAL/MOL
REMARK 922        TOTAL FREE ENERGY PREDICTED BY IDOCK:   -4.24 KCAL/MOL
REMARK 923 INTER-LIGAND FREE ENERGY PREDICTED BY IDOCK:   -4.80 KCAL/MOL
REMARK 924 INTRA-LIGAND FREE ENERGY PREDICTED BY IDOCK:    0.56 KCAL/MOL
REMARK 927      BINDING AFFINITY PREDICTED BY RF-SCORE:    0.00 PKD
ROOT
HETATM    1  C   UNL     1     -10.912   9.965  70.905  1.00  0.00    -0.322 C  
HETATM    2  O   UNL     1      -9.828   9.790  69.993  1.00  0.00    -0.227 OA 
HETATM    3  C   UNL     1     -10.312   9.990  68.652  1.00  0.00    -0.190 C  
HETATM    4  C   UNL     1     -11.763  10.463  68.732  1.00  0.00    -0.037 C  
HETATM    5  C   UNL     1     -11.577   8.655  71.325  1.00  0.00    -0.284 C  
HETATM    6  C   UNL     1     -12.020  10.731  70.210  1.00  0.00    -0.351 C  
HETATM    7  C   UNL     1     -12.988   9.148  71.621  1.00  0.00    -0.365 C  
HETATM    8  O   UNL     1     -13.272  10.172  70.645  1.00  0.00    -0.336 OA 
ENDROOT
BRANCH   4   9
HETATM    9  O   UNL     1     -12.153  11.480  67.817  1.00  0.00    -0.626 OA 
HETATM   10  O   UNL     1     -12.026  13.601  67.242  1.00  0.00    -0.376 OA 
HETATM   11  O   UNL     1     -10.955  12.932  69.074  1.00  0.00    -0.246 OA 
HETATM   12  N   UNL     1     -11.663  12.781  68.080  1.00  0.00    -0.345 N  
ENDBRANCH   4   9
BRANCH   5  13
HETATM   13  O   UNL     1     -11.574   7.756  70.210  1.00  0.00    -0.181 OA 
HETATM   14  N   UNL     1     -11.270   6.424  70.559  1.00  0.00    -0.326 N  
HETATM   15  O   UNL     1     -11.090   5.705  69.580  1.00  0.00    -0.328 OA 
HETATM   16  O   UNL     1     -11.258   6.150  71.760  1.00  0.00    -0.262 OA 
ENDBRANCH   5  13
TORSDOF 2
ENDMDL
MODEL       91
REMARK 921   NORMALIZED FREE ENERGY PREDICTED BY IDOCK:   -3.47 KCAL/MOL
REMARK 922        TOTAL FREE ENERGY PREDICTED BY IDOCK:   -4.21 KCAL/MOL
REMARK 923 INTER-LIGAND FREE ENERGY PREDICTED BY IDOCK:   -3.88 KCAL/MOL
REMARK 924 INTRA-LIGAND FREE ENERGY PREDICTED BY IDOCK:   -0.33 KCAL/MOL
REMARK 927      BINDING AFFINITY PREDICTED BY RF-SCORE:    0.00 PKD
ROOT
HETATM    1  C   UNL     1     -10.354  12.710  68.627  1.00  0.00    -0.177 C  
HETATM    2  O   UNL     1      -8.951  12.908  68.453  1.00  0.00    -0.187 OA 
HETATM    3  C   UNL     1      -8.564  12.385  67.169  1.00  0.00    -0.189 C  
HETATM    4  C   UNL     1      -9.828  11.959  66.424  1.00  0.00    -0.213 C  
HETATM    5  C   UNL     1     -10.702  11.455  69.425  1.00  0.00    -0.104 C  
HETATM    6  C   UNL     1     -10.988  12.468  67.271  1.00  0.00    -0.261 C  
HETATM    7  C   UNL     1     -12.073  11.132  68.844  1.00  0.00    -0.207 C  
HETATM    8  O   UNL     1     -12.006  11.466  67.442  1.00  0.00    -0.606 OA 
ENDROOT
BRANCH   4   9
HETATM    9  O   UNL     1      -9.876  12.247  65.031  1.00  0.00    -0.230 OA 
HETATM   10  O   UNL     1     -10.108  11.466  62.986  1.00  0.00    -0.335 OA 
HETATM   11  O   UNL     1     -10.150  10.027  64.684  1.00  0.00    -0.271 OA 
HETATM   12  N   UNL     1     -10.060  11.141  64.169  1.00  0.00    -0.302 N  
ENDBRANCH   4   9
BRANCH   5  13
HETATM   13  O   UNL     1      -9.757  10.427  69.106  1.00  0.00    -0.201 OA 
HETATM   14  N   UNL     1      -9.441   9.590  70.197  1.00  0.00    -0.231 N  
HETATM   15  O   UNL     1      -8.501   8.837  69.962  1.00  0.00    -0.121 OA 
HETATM   16  O   UNL     1     -10.146   9.693  71.202  1.00  0.00    -0.246 OA 
ENDBRANCH   5  13
TORSDOF 2
ENDMDL
MODEL       92
REMARK 921   NORMALIZED FREE ENERGY PREDICTED BY IDOCK:   -3.42 KCAL/MOL
REMARK 922        TOTAL FREE ENERGY PREDICTED BY IDOCK:   -4.15 KCAL/MOL
REMARK 923 INTER-LIGAND FREE ENERGY PREDICTED BY IDOCK:   -4.45 KCAL/MOL
REMARK 924 INTRA-LIGAND FREE ENERGY PREDICTED BY IDOCK:    0.29 KCAL/MOL
REMARK 927      BINDING AFFINITY PREDICTED BY RF-SCORE:    0.00 PKD
ROOT
HETATM    1  C   UNL     1     -13.634  14.438  70.983  1.00  0.00    -0.199 C  
HETATM    2  O   UNL     1     -13.310  15.774  70.597  1.00  0.00    -0.486 OA 
HETATM    3  C   UNL     1     -11.978  15.791  70.054  1.00  0.00    -0.337 C  
HETATM    4  C   UNL     1     -11.481  14.349  69.958  1.00  0.00    -0.238 C  
HETATM    5  C   UNL     1     -13.403  14.156  72.466  1.00  0.00    -0.518 C  
HETATM    6  C   UNL     1     -12.692  13.482  70.278  1.00  0.00    -0.052 C  
HETATM    7  C   UNL     1     -13.116  12.660  72.418  1.00  0.00    -0.136 C  
HETATM    8  O   UNL     1     -12.368  12.431  71.206  1.00  0.00    -0.248 OA 
ENDROOT
BRANCH   4   9
HETATM    9  O   UNL     1     -10.736  14.007  68.795  1.00  0.00    -0.250 OA 
HETATM   10  O   UNL     1      -8.817  14.130  67.723  1.00  0.00    -0.168 OA 
HETATM   11  O   UNL     1      -9.000  15.149  69.694  1.00  0.00    -0.183 OA 
HETATM   12  N   UNL     1      -9.402  14.477  68.745  1.00  0.00    -0.200 N  
ENDBRANCH   4   9
BRANCH   5  13
HETATM   13  O   UNL     1     -12.249  14.884  72.902  1.00  0.00    -0.329 OA 
HETATM   14  N   UNL     1     -12.549  16.166  73.410  1.00  0.00    -0.513 N  
HETATM   15  O   UNL     1     -11.546  16.845  73.606  1.00  0.00    -0.062 OA 
HETATM   16  O   UNL     1     -13.736  16.421  73.618  1.00  0.00    -0.526 OA 
ENDBRANCH   5  13
TORSDOF 2
ENDMDL
MODEL       93
REMARK 921   NORMALIZED FREE ENERGY PREDICTED BY IDOCK:   -3.37 KCAL/MOL
REMARK 922        TOTAL FREE ENERGY PREDICTED BY IDOCK:   -4.10 KCAL/MOL
REMARK 923 INTER-LIGAND FREE ENERGY PREDICTED BY IDOCK:   -3.75 KCAL/MOL
REMARK 924 INTRA-LIGAND FREE ENERGY PREDICTED BY IDOCK:   -0.35 KCAL/MOL
REMARK 927      BINDING AFFINITY PREDICTED BY RF-SCORE:    0.00 PKD
ROOT
HETATM    1  C   UNL     1     -11.715   6.737  71.362  1.00  0.00    -0.325 C  
HETATM    2  O   UNL     1     -11.876   8.148  71.512  1.00  0.00    -0.275 OA 
HETATM    3  C   UNL     1     -11.208   8.809  70.422  1.00  0.00    -0.223 C  
HETATM    4  C   UNL     1     -10.716   7.744  69.444  1.00  0.00    -0.171 C  
HETATM    5  C   UNL     1     -10.562   6.161  72.181  1.00  0.00    -0.209 C  
HETATM    6  C   UNL     1     -11.330   6.436  69.927  1.00  0.00    -0.434 C  
HETATM    7  C   UNL     1     -10.192   4.958  71.324  1.00  0.00    -0.178 C  
HETATM    8  O   UNL     1     -10.365   5.370  69.952  1.00  0.00    -0.260 OA 
ENDROOT
BRANCH   4   9
HETATM    9  O   UNL     1     -10.846   8.042  68.058  1.00  0.00    -0.094 OA 
HETATM   10  O   UNL     1      -9.891   8.823  66.235  1.00  0.00    -0.268 OA 
HETATM   11  O   UNL     1      -8.718   8.812  68.127  1.00  0.00    -0.133 OA 
HETATM   12  N   UNL     1      -9.712   8.609  67.431  1.00  0.00    -0.165 N  
ENDBRANCH   4   9
BRANCH   5  13
HETATM   13  O   UNL     1      -9.494   7.116  72.211  1.00  0.00    -0.140 OA 
HETATM   14  N   UNL     1      -9.168   7.559  73.510  1.00  0.00    -0.225 N  
HETATM   15  O   UNL     1      -8.385   8.504  73.506  1.00  0.00    -0.381 OA 
HETATM   16  O   UNL     1      -9.666   6.942  74.452  1.00  0.00    -0.273 OA 
ENDBRANCH   5  13
TORSDOF 2
ENDMDL
MODEL       94
REMARK 921   NORMALIZED FREE ENERGY PREDICTED BY IDOCK:   -3.34 KCAL/MOL
REMARK 922        TOTAL FREE ENERGY PREDICTED BY IDOCK:   -4.06 KCAL/MOL
REMARK 923 INTER-LIGAND FREE ENERGY PREDICTED BY IDOCK:   -4.63 KCAL/MOL
REMARK 924 INTRA-LIGAND FREE ENERGY PREDICTED BY IDOCK:    0.57 KCAL/MOL
REMARK 927      BINDING AFFINITY PREDICTED BY RF-SCORE:    0.00 PKD
ROOT
HETATM    1  C   UNL     1      -8.786  15.672  68.611  1.00  0.00    -0.201 C  
HETATM    2  O   UNL     1      -8.969  16.995  69.115  1.00  0.00    -0.190 OA 
HETATM    3  C   UNL     1     -10.365  17.337  69.024  1.00  0.00    -0.330 C  
HETATM    4  C   UNL     1     -11.133  16.098  68.568  1.00  0.00    -0.357 C  
HETATM    5  C   UNL     1      -8.342  15.628  67.150  1.00  0.00    -0.208 C  
HETATM    6  C   UNL     1     -10.124  14.958  68.608  1.00  0.00    -0.237 C  
HETATM    7  C   UNL     1      -8.920  14.283  66.730  1.00  0.00    -0.227 C  
HETATM    8  O   UNL     1     -10.181  14.151  67.419  1.00  0.00    -0.242 OA 
ENDROOT
BRANCH   4   9
HETATM    9  O   UNL     1     -12.392  15.864  69.190  1.00  0.00    -0.178 OA 
HETATM   10  O   UNL     1     -13.518  15.650  71.069  1.00  0.00    -0.575 OA 
HETATM   11  O   UNL     1     -11.324  16.009  71.180  1.00  0.00    -0.387 OA 
HETATM   12  N   UNL     1     -12.398  15.840  70.604  1.00  0.00    -0.407 N  
ENDBRANCH   4   9
BRANCH   5  13
HETATM   13  O   UNL     1      -8.975  16.700  66.442  1.00  0.00    -0.248 OA 
HETATM   14  N   UNL     1      -8.117  17.791  66.185  1.00  0.00    -0.221 N  
HETATM   15  O   UNL     1      -8.713  18.770  65.746  1.00  0.00    -0.412 OA 
HETATM   16  O   UNL     1      -6.916  17.619  66.395  1.00  0.00    -0.211 OA 
ENDBRANCH   5  13
TORSDOF 2
ENDMDL
MODEL       95
REMARK 921   NORMALIZED FREE ENERGY PREDICTED BY IDOCK:   -3.27 KCAL/MOL
REMARK 922        TOTAL FREE ENERGY PREDICTED BY IDOCK:   -3.99 KCAL/MOL
REMARK 923 INTER-LIGAND FREE ENERGY PREDICTED BY IDOCK:   -3.54 KCAL/MOL
REMARK 924 INTRA-LIGAND FREE ENERGY PREDICTED BY IDOCK:   -0.44 KCAL/MOL
REMARK 927      BINDING AFFINITY PREDICTED BY RF-SCORE:    0.00 PKD
ROOT
HETATM    1  C   UNL     1     -10.743   7.012  70.911  1.00  0.00    -0.235 C  
HETATM    2  O   UNL     1     -11.379   7.711  71.981  1.00  0.00    -0.255 OA 
HETATM    3  C   UNL     1     -11.541   9.090  71.603  1.00  0.00    -0.356 C  
HETATM    4  C   UNL     1     -11.110   9.242  70.146  1.00  0.00    -0.230 C  
HETATM    5  C   UNL     1      -9.231   6.872  71.084  1.00  0.00    -0.154 C  
HETATM    6  C   UNL     1     -10.892   7.821  69.638  1.00  0.00    -0.184 C  
HETATM    7  C   UNL     1      -8.796   6.802  69.626  1.00  0.00    -0.144 C  
HETATM    8  O   UNL     1      -9.663   7.699  68.901  1.00  0.00    -0.153 OA 
ENDROOT
BRANCH   4   9
HETATM    9  O   UNL     1     -11.901  10.100  69.332  1.00  0.00    -0.107 OA 
HETATM   10  O   UNL     1     -11.951  11.807  67.942  1.00  0.00    -0.575 OA 
HETATM   11  O   UNL     1      -9.991  11.189  68.796  1.00  0.00    -0.196 OA 
HETATM   12  N   UNL     1     -11.208  11.117  68.636  1.00  0.00    -0.230 N  
ENDBRANCH   4   9
BRANCH   5  13
HETATM   13  O   UNL     1      -8.726   8.056  71.712  1.00  0.00    -0.117 OA 
HETATM   14  N   UNL     1      -8.043   7.806  72.921  1.00  0.00    -0.115 N  
HETATM   15  O   UNL     1      -7.778   8.834  73.538  1.00  0.00    -0.397 OA 
HETATM   16  O   UNL     1      -7.778   6.632  73.180  1.00  0.00    -0.095 OA 
ENDBRANCH   5  13
TORSDOF 2
ENDMDL
MODEL       96
REMARK 921   NORMALIZED FREE ENERGY PREDICTED BY IDOCK:   -3.26 KCAL/MOL
REMARK 922        TOTAL FREE ENERGY PREDICTED BY IDOCK:   -3.98 KCAL/MOL
REMARK 923 INTER-LIGAND FREE ENERGY PREDICTED BY IDOCK:   -4.17 KCAL/MOL
REMARK 924 INTRA-LIGAND FREE ENERGY PREDICTED BY IDOCK:    0.19 KCAL/MOL
REMARK 927      BINDING AFFINITY PREDICTED BY RF-SCORE:    0.00 PKD
ROOT
HETATM    1  C   UNL     1     -10.655  17.738  68.560  1.00  0.00    -0.255 C  
HETATM    2  O   UNL     1     -10.890  16.437  69.100  1.00  0.00    -0.289 OA 
HETATM    3  C   UNL     1      -9.637  15.732  69.172  1.00  0.00    -0.255 C  
HETATM    4  C   UNL     1      -8.519  16.699  68.786  1.00  0.00    -0.255 C  
HETATM    5  C   UNL     1     -10.917  17.833  67.057  1.00  0.00     0.066 C  
HETATM    6  C   UNL     1      -9.182  18.068  68.696  1.00  0.00    -0.267 C  
HETATM    7  C   UNL     1      -9.957  18.955  66.684  1.00  0.00    -0.373 C  
HETATM    8  O   UNL     1      -8.786  18.777  67.509  1.00  0.00    -0.271 OA 
ENDROOT
BRANCH   4   9
HETATM    9  O   UNL     1      -7.316  16.617  69.541  1.00  0.00    -0.174 OA 
HETATM   10  O   UNL     1      -5.128  16.863  69.571  1.00  0.00    -0.129 OA 
HETATM   11  O   UNL     1      -6.215  17.248  67.667  1.00  0.00    -0.141 OA 
HETATM   12  N   UNL     1      -6.122  16.939  68.854  1.00  0.00    -0.156 N  
ENDBRANCH   4   9
BRANCH   5  13
HETATM   13  O   UNL     1     -10.527  16.601  66.441  1.00  0.00    -0.305 OA 
HETATM   14  N   UNL     1     -11.026  16.442  65.131  1.00  0.00    -0.309 N  
HETATM   15  O   UNL     1     -10.841  15.313  64.686  1.00  0.00    -0.379 OA 
HETATM   16  O   UNL     1     -11.536  17.431  64.603  1.00  0.00    -0.680 OA 
ENDBRANCH   5  13
TORSDOF 2
ENDMDL
MODEL       97
REMARK 921   NORMALIZED FREE ENERGY PREDICTED BY IDOCK:   -3.21 KCAL/MOL
REMARK 922        TOTAL FREE ENERGY PREDICTED BY IDOCK:   -3.92 KCAL/MOL
REMARK 923 INTER-LIGAND FREE ENERGY PREDICTED BY IDOCK:   -3.58 KCAL/MOL
REMARK 924 INTRA-LIGAND FREE ENERGY PREDICTED BY IDOCK:   -0.35 KCAL/MOL
REMARK 927      BINDING AFFINITY PREDICTED BY RF-SCORE:    0.00 PKD
ROOT
HETATM    1  C   UNL     1     -10.180   7.740  72.715  1.00  0.00    -0.299 C  
HETATM    2  O   UNL     1      -8.926   8.203  72.213  1.00  0.00    -0.149 OA 
HETATM    3  C   UNL     1      -9.160   8.984  71.028  1.00  0.00    -0.257 C  
HETATM    4  C   UNL     1     -10.669   9.146  70.850  1.00  0.00    -0.275 C  
HETATM    5  C   UNL     1     -10.531   6.321  72.272  1.00  0.00    -0.199 C  
HETATM    6  C   UNL     1     -11.289   8.591  72.127  1.00  0.00    -0.372 C  
HETATM    7  C   UNL     1     -12.053   6.396  72.298  1.00  0.00    -0.206 C  
HETATM    8  O   UNL     1     -12.400   7.722  71.848  1.00  0.00    -0.295 OA 
ENDROOT
BRANCH   4   9
HETATM    9  O   UNL     1     -11.127  10.421  70.415  1.00  0.00    -0.301 OA 
HETATM   10  O   UNL     1     -11.744  11.689  68.725  1.00  0.00    -0.281 OA 
HETATM   11  O   UNL     1     -11.090   9.603  68.305  1.00  0.00    -0.168 OA 
HETATM   12  N   UNL     1     -11.333  10.571  69.024  1.00  0.00    -0.260 N  
ENDBRANCH   4   9
BRANCH   5  13
HETATM   13  O   UNL     1     -10.052   6.120  70.938  1.00  0.00    -0.185 OA 
HETATM   14  N   UNL     1      -9.161   5.033  70.816  1.00  0.00    -0.131 N  
HETATM   15  O   UNL     1      -8.618   4.986  69.716  1.00  0.00    -0.086 OA 
HETATM   16  O   UNL     1      -9.068   4.275  71.782  1.00  0.00    -0.116 OA 
ENDBRANCH   5  13
TORSDOF 2
ENDMDL
MODEL       98
REMARK 921   NORMALIZED FREE ENERGY PREDICTED BY IDOCK:   -3.17 KCAL/MOL
REMARK 922        TOTAL FREE ENERGY PREDICTED BY IDOCK:   -3.88 KCAL/MOL
REMARK 923 INTER-LIGAND FREE ENERGY PREDICTED BY IDOCK:   -3.44 KCAL/MOL
REMARK 924 INTRA-LIGAND FREE ENERGY PREDICTED BY IDOCK:   -0.44 KCAL/MOL
REMARK 927      BINDING AFFINITY PREDICTED BY RF-SCORE:    0.00 PKD
ROOT
HETATM    1  C   UNL     1      -9.615   5.566  70.473  1.00  0.00    -0.173 C  
HETATM    2  O   UNL     1     -10.065   4.787  71.581  1.00  0.00    -0.185 OA 
HETATM    3  C   UNL     1     -11.119   5.500  72.253  1.00  0.00    -0.237 C  
HETATM    4  C   UNL     1     -11.454   6.744  71.432  1.00  0.00    -0.292 C  
HETATM    5  C   UNL     1      -8.375   6.405  70.777  1.00  0.00    -0.126 C  
HETATM    6  C   UNL     1     -10.676   6.592  70.130  1.00  0.00    -0.239 C  
HETATM    7  C   UNL     1      -8.580   7.558  69.802  1.00  0.00    -0.140 C  
HETATM    8  O   UNL     1     -10.001   7.808  69.765  1.00  0.00    -0.184 OA 
ENDROOT
BRANCH   4   9
HETATM    9  O   UNL     1     -12.832   7.084  71.321  1.00  0.00    -0.377 OA 
HETATM   10  O   UNL     1     -14.391   8.611  71.605  1.00  0.00    -0.415 OA 
HETATM   11  O   UNL     1     -12.300   9.107  72.186  1.00  0.00    -0.369 OA 
HETATM   12  N   UNL     1     -13.193   8.384  71.746  1.00  0.00    -0.345 N  
ENDBRANCH   4   9
BRANCH   5  13
HETATM   13  O   UNL     1      -8.448   6.863  72.132  1.00  0.00    -0.113 OA 
HETATM   14  N   UNL     1      -7.447   6.320  72.966  1.00  0.00    -0.095 N  
HETATM   15  O   UNL     1      -7.630   6.573  74.153  1.00  0.00    -0.091 OA 
HETATM   16  O   UNL     1      -6.530   5.711  72.414  1.00  0.00    -0.053 OA 
ENDBRANCH   5  13
TORSDOF 2
ENDMDL
MODEL       99
REMARK 921   NORMALIZED FREE ENERGY PREDICTED BY IDOCK:   -3.16 KCAL/MOL
REMARK 922        TOTAL FREE ENERGY PREDICTED BY IDOCK:   -3.87 KCAL/MOL
REMARK 923 INTER-LIGAND FREE ENERGY PREDICTED BY IDOCK:   -3.44 KCAL/MOL
REMARK 924 INTRA-LIGAND FREE ENERGY PREDICTED BY IDOCK:   -0.42 KCAL/MOL
REMARK 927      BINDING AFFINITY PREDICTED BY RF-SCORE:    0.00 PKD
ROOT
HETATM    1  C   UNL     1     -10.574   8.988  71.818  1.00  0.00    -0.356 C  
HETATM    2  O   UNL     1      -9.490   9.647  71.162  1.00  0.00    -0.164 OA 
HETATM    3  C   UNL     1      -9.220   8.972  69.920  1.00  0.00    -0.173 C  
HETATM    4  C   UNL     1     -10.295   7.907  69.709  1.00  0.00    -0.219 C  
HETATM    5  C   UNL     1     -10.127   7.974  72.870  1.00  0.00    -0.306 C  
HETATM    6  C   UNL     1     -11.328   8.153  70.802  1.00  0.00    -0.270 C  
HETATM    7  C   UNL     1     -11.302   7.006  72.832  1.00  0.00    -0.181 C  
HETATM    8  O   UNL     1     -11.720   6.931  71.452  1.00  0.00    -0.280 OA 
ENDROOT
BRANCH   4   9
HETATM    9  O   UNL     1     -10.788   7.751  68.383  1.00  0.00    -0.085 OA 
HETATM   10  O   UNL     1     -11.280   6.369  66.742  1.00  0.00    -0.327 OA 
HETATM   11  O   UNL     1     -10.428   5.528  68.619  1.00  0.00    -0.195 OA 
HETATM   12  N   UNL     1     -10.829   6.428  67.883  1.00  0.00    -0.298 N  
ENDBRANCH   4   9
BRANCH   5  13
HETATM   13  O   UNL     1      -8.926   7.339  72.420  1.00  0.00    -0.126 OA 
HETATM   14  N   UNL     1      -7.775   7.737  73.131  1.00  0.00    -0.109 N  
HETATM   15  O   UNL     1      -6.736   7.329  72.620  1.00  0.00    -0.062 OA 
HETATM   16  O   UNL     1      -7.952   8.392  74.159  1.00  0.00    -0.292 OA 
ENDBRANCH   5  13
TORSDOF 2
ENDMDL
MODEL      100
REMARK 921   NORMALIZED FREE ENERGY PREDICTED BY IDOCK:   -3.15 KCAL/MOL
REMARK 922        TOTAL FREE ENERGY PREDICTED BY IDOCK:   -3.85 KCAL/MOL
REMARK 923 INTER-LIGAND FREE ENERGY PREDICTED BY IDOCK:   -3.49 KCAL/MOL
REMARK 924 INTRA-LIGAND FREE ENERGY PREDICTED BY IDOCK:   -0.36 KCAL/MOL
REMARK 927      BINDING AFFINITY PREDICTED BY RF-SCORE:    0.00 PKD
ROOT
HETATM    1  C   UNL     1     -11.871   7.377  70.419  1.00  0.00    -0.083 C  
HETATM    2  O   UNL     1     -11.429   6.342  69.541  1.00  0.00    -0.428 OA 
HETATM    3  C   UNL     1     -10.738   5.343  70.313  1.00  0.00    -0.216 C  
HETATM    4  C   UNL     1     -10.877   5.699  71.792  1.00  0.00    -0.239 C  
HETATM    5  C   UNL     1     -10.928   8.577  70.475  1.00  0.00    -0.241 C  
HETATM    6  C   UNL     1     -11.875   6.849  71.840  1.00  0.00    -0.315 C  
HETATM    7  C   UNL     1     -11.213   9.084  71.883  1.00  0.00    -0.368 C  
HETATM    8  O   UNL     1     -11.427   7.912  72.698  1.00  0.00    -0.367 OA 
ENDROOT
BRANCH   4   9
HETATM    9  O   UNL     1     -11.099   4.618  72.691  1.00  0.00    -0.162 OA 
HETATM   10  O   UNL     1     -10.507   3.609  74.556  1.00  0.00    -0.193 OA 
HETATM   11  O   UNL     1      -9.381   5.423  73.926  1.00  0.00    -0.131 OA 
HETATM   12  N   UNL     1     -10.246   4.556  73.818  1.00  0.00    -0.167 N  
ENDBRANCH   4   9
BRANCH   5  13
HETATM   13  O   UNL     1      -9.578   8.110  70.363  1.00  0.00    -0.169 OA 
HETATM   14  N   UNL     1      -9.028   8.277  69.075  1.00  0.00    -0.147 N  
HETATM   15  O   UNL     1      -7.947   7.711  68.943  1.00  0.00    -0.120 OA 
HETATM   16  O   UNL     1      -9.662   8.974  68.282  1.00  0.00    -0.147 OA 
ENDBRANCH   5  13
TORSDOF 2
ENDMDL
MODEL      101
REMARK 921   NORMALIZED FREE ENERGY PREDICTED BY IDOCK:   -3.15 KCAL/MOL
REMARK 922        TOTAL FREE ENERGY PREDICTED BY IDOCK:   -3.85 KCAL/MOL
REMARK 923 INTER-LIGAND FREE ENERGY PREDICTED BY IDOCK:   -3.43 KCAL/MOL
REMARK 924 INTRA-LIGAND FREE ENERGY PREDICTED BY IDOCK:   -0.42 KCAL/MOL
REMARK 927      BINDING AFFINITY PREDICTED BY RF-SCORE:    0.00 PKD
ROOT
HETATM    1  C   UNL     1     -10.383   7.966  68.915  1.00  0.00    -0.213 C  
HETATM    2  O   UNL     1     -10.889   9.299  68.841  1.00  0.00    -0.194 OA 
HETATM    3  C   UNL     1      -9.971  10.182  69.511  1.00  0.00    -0.235 C  
HETATM    4  C   UNL     1      -8.736   9.377  69.910  1.00  0.00    -0.197 C  
HETATM    5  C   UNL     1     -10.978   7.147  70.060  1.00  0.00    -0.262 C  
HETATM    6  C   UNL     1      -8.902   8.020  69.237  1.00  0.00    -0.141 C  
HETATM    7  C   UNL     1      -9.831   6.183  70.331  1.00  0.00    -0.178 C  
HETATM    8  O   UNL     1      -8.615   6.937  70.138  1.00  0.00    -0.138 OA 
ENDROOT
BRANCH   4   9
HETATM    9  O   UNL     1      -7.476  10.021  69.753  1.00  0.00    -0.115 OA 
HETATM   10  O   UNL     1      -5.497  10.452  70.615  1.00  0.00    -0.064 OA 
HETATM   11  O   UNL     1      -6.934   9.239  71.807  1.00  0.00    -0.309 OA 
HETATM   12  N   UNL     1      -6.566   9.885  70.827  1.00  0.00    -0.098 N  
ENDBRANCH   4   9
BRANCH   5  13
HETATM   13  O   UNL     1     -11.198   8.011  71.181  1.00  0.00    -0.251 OA 
HETATM   14  N   UNL     1     -12.538   8.038  71.620  1.00  0.00    -0.315 N  
HETATM   15  O   UNL     1     -12.747   8.913  72.455  1.00  0.00    -0.390 OA 
HETATM   16  O   UNL     1     -13.296   7.188  71.151  1.00  0.00    -0.331 OA 
ENDBRANCH   5  13
TORSDOF 2
ENDMDL
MODEL      102
REMARK 921   NORMALIZED FREE ENERGY PREDICTED BY IDOCK:   -3.15 KCAL/MOL
REMARK 922        TOTAL FREE ENERGY PREDICTED BY IDOCK:   -3.85 KCAL/MOL
REMARK 923 INTER-LIGAND FREE ENERGY PREDICTED BY IDOCK:   -4.31 KCAL/MOL
REMARK 924 INTRA-LIGAND FREE ENERGY PREDICTED BY IDOCK:    0.46 KCAL/MOL
REMARK 927      BINDING AFFINITY PREDICTED BY RF-SCORE:    0.00 PKD
ROOT
HETATM    1  C   UNL     1      -9.526  11.782  67.879  1.00  0.00    -0.191 C  
HETATM    2  O   UNL     1      -8.903  12.144  66.647  1.00  0.00    -0.202 OA 
HETATM    3  C   UNL     1      -9.883  12.079  65.594  1.00  0.00    -0.243 C  
HETATM    4  C   UNL     1     -11.245  11.797  66.225  1.00  0.00    -0.312 C  
HETATM    5  C   UNL     1      -9.325  10.316  68.260  1.00  0.00    -0.138 C  
HETATM    6  C   UNL     1     -11.029  11.918  67.728  1.00  0.00    -0.228 C  
HETATM    7  C   UNL     1     -10.584  10.073  69.083  1.00  0.00    -0.218 C  
HETATM    8  O   UNL     1     -11.636  10.829  68.445  1.00  0.00    -0.350 OA 
ENDROOT
BRANCH   4   9
HETATM    9  O   UNL     1     -12.358  12.497  65.679  1.00  0.00    -0.615 OA 
HETATM   10  O   UNL     1     -13.301  14.442  65.266  1.00  0.00    -0.574 OA 
HETATM   11  O   UNL     1     -11.343  14.414  66.324  1.00  0.00    -0.335 OA 
HETATM   12  N   UNL     1     -12.319  13.907  65.772  1.00  0.00    -0.460 N  
ENDBRANCH   4   9
BRANCH   5  13
HETATM   13  O   UNL     1      -9.332   9.523  67.068  1.00  0.00    -0.142 OA 
HETATM   14  N   UNL     1      -8.075   8.968  66.752  1.00  0.00    -0.110 N  
HETATM   15  O   UNL     1      -8.051   8.448  65.640  1.00  0.00    -0.111 OA 
HETATM   16  O   UNL     1      -7.198   9.041  67.614  1.00  0.00    -0.082 OA 
ENDBRANCH   5  13
TORSDOF 2
ENDMDL
MODEL      103
REMARK 921   NORMALIZED FREE ENERGY PREDICTED BY IDOCK:   -3.13 KCAL/MOL
REMARK 922        TOTAL FREE ENERGY PREDICTED BY IDOCK:   -3.83 KCAL/MOL
REMARK 923 INTER-LIGAND FREE ENERGY PREDICTED BY IDOCK:   -3.57 KCAL/MOL
REMARK 924 INTRA-LIGAND FREE ENERGY PREDICTED BY IDOCK:   -0.26 KCAL/MOL
REMARK 927      BINDING AFFINITY PREDICTED BY RF-SCORE:    0.00 PKD
ROOT
HETATM    1  C   UNL     1      -8.952  10.539  68.228  1.00  0.00    -0.139 C  
HETATM    2  O   UNL     1      -8.483  10.583  69.576  1.00  0.00    -0.137 OA 
HETATM    3  C   UNL     1      -9.015   9.452  70.290  1.00  0.00    -0.240 C  
HETATM    4  C   UNL     1      -9.751   8.559  69.293  1.00  0.00    -0.173 C  
HETATM    5  C   UNL     1     -10.184  11.408  67.980  1.00  0.00    -0.185 C  
HETATM    6  C   UNL     1      -9.427   9.133  67.919  1.00  0.00    -0.141 C  
HETATM    7  C   UNL     1     -10.828  10.645  66.829  1.00  0.00    -0.169 C  
HETATM    8  O   UNL     1     -10.601   9.245  67.095  1.00  0.00    -0.258 OA 
ENDROOT
BRANCH   4   9
HETATM    9  O   UNL     1      -9.592   7.155  69.455  1.00  0.00    -0.155 OA 
HETATM   10  O   UNL     1     -10.440   5.271  70.216  1.00  0.00    -0.279 OA 
HETATM   11  O   UNL     1     -11.586   7.154  70.526  1.00  0.00    -0.301 OA 
HETATM   12  N   UNL     1     -10.638   6.479  70.127  1.00  0.00    -0.212 N  
ENDBRANCH   4   9
BRANCH   5  13
HETATM   13  O   UNL     1     -11.016  11.374  69.145  1.00  0.00    -0.220 OA 
HETATM   14  N   UNL     1     -11.688  12.589  69.395  1.00  0.00    -0.310 N  
HETATM   15  O   UNL     1     -12.248  12.607  70.487  1.00  0.00    -0.365 OA 
HETATM   16  O   UNL     1     -11.658  13.438  68.502  1.00  0.00    -0.287 OA 
ENDBRANCH   5  13
TORSDOF 2
ENDMDL
MODEL      104
REMARK 921   NORMALIZED FREE ENERGY PREDICTED BY IDOCK:   -3.13 KCAL/MOL
REMARK 922        TOTAL FREE ENERGY PREDICTED BY IDOCK:   -3.83 KCAL/MOL
REMARK 923 INTER-LIGAND FREE ENERGY PREDICTED BY IDOCK:   -3.59 KCAL/MOL
REMARK 924 INTRA-LIGAND FREE ENERGY PREDICTED BY IDOCK:   -0.24 KCAL/MOL
REMARK 927      BINDING AFFINITY PREDICTED BY RF-SCORE:    0.00 PKD
ROOT
HETATM    1  C   UNL     1      -8.627  13.712  68.310  1.00  0.00    -0.170 C  
HETATM    2  O   UNL     1      -8.341  14.655  67.276  1.00  0.00    -0.188 OA 
HETATM    3  C   UNL     1      -9.194  14.380  66.150  1.00  0.00    -0.117 C  
HETATM    4  C   UNL     1     -10.181  13.285  66.551  1.00  0.00    -0.283 C  
HETATM    5  C   UNL     1      -7.676  12.517  68.329  1.00  0.00    -0.141 C  
HETATM    6  C   UNL     1      -9.987  13.095  68.050  1.00  0.00    -0.233 C  
HETATM    7  C   UNL     1      -8.585  11.455  68.935  1.00  0.00    -0.014 C  
HETATM    8  O   UNL     1      -9.905  11.704  68.407  1.00  0.00    -0.193 OA 
ENDROOT
BRANCH   4   9
HETATM    9  O   UNL     1     -11.519  13.432  66.090  1.00  0.00    -0.311 OA 
HETATM   10  O   UNL     1     -13.162  12.606  64.880  1.00  0.00    -0.819 OA 
HETATM   11  O   UNL     1     -11.223  11.514  64.925  1.00  0.00    -0.263 OA 
HETATM   12  N   UNL     1     -11.997  12.423  65.222  1.00  0.00    -0.416 N  
ENDBRANCH   4   9
BRANCH   5  13
HETATM   13  O   UNL     1      -7.327  12.182  66.981  1.00  0.00    -0.136 OA 
HETATM   14  N   UNL     1      -6.072  11.550  66.863  1.00  0.00    -0.133 N  
HETATM   15  O   UNL     1      -5.705  11.437  65.697  1.00  0.00    -0.132 OA 
HETATM   16  O   UNL     1      -5.535  11.174  67.906  1.00  0.00    -0.043 OA 
ENDBRANCH   5  13
TORSDOF 2
ENDMDL
MODEL      105
REMARK 921   NORMALIZED FREE ENERGY PREDICTED BY IDOCK:   -3.10 KCAL/MOL
REMARK 922        TOTAL FREE ENERGY PREDICTED BY IDOCK:   -3.80 KCAL/MOL
REMARK 923 INTER-LIGAND FREE ENERGY PREDICTED BY IDOCK:   -3.39 KCAL/MOL
REMARK 924 INTRA-LIGAND FREE ENERGY PREDICTED BY IDOCK:   -0.40 KCAL/MOL
REMARK 927      BINDING AFFINITY PREDICTED BY RF-SCORE:    0.00 PKD
ROOT
HETATM    1  C   UNL     1     -11.432  11.446  67.459  1.00  0.00    -0.260 C  
HETATM    2  O   UNL     1     -10.577  11.564  66.322  1.00  0.00    -0.246 OA 
HETATM    3  C   UNL     1      -9.255  11.128  66.687  1.00  0.00    -0.175 C  
HETATM    4  C   UNL     1      -9.312  10.563  68.105  1.00  0.00    -0.148 C  
HETATM    5  C   UNL     1     -11.598  12.749  68.240  1.00  0.00    -0.334 C  
HETATM    6  C   UNL     1     -10.793  10.501  68.458  1.00  0.00    -0.234 C  
HETATM    7  C   UNL     1     -11.874  12.199  69.633  1.00  0.00    -0.322 C  
HETATM    8  O   UNL     1     -11.052  11.021  69.773  1.00  0.00    -0.259 OA 
ENDROOT
BRANCH   4   9
HETATM    9  O   UNL     1      -8.542   9.392  68.357  1.00  0.00    -0.122 OA 
HETATM   10  O   UNL     1      -6.978   8.430  69.571  1.00  0.00    -0.044 OA 
HETATM   11  O   UNL     1      -7.495  10.554  69.993  1.00  0.00    -0.142 OA 
HETATM   12  N   UNL     1      -7.591   9.480  69.400  1.00  0.00    -0.084 N  
ENDBRANCH   4   9
BRANCH   5  13
HETATM   13  O   UNL     1     -10.359  13.467  68.209  1.00  0.00    -0.239 OA 
HETATM   14  N   UNL     1     -10.508  14.837  67.910  1.00  0.00    -0.244 N  
HETATM   15  O   UNL     1      -9.436  15.398  67.706  1.00  0.00    -0.203 OA 
HETATM   16  O   UNL     1     -11.654  15.291  67.922  1.00  0.00    -0.339 OA 
ENDBRANCH   5  13
TORSDOF 2
ENDMDL
MODEL      106
REMARK 921   NORMALIZED FREE ENERGY PREDICTED BY IDOCK:   -3.09 KCAL/MOL
REMARK 922        TOTAL FREE ENERGY PREDICTED BY IDOCK:   -3.79 KCAL/MOL
REMARK 923 INTER-LIGAND FREE ENERGY PREDICTED BY IDOCK:   -3.39 KCAL/MOL
REMARK 924 INTRA-LIGAND FREE ENERGY PREDICTED BY IDOCK:   -0.39 KCAL/MOL
REMARK 927      BINDING AFFINITY PREDICTED BY RF-SCORE:    0.00 PKD
ROOT
HETATM    1  C   UNL     1      -8.571  11.083  65.847  1.00  0.00    -0.165 C  
HETATM    2  O   UNL     1      -8.424  11.101  67.267  1.00  0.00    -0.132 OA 
HETATM    3  C   UNL     1      -8.916   9.858  67.801  1.00  0.00    -0.131 C  
HETATM    4  C   UNL     1      -9.263   8.938  66.631  1.00  0.00    -0.170 C  
HETATM    5  C   UNL     1      -9.840  11.777  65.354  1.00  0.00    -0.233 C  
HETATM    6  C   UNL     1      -8.739   9.648  65.389  1.00  0.00    -0.158 C  
HETATM    7  C   UNL     1     -10.085  11.011  64.061  1.00  0.00    -0.350 C  
HETATM    8  O   UNL     1      -9.704   9.644  64.323  1.00  0.00    -0.083 OA 
ENDROOT
BRANCH   4   9
HETATM    9  O   UNL     1      -8.924   7.564  66.777  1.00  0.00    -0.132 OA 
HETATM   10  O   UNL     1      -9.636   5.503  67.076  1.00  0.00    -0.125 OA 
HETATM   11  O   UNL     1     -11.135   7.147  67.020  1.00  0.00    -0.345 OA 
HETATM   12  N   UNL     1     -10.002   6.670  66.976  1.00  0.00    -0.157 N  
ENDBRANCH   4   9
BRANCH   5  13
HETATM   13  O   UNL     1     -10.892  11.542  66.296  1.00  0.00    -0.272 OA 
HETATM   14  N   UNL     1     -11.538  12.719  66.728  1.00  0.00    -0.350 N  
HETATM   15  O   UNL     1     -12.307  12.523  67.665  1.00  0.00    -0.295 OA 
HETATM   16  O   UNL     1     -11.284  13.754  66.111  1.00  0.00    -0.296 OA 
ENDBRANCH   5  13
TORSDOF 2
ENDMDL
MODEL      107
REMARK 921   NORMALIZED FREE ENERGY PREDICTED BY IDOCK:   -3.08 KCAL/MOL
REMARK 922        TOTAL FREE ENERGY PREDICTED BY IDOCK:   -3.77 KCAL/MOL
REMARK 923 INTER-LIGAND FREE ENERGY PREDICTED BY IDOCK:   -3.38 KCAL/MOL
REMARK 924 INTRA-LIGAND FREE ENERGY PREDICTED BY IDOCK:   -0.39 KCAL/MOL
REMARK 927      BINDING AFFINITY PREDICTED BY RF-SCORE:    0.00 PKD
ROOT
HETATM    1  C   UNL     1     -10.205   4.984  72.319  1.00  0.00    -0.201 C  
HETATM    2  O   UNL     1     -11.210   5.967  72.571  1.00  0.00    -0.264 OA 
HETATM    3  C   UNL     1     -11.437   6.718  71.364  1.00  0.00    -0.292 C  
HETATM    4  C   UNL     1     -10.628   6.075  70.240  1.00  0.00    -0.273 C  
HETATM    5  C   UNL     1      -8.803   5.419  72.742  1.00  0.00    -0.122 C  
HETATM    6  C   UNL     1     -10.086   4.775  70.822  1.00  0.00    -0.216 C  
HETATM    7  C   UNL     1      -7.960   4.613  71.763  1.00  0.00    -0.099 C  
HETATM    8  O   UNL     1      -8.692   4.593  70.520  1.00  0.00    -0.097 OA 
ENDROOT
BRANCH   4   9
HETATM    9  O   UNL     1     -11.257   5.994  68.966  1.00  0.00    -0.367 OA 
HETATM   10  O   UNL     1     -11.154   6.460  66.817  1.00  0.00    -0.358 OA 
HETATM   11  O   UNL     1      -9.482   7.123  68.129  1.00  0.00    -0.133 OA 
HETATM   12  N   UNL     1     -10.560   6.582  67.884  1.00  0.00    -0.221 N  
ENDBRANCH   4   9
BRANCH   5  13
HETATM   13  O   UNL     1      -8.663   6.824  72.502  1.00  0.00    -0.123 OA 
HETATM   14  N   UNL     1      -8.011   7.513  73.547  1.00  0.00    -0.115 N  
HETATM   15  O   UNL     1      -8.061   8.733  73.414  1.00  0.00    -0.402 OA 
HETATM   16  O   UNL     1      -7.464   6.829  74.412  1.00  0.00    -0.097 OA 
ENDBRANCH   5  13
TORSDOF 2
ENDMDL
MODEL      108
REMARK 921   NORMALIZED FREE ENERGY PREDICTED BY IDOCK:   -3.06 KCAL/MOL
REMARK 922        TOTAL FREE ENERGY PREDICTED BY IDOCK:   -3.75 KCAL/MOL
REMARK 923 INTER-LIGAND FREE ENERGY PREDICTED BY IDOCK:   -3.31 KCAL/MOL
REMARK 924 INTRA-LIGAND FREE ENERGY PREDICTED BY IDOCK:   -0.45 KCAL/MOL
REMARK 927      BINDING AFFINITY PREDICTED BY RF-SCORE:    0.00 PKD
ROOT
HETATM    1  C   UNL     1      -9.853   5.992  66.644  1.00  0.00    -0.164 C  
HETATM    2  O   UNL     1      -9.386   4.851  67.364  1.00  0.00    -0.121 OA 
HETATM    3  C   UNL     1      -9.772   4.983  68.744  1.00  0.00    -0.161 C  
HETATM    4  C   UNL     1     -10.664   6.216  68.876  1.00  0.00    -0.312 C  
HETATM    5  C   UNL     1      -8.797   7.082  66.470  1.00  0.00    -0.141 C  
HETATM    6  C   UNL     1     -10.946   6.667  67.448  1.00  0.00    -0.360 C  
HETATM    7  C   UNL     1      -9.688   8.314  66.381  1.00  0.00    -0.230 C  
HETATM    8  O   UNL     1     -10.783   8.087  67.293  1.00  0.00    -0.300 OA 
ENDROOT
BRANCH   4   9
HETATM    9  O   UNL     1     -11.783   6.104  69.747  1.00  0.00    -0.340 OA 
HETATM   10  O   UNL     1     -12.881   6.928  71.469  1.00  0.00    -0.374 OA 
HETATM   11  O   UNL     1     -10.998   7.929  70.831  1.00  0.00    -0.235 OA 
HETATM   12  N   UNL     1     -11.884   7.078  70.768  1.00  0.00    -0.353 N  
ENDBRANCH   4   9
BRANCH   5  13
HETATM   13  O   UNL     1      -7.980   7.126  67.646  1.00  0.00    -0.111 OA 
HETATM   14  N   UNL     1      -6.630   6.791  67.409  1.00  0.00    -0.052 N  
HETATM   15  O   UNL     1      -5.986   6.653  68.444  1.00  0.00    -0.019 OA 
HETATM   16  O   UNL     1      -6.272   6.715  66.233  1.00  0.00    -0.035 OA 
ENDBRANCH   5  13
TORSDOF 2
ENDMDL
MODEL      109
REMARK 921   NORMALIZED FREE ENERGY PREDICTED BY IDOCK:   -3.06 KCAL/MOL
REMARK 922        TOTAL FREE ENERGY PREDICTED BY IDOCK:   -3.75 KCAL/MOL
REMARK 923 INTER-LIGAND FREE ENERGY PREDICTED BY IDOCK:   -3.34 KCAL/MOL
REMARK 924 INTRA-LIGAND FREE ENERGY PREDICTED BY IDOCK:   -0.41 KCAL/MOL
REMARK 927      BINDING AFFINITY PREDICTED BY RF-SCORE:    0.00 PKD
ROOT
HETATM    1  C   UNL     1     -10.775   9.476  67.542  1.00  0.00    -0.245 C  
HETATM    2  O   UNL     1     -10.126   9.314  66.280  1.00  0.00    -0.278 OA 
HETATM    3  C   UNL     1      -8.714   9.526  66.455  1.00  0.00    -0.135 C  
HETATM    4  C   UNL     1      -8.434   9.690  67.947  1.00  0.00    -0.122 C  
HETATM    5  C   UNL     1     -11.366  10.870  67.752  1.00  0.00    -0.292 C  
HETATM    6  C   UNL     1      -9.744   9.346  68.645  1.00  0.00    -0.152 C  
HETATM    7  C   UNL     1     -11.296  10.969  69.271  1.00  0.00    -0.282 C  
HETATM    8  O   UNL     1     -10.076  10.305  69.664  1.00  0.00    -0.230 OA 
ENDROOT
BRANCH   4   9
HETATM    9  O   UNL     1      -7.257   9.068  68.449  1.00  0.00    -0.075 OA 
HETATM   10  O   UNL     1      -5.213   9.326  69.227  1.00  0.00    -0.036 OA 
HETATM   11  O   UNL     1      -6.352  11.137  68.609  1.00  0.00    -0.043 OA 
HETATM   12  N   UNL     1      -6.187   9.931  68.786  1.00  0.00    -0.041 N  
ENDBRANCH   4   9
BRANCH   5  13
HETATM   13  O   UNL     1     -10.505  11.835  67.137  1.00  0.00    -0.211 OA 
HETATM   14  N   UNL     1     -11.126  12.570  66.106  1.00  0.00    -0.286 N  
HETATM   15  O   UNL     1     -10.334  13.257  65.468  1.00  0.00    -0.281 OA 
HETATM   16  O   UNL     1     -12.349  12.460  65.999  1.00  0.00    -0.627 OA 
ENDBRANCH   5  13
TORSDOF 2
ENDMDL
MODEL      110
REMARK 921   NORMALIZED FREE ENERGY PREDICTED BY IDOCK:   -3.05 KCAL/MOL
REMARK 922        TOTAL FREE ENERGY PREDICTED BY IDOCK:   -3.75 KCAL/MOL
REMARK 923 INTER-LIGAND FREE ENERGY PREDICTED BY IDOCK:   -3.42 KCAL/MOL
REMARK 924 INTRA-LIGAND FREE ENERGY PREDICTED BY IDOCK:   -0.33 KCAL/MOL
REMARK 927      BINDING AFFINITY PREDICTED BY RF-SCORE:    0.00 PKD
ROOT
HETATM    1  C   UNL     1      -9.992  13.778  66.445  1.00  0.00    -0.297 C  
HETATM    2  O   UNL     1      -9.240  13.644  67.652  1.00  0.00    -0.195 OA 
HETATM    3  C   UNL     1      -8.676  12.321  67.702  1.00  0.00    -0.175 C  
HETATM    4  C   UNL     1      -8.972  11.623  66.376  1.00  0.00    -0.198 C  
HETATM    5  C   UNL     1     -11.489  13.528  66.625  1.00  0.00    -0.339 C  
HETATM    6  C   UNL     1      -9.556  12.702  65.472  1.00  0.00    -0.013 C  
HETATM    7  C   UNL     1     -11.851  13.030  65.232  1.00  0.00    -0.376 C  
HETATM    8  O   UNL     1     -10.730  12.242  64.780  1.00  0.00    -0.277 OA 
ENDROOT
BRANCH   4   9
HETATM    9  O   UNL     1      -7.930  10.822  65.830  1.00  0.00    -0.161 OA 
HETATM   10  O   UNL     1      -7.075   8.808  65.589  1.00  0.00    -0.081 OA 
HETATM   11  O   UNL     1      -8.930   9.038  66.798  1.00  0.00    -0.129 OA 
HETATM   12  N   UNL     1      -7.995   9.436  66.105  1.00  0.00    -0.109 N  
ENDBRANCH   4   9
BRANCH   5  13
HETATM   13  O   UNL     1     -11.670  12.495  67.601  1.00  0.00    -0.340 OA 
HETATM   14  N   UNL     1     -12.140  12.969  68.844  1.00  0.00    -0.243 N  
HETATM   15  O   UNL     1     -12.116  12.109  69.720  1.00  0.00    -0.290 OA 
HETATM   16  O   UNL     1     -12.534  14.135  68.885  1.00  0.00    -0.191 OA 
ENDBRANCH   5  13
TORSDOF 2
ENDMDL
MODEL      111
REMARK 921   NORMALIZED FREE ENERGY PREDICTED BY IDOCK:   -3.04 KCAL/MOL
REMARK 922        TOTAL FREE ENERGY PREDICTED BY IDOCK:   -3.73 KCAL/MOL
REMARK 923 INTER-LIGAND FREE ENERGY PREDICTED BY IDOCK:   -3.37 KCAL/MOL
REMARK 924 INTRA-LIGAND FREE ENERGY PREDICTED BY IDOCK:   -0.35 KCAL/MOL
REMARK 927      BINDING AFFINITY PREDICTED BY RF-SCORE:    0.00 PKD
ROOT
HETATM    1  C   UNL     1     -10.536   9.950  66.949  1.00  0.00    -0.178 C  
HETATM    2  O   UNL     1     -11.574  10.490  67.768  1.00  0.00    -0.462 OA 
HETATM    3  C   UNL     1     -11.285  11.875  68.032  1.00  0.00    -0.257 C  
HETATM    4  C   UNL     1     -10.061  12.274  67.209  1.00  0.00    -0.204 C  
HETATM    5  C   UNL     1      -9.456   9.212  67.737  1.00  0.00    -0.140 C  
HETATM    6  C   UNL     1      -9.790  11.092  66.287  1.00  0.00    -0.215 C  
HETATM    7  C   UNL     1      -8.260   9.415  66.815  1.00  0.00    -0.112 C  
HETATM    8  O   UNL     1      -8.396  10.741  66.263  1.00  0.00    -0.149 OA 
ENDROOT
BRANCH   4   9
HETATM    9  O   UNL     1     -10.090  13.564  66.607  1.00  0.00    -0.264 OA 
HETATM   10  O   UNL     1      -9.045  15.471  66.267  1.00  0.00    -0.289 OA 
HETATM   11  O   UNL     1      -8.053  13.926  67.526  1.00  0.00    -0.158 OA 
HETATM   12  N   UNL     1      -8.958  14.383  66.828  1.00  0.00    -0.248 N  
ENDBRANCH   4   9
BRANCH   5  13
HETATM   13  O   UNL     1      -9.257   9.880  68.988  1.00  0.00    -0.150 OA 
HETATM   14  N   UNL     1      -8.994   9.004  70.061  1.00  0.00    -0.162 N  
HETATM   15  O   UNL     1      -9.008   9.569  71.151  1.00  0.00    -0.249 OA 
HETATM   16  O   UNL     1      -8.757   7.828  69.778  1.00  0.00    -0.137 OA 
ENDBRANCH   5  13
TORSDOF 2
ENDMDL
MODEL      112
REMARK 921   NORMALIZED FREE ENERGY PREDICTED BY IDOCK:   -3.01 KCAL/MOL
REMARK 922        TOTAL FREE ENERGY PREDICTED BY IDOCK:   -3.70 KCAL/MOL
REMARK 923 INTER-LIGAND FREE ENERGY PREDICTED BY IDOCK:   -3.35 KCAL/MOL
REMARK 924 INTRA-LIGAND FREE ENERGY PREDICTED BY IDOCK:   -0.34 KCAL/MOL
REMARK 927      BINDING AFFINITY PREDICTED BY RF-SCORE:    0.00 PKD
ROOT
HETATM    1  C   UNL     1     -11.154   8.613  71.923  1.00  0.00    -0.346 C  
HETATM    2  O   UNL     1     -12.470   8.167  71.594  1.00  0.00    -0.301 OA 
HETATM    3  C   UNL     1     -12.369   7.028  70.720  1.00  0.00    -0.258 C  
HETATM    4  C   UNL     1     -10.896   6.641  70.604  1.00  0.00    -0.253 C  
HETATM    5  C   UNL     1     -10.662   9.767  71.050  1.00  0.00    -0.272 C  
HETATM    6  C   UNL     1     -10.171   7.494  71.638  1.00  0.00    -0.184 C  
HETATM    7  C   UNL     1      -9.159   9.525  71.100  1.00  0.00     0.204 C  
HETATM    8  O   UNL     1      -8.980   8.093  71.097  1.00  0.00    -0.134 OA 
ENDROOT
BRANCH   4   9
HETATM    9  O   UNL     1     -10.600   5.249  70.600  1.00  0.00    -0.253 OA 
HETATM   10  O   UNL     1      -9.565   3.579  69.606  1.00  0.00    -0.174 OA 
HETATM   11  O   UNL     1      -9.424   5.607  68.699  1.00  0.00    -0.120 OA 
HETATM   12  N   UNL     1      -9.792   4.784  69.536  1.00  0.00    -0.208 N  
ENDBRANCH   4   9
BRANCH   5  13
HETATM   13  O   UNL     1     -11.166   9.589  69.721  1.00  0.00    -0.223 OA 
HETATM   14  N   UNL     1     -11.493  10.799  69.075  1.00  0.00    -0.282 N  
HETATM   15  O   UNL     1     -12.091  10.626  68.017  1.00  0.00    -0.366 OA 
HETATM   16  O   UNL     1     -11.122  11.841  69.618  1.00  0.00    -0.186 OA 
ENDBRANCH   5  13
TORSDOF 2
ENDMDL
MODEL      113
REMARK 921   NORMALIZED FREE ENERGY PREDICTED BY IDOCK:   -3.01 KCAL/MOL
REMARK 922        TOTAL FREE ENERGY PREDICTED BY IDOCK:   -3.69 KCAL/MOL
REMARK 923 INTER-LIGAND FREE ENERGY PREDICTED BY IDOCK:   -3.43 KCAL/MOL
REMARK 924 INTRA-LIGAND FREE ENERGY PREDICTED BY IDOCK:   -0.26 KCAL/MOL
REMARK 927      BINDING AFFINITY PREDICTED BY RF-SCORE:    0.00 PKD
ROOT
HETATM    1  C   UNL     1     -12.379  10.394  69.532  1.00  0.00     0.091 C  
HETATM    2  O   UNL     1     -12.181  11.346  68.486  1.00  0.00    -0.557 OA 
HETATM    3  C   UNL     1     -10.769  11.583  68.336  1.00  0.00    -0.208 C  
HETATM    4  C   UNL     1     -10.021  10.612  69.247  1.00  0.00    -0.193 C  
HETATM    5  C   UNL     1     -12.698  11.027  70.885  1.00  0.00    -0.358 C  
HETATM    6  C   UNL     1     -11.080   9.651  69.773  1.00  0.00    -0.217 C  
HETATM    7  C   UNL     1     -12.147   9.961  71.822  1.00  0.00    -0.301 C  
HETATM    8  O   UNL     1     -10.957   9.443  71.191  1.00  0.00    -0.302 OA 
ENDROOT
BRANCH   4   9
HETATM    9  O   UNL     1      -8.832  10.032  68.722  1.00  0.00    -0.125 OA 
HETATM   10  O   UNL     1      -6.780   9.339  69.116  1.00  0.00    -0.049 OA 
HETATM   11  O   UNL     1      -7.940  10.231  70.793  1.00  0.00     0.146 OA 
HETATM   12  N   UNL     1      -7.764   9.859  69.634  1.00  0.00    -0.131 N  
ENDBRANCH   4   9
BRANCH   5  13
HETATM   13  O   UNL     1     -11.960  12.248  71.009  1.00  0.00    -0.097 OA 
HETATM   14  N   UNL     1     -12.699  13.298  71.594  1.00  0.00    -0.275 N  
HETATM   15  O   UNL     1     -12.122  14.380  71.527  1.00  0.00    -0.349 OA 
HETATM   16  O   UNL     1     -13.777  13.002  72.111  1.00  0.00    -0.506 OA 
ENDBRANCH   5  13
TORSDOF 2
ENDMDL
MODEL      114
REMARK 921   NORMALIZED FREE ENERGY PREDICTED BY IDOCK:   -2.94 KCAL/MOL
REMARK 922        TOTAL FREE ENERGY PREDICTED BY IDOCK:   -3.62 KCAL/MOL
REMARK 923 INTER-LIGAND FREE ENERGY PREDICTED BY IDOCK:   -4.30 KCAL/MOL
REMARK 924 INTRA-LIGAND FREE ENERGY PREDICTED BY IDOCK:    0.67 KCAL/MOL
REMARK 927      BINDING AFFINITY PREDICTED BY RF-SCORE:    0.00 PKD
ROOT
HETATM    1  C   UNL     1      -9.089  13.899  65.777  1.00  0.00     0.490 C  
HETATM    2  O   UNL     1      -9.821  14.722  64.868  1.00  0.00    -0.200 OA 
HETATM    3  C   UNL     1     -10.578  15.687  65.622  1.00  0.00    -0.378 C  
HETATM    4  C   UNL     1     -10.189  15.558  67.093  1.00  0.00    -0.260 C  
HETATM    5  C   UNL     1      -9.784  12.578  66.102  1.00  0.00    -0.254 C  
HETATM    6  C   UNL     1      -9.000  14.605  67.116  1.00  0.00    -0.225 C  
HETATM    7  C   UNL     1      -9.234  12.317  67.498  1.00  0.00    -0.181 C  
HETATM    8  O   UNL     1      -9.135  13.605  68.141  1.00  0.00    -0.185 OA 
ENDROOT
BRANCH   4   9
HETATM    9  O   UNL     1     -10.054  16.770  67.827  1.00  0.00    -0.264 OA 
HETATM   10  O   UNL     1      -9.340  18.852  67.847  1.00  0.00    -0.288 OA 
HETATM   11  O   UNL     1      -9.002  17.631  66.017  1.00  0.00    -0.495 OA 
HETATM   12  N   UNL     1      -9.405  17.836  67.161  1.00  0.00    -0.258 N  
ENDBRANCH   4   9
BRANCH   5  13
HETATM   13  O   UNL     1     -11.199  12.798  66.142  1.00  0.00    -0.279 OA 
HETATM   14  N   UNL     1     -11.885  12.266  65.030  1.00  0.00    -0.372 N  
HETATM   15  O   UNL     1     -13.060  12.617  64.985  1.00  0.00    -0.808 OA 
HETATM   16  O   UNL     1     -11.250  11.515  64.289  1.00  0.00    -0.338 OA 
ENDBRANCH   5  13
TORSDOF 2
ENDMDL
MODEL      115
REMARK 921   NORMALIZED FREE ENERGY PREDICTED BY IDOCK:   -2.93 KCAL/MOL
REMARK 922        TOTAL FREE ENERGY PREDICTED BY IDOCK:   -3.61 KCAL/MOL
REMARK 923 INTER-LIGAND FREE ENERGY PREDICTED BY IDOCK:   -3.20 KCAL/MOL
REMARK 924 INTRA-LIGAND FREE ENERGY PREDICTED BY IDOCK:   -0.41 KCAL/MOL
REMARK 927      BINDING AFFINITY PREDICTED BY RF-SCORE:    0.00 PKD
ROOT
HETATM    1  C   UNL     1      -8.450  15.217  67.260  1.00  0.00    -0.193 C  
HETATM    2  O   UNL     1      -7.305  14.377  67.115  1.00  0.00    -0.115 OA 
HETATM    3  C   UNL     1      -7.670  13.031  67.470  1.00  0.00    -0.168 C  
HETATM    4  C   UNL     1      -9.177  12.991  67.717  1.00  0.00    -0.200 C  
HETATM    5  C   UNL     1      -8.502  15.957  68.596  1.00  0.00    -0.200 C  
HETATM    6  C   UNL     1      -9.696  14.353  67.272  1.00  0.00    -0.233 C  
HETATM    7  C   UNL     1     -10.008  16.122  68.758  1.00  0.00    -0.231 C  
HETATM    8  O   UNL     1     -10.606  14.918  68.232  1.00  0.00    -0.233 OA 
ENDROOT
BRANCH   4   9
HETATM    9  O   UNL     1      -9.873  11.849  67.232  1.00  0.00    -0.186 OA 
HETATM   10  O   UNL     1     -11.307  10.234  67.660  1.00  0.00    -0.335 OA 
HETATM   11  O   UNL     1     -10.791  11.658  69.292  1.00  0.00    -0.220 OA 
HETATM   12  N   UNL     1     -10.728  11.199  68.152  1.00  0.00    -0.190 N  
ENDBRANCH   4   9
BRANCH   5  13
HETATM   13  O   UNL     1      -7.968  15.106  69.617  1.00  0.00    -0.218 OA 
HETATM   14  N   UNL     1      -6.681  15.485  70.051  1.00  0.00    -0.109 N  
HETATM   15  O   UNL     1      -6.163  14.649  70.787  1.00  0.00    -0.164 OA 
HETATM   16  O   UNL     1      -6.266  16.584  69.679  1.00  0.00    -0.204 OA 
ENDBRANCH   5  13
TORSDOF 2
ENDMDL
MODEL      116
REMARK 921   NORMALIZED FREE ENERGY PREDICTED BY IDOCK:   -2.91 KCAL/MOL
REMARK 922        TOTAL FREE ENERGY PREDICTED BY IDOCK:   -3.58 KCAL/MOL
REMARK 923 INTER-LIGAND FREE ENERGY PREDICTED BY IDOCK:   -3.24 KCAL/MOL
REMARK 924 INTRA-LIGAND FREE ENERGY PREDICTED BY IDOCK:   -0.33 KCAL/MOL
REMARK 927      BINDING AFFINITY PREDICTED BY RF-SCORE:    0.00 PKD
ROOT
HETATM    1  C   UNL     1      -8.182  10.717  65.814  1.00  0.00    -0.161 C  
HETATM    2  O   UNL     1      -7.275  11.379  66.696  1.00  0.00    -0.140 OA 
HETATM    3  C   UNL     1      -7.642  11.073  68.054  1.00  0.00    -0.092 C  
HETATM    4  C   UNL     1      -8.764  10.036  68.025  1.00  0.00    -0.125 C  
HETATM    5  C   UNL     1      -9.328  11.605  65.334  1.00  0.00    -0.127 C  
HETATM    6  C   UNL     1      -8.876   9.601  66.569  1.00  0.00    -0.142 C  
HETATM    7  C   UNL     1     -10.403  10.554  65.089  1.00  0.00    -0.240 C  
HETATM    8  O   UNL     1     -10.243   9.563  66.126  1.00  0.00    -0.273 OA 
ENDROOT
BRANCH   4   9
HETATM    9  O   UNL     1      -8.703   9.003  69.002  1.00  0.00    -0.134 OA 
HETATM   10  O   UNL     1      -9.574   8.121  70.821  1.00  0.00    -0.163 OA 
HETATM   11  O   UNL     1     -10.484   9.980  70.001  1.00  0.00    -0.256 OA 
HETATM   12  N   UNL     1      -9.677   9.051  70.026  1.00  0.00    -0.176 N  
ENDBRANCH   4   9
BRANCH   5  13
HETATM   13  O   UNL     1      -9.707  12.486  66.397  1.00  0.00    -0.240 OA 
HETATM   14  N   UNL     1     -10.039  13.787  65.962  1.00  0.00    -0.303 N  
HETATM   15  O   UNL     1     -10.182  14.576  66.891  1.00  0.00    -0.259 OA 
HETATM   16  O   UNL     1     -10.173  13.952  64.749  1.00  0.00    -0.412 OA 
ENDBRANCH   5  13
TORSDOF 2
ENDMDL
MODEL      117
REMARK 921   NORMALIZED FREE ENERGY PREDICTED BY IDOCK:   -2.87 KCAL/MOL
REMARK 922        TOTAL FREE ENERGY PREDICTED BY IDOCK:   -3.54 KCAL/MOL
REMARK 923 INTER-LIGAND FREE ENERGY PREDICTED BY IDOCK:   -3.11 KCAL/MOL
REMARK 924 INTRA-LIGAND FREE ENERGY PREDICTED BY IDOCK:   -0.43 KCAL/MOL
REMARK 927      BINDING AFFINITY PREDICTED BY RF-SCORE:    0.00 PKD
ROOT
HETATM    1  C   UNL     1     -10.971   8.160  71.705  1.00  0.00    -0.250 C  
HETATM    2  O   UNL     1     -10.277   8.301  72.944  1.00  0.00    -0.295 OA 
HETATM    3  C   UNL     1      -8.873   8.467  72.673  1.00  0.00    -0.217 C  
HETATM    4  C   UNL     1      -8.687   8.582  71.161  1.00  0.00    -0.174 C  
HETATM    5  C   UNL     1     -11.234   6.708  71.311  1.00  0.00    -0.282 C  
HETATM    6  C   UNL     1     -10.094   8.689  70.587  1.00  0.00    -0.198 C  
HETATM    7  C   UNL     1     -11.269   6.838  69.794  1.00  0.00    -0.315 C  
HETATM    8  O   UNL     1     -10.275   7.826  69.450  1.00  0.00    -0.197 OA 
ENDROOT
BRANCH   4   9
HETATM    9  O   UNL     1      -7.734   9.535  70.705  1.00  0.00    -0.230 OA 
HETATM   10  O   UNL     1      -5.942   9.926  69.487  1.00  0.00    -0.040 OA 
HETATM   11  O   UNL     1      -6.728   7.845  69.585  1.00  0.00    -0.041 OA 
HETATM   12  N   UNL     1      -6.717   9.046  69.853  1.00  0.00    -0.044 N  
ENDBRANCH   4   9
BRANCH   5  13
HETATM   13  O   UNL     1     -10.124   5.907  71.731  1.00  0.00    -0.181 OA 
HETATM   14  N   UNL     1     -10.423   5.044  72.805  1.00  0.00    -0.201 N  
HETATM   15  O   UNL     1      -9.425   4.502  73.272  1.00  0.00    -0.119 OA 
HETATM   16  O   UNL     1     -11.611   4.920  73.109  1.00  0.00    -0.324 OA 
ENDBRANCH   5  13
TORSDOF 2
ENDMDL
MODEL      118
REMARK 921   NORMALIZED FREE ENERGY PREDICTED BY IDOCK:   -2.86 KCAL/MOL
REMARK 922        TOTAL FREE ENERGY PREDICTED BY IDOCK:   -3.53 KCAL/MOL
REMARK 923 INTER-LIGAND FREE ENERGY PREDICTED BY IDOCK:   -3.09 KCAL/MOL
REMARK 924 INTRA-LIGAND FREE ENERGY PREDICTED BY IDOCK:   -0.43 KCAL/MOL
REMARK 927      BINDING AFFINITY PREDICTED BY RF-SCORE:    0.00 PKD
ROOT
HETATM    1  C   UNL     1     -10.080   8.777  66.902  1.00  0.00    -0.278 C  
HETATM    2  O   UNL     1     -10.451   8.756  68.280  1.00  0.00    -0.215 OA 
HETATM    3  C   UNL     1     -10.694  10.106  68.716  1.00  0.00    -0.220 C  
HETATM    4  C   UNL     1     -10.610  11.025  67.499  1.00  0.00    -0.227 C  
HETATM    5  C   UNL     1      -8.570   8.749  66.674  1.00  0.00    -0.112 C  
HETATM    6  C   UNL     1     -10.517  10.095  66.295  1.00  0.00    -0.122 C  
HETATM    7  C   UNL     1      -8.482   9.480  65.340  1.00  0.00    -0.148 C  
HETATM    8  O   UNL     1      -9.492  10.511  65.377  1.00  0.00    -0.192 OA 
ENDROOT
BRANCH   4   9
HETATM    9  O   UNL     1     -11.567  12.076  67.426  1.00  0.00    -0.371 OA 
HETATM   10  O   UNL     1     -11.931  14.236  67.206  1.00  0.00    -0.401 OA 
HETATM   11  O   UNL     1      -9.826  13.511  67.239  1.00  0.00    -0.229 OA 
HETATM   12  N   UNL     1     -11.049  13.384  67.279  1.00  0.00    -0.276 N  
ENDBRANCH   4   9
BRANCH   5  13
HETATM   13  O   UNL     1      -7.931   9.501  67.712  1.00  0.00    -0.098 OA 
HETATM   14  N   UNL     1      -7.216   8.703  68.629  1.00  0.00    -0.075 N  
HETATM   15  O   UNL     1      -6.831   9.335  69.609  1.00  0.00    -0.051 OA 
HETATM   16  O   UNL     1      -7.043   7.522  68.326  1.00  0.00    -0.079 OA 
ENDBRANCH   5  13
TORSDOF 2
ENDMDL
MODEL      119
REMARK 921   NORMALIZED FREE ENERGY PREDICTED BY IDOCK:   -2.85 KCAL/MOL
REMARK 922        TOTAL FREE ENERGY PREDICTED BY IDOCK:   -3.52 KCAL/MOL
REMARK 923 INTER-LIGAND FREE ENERGY PREDICTED BY IDOCK:   -3.18 KCAL/MOL
REMARK 924 INTRA-LIGAND FREE ENERGY PREDICTED BY IDOCK:   -0.34 KCAL/MOL
REMARK 927      BINDING AFFINITY PREDICTED BY RF-SCORE:    0.00 PKD
ROOT
HETATM    1  C   UNL     1     -10.782   7.088  70.628  1.00  0.00    -0.231 C  
HETATM    2  O   UNL     1     -11.879   6.697  69.802  1.00  0.00    -0.299 OA 
HETATM    3  C   UNL     1     -11.387   6.422  68.478  1.00  0.00    -0.086 C  
HETATM    4  C   UNL     1      -9.862   6.506  68.505  1.00  0.00    -0.138 C  
HETATM    5  C   UNL     1     -10.618   8.602  70.755  1.00  0.00    -0.210 C  
HETATM    6  C   UNL     1      -9.490   6.634  69.977  1.00  0.00    -0.157 C  
HETATM    7  C   UNL     1      -9.118   8.695  71.002  1.00  0.00    -0.199 C  
HETATM    8  O   UNL     1      -8.511   7.665  70.194  1.00  0.00    -0.134 OA 
ENDROOT
BRANCH   4   9
HETATM    9  O   UNL     1      -9.156   5.531  67.747  1.00  0.00    -0.109 OA 
HETATM   10  O   UNL     1      -7.935   5.097  65.967  1.00  0.00    -0.105 OA 
HETATM   11  O   UNL     1      -8.671   7.176  66.270  1.00  0.00    -0.135 OA 
HETATM   12  N   UNL     1      -8.539   5.988  66.559  1.00  0.00    -0.121 N  
ENDBRANCH   4   9
BRANCH   5  13
HETATM   13  O   UNL     1     -10.970   9.210  69.507  1.00  0.00    -0.213 OA 
HETATM   14  N   UNL     1     -11.708  10.404  69.649  1.00  0.00    -0.237 N  
HETATM   15  O   UNL     1     -12.158  10.814  68.582  1.00  0.00    -0.480 OA 
HETATM   16  O   UNL     1     -11.778  10.887  70.780  1.00  0.00    -0.328 OA 
ENDBRANCH   5  13
TORSDOF 2
ENDMDL
MODEL      120
REMARK 921   NORMALIZED FREE ENERGY PREDICTED BY IDOCK:   -2.82 KCAL/MOL
REMARK 922        TOTAL FREE ENERGY PREDICTED BY IDOCK:   -3.48 KCAL/MOL
REMARK 923 INTER-LIGAND FREE ENERGY PREDICTED BY IDOCK:   -3.06 KCAL/MOL
REMARK 924 INTRA-LIGAND FREE ENERGY PREDICTED BY IDOCK:   -0.43 KCAL/MOL
REMARK 927      BINDING AFFINITY PREDICTED BY RF-SCORE:    0.00 PKD
ROOT
HETATM    1  C   UNL     1     -11.086   6.476  69.001  1.00  0.00    -0.310 C  
HETATM    2  O   UNL     1     -10.684   5.236  69.585  1.00  0.00    -0.273 OA 
HETATM    3  C   UNL     1      -9.731   5.503  70.630  1.00  0.00    -0.176 C  
HETATM    4  C   UNL     1      -9.634   7.016  70.815  1.00  0.00    -0.164 C  
HETATM    5  C   UNL     1     -10.317   6.832  67.729  1.00  0.00    -0.198 C  
HETATM    6  C   UNL     1     -10.749   7.602  69.959  1.00  0.00    -0.241 C  
HETATM    7  C   UNL     1     -10.396   8.352  67.780  1.00  0.00    -0.235 C  
HETATM    8  O   UNL     1     -10.292   8.716  69.173  1.00  0.00    -0.211 OA 
ENDROOT
BRANCH   4   9
HETATM    9  O   UNL     1      -9.535   7.491  72.153  1.00  0.00    -0.143 OA 
HETATM   10  O   UNL     1      -8.373   8.637  73.631  1.00  0.00    -0.380 OA 
HETATM   11  O   UNL     1      -7.557   8.424  71.571  1.00  0.00    -0.083 OA 
HETATM   12  N   UNL     1      -8.382   8.248  72.466  1.00  0.00    -0.172 N  
ENDBRANCH   4   9
BRANCH   5  13
HETATM   13  O   UNL     1      -8.964   6.385  67.866  1.00  0.00    -0.117 OA 
HETATM   14  N   UNL     1      -8.539   5.541  66.819  1.00  0.00    -0.111 N  
HETATM   15  O   UNL     1      -7.449   5.021  67.040  1.00  0.00    -0.084 OA 
HETATM   16  O   UNL     1      -9.273   5.462  65.832  1.00  0.00    -0.158 OA 
ENDBRANCH   5  13
TORSDOF 2
ENDMDL
MODEL      121
REMARK 921   NORMALIZED FREE ENERGY PREDICTED BY IDOCK:   -2.82 KCAL/MOL
REMARK 922        TOTAL FREE ENERGY PREDICTED BY IDOCK:   -3.48 KCAL/MOL
REMARK 923 INTER-LIGAND FREE ENERGY PREDICTED BY IDOCK:   -3.06 KCAL/MOL
REMARK 924 INTRA-LIGAND FREE ENERGY PREDICTED BY IDOCK:   -0.42 KCAL/MOL
REMARK 927      BINDING AFFINITY PREDICTED BY RF-SCORE:    0.00 PKD
ROOT
HETATM    1  C   UNL     1      -8.608   9.598  67.732  1.00  0.00    -0.125 C  
HETATM    2  O   UNL     1      -7.441  10.030  67.031  1.00  0.00    -0.091 OA 
HETATM    3  C   UNL     1      -7.834  10.960  66.005  1.00  0.00    -0.121 C  
HETATM    4  C   UNL     1      -9.327  11.243  66.161  1.00  0.00    -0.211 C  
HETATM    5  C   UNL     1      -9.167   8.268  67.231  1.00  0.00    -0.138 C  
HETATM    6  C   UNL     1      -9.729  10.586  67.476  1.00  0.00    -0.166 C  
HETATM    7  C   UNL     1     -10.640   8.443  67.579  1.00  0.00    -0.215 C  
HETATM    8  O   UNL     1     -10.948   9.834  67.347  1.00  0.00    -0.259 OA 
ENDROOT
BRANCH   4   9
HETATM    9  O   UNL     1      -9.745  12.589  65.962  1.00  0.00    -0.256 OA 
HETATM   10  O   UNL     1     -11.111  13.970  64.926  1.00  0.00    -0.340 OA 
HETATM   11  O   UNL     1     -11.246  11.796  64.466  1.00  0.00    -0.323 OA 
HETATM   12  N   UNL     1     -10.793  12.789  65.033  1.00  0.00    -0.283 N  
ENDBRANCH   4   9
BRANCH   5  13
HETATM   13  O   UNL     1      -8.982   8.193  65.812  1.00  0.00    -0.169 OA 
HETATM   14  N   UNL     1      -8.398   6.984  65.382  1.00  0.00    -0.136 N  
HETATM   15  O   UNL     1      -8.078   7.006  64.197  1.00  0.00    -0.115 OA 
HETATM   16  O   UNL     1      -8.317   6.076  66.211  1.00  0.00    -0.114 OA 
ENDBRANCH   5  13
TORSDOF 2
ENDMDL
MODEL      122
REMARK 921   NORMALIZED FREE ENERGY PREDICTED BY IDOCK:   -2.82 KCAL/MOL
REMARK 922        TOTAL FREE ENERGY PREDICTED BY IDOCK:   -3.48 KCAL/MOL
REMARK 923 INTER-LIGAND FREE ENERGY PREDICTED BY IDOCK:   -3.05 KCAL/MOL
REMARK 924 INTRA-LIGAND FREE ENERGY PREDICTED BY IDOCK:   -0.43 KCAL/MOL
REMARK 927      BINDING AFFINITY PREDICTED BY RF-SCORE:    0.00 PKD
ROOT
HETATM    1  C   UNL     1      -8.605   7.572  68.844  1.00  0.00    -0.129 C  
HETATM    2  O   UNL     1      -8.414   6.511  69.780  1.00  0.00    -0.128 OA 
HETATM    3  C   UNL     1      -8.847   5.277  69.178  1.00  0.00    -0.099 C  
HETATM    4  C   UNL     1      -9.199   5.554  67.718  1.00  0.00    -0.107 C  
HETATM    5  C   UNL     1      -9.911   8.339  69.045  1.00  0.00    -0.176 C  
HETATM    6  C   UNL     1      -8.738   6.982  67.454  1.00  0.00    -0.120 C  
HETATM    7  C   UNL     1     -10.170   8.814  67.621  1.00  0.00    -0.239 C  
HETATM    8  O   UNL     1      -9.735   7.746  66.753  1.00  0.00    -0.193 OA 
ENDROOT
BRANCH   4   9
HETATM    9  O   UNL     1      -8.809   4.568  66.769  1.00  0.00    -0.111 OA 
HETATM   10  O   UNL     1      -9.375   3.350  65.025  1.00  0.00    -0.145 OA 
HETATM   11  O   UNL     1     -10.890   4.730  65.895  1.00  0.00    -0.304 OA 
HETATM   12  N   UNL     1      -9.787   4.191  65.819  1.00  0.00    -0.202 N  
ENDBRANCH   4   9
BRANCH   5  13
HETATM   13  O   UNL     1     -10.925   7.422  69.471  1.00  0.00    -0.222 OA 
HETATM   14  N   UNL     1     -11.529   7.778  70.695  1.00  0.00    -0.271 N  
HETATM   15  O   UNL     1     -12.259   6.896  71.138  1.00  0.00    -0.358 OA 
HETATM   16  O   UNL     1     -11.284   8.902  71.134  1.00  0.00    -0.249 OA 
ENDBRANCH   5  13
TORSDOF 2
ENDMDL
MODEL      123
REMARK 921   NORMALIZED FREE ENERGY PREDICTED BY IDOCK:   -2.74 KCAL/MOL
REMARK 922        TOTAL FREE ENERGY PREDICTED BY IDOCK:   -3.39 KCAL/MOL
REMARK 923 INTER-LIGAND FREE ENERGY PREDICTED BY IDOCK:   -3.06 KCAL/MOL
REMARK 924 INTRA-LIGAND FREE ENERGY PREDICTED BY IDOCK:   -0.33 KCAL/MOL
REMARK 927      BINDING AFFINITY PREDICTED BY RF-SCORE:    0.00 PKD
ROOT
HETATM    1  C   UNL     1      -7.694   9.837  64.831  1.00  0.00    -0.127 C  
HETATM    2  O   UNL     1      -8.042  10.299  66.137  1.00  0.00    -0.123 OA 
HETATM    3  C   UNL     1      -8.788   9.270  66.810  1.00  0.00    -0.127 C  
HETATM    4  C   UNL     1      -8.788   8.023  65.928  1.00  0.00    -0.153 C  
HETATM    5  C   UNL     1      -8.653  10.306  63.739  1.00  0.00    -0.187 C  
HETATM    6  C   UNL     1      -7.812   8.326  64.798  1.00  0.00    -0.129 C  
HETATM    7  C   UNL     1      -8.503   9.169  62.737  1.00  0.00    -0.211 C  
HETATM    8  O   UNL     1      -8.350   7.963  63.514  1.00  0.00    -0.062 OA 
ENDROOT
BRANCH   4   9
HETATM    9  O   UNL     1      -8.635   6.772  66.590  1.00  0.00    -0.116 OA 
HETATM   10  O   UNL     1      -9.619   5.016  67.481  1.00  0.00    -0.132 OA 
HETATM   11  O   UNL     1     -10.894   6.635  66.640  1.00  0.00    -0.265 OA 
HETATM   12  N   UNL     1      -9.828   6.092  66.929  1.00  0.00    -0.150 N  
ENDBRANCH   4   9
BRANCH   5  13
HETATM   13  O   UNL     1      -9.981  10.344  64.275  1.00  0.00    -0.335 OA 
HETATM   14  N   UNL     1     -10.602  11.605  64.158  1.00  0.00    -0.325 N  
HETATM   15  O   UNL     1     -11.658  11.674  64.779  1.00  0.00    -0.221 OA 
HETATM   16  O   UNL     1     -10.044  12.438  63.443  1.00  0.00    -0.393 OA 
ENDBRANCH   5  13
TORSDOF 2
ENDMDL
MODEL      124
REMARK 921   NORMALIZED FREE ENERGY PREDICTED BY IDOCK:   -2.73 KCAL/MOL
REMARK 922        TOTAL FREE ENERGY PREDICTED BY IDOCK:   -3.39 KCAL/MOL
REMARK 923 INTER-LIGAND FREE ENERGY PREDICTED BY IDOCK:   -2.94 KCAL/MOL
REMARK 924 INTRA-LIGAND FREE ENERGY PREDICTED BY IDOCK:   -0.44 KCAL/MOL
REMARK 927      BINDING AFFINITY PREDICTED BY RF-SCORE:    0.00 PKD
ROOT
HETATM    1  C   UNL     1      -9.435   8.677  66.624  1.00  0.00    -0.207 C  
HETATM    2  O   UNL     1      -8.558   7.694  67.173  1.00  0.00    -0.119 OA 
HETATM    3  C   UNL     1      -8.858   7.532  68.571  1.00  0.00    -0.126 C  
HETATM    4  C   UNL     1     -10.100   8.361  68.894  1.00  0.00    -0.199 C  
HETATM    5  C   UNL     1      -8.824  10.075  66.558  1.00  0.00    -0.139 C  
HETATM    6  C   UNL     1     -10.626   8.842  67.547  1.00  0.00    -0.237 C  
HETATM    7  C   UNL     1     -10.082  10.928  66.661  1.00  0.00    -0.219 C  
HETATM    8  O   UNL     1     -10.963  10.240  67.573  1.00  0.00    -0.297 OA 
ENDROOT
BRANCH   4   9
HETATM    9  O   UNL     1     -11.046   7.776  69.781  1.00  0.00    -0.204 OA 
HETATM   10  O   UNL     1     -12.256   7.997  71.606  1.00  0.00    -0.286 OA 
HETATM   11  O   UNL     1     -10.907   9.666  71.018  1.00  0.00    -0.313 OA 
HETATM   12  N   UNL     1     -11.427   8.558  70.896  1.00  0.00    -0.268 N  
ENDBRANCH   4   9
BRANCH   5  13
HETATM   13  O   UNL     1      -7.981  10.267  67.700  1.00  0.00    -0.102 OA 
HETATM   14  N   UNL     1      -6.643  10.568  67.371  1.00  0.00    -0.066 N  
HETATM   15  O   UNL     1      -5.898  10.548  68.346  1.00  0.00    -0.044 OA 
HETATM   16  O   UNL     1      -6.405  10.839  66.193  1.00  0.00    -0.116 OA 
ENDBRANCH   5  13
TORSDOF 2
ENDMDL
MODEL      125
REMARK 921   NORMALIZED FREE ENERGY PREDICTED BY IDOCK:   -2.70 KCAL/MOL
REMARK 922        TOTAL FREE ENERGY PREDICTED BY IDOCK:   -3.35 KCAL/MOL
REMARK 923 INTER-LIGAND FREE ENERGY PREDICTED BY IDOCK:   -2.92 KCAL/MOL
REMARK 924 INTRA-LIGAND FREE ENERGY PREDICTED BY IDOCK:   -0.43 KCAL/MOL
REMARK 927      BINDING AFFINITY PREDICTED BY RF-SCORE:    0.00 PKD
ROOT
HETATM    1  C   UNL     1     -10.607  10.231  67.012  1.00  0.00    -0.239 C  
HETATM    2  O   UNL     1     -10.035  11.462  67.457  1.00  0.00    -0.180 OA 
HETATM    3  C   UNL     1      -8.687  11.552  66.961  1.00  0.00    -0.169 C  
HETATM    4  C   UNL     1      -8.440  10.371  66.024  1.00  0.00    -0.146 C  
HETATM    5  C   UNL     1     -10.525   9.109  68.045  1.00  0.00    -0.224 C  
HETATM    6  C   UNL     1      -9.801   9.709  65.840  1.00  0.00    -0.288 C  
HETATM    7  C   UNL     1     -10.497   7.894  67.126  1.00  0.00    -0.344 C  
HETATM    8  O   UNL     1      -9.722   8.279  65.971  1.00  0.00    -0.168 OA 
ENDROOT
BRANCH   4   9
HETATM    9  O   UNL     1      -7.691  10.637  64.844  1.00  0.00    -0.069 OA 
HETATM   10  O   UNL     1      -5.943  10.128  63.606  1.00  0.00    -0.122 OA 
HETATM   11  O   UNL     1      -6.252   9.023  65.513  1.00  0.00    -0.061 OA 
HETATM   12  N   UNL     1      -6.529   9.855  64.650  1.00  0.00    -0.112 N  
ENDBRANCH   4   9
BRANCH   5  13
HETATM   13  O   UNL     1      -9.294   9.233  68.766  1.00  0.00    -0.138 OA 
HETATM   14  N   UNL     1      -9.464   9.311  70.164  1.00  0.00    -0.209 N  
HETATM   15  O   UNL     1      -8.427   9.600  70.754  1.00  0.00    -0.245 OA 
HETATM   16  O   UNL     1     -10.585   9.054  70.606  1.00  0.00    -0.207 OA 
ENDBRANCH   5  13
TORSDOF 2
ENDMDL
MODEL      126
REMARK 921   NORMALIZED FREE ENERGY PREDICTED BY IDOCK:   -2.70 KCAL/MOL
REMARK 922        TOTAL FREE ENERGY PREDICTED BY IDOCK:   -3.35 KCAL/MOL
REMARK 923 INTER-LIGAND FREE ENERGY PREDICTED BY IDOCK:   -2.91 KCAL/MOL
REMARK 924 INTRA-LIGAND FREE ENERGY PREDICTED BY IDOCK:   -0.44 KCAL/MOL
REMARK 927      BINDING AFFINITY PREDICTED BY RF-SCORE:    0.00 PKD
ROOT
HETATM    1  C   UNL     1      -9.349   8.982  65.470  1.00  0.00    -0.187 C  
HETATM    2  O   UNL     1      -8.540   8.262  66.400  1.00  0.00    -0.121 OA 
HETATM    3  C   UNL     1      -8.698   8.851  67.704  1.00  0.00    -0.124 C  
HETATM    4  C   UNL     1      -9.786   9.920  67.620  1.00  0.00    -0.155 C  
HETATM    5  C   UNL     1      -8.585  10.053  64.693  1.00  0.00    -0.181 C  
HETATM    6  C   UNL     1     -10.399   9.764  66.234  1.00  0.00    -0.165 C  
HETATM    7  C   UNL     1      -9.711  11.038  64.407  1.00  0.00    -0.280 C  
HETATM    8  O   UNL     1     -10.559  11.032  65.574  1.00  0.00    -0.256 OA 
ENDROOT
BRANCH   4   9
HETATM    9  O   UNL     1     -10.689  10.000  68.717  1.00  0.00    -0.207 OA 
HETATM   10  O   UNL     1     -11.718  11.286  70.177  1.00  0.00    -0.309 OA 
HETATM   11  O   UNL     1     -10.315  12.232  68.732  1.00  0.00    -0.211 OA 
HETATM   12  N   UNL     1     -10.918  11.292  69.246  1.00  0.00    -0.243 N  
ENDBRANCH   4   9
BRANCH   5  13
HETATM   13  O   UNL     1      -7.601  10.636  65.556  1.00  0.00    -0.143 OA 
HETATM   14  N   UNL     1      -6.280  10.499  65.080  1.00  0.00    -0.102 N  
HETATM   15  O   UNL     1      -5.440  10.836  65.908  1.00  0.00    -0.101 OA 
HETATM   16  O   UNL     1      -6.142  10.105  63.921  1.00  0.00    -0.125 OA 
ENDBRANCH   5  13
TORSDOF 2
ENDMDL
MODEL      127
REMARK 921   NORMALIZED FREE ENERGY PREDICTED BY IDOCK:   -2.69 KCAL/MOL
REMARK 922        TOTAL FREE ENERGY PREDICTED BY IDOCK:   -3.34 KCAL/MOL
REMARK 923 INTER-LIGAND FREE ENERGY PREDICTED BY IDOCK:   -3.21 KCAL/MOL
REMARK 924 INTRA-LIGAND FREE ENERGY PREDICTED BY IDOCK:   -0.13 KCAL/MOL
REMARK 927      BINDING AFFINITY PREDICTED BY RF-SCORE:    0.00 PKD
ROOT
HETATM    1  C   UNL     1      -9.562   6.217  69.726  1.00  0.00    -0.150 C  
HETATM    2  O   UNL     1      -9.182   5.896  71.064  1.00  0.00    -0.148 OA 
HETATM    3  C   UNL     1     -10.097   6.535  71.973  1.00  0.00    -0.184 C  
HETATM    4  C   UNL     1     -11.211   7.184  71.153  1.00  0.00    -0.262 C  
HETATM    5  C   UNL     1      -8.783   7.389  69.132  1.00  0.00    -0.136 C  
HETATM    6  C   UNL     1     -11.001   6.696  69.725  1.00  0.00    -0.313 C  
HETATM    7  C   UNL     1      -9.810   7.926  68.143  1.00  0.00    -0.169 C  
HETATM    8  O   UNL     1     -11.099   7.769  68.773  1.00  0.00     0.067 OA 
ENDROOT
BRANCH   4   9
HETATM    9  O   UNL     1     -12.530   7.084  71.678  1.00  0.00    -0.341 OA 
HETATM   10  O   UNL     1     -14.373   8.134  72.268  1.00  0.00    -0.359 OA 
HETATM   11  O   UNL     1     -12.662   9.337  71.507  1.00  0.00    -0.318 OA 
HETATM   12  N   UNL     1     -13.239   8.299  71.827  1.00  0.00    -0.341 N  
ENDBRANCH   4   9
BRANCH   5  13
HETATM   13  O   UNL     1      -8.523   8.344  70.167  1.00  0.00    -0.120 OA 
HETATM   14  N   UNL     1      -7.489   9.250  69.853  1.00  0.00    -0.075 N  
HETATM   15  O   UNL     1      -7.153   9.939  70.812  1.00  0.00    -0.294 OA 
HETATM   16  O   UNL     1      -7.090   9.260  68.688  1.00  0.00    -0.068 OA 
ENDBRANCH   5  13
TORSDOF 2
ENDMDL
MODEL      128
REMARK 921   NORMALIZED FREE ENERGY PREDICTED BY IDOCK:   -2.67 KCAL/MOL
REMARK 922        TOTAL FREE ENERGY PREDICTED BY IDOCK:   -3.31 KCAL/MOL
REMARK 923 INTER-LIGAND FREE ENERGY PREDICTED BY IDOCK:   -2.88 KCAL/MOL
REMARK 924 INTRA-LIGAND FREE ENERGY PREDICTED BY IDOCK:   -0.43 KCAL/MOL
REMARK 927      BINDING AFFINITY PREDICTED BY RF-SCORE:    0.00 PKD
ROOT
HETATM    1  C   UNL     1     -10.575   8.105  67.385  1.00  0.00    -0.255 C  
HETATM    2  O   UNL     1      -9.555   8.509  66.470  1.00  0.00    -0.197 OA 
HETATM    3  C   UNL     1      -8.889   7.336  65.971  1.00  0.00    -0.136 C  
HETATM    4  C   UNL     1      -9.628   6.105  66.493  1.00  0.00    -0.151 C  
HETATM    5  C   UNL     1     -10.140   8.157  68.849  1.00  0.00    -0.202 C  
HETATM    6  C   UNL     1     -10.894   6.642  67.150  1.00  0.00    -0.401 C  
HETATM    7  C   UNL     1     -11.033   7.072  69.437  1.00  0.00    -0.201 C  
HETATM    8  O   UNL     1     -11.127   6.038  68.434  1.00  0.00    -0.314 OA 
ENDROOT
BRANCH   4   9
HETATM    9  O   UNL     1      -9.787   5.022  65.583  1.00  0.00    -0.152 OA 
HETATM   10  O   UNL     1      -9.384   2.904  65.138  1.00  0.00    -0.151 OA 
HETATM   11  O   UNL     1      -8.580   3.764  67.027  1.00  0.00    -0.102 OA 
HETATM   12  N   UNL     1      -9.192   3.795  65.961  1.00  0.00    -0.153 N  
ENDBRANCH   4   9
BRANCH   5  13
HETATM   13  O   UNL     1      -8.760   7.786  68.935  1.00  0.00    -0.134 OA 
HETATM   14  N   UNL     1      -7.943   8.781  69.513  1.00  0.00    -0.094 N  
HETATM   15  O   UNL     1      -6.746   8.528  69.413  1.00  0.00    -0.044 OA 
HETATM   16  O   UNL     1      -8.514   9.728  70.055  1.00  0.00    -0.190 OA 
ENDBRANCH   5  13
TORSDOF 2
ENDMDL
MODEL      129
REMARK 921   NORMALIZED FREE ENERGY PREDICTED BY IDOCK:   -2.64 KCAL/MOL
REMARK 922        TOTAL FREE ENERGY PREDICTED BY IDOCK:   -3.29 KCAL/MOL
REMARK 923 INTER-LIGAND FREE ENERGY PREDICTED BY IDOCK:   -2.84 KCAL/MOL
REMARK 924 INTRA-LIGAND FREE ENERGY PREDICTED BY IDOCK:   -0.45 KCAL/MOL
REMARK 927      BINDING AFFINITY PREDICTED BY RF-SCORE:    0.00 PKD
ROOT
HETATM    1  C   UNL     1     -10.618   8.433  68.961  1.00  0.00    -0.154 C  
HETATM    2  O   UNL     1      -9.512   7.823  68.294  1.00  0.00    -0.145 OA 
HETATM    3  C   UNL     1      -8.826   6.965  69.224  1.00  0.00    -0.138 C  
HETATM    4  C   UNL     1      -9.634   6.919  70.520  1.00  0.00    -0.169 C  
HETATM    5  C   UNL     1     -10.318   9.833  69.491  1.00  0.00    -0.230 C  
HETATM    6  C   UNL     1     -10.943   7.632  70.206  1.00  0.00    -0.252 C  
HETATM    7  C   UNL     1     -11.282   9.891  70.670  1.00  0.00    -0.344 C  
HETATM    8  O   UNL     1     -11.304   8.566  71.239  1.00  0.00    -0.251 OA 
ENDROOT
BRANCH   4   9
HETATM    9  O   UNL     1      -9.730   5.654  71.166  1.00  0.00    -0.164 OA 
HETATM   10  O   UNL     1      -9.470   4.500  73.022  1.00  0.00    -0.127 OA 
HETATM   11  O   UNL     1      -8.948   6.664  73.036  1.00  0.00    -0.128 OA 
HETATM   12  N   UNL     1      -9.345   5.616  72.527  1.00  0.00    -0.143 N  
ENDBRANCH   4   9
BRANCH   5  13
HETATM   13  O   UNL     1      -8.959   9.877  69.940  1.00  0.00    -0.211 OA 
HETATM   14  N   UNL     1      -8.137  10.729  69.172  1.00  0.00    -0.150 N  
HETATM   15  O   UNL     1      -6.947  10.617  69.449  1.00  0.00    -0.079 OA 
HETATM   16  O   UNL     1      -8.702  11.478  68.373  1.00  0.00    -0.153 OA 
ENDBRANCH   5  13
TORSDOF 2
ENDMDL
MODEL      130
REMARK 921   NORMALIZED FREE ENERGY PREDICTED BY IDOCK:   -2.63 KCAL/MOL
REMARK 922        TOTAL FREE ENERGY PREDICTED BY IDOCK:   -3.27 KCAL/MOL
REMARK 923 INTER-LIGAND FREE ENERGY PREDICTED BY IDOCK:   -2.85 KCAL/MOL
REMARK 924 INTRA-LIGAND FREE ENERGY PREDICTED BY IDOCK:   -0.42 KCAL/MOL
REMARK 927      BINDING AFFINITY PREDICTED BY RF-SCORE:    0.00 PKD
ROOT
HETATM    1  C   UNL     1     -10.136   7.897  67.220  1.00  0.00    -0.238 C  
HETATM    2  O   UNL     1      -9.029   7.026  66.989  1.00  0.00    -0.119 OA 
HETATM    3  C   UNL     1      -8.051   7.234  68.024  1.00  0.00    -0.120 C  
HETATM    4  C   UNL     1      -8.640   8.195  69.055  1.00  0.00    -0.133 C  
HETATM    5  C   UNL     1     -10.074   9.194  66.415  1.00  0.00    -0.274 C  
HETATM    6  C   UNL     1     -10.103   8.361  68.663  1.00  0.00    -0.193 C  
HETATM    7  C   UNL     1     -10.854  10.124  67.336  1.00  0.00    -0.261 C  
HETATM    8  O   UNL     1     -10.509   9.740  68.684  1.00  0.00    -0.194 OA 
ENDROOT
BRANCH   4   9
HETATM    9  O   UNL     1      -8.370   7.908  70.422  1.00  0.00    -0.118 OA 
HETATM   10  O   UNL     1      -7.733   8.676  72.384  1.00  0.00    -0.305 OA 
HETATM   11  O   UNL     1      -7.803  10.086  70.663  1.00  0.00    -0.236 OA 
HETATM   12  N   UNL     1      -7.930   8.993  71.215  1.00  0.00    -0.129 N  
ENDBRANCH   4   9
BRANCH   5  13
HETATM   13  O   UNL     1      -8.707   9.607  66.308  1.00  0.00    -0.137 OA 
HETATM   14  N   UNL     1      -8.173   9.460  65.011  1.00  0.00    -0.131 N  
HETATM   15  O   UNL     1      -6.959   9.642  64.974  1.00  0.00    -0.100 OA 
HETATM   16  O   UNL     1      -8.968   9.211  64.104  1.00  0.00    -0.158 OA 
ENDBRANCH   5  13
TORSDOF 2
ENDMDL
MODEL      131
REMARK 921   NORMALIZED FREE ENERGY PREDICTED BY IDOCK:   -2.62 KCAL/MOL
REMARK 922        TOTAL FREE ENERGY PREDICTED BY IDOCK:   -3.26 KCAL/MOL
REMARK 923 INTER-LIGAND FREE ENERGY PREDICTED BY IDOCK:   -2.89 KCAL/MOL
REMARK 924 INTRA-LIGAND FREE ENERGY PREDICTED BY IDOCK:   -0.36 KCAL/MOL
REMARK 927      BINDING AFFINITY PREDICTED BY RF-SCORE:    0.00 PKD
ROOT
HETATM    1  C   UNL     1      -9.953   8.869  69.023  1.00  0.00    -0.190 C  
HETATM    2  O   UNL     1      -9.130   9.882  69.602  1.00  0.00    -0.201 OA 
HETATM    3  C   UNL     1      -9.020  10.977  68.675  1.00  0.00    -0.167 C  
HETATM    4  C   UNL     1      -9.949  10.701  67.494  1.00  0.00    -0.171 C  
HETATM    5  C   UNL     1      -9.163   7.754  68.341  1.00  0.00    -0.137 C  
HETATM    6  C   UNL     1     -10.767   9.480  67.899  1.00  0.00    -0.228 C  
HETATM    7  C   UNL     1     -10.169   7.312  67.287  1.00  0.00    -0.253 C  
HETATM    8  O   UNL     1     -10.839   8.510  66.840  1.00  0.00    -0.190 OA 
ENDROOT
BRANCH   4   9
HETATM    9  O   UNL     1     -10.670  11.813  66.976  1.00  0.00    -0.225 OA 
HETATM   10  O   UNL     1     -11.391  12.883  65.192  1.00  0.00    -0.288 OA 
HETATM   11  O   UNL     1     -10.170  11.044  64.906  1.00  0.00    -0.271 OA 
HETATM   12  N   UNL     1     -10.741  11.911  65.566  1.00  0.00    -0.275 N  
ENDBRANCH   4   9
BRANCH   5  13
HETATM   13  O   UNL     1      -7.997   8.319  67.731  1.00  0.00    -0.118 OA 
HETATM   14  N   UNL     1      -6.817   7.589  67.985  1.00  0.00    -0.065 N  
HETATM   15  O   UNL     1      -5.805   8.178  67.615  1.00  0.00    -0.040 OA 
HETATM   16  O   UNL     1      -6.947   6.476  68.497  1.00  0.00    -0.074 OA 
ENDBRANCH   5  13
TORSDOF 2
ENDMDL
MODEL      132
REMARK 921   NORMALIZED FREE ENERGY PREDICTED BY IDOCK:   -2.60 KCAL/MOL
REMARK 922        TOTAL FREE ENERGY PREDICTED BY IDOCK:   -3.24 KCAL/MOL
REMARK 923 INTER-LIGAND FREE ENERGY PREDICTED BY IDOCK:   -2.86 KCAL/MOL
REMARK 924 INTRA-LIGAND FREE ENERGY PREDICTED BY IDOCK:   -0.38 KCAL/MOL
REMARK 927      BINDING AFFINITY PREDICTED BY RF-SCORE:    0.00 PKD
ROOT
HETATM    1  C   UNL     1      -8.118   8.431  70.489  1.00  0.00    -0.107 C  
HETATM    2  O   UNL     1      -7.430   7.530  69.622  1.00  0.00    -0.087 OA 
HETATM    3  C   UNL     1      -7.786   7.834  68.261  1.00  0.00    -0.119 C  
HETATM    4  C   UNL     1      -8.642   9.099  68.260  1.00  0.00    -0.129 C  
HETATM    5  C   UNL     1      -9.410   7.858  71.069  1.00  0.00    -0.152 C  
HETATM    6  C   UNL     1      -8.579   9.631  69.686  1.00  0.00    -0.187 C  
HETATM    7  C   UNL     1     -10.206   9.139  71.281  1.00  0.00    -0.329 C  
HETATM    8  O   UNL     1      -9.879  10.006  70.175  1.00  0.00    -0.241 OA 
ENDROOT
BRANCH   4   9
HETATM    9  O   UNL     1      -8.398  10.034  67.214  1.00  0.00    -0.121 OA 
HETATM   10  O   UNL     1      -9.036  10.843  65.269  1.00  0.00    -0.194 OA 
HETATM   11  O   UNL     1     -10.201   9.167  66.155  1.00  0.00    -0.272 OA 
HETATM   12  N   UNL     1      -9.297  10.000  66.123  1.00  0.00    -0.164 N  
ENDBRANCH   4   9
BRANCH   5  13
HETATM   13  O   UNL     1     -10.031   7.027  70.082  1.00  0.00    -0.181 OA 
HETATM   14  N   UNL     1     -10.169   5.681  70.482  1.00  0.00    -0.215 N  
HETATM   15  O   UNL     1     -10.530   4.948  69.566  1.00  0.00    -0.188 OA 
HETATM   16  O   UNL     1      -9.951   5.425  71.667  1.00  0.00    -0.173 OA 
ENDBRANCH   5  13
TORSDOF 2
ENDMDL
MODEL      133
REMARK 921   NORMALIZED FREE ENERGY PREDICTED BY IDOCK:   -2.59 KCAL/MOL
REMARK 922        TOTAL FREE ENERGY PREDICTED BY IDOCK:   -3.23 KCAL/MOL
REMARK 923 INTER-LIGAND FREE ENERGY PREDICTED BY IDOCK:   -2.79 KCAL/MOL
REMARK 924 INTRA-LIGAND FREE ENERGY PREDICTED BY IDOCK:   -0.43 KCAL/MOL
REMARK 927      BINDING AFFINITY PREDICTED BY RF-SCORE:    0.00 PKD
ROOT
HETATM    1  C   UNL     1     -10.624   8.522  67.779  1.00  0.00    -0.175 C  
HETATM    2  O   UNL     1     -10.922   7.384  66.969  1.00  0.00    -0.332 OA 
HETATM    3  C   UNL     1     -10.670   6.191  67.734  1.00  0.00    -0.303 C  
HETATM    4  C   UNL     1     -10.327   6.603  69.165  1.00  0.00    -0.194 C  
HETATM    5  C   UNL     1      -9.225   9.090  67.545  1.00  0.00    -0.135 C  
HETATM    6  C   UNL     1     -10.608   8.099  69.234  1.00  0.00    -0.182 C  
HETATM    7  C   UNL     1      -8.948   9.703  68.912  1.00  0.00    -0.144 C  
HETATM    8  O   UNL     1      -9.542   8.814  69.882  1.00  0.00    -0.170 OA 
ENDROOT
BRANCH   4   9
HETATM    9  O   UNL     1     -10.868   5.799  70.207  1.00  0.00    -0.299 OA 
HETATM   10  O   UNL     1     -10.497   4.685  72.069  1.00  0.00    -0.192 OA 
HETATM   11  O   UNL     1      -8.779   5.690  71.071  1.00  0.00    -0.130 OA 
HETATM   12  N   UNL     1      -9.957   5.358  71.195  1.00  0.00    -0.187 N  
ENDBRANCH   4   9
BRANCH   5  13
HETATM   13  O   UNL     1      -8.325   8.008  67.278  1.00  0.00    -0.119 OA 
HETATM   14  N   UNL     1      -7.624   8.144  66.061  1.00  0.00    -0.080 N  
HETATM   15  O   UNL     1      -7.000   7.132  65.757  1.00  0.00    -0.058 OA 
HETATM   16  O   UNL     1      -7.696   9.235  65.494  1.00  0.00    -0.093 OA 
ENDBRANCH   5  13
TORSDOF 2
ENDMDL
MODEL      134
REMARK 921   NORMALIZED FREE ENERGY PREDICTED BY IDOCK:   -2.59 KCAL/MOL
REMARK 922        TOTAL FREE ENERGY PREDICTED BY IDOCK:   -3.23 KCAL/MOL
REMARK 923 INTER-LIGAND FREE ENERGY PREDICTED BY IDOCK:   -2.79 KCAL/MOL
REMARK 924 INTRA-LIGAND FREE ENERGY PREDICTED BY IDOCK:   -0.44 KCAL/MOL
REMARK 927      BINDING AFFINITY PREDICTED BY RF-SCORE:    0.00 PKD
ROOT
HETATM    1  C   UNL     1     -10.578   5.929  71.713  1.00  0.00    -0.234 C  
HETATM    2  O   UNL     1     -10.213   6.906  72.688  1.00  0.00    -0.178 OA 
HETATM    3  C   UNL     1      -9.890   8.136  72.015  1.00  0.00    -0.232 C  
HETATM    4  C   UNL     1     -10.210   7.968  70.530  1.00  0.00    -0.198 C  
HETATM    5  C   UNL     1      -9.431   5.001  71.316  1.00  0.00    -0.154 C  
HETATM    6  C   UNL     1     -10.941   6.635  70.422  1.00  0.00    -0.290 C  
HETATM    7  C   UNL     1      -9.848   4.645  69.895  1.00  0.00    -0.226 C  
HETATM    8  O   UNL     1     -10.440   5.837  69.336  1.00  0.00    -0.232 OA 
ENDROOT
BRANCH   4   9
HETATM    9  O   UNL     1     -10.806   9.082  69.875  1.00  0.00    -0.228 OA 
HETATM   10  O   UNL     1     -10.659  10.583  68.271  1.00  0.00    -0.181 OA 
HETATM   11  O   UNL     1      -8.992   9.129  68.522  1.00  0.00    -0.132 OA 
HETATM   12  N   UNL     1     -10.078   9.638  68.798  1.00  0.00    -0.172 N  
ENDBRANCH   4   9
BRANCH   5  13
HETATM   13  O   UNL     1      -8.210   5.749  71.318  1.00  0.00    -0.118 OA 
HETATM   14  N   UNL     1      -7.272   5.297  72.270  1.00  0.00    -0.088 N  
HETATM   15  O   UNL     1      -6.312   6.054  72.388  1.00  0.00    -0.051 OA 
HETATM   16  O   UNL     1      -7.508   4.221  72.819  1.00  0.00    -0.074 OA 
ENDBRANCH   5  13
TORSDOF 2
ENDMDL
MODEL      135
REMARK 921   NORMALIZED FREE ENERGY PREDICTED BY IDOCK:   -2.55 KCAL/MOL
REMARK 922        TOTAL FREE ENERGY PREDICTED BY IDOCK:   -3.18 KCAL/MOL
REMARK 923 INTER-LIGAND FREE ENERGY PREDICTED BY IDOCK:   -2.76 KCAL/MOL
REMARK 924 INTRA-LIGAND FREE ENERGY PREDICTED BY IDOCK:   -0.43 KCAL/MOL
REMARK 927      BINDING AFFINITY PREDICTED BY RF-SCORE:    0.00 PKD
ROOT
HETATM    1  C   UNL     1      -8.663   8.083  69.235  1.00  0.00    -0.137 C  
HETATM    2  O   UNL     1      -8.140   8.753  70.382  1.00  0.00    -0.094 OA 
HETATM    3  C   UNL     1      -8.244   7.876  71.519  1.00  0.00    -0.109 C  
HETATM    4  C   UNL     1      -8.731   6.513  71.030  1.00  0.00    -0.138 C  
HETATM    5  C   UNL     1     -10.119   8.435  68.931  1.00  0.00    -0.199 C  
HETATM    6  C   UNL     1      -8.697   6.593  69.509  1.00  0.00    -0.135 C  
HETATM    7  C   UNL     1     -10.570   7.154  68.240  1.00  0.00    -0.188 C  
HETATM    8  O   UNL     1      -9.900   6.071  68.919  1.00  0.00    -0.131 OA 
ENDROOT
BRANCH   4   9
HETATM    9  O   UNL     1      -8.131   5.369  71.627  1.00  0.00    -0.113 OA 
HETATM   10  O   UNL     1      -8.430   3.435  72.636  1.00  0.00    -0.082 OA 
HETATM   11  O   UNL     1     -10.223   4.625  72.066  1.00  0.00    -0.190 OA 
HETATM   12  N   UNL     1      -9.017   4.400  72.153  1.00  0.00    -0.119 N  
ENDBRANCH   4   9
BRANCH   5  13
HETATM   13  O   UNL     1     -10.817   8.622  70.167  1.00  0.00    -0.234 OA 
HETATM   14  N   UNL     1     -11.525   9.840  70.237  1.00  0.00    -0.260 N  
HETATM   15  O   UNL     1     -11.964  10.071  71.360  1.00  0.00    -0.365 OA 
HETATM   16  O   UNL     1     -11.639  10.481  69.191  1.00  0.00    -0.261 OA 
ENDBRANCH   5  13
TORSDOF 2
ENDMDL
MODEL      136
REMARK 921   NORMALIZED FREE ENERGY PREDICTED BY IDOCK:   -2.52 KCAL/MOL
REMARK 922        TOTAL FREE ENERGY PREDICTED BY IDOCK:   -3.15 KCAL/MOL
REMARK 923 INTER-LIGAND FREE ENERGY PREDICTED BY IDOCK:   -2.73 KCAL/MOL
REMARK 924 INTRA-LIGAND FREE ENERGY PREDICTED BY IDOCK:   -0.42 KCAL/MOL
REMARK 927      BINDING AFFINITY PREDICTED BY RF-SCORE:    0.00 PKD
ROOT
HETATM    1  C   UNL     1     -10.844   9.935  66.830  1.00  0.00    -0.066 C  
HETATM    2  O   UNL     1     -10.226  10.092  65.553  1.00  0.00    -0.286 OA 
HETATM    3  C   UNL     1      -9.153   9.141  65.436  1.00  0.00    -0.214 C  
HETATM    4  C   UNL     1      -9.186   8.227  66.660  1.00  0.00    -0.179 C  
HETATM    5  C   UNL     1     -10.330  10.914  67.885  1.00  0.00    -0.187 C  
HETATM    6  C   UNL     1     -10.480   8.573  67.388  1.00  0.00    -0.280 C  
HETATM    7  C   UNL     1     -10.559  10.097  69.150  1.00  0.00    -0.224 C  
HETATM    8  O   UNL     1     -10.273   8.725  68.803  1.00  0.00    -0.197 OA 
ENDROOT
BRANCH   4   9
HETATM    9  O   UNL     1      -8.926   6.847  66.434  1.00  0.00    -0.145 OA 
HETATM   10  O   UNL     1      -7.828   5.043  67.056  1.00  0.00    -0.095 OA 
HETATM   11  O   UNL     1      -7.469   6.941  68.163  1.00  0.00    -0.094 OA 
HETATM   12  N   UNL     1      -7.989   6.236  67.300  1.00  0.00    -0.108 N  
ENDBRANCH   4   9
BRANCH   5  13
HETATM   13  O   UNL     1      -8.933  11.137  67.666  1.00  0.00    -0.137 OA 
HETATM   14  N   UNL     1      -8.580  12.502  67.620  1.00  0.00    -0.166 N  
HETATM   15  O   UNL     1      -7.422  12.681  67.252  1.00  0.00    -0.149 OA 
HETATM   16  O   UNL     1      -9.436  13.313  67.976  1.00  0.00    -0.206 OA 
ENDBRANCH   5  13
TORSDOF 2
ENDMDL
MODEL      137
REMARK 921   NORMALIZED FREE ENERGY PREDICTED BY IDOCK:   -2.51 KCAL/MOL
REMARK 922        TOTAL FREE ENERGY PREDICTED BY IDOCK:   -3.14 KCAL/MOL
REMARK 923 INTER-LIGAND FREE ENERGY PREDICTED BY IDOCK:   -2.69 KCAL/MOL
REMARK 924 INTRA-LIGAND FREE ENERGY PREDICTED BY IDOCK:   -0.44 KCAL/MOL
REMARK 927      BINDING AFFINITY PREDICTED BY RF-SCORE:    0.00 PKD
ROOT
HETATM    1  C   UNL     1      -9.216   7.065  69.127  1.00  0.00    -0.138 C  
HETATM    2  O   UNL     1      -7.927   6.465  69.255  1.00  0.00    -0.107 OA 
HETATM    3  C   UNL     1      -7.973   5.485  70.309  1.00  0.00    -0.101 C  
HETATM    4  C   UNL     1      -9.420   5.356  70.780  1.00  0.00    -0.167 C  
HETATM    5  C   UNL     1      -9.352   8.390  69.876  1.00  0.00    -0.155 C  
HETATM    6  C   UNL     1     -10.244   6.166  69.785  1.00  0.00    -0.195 C  
HETATM    7  C   UNL     1     -10.847   8.384  70.170  1.00  0.00    -0.236 C  
HETATM    8  O   UNL     1     -11.200   7.012  70.447  1.00  0.00    -0.272 OA 
ENDROOT
BRANCH   4   9
HETATM    9  O   UNL     1      -9.880   4.042  71.076  1.00  0.00    -0.181 OA 
HETATM   10  O   UNL     1     -10.785   2.686  72.555  1.00  0.00    -0.078 OA 
HETATM   11  O   UNL     1     -10.387   4.794  73.149  1.00  0.00    -0.160 OA 
HETATM   12  N   UNL     1     -10.392   3.836  72.378  1.00  0.00    -0.152 N  
ENDBRANCH   4   9
BRANCH   5  13
HETATM   13  O   UNL     1      -8.593   8.317  71.087  1.00  0.00    -0.123 OA 
HETATM   14  N   UNL     1      -7.571   9.286  71.173  1.00  0.00    -0.070 N  
HETATM   15  O   UNL     1      -6.816   9.097  72.122  1.00  0.00    -0.309 OA 
HETATM   16  O   UNL     1      -7.584  10.187  70.333  1.00  0.00    -0.249 OA 
ENDBRANCH   5  13
TORSDOF 2
ENDMDL
MODEL      138
REMARK 921   NORMALIZED FREE ENERGY PREDICTED BY IDOCK:   -2.47 KCAL/MOL
REMARK 922        TOTAL FREE ENERGY PREDICTED BY IDOCK:   -3.09 KCAL/MOL
REMARK 923 INTER-LIGAND FREE ENERGY PREDICTED BY IDOCK:   -2.65 KCAL/MOL
REMARK 924 INTRA-LIGAND FREE ENERGY PREDICTED BY IDOCK:   -0.44 KCAL/MOL
REMARK 927      BINDING AFFINITY PREDICTED BY RF-SCORE:    0.00 PKD
ROOT
HETATM    1  C   UNL     1      -7.948   5.016  67.292  1.00  0.00    -0.099 C  
HETATM    2  O   UNL     1      -8.402   3.930  68.100  1.00  0.00    -0.090 OA 
HETATM    3  C   UNL     1      -9.376   3.174  67.356  1.00  0.00    -0.191 C  
HETATM    4  C   UNL     1      -9.435   3.734  65.936  1.00  0.00    -0.171 C  
HETATM    5  C   UNL     1      -8.669   6.333  67.574  1.00  0.00    -0.105 C  
HETATM    6  C   UNL     1      -8.278   4.722  65.842  1.00  0.00    -0.112 C  
HETATM    7  C   UNL     1      -8.548   7.007  66.213  1.00  0.00    -0.139 C  
HETATM    8  O   UNL     1      -8.680   5.959  65.230  1.00  0.00    -0.144 OA 
ENDROOT
BRANCH   4   9
HETATM    9  O   UNL     1      -9.558   2.787  64.881  1.00  0.00    -0.138 OA 
HETATM   10  O   UNL     1     -10.662   2.146  63.088  1.00  0.00    -0.170 OA 
HETATM   11  O   UNL     1     -11.369   3.951  64.182  1.00  0.00    -0.267 OA 
HETATM   12  N   UNL     1     -10.628   2.990  63.979  1.00  0.00    -0.131 N  
ENDBRANCH   4   9
BRANCH   5  13
HETATM   13  O   UNL     1     -10.038   6.053  67.886  1.00  0.00    -0.133 OA 
HETATM   14  N   UNL     1     -10.454   6.579  69.127  1.00  0.00    -0.202 N  
HETATM   15  O   UNL     1     -11.564   6.180  69.465  1.00  0.00    -0.396 OA 
HETATM   16  O   UNL     1      -9.692   7.373  69.681  1.00  0.00    -0.163 OA 
ENDBRANCH   5  13
TORSDOF 2
ENDMDL
MODEL      139
REMARK 921   NORMALIZED FREE ENERGY PREDICTED BY IDOCK:   -2.46 KCAL/MOL
REMARK 922        TOTAL FREE ENERGY PREDICTED BY IDOCK:   -3.09 KCAL/MOL
REMARK 923 INTER-LIGAND FREE ENERGY PREDICTED BY IDOCK:   -3.57 KCAL/MOL
REMARK 924 INTRA-LIGAND FREE ENERGY PREDICTED BY IDOCK:    0.49 KCAL/MOL
REMARK 927      BINDING AFFINITY PREDICTED BY RF-SCORE:    0.00 PKD
ROOT
HETATM    1  C   UNL     1     -10.772   9.199  68.730  1.00  0.00    -0.131 C  
HETATM    2  O   UNL     1      -9.639   8.941  67.900  1.00  0.00    -0.144 OA 
HETATM    3  C   UNL     1      -8.450   9.362  68.593  1.00  0.00    -0.119 C  
HETATM    4  C   UNL     1      -8.844   9.780  70.009  1.00  0.00    -0.215 C  
HETATM    5  C   UNL     1     -11.476  10.516  68.412  1.00  0.00    -0.214 C  
HETATM    6  C   UNL     1     -10.303   9.370  70.161  1.00  0.00    -0.233 C  
HETATM    7  C   UNL     1     -12.066  10.846  69.777  1.00  0.00    -0.338 C  
HETATM    8  O   UNL     1     -11.094  10.416  70.753  1.00  0.00    -0.304 OA 
ENDROOT
BRANCH   4   9
HETATM    9  O   UNL     1      -7.958   9.401  71.056  1.00  0.00    -0.303 OA 
HETATM   10  O   UNL     1      -7.054   7.761  72.214  1.00  0.00    -0.066 OA 
HETATM   11  O   UNL     1      -8.527   7.253  70.625  1.00  0.00    -0.136 OA 
HETATM   12  N   UNL     1      -7.847   8.014  71.311  1.00  0.00    -0.086 N  
ENDBRANCH   4   9
BRANCH   5  13
HETATM   13  O   UNL     1     -10.494  11.487  68.032  1.00  0.00    -0.179 OA 
HETATM   14  N   UNL     1     -10.791  12.148  66.822  1.00  0.00    -0.238 N  
HETATM   15  O   UNL     1      -9.860  12.837  66.416  1.00  0.00    -0.257 OA 
HETATM   16  O   UNL     1     -11.921  11.983  66.358  1.00  0.00    -0.611 OA 
ENDBRANCH   5  13
TORSDOF 2
ENDMDL
MODEL      140
REMARK 921   NORMALIZED FREE ENERGY PREDICTED BY IDOCK:   -2.43 KCAL/MOL
REMARK 922        TOTAL FREE ENERGY PREDICTED BY IDOCK:   -3.04 KCAL/MOL
REMARK 923 INTER-LIGAND FREE ENERGY PREDICTED BY IDOCK:   -2.79 KCAL/MOL
REMARK 924 INTRA-LIGAND FREE ENERGY PREDICTED BY IDOCK:   -0.25 KCAL/MOL
REMARK 927      BINDING AFFINITY PREDICTED BY RF-SCORE:    0.00 PKD
ROOT
HETATM    1  C   UNL     1      -7.689   8.249  68.686  1.00  0.00    -0.114 C  
HETATM    2  O   UNL     1      -7.498   9.628  69.004  1.00  0.00    -0.071 OA 
HETATM    3  C   UNL     1      -8.509  10.032  69.944  1.00  0.00    -0.150 C  
HETATM    4  C   UNL     1      -9.303   8.794  70.356  1.00  0.00    -0.180 C  
HETATM    5  C   UNL     1      -8.480   8.021  67.399  1.00  0.00    -0.126 C  
HETATM    6  C   UNL     1      -8.548   7.612  69.760  1.00  0.00    -0.135 C  
HETATM    7  C   UNL     1      -9.115   6.671  67.704  1.00  0.00    -0.112 C  
HETATM    8  O   UNL     1      -9.435   6.684  69.111  1.00  0.00    -0.138 OA 
ENDROOT
BRANCH   4   9
HETATM    9  O   UNL     1      -9.667   8.697  71.729  1.00  0.00    -0.236 OA 
HETATM   10  O   UNL     1     -11.156   8.029  73.207  1.00  0.00    -0.251 OA 
HETATM   11  O   UNL     1     -11.590   7.717  71.046  1.00  0.00    -0.277 OA 
HETATM   12  N   UNL     1     -10.917   8.094  72.004  1.00  0.00    -0.265 N  
ENDBRANCH   4   9
BRANCH   5  13
HETATM   13  O   UNL     1      -9.478   9.042  67.282  1.00  0.00    -0.142 OA 
HETATM   14  N   UNL     1      -9.435   9.737  66.055  1.00  0.00    -0.193 N  
HETATM   15  O   UNL     1     -10.168  10.721  66.041  1.00  0.00    -0.239 OA 
HETATM   16  O   UNL     1      -8.719   9.265  65.171  1.00  0.00    -0.164 OA 
ENDBRANCH   5  13
TORSDOF 2
ENDMDL
MODEL      141
REMARK 921   NORMALIZED FREE ENERGY PREDICTED BY IDOCK:   -2.40 KCAL/MOL
REMARK 922        TOTAL FREE ENERGY PREDICTED BY IDOCK:   -3.01 KCAL/MOL
REMARK 923 INTER-LIGAND FREE ENERGY PREDICTED BY IDOCK:   -2.57 KCAL/MOL
REMARK 924 INTRA-LIGAND FREE ENERGY PREDICTED BY IDOCK:   -0.44 KCAL/MOL
REMARK 927      BINDING AFFINITY PREDICTED BY RF-SCORE:    0.00 PKD
ROOT
HETATM    1  C   UNL     1      -8.103   8.448  66.942  1.00  0.00    -0.099 C  
HETATM    2  O   UNL     1      -9.260   7.998  66.237  1.00  0.00    -0.178 OA 
HETATM    3  C   UNL     1     -10.430   8.559  66.859  1.00  0.00    -0.275 C  
HETATM    4  C   UNL     1      -9.976   9.541  67.937  1.00  0.00    -0.172 C  
HETATM    5  C   UNL     1      -7.596   7.453  67.985  1.00  0.00    -0.114 C  
HETATM    6  C   UNL     1      -8.469   9.674  67.754  1.00  0.00    -0.125 C  
HETATM    7  C   UNL     1      -6.940   8.407  68.975  1.00  0.00    -0.061 C  
HETATM    8  O   UNL     1      -7.768   9.589  69.007  1.00  0.00    -0.073 OA 
ENDROOT
BRANCH   4   9
HETATM    9  O   UNL     1     -10.718  10.750  68.054  1.00  0.00    -0.194 OA 
HETATM   10  O   UNL     1     -11.892  12.083  69.353  1.00  0.00    -0.306 OA 
HETATM   11  O   UNL     1     -11.101  10.189  70.213  1.00  0.00    -0.273 OA 
HETATM   12  N   UNL     1     -11.282  11.018  69.323  1.00  0.00    -0.235 N  
ENDBRANCH   4   9
BRANCH   5  13
HETATM   13  O   UNL     1      -8.720   6.792  68.579  1.00  0.00    -0.125 OA 
HETATM   14  N   UNL     1      -8.746   5.402  68.345  1.00  0.00    -0.099 N  
HETATM   15  O   UNL     1      -9.800   4.880  68.698  1.00  0.00    -0.157 OA 
HETATM   16  O   UNL     1      -7.730   4.897  67.864  1.00  0.00    -0.082 OA 
ENDBRANCH   5  13
TORSDOF 2
ENDMDL
MODEL      142
REMARK 921   NORMALIZED FREE ENERGY PREDICTED BY IDOCK:   -2.37 KCAL/MOL
REMARK 922        TOTAL FREE ENERGY PREDICTED BY IDOCK:   -2.98 KCAL/MOL
REMARK 923 INTER-LIGAND FREE ENERGY PREDICTED BY IDOCK:   -2.57 KCAL/MOL
REMARK 924 INTRA-LIGAND FREE ENERGY PREDICTED BY IDOCK:   -0.41 KCAL/MOL
REMARK 927      BINDING AFFINITY PREDICTED BY RF-SCORE:    0.00 PKD
ROOT
HETATM    1  C   UNL     1      -8.255   8.318  67.713  1.00  0.00    -0.127 C  
HETATM    2  O   UNL     1      -7.440   8.262  68.884  1.00  0.00    -0.088 OA 
HETATM    3  C   UNL     1      -7.583   6.962  69.486  1.00  0.00    -0.099 C  
HETATM    4  C   UNL     1      -8.430   6.094  68.557  1.00  0.00    -0.114 C  
HETATM    5  C   UNL     1      -9.620   8.963  67.946  1.00  0.00    -0.148 C  
HETATM    6  C   UNL     1      -8.588   6.905  67.277  1.00  0.00    -0.120 C  
HETATM    7  C   UNL     1     -10.441   8.260  66.872  1.00  0.00    -0.295 C  
HETATM    8  O   UNL     1      -9.947   6.905  66.809  1.00  0.00    -0.182 OA 
ENDROOT
BRANCH   4   9
HETATM    9  O   UNL     1      -8.029   4.736  68.411  1.00  0.00    -0.084 OA 
HETATM   10  O   UNL     1      -8.535   2.614  68.707  1.00  0.00    -0.062 OA 
HETATM   11  O   UNL     1      -9.989   4.157  69.383  1.00  0.00    -0.158 OA 
HETATM   12  N   UNL     1      -8.940   3.760  68.880  1.00  0.00    -0.111 N  
ENDBRANCH   4   9
BRANCH   5  13
HETATM   13  O   UNL     1     -10.081   8.610  69.255  1.00  0.00    -0.190 OA 
HETATM   14  N   UNL     1     -10.459   9.719  70.039  1.00  0.00    -0.250 N  
HETATM   15  O   UNL     1     -10.675   9.422  71.211  1.00  0.00    -0.316 OA 
HETATM   16  O   UNL     1     -10.556  10.804  69.463  1.00  0.00    -0.223 OA 
ENDBRANCH   5  13
TORSDOF 2
ENDMDL
MODEL      143
REMARK 921   NORMALIZED FREE ENERGY PREDICTED BY IDOCK:   -2.36 KCAL/MOL
REMARK 922        TOTAL FREE ENERGY PREDICTED BY IDOCK:   -2.97 KCAL/MOL
REMARK 923 INTER-LIGAND FREE ENERGY PREDICTED BY IDOCK:   -2.61 KCAL/MOL
REMARK 924 INTRA-LIGAND FREE ENERGY PREDICTED BY IDOCK:   -0.36 KCAL/MOL
REMARK 927      BINDING AFFINITY PREDICTED BY RF-SCORE:    0.00 PKD
ROOT
HETATM    1  C   UNL     1     -10.098   6.832  71.210  1.00  0.00    -0.187 C  
HETATM    2  O   UNL     1     -10.624   7.286  72.457  1.00  0.00    -0.218 OA 
HETATM    3  C   UNL     1      -9.550   7.843  73.238  1.00  0.00    -0.285 C  
HETATM    4  C   UNL     1      -8.293   7.873  72.372  1.00  0.00    -0.138 C  
HETATM    5  C   UNL     1      -9.776   5.339  71.188  1.00  0.00    -0.174 C  
HETATM    6  C   UNL     1      -8.758   7.498  70.970  1.00  0.00    -0.134 C  
HETATM    7  C   UNL     1      -8.656   5.316  70.156  1.00  0.00    -0.117 C  
HETATM    8  O   UNL     1      -7.892   6.524  70.361  1.00  0.00    -0.105 OA 
ENDROOT
BRANCH   4   9
HETATM    9  O   UNL     1      -7.465   9.025  72.487  1.00  0.00    -0.335 OA 
HETATM   10  O   UNL     1      -5.519   9.853  73.098  1.00  0.00    -0.318 OA 
HETATM   11  O   UNL     1      -5.888   7.678  73.394  1.00  0.00    -0.048 OA 
HETATM   12  N   UNL     1      -6.181   8.820  73.045  1.00  0.00    -0.070 N  
ENDBRANCH   4   9
BRANCH   5  13
HETATM   13  O   UNL     1      -9.291   4.951  72.478  1.00  0.00    -0.133 OA 
HETATM   14  N   UNL     1      -9.794   3.710  72.922  1.00  0.00    -0.134 N  
HETATM   15  O   UNL     1      -9.520   3.478  74.095  1.00  0.00    -0.092 OA 
HETATM   16  O   UNL     1     -10.397   3.024  72.095  1.00  0.00    -0.120 OA 
ENDBRANCH   5  13
TORSDOF 2
ENDMDL
MODEL      144
REMARK 921   NORMALIZED FREE ENERGY PREDICTED BY IDOCK:   -2.30 KCAL/MOL
REMARK 922        TOTAL FREE ENERGY PREDICTED BY IDOCK:   -2.91 KCAL/MOL
REMARK 923 INTER-LIGAND FREE ENERGY PREDICTED BY IDOCK:   -2.49 KCAL/MOL
REMARK 924 INTRA-LIGAND FREE ENERGY PREDICTED BY IDOCK:   -0.42 KCAL/MOL
REMARK 927      BINDING AFFINITY PREDICTED BY RF-SCORE:    0.00 PKD
ROOT
HETATM    1  C   UNL     1      -7.818   9.704  64.644  1.00  0.00    -0.133 C  
HETATM    2  O   UNL     1      -9.178   9.528  64.245  1.00  0.00    -0.229 OA 
HETATM    3  C   UNL     1     -10.021  10.301  65.118  1.00  0.00    -0.325 C  
HETATM    4  C   UNL     1      -9.126  11.132  66.037  1.00  0.00    -0.203 C  
HETATM    5  C   UNL     1      -7.297   8.593  65.554  1.00  0.00    -0.084 C  
HETATM    6  C   UNL     1      -7.713  10.954  65.495  1.00  0.00     0.057 C  
HETATM    7  C   UNL     1      -6.239   9.358  66.339  1.00  0.00    -0.064 C  
HETATM    8  O   UNL     1      -6.768  10.685  66.545  1.00  0.00    -0.099 OA 
ENDROOT
BRANCH   4   9
HETATM    9  O   UNL     1      -9.548  12.465  66.304  1.00  0.00    -0.238 OA 
HETATM   10  O   UNL     1      -9.965  14.007  67.818  1.00  0.00    -0.228 OA 
HETATM   11  O   UNL     1      -9.311  11.993  68.504  1.00  0.00    -0.191 OA 
HETATM   12  N   UNL     1      -9.611  12.841  67.666  1.00  0.00    -0.186 N  
ENDBRANCH   4   9
BRANCH   5  13
HETATM   13  O   UNL     1      -8.360   8.163  66.413  1.00  0.00    -0.107 OA 
HETATM   14  N   UNL     1      -8.887   6.901  66.070  1.00  0.00    -0.155 N  
HETATM   15  O   UNL     1      -9.909   6.628  66.693  1.00  0.00    -0.173 OA 
HETATM   16  O   UNL     1      -8.259   6.239  65.243  1.00  0.00    -0.131 OA 
ENDBRANCH   5  13
TORSDOF 2
ENDMDL
MODEL      145
REMARK 921   NORMALIZED FREE ENERGY PREDICTED BY IDOCK:   -2.26 KCAL/MOL
REMARK 922        TOTAL FREE ENERGY PREDICTED BY IDOCK:   -2.86 KCAL/MOL
REMARK 923 INTER-LIGAND FREE ENERGY PREDICTED BY IDOCK:   -3.01 KCAL/MOL
REMARK 924 INTRA-LIGAND FREE ENERGY PREDICTED BY IDOCK:    0.15 KCAL/MOL
REMARK 927      BINDING AFFINITY PREDICTED BY RF-SCORE:    0.00 PKD
ROOT
HETATM    1  C   UNL     1      -8.295  10.882  65.436  1.00  0.00    -0.051 C  
HETATM    2  O   UNL     1      -7.506  10.322  66.487  1.00  0.00    -0.104 OA 
HETATM    3  C   UNL     1      -7.575   8.887  66.405  1.00  0.00    -0.092 C  
HETATM    4  C   UNL     1      -8.340   8.516  65.135  1.00  0.00    -0.169 C  
HETATM    5  C   UNL     1      -9.705  11.275  65.872  1.00  0.00    -0.224 C  
HETATM    6  C   UNL     1      -8.522   9.824  64.375  1.00  0.00    -0.179 C  
HETATM    7  C   UNL     1     -10.451  11.119  64.553  1.00  0.00    -0.350 C  
HETATM    8  O   UNL     1      -9.867   9.978  63.891  1.00  0.00    -0.201 OA 
ENDROOT
BRANCH   4   9
HETATM    9  O   UNL     1      -7.845   7.406  64.394  1.00  0.00    -0.121 OA 
HETATM   10  O   UNL     1      -7.810   5.220  64.135  1.00  0.00    -0.087 OA 
HETATM   11  O   UNL     1      -8.999   6.072  65.813  1.00  0.00    -0.156 OA 
HETATM   12  N   UNL     1      -8.261   6.126  64.830  1.00  0.00    -0.138 N  
ENDBRANCH   4   9
BRANCH   5  13
HETATM   13  O   UNL     1     -10.172  10.328  66.839  1.00  0.00    -0.210 OA 
HETATM   14  N   UNL     1     -11.322  10.752  67.537  1.00  0.00    -0.280 N  
HETATM   15  O   UNL     1     -11.601  10.021  68.482  1.00  0.00    -0.053 OA 
HETATM   16  O   UNL     1     -11.901  11.750  67.104  1.00  0.00    -0.599 OA 
ENDBRANCH   5  13
TORSDOF 2
ENDMDL
MODEL      146
REMARK 921   NORMALIZED FREE ENERGY PREDICTED BY IDOCK:   -2.26 KCAL/MOL
REMARK 922        TOTAL FREE ENERGY PREDICTED BY IDOCK:   -2.86 KCAL/MOL
REMARK 923 INTER-LIGAND FREE ENERGY PREDICTED BY IDOCK:   -2.44 KCAL/MOL
REMARK 924 INTRA-LIGAND FREE ENERGY PREDICTED BY IDOCK:   -0.42 KCAL/MOL
REMARK 927      BINDING AFFINITY PREDICTED BY RF-SCORE:    0.00 PKD
ROOT
HETATM    1  C   UNL     1      -9.739   6.546  69.086  1.00  0.00    -0.136 C  
HETATM    2  O   UNL     1     -10.534   7.581  68.506  1.00  0.00    -0.198 OA 
HETATM    3  C   UNL     1     -10.730   7.288  67.110  1.00  0.00    -0.343 C  
HETATM    4  C   UNL     1     -10.144   5.907  66.823  1.00  0.00    -0.192 C  
HETATM    5  C   UNL     1      -8.252   6.887  69.165  1.00  0.00    -0.121 C  
HETATM    6  C   UNL     1      -9.787   5.327  68.186  1.00  0.00    -0.150 C  
HETATM    7  C   UNL     1      -7.648   5.490  69.098  1.00  0.00    -0.086 C  
HETATM    8  O   UNL     1      -8.477   4.735  68.190  1.00  0.00    -0.101 OA 
ENDROOT
BRANCH   4   9
HETATM    9  O   UNL     1     -10.884   5.069  65.943  1.00  0.00    -0.253 OA 
HETATM   10  O   UNL     1     -10.844   3.695  64.223  1.00  0.00    -0.233 OA 
HETATM   11  O   UNL     1      -8.933   4.623  64.887  1.00  0.00    -0.146 OA 
HETATM   12  N   UNL     1     -10.143   4.412  64.933  1.00  0.00    -0.156 N  
ENDBRANCH   4   9
BRANCH   5  13
HETATM   13  O   UNL     1      -7.892   7.656  68.012  1.00  0.00    -0.116 OA 
HETATM   14  N   UNL     1      -7.252   8.875  68.322  1.00  0.00    -0.078 N  
HETATM   15  O   UNL     1      -7.116   9.602  67.344  1.00  0.00    -0.084 OA 
HETATM   16  O   UNL     1      -6.893   9.035  69.490  1.00  0.00    -0.046 OA 
ENDBRANCH   5  13
TORSDOF 2
ENDMDL
MODEL      147
REMARK 921   NORMALIZED FREE ENERGY PREDICTED BY IDOCK:   -2.24 KCAL/MOL
REMARK 922        TOTAL FREE ENERGY PREDICTED BY IDOCK:   -2.84 KCAL/MOL
REMARK 923 INTER-LIGAND FREE ENERGY PREDICTED BY IDOCK:   -2.66 KCAL/MOL
REMARK 924 INTRA-LIGAND FREE ENERGY PREDICTED BY IDOCK:   -0.18 KCAL/MOL
REMARK 927      BINDING AFFINITY PREDICTED BY RF-SCORE:    0.00 PKD
ROOT
HETATM    1  C   UNL     1      -8.083   8.916  69.664  1.00  0.00    -0.104 C  
HETATM    2  O   UNL     1      -9.040   8.494  70.636  1.00  0.00    -0.144 OA 
HETATM    3  C   UNL     1      -9.921   7.530  70.031  1.00  0.00    -0.186 C  
HETATM    4  C   UNL     1      -9.399   7.216  68.630  1.00  0.00    -0.134 C  
HETATM    5  C   UNL     1      -8.457  10.221  68.962  1.00  0.00    -0.150 C  
HETATM    6  C   UNL     1      -8.039   7.897  68.543  1.00  0.00    -0.123 C  
HETATM    7  C   UNL     1      -7.756  10.021  67.624  1.00  0.00    -0.091 C  
HETATM    8  O   UNL     1      -7.880   8.618  67.308  1.00  0.00    -0.096 OA 
ENDROOT
BRANCH   4   9
HETATM    9  O   UNL     1      -9.464   5.857  68.214  1.00  0.00    -0.115 OA 
HETATM   10  O   UNL     1     -10.306   4.390  66.805  1.00  0.00    -0.155 OA 
HETATM   11  O   UNL     1     -10.932   6.518  66.623  1.00  0.00    -0.293 OA 
HETATM   12  N   UNL     1     -10.313   5.577  67.118  1.00  0.00    -0.226 N  
ENDBRANCH   4   9
BRANCH   5  13
HETATM   13  O   UNL     1      -9.879  10.263  68.793  1.00  0.00    -0.165 OA 
HETATM   14  N   UNL     1     -10.390  11.569  68.632  1.00  0.00    -0.207 N  
HETATM   15  O   UNL     1     -11.616  11.607  68.673  1.00  0.00    -0.259 OA 
HETATM   16  O   UNL     1      -9.571  12.470  68.443  1.00  0.00    -0.217 OA 
ENDBRANCH   5  13
TORSDOF 2
ENDMDL
MODEL      148
REMARK 921   NORMALIZED FREE ENERGY PREDICTED BY IDOCK:   -2.23 KCAL/MOL
REMARK 922        TOTAL FREE ENERGY PREDICTED BY IDOCK:   -2.83 KCAL/MOL
REMARK 923 INTER-LIGAND FREE ENERGY PREDICTED BY IDOCK:   -2.43 KCAL/MOL
REMARK 924 INTRA-LIGAND FREE ENERGY PREDICTED BY IDOCK:   -0.40 KCAL/MOL
REMARK 927      BINDING AFFINITY PREDICTED BY RF-SCORE:    0.00 PKD
ROOT
HETATM    1  C   UNL     1     -10.548  12.811  67.344  1.00  0.00    -0.229 C  
HETATM    2  O   UNL     1      -9.572  12.599  66.324  1.00  0.00    -0.252 OA 
HETATM    3  C   UNL     1      -8.282  12.993  66.827  1.00  0.00     0.124 C  
HETATM    4  C   UNL     1      -8.431  13.342  68.307  1.00  0.00    -0.160 C  
HETATM    5  C   UNL     1     -11.292  14.139  67.212  1.00  0.00    -0.332 C  
HETATM    6  C   UNL     1      -9.845  12.918  68.683  1.00  0.00    -0.067 C  
HETATM    7  C   UNL     1     -11.643  14.401  68.671  1.00  0.00    -0.314 C  
HETATM    8  O   UNL     1     -10.522  13.931  69.447  1.00  0.00    -0.058 OA 
ENDROOT
BRANCH   4   9
HETATM    9  O   UNL     1      -7.382  12.918  69.171  1.00  0.00     0.000 OA 
HETATM   10  O   UNL     1      -5.676  13.499  70.435  1.00  0.00    -0.134 OA 
HETATM   11  O   UNL     1      -6.779  15.093  69.341  1.00  0.00    -0.136 OA 
HETATM   12  N   UNL     1      -6.546  13.936  69.686  1.00  0.00    -0.111 N  
ENDBRANCH   4   9
BRANCH   5  13
HETATM   13  O   UNL     1     -10.385  15.131  66.718  1.00  0.00    -0.263 OA 
HETATM   14  N   UNL     1     -10.850  15.798  65.565  1.00  0.00    -0.346 N  
HETATM   15  O   UNL     1      -9.992  16.508  65.049  1.00  0.00    -0.358 OA 
HETATM   16  O   UNL     1     -12.027  15.617  65.251  1.00  0.00     0.204 OA 
ENDBRANCH   5  13
TORSDOF 2
ENDMDL
MODEL      149
REMARK 921   NORMALIZED FREE ENERGY PREDICTED BY IDOCK:   -2.21 KCAL/MOL
REMARK 922        TOTAL FREE ENERGY PREDICTED BY IDOCK:   -2.80 KCAL/MOL
REMARK 923 INTER-LIGAND FREE ENERGY PREDICTED BY IDOCK:   -2.41 KCAL/MOL
REMARK 924 INTRA-LIGAND FREE ENERGY PREDICTED BY IDOCK:   -0.39 KCAL/MOL
REMARK 927      BINDING AFFINITY PREDICTED BY RF-SCORE:    0.00 PKD
ROOT
HETATM    1  C   UNL     1      -7.168  10.162  68.318  1.00  0.00    -0.080 C  
HETATM    2  O   UNL     1      -7.108  10.550  66.946  1.00  0.00    -0.092 OA 
HETATM    3  C   UNL     1      -8.410  11.005  66.535  1.00  0.00    -0.163 C  
HETATM    4  C   UNL     1      -9.315  11.041  67.765  1.00  0.00    -0.158 C  
HETATM    5  C   UNL     1      -7.370   8.662  68.523  1.00  0.00    -0.085 C  
HETATM    6  C   UNL     1      -8.395  10.786  68.952  1.00  0.00    -0.147 C  
HETATM    7  C   UNL     1      -8.088   8.664  69.866  1.00  0.00    -0.111 C  
HETATM    8  O   UNL     1      -8.951   9.820  69.862  1.00  0.00    -0.206 OA 
ENDROOT
BRANCH   4   9
HETATM    9  O   UNL     1     -10.206  12.146  67.869  1.00  0.00    -0.189 OA 
HETATM   10  O   UNL     1     -12.264  12.894  67.640  1.00  0.00    -0.268 OA 
HETATM   11  O   UNL     1     -11.842  10.770  67.127  1.00  0.00    -0.204 OA 
HETATM   12  N   UNL     1     -11.552  11.902  67.510  1.00  0.00    -0.319 N  
ENDBRANCH   4   9
BRANCH   5  13
HETATM   13  O   UNL     1      -8.225   8.165  67.487  1.00  0.00    -0.120 OA 
HETATM   14  N   UNL     1      -7.629   7.160  66.696  1.00  0.00    -0.091 N  
HETATM   15  O   UNL     1      -8.297   6.876  65.706  1.00  0.00    -0.132 OA 
HETATM   16  O   UNL     1      -6.566   6.687  67.101  1.00  0.00    -0.047 OA 
ENDBRANCH   5  13
TORSDOF 2
ENDMDL
MODEL      150
REMARK 921   NORMALIZED FREE ENERGY PREDICTED BY IDOCK:   -2.19 KCAL/MOL
REMARK 922        TOTAL FREE ENERGY PREDICTED BY IDOCK:   -2.78 KCAL/MOL
REMARK 923 INTER-LIGAND FREE ENERGY PREDICTED BY IDOCK:   -2.39 KCAL/MOL
REMARK 924 INTRA-LIGAND FREE ENERGY PREDICTED BY IDOCK:   -0.39 KCAL/MOL
REMARK 927      BINDING AFFINITY PREDICTED BY RF-SCORE:    0.00 PKD
ROOT
HETATM    1  C   UNL     1      -9.331   8.583  69.912  1.00  0.00    -0.159 C  
HETATM    2  O   UNL     1      -7.908   8.658  69.822  1.00  0.00    -0.088 OA 
HETATM    3  C   UNL     1      -7.417   7.445  69.222  1.00  0.00    -0.092 C  
HETATM    4  C   UNL     1      -8.616   6.612  68.773  1.00  0.00    -0.122 C  
HETATM    5  C   UNL     1      -9.836   8.118  71.277  1.00  0.00    -0.164 C  
HETATM    6  C   UNL     1      -9.828   7.517  68.956  1.00  0.00    -0.170 C  
HETATM    7  C   UNL     1     -11.153   7.467  70.873  1.00  0.00    -0.263 C  
HETATM    8  O   UNL     1     -10.916   6.830  69.600  1.00  0.00    -0.253 OA 
ENDROOT
BRANCH   4   9
HETATM    9  O   UNL     1      -8.496   5.944  67.523  1.00  0.00    -0.105 OA 
HETATM   10  O   UNL     1      -8.213   4.035  66.463  1.00  0.00    -0.100 OA 
HETATM   11  O   UNL     1      -8.219   4.024  68.689  1.00  0.00    -0.074 OA 
HETATM   12  N   UNL     1      -8.291   4.545  67.577  1.00  0.00    -0.100 N  
ENDBRANCH   4   9
BRANCH   5  13
HETATM   13  O   UNL     1      -8.924   7.146  71.800  1.00  0.00    -0.129 OA 
HETATM   14  N   UNL     1      -8.173   7.611  72.900  1.00  0.00    -0.111 N  
HETATM   15  O   UNL     1      -7.272   6.840  73.221  1.00  0.00    -0.076 OA 
HETATM   16  O   UNL     1      -8.524   8.678  73.406  1.00  0.00    -0.385 OA 
ENDBRANCH   5  13
TORSDOF 2
ENDMDL
MODEL      151
REMARK 921   NORMALIZED FREE ENERGY PREDICTED BY IDOCK:   -2.19 KCAL/MOL
REMARK 922        TOTAL FREE ENERGY PREDICTED BY IDOCK:   -2.78 KCAL/MOL
REMARK 923 INTER-LIGAND FREE ENERGY PREDICTED BY IDOCK:   -2.35 KCAL/MOL
REMARK 924 INTRA-LIGAND FREE ENERGY PREDICTED BY IDOCK:   -0.42 KCAL/MOL
REMARK 927      BINDING AFFINITY PREDICTED BY RF-SCORE:    0.00 PKD
ROOT
HETATM    1  C   UNL     1     -10.375   5.560  70.160  1.00  0.00    -0.284 C  
HETATM    2  O   UNL     1     -10.146   6.534  69.142  1.00  0.00    -0.157 OA 
HETATM    3  C   UNL     1      -8.766   6.469  68.739  1.00  0.00    -0.123 C  
HETATM    4  C   UNL     1      -8.116   5.281  69.446  1.00  0.00    -0.092 C  
HETATM    5  C   UNL     1     -10.299   6.125  71.577  1.00  0.00    -0.209 C  
HETATM    6  C   UNL     1      -9.262   4.532  70.116  1.00  0.00    -0.130 C  
HETATM    7  C   UNL     1      -9.856   4.885  72.343  1.00  0.00    -0.161 C  
HETATM    8  O   UNL     1      -8.947   4.177  71.474  1.00  0.00    -0.112 OA 
ENDROOT
BRANCH   4   9
HETATM    9  O   UNL     1      -7.203   4.503  68.679  1.00  0.00    -0.055 OA 
HETATM   10  O   UNL     1      -5.183   3.644  68.519  1.00  0.00    -0.010 OA 
HETATM   11  O   UNL     1      -5.672   4.884  70.302  1.00  0.00    -0.015 OA 
HETATM   12  N   UNL     1      -5.909   4.338  69.225  1.00  0.00    -0.017 N  
ENDBRANCH   4   9
BRANCH   5  13
HETATM   13  O   UNL     1      -9.288   7.139  71.617  1.00  0.00    -0.152 OA 
HETATM   14  N   UNL     1      -9.732   8.358  72.170  1.00  0.00    -0.271 N  
HETATM   15  O   UNL     1      -8.919   9.267  72.031  1.00  0.00    -0.251 OA 
HETATM   16  O   UNL     1     -10.828   8.350  72.734  1.00  0.00    -0.312 OA 
ENDBRANCH   5  13
TORSDOF 2
ENDMDL
MODEL      152
REMARK 921   NORMALIZED FREE ENERGY PREDICTED BY IDOCK:   -2.12 KCAL/MOL
REMARK 922        TOTAL FREE ENERGY PREDICTED BY IDOCK:   -2.70 KCAL/MOL
REMARK 923 INTER-LIGAND FREE ENERGY PREDICTED BY IDOCK:   -3.79 KCAL/MOL
REMARK 924 INTRA-LIGAND FREE ENERGY PREDICTED BY IDOCK:    1.09 KCAL/MOL
REMARK 927      BINDING AFFINITY PREDICTED BY RF-SCORE:    0.00 PKD
ROOT
HETATM    1  C   UNL     1     -10.963  14.238  70.546  1.00  0.00     0.375 C  
HETATM    2  O   UNL     1      -9.947  13.989  69.575  1.00  0.00     0.214 OA 
HETATM    3  C   UNL     1     -10.156  14.861  68.450  1.00  0.00    -0.225 C  
HETATM    4  C   UNL     1     -11.291  15.823  68.794  1.00  0.00    -0.362 C  
HETATM    5  C   UNL     1     -12.142  13.271  70.462  1.00  0.00    -0.314 C  
HETATM    6  C   UNL     1     -11.583  15.594  70.272  1.00  0.00    -0.356 C  
HETATM    7  C   UNL     1     -13.258  14.151  71.011  1.00  0.00    -0.272 C  
HETATM    8  O   UNL     1     -12.994  15.485  70.528  1.00  0.00    -0.427 OA 
ENDROOT
BRANCH   4   9
HETATM    9  O   UNL     1     -11.134  17.174  68.372  1.00  0.00    -0.291 OA 
HETATM   10  O   UNL     1     -10.105  18.588  67.035  1.00  0.00    -0.324 OA 
HETATM   11  O   UNL     1      -9.548  16.435  66.936  1.00  0.00    -0.232 OA 
HETATM   12  N   UNL     1     -10.174  17.406  67.359  1.00  0.00    -0.316 N  
ENDBRANCH   4   9
BRANCH   5  13
HETATM   13  O   UNL     1     -12.376  12.946  69.087  1.00  0.00    -0.114 OA 
HETATM   14  N   UNL     1     -12.135  11.591  68.777  1.00  0.00    -0.263 N  
HETATM   15  O   UNL     1     -12.160  11.368  67.570  1.00  0.00    -0.592 OA 
HETATM   16  O   UNL     1     -11.968  10.822  69.725  1.00  0.00    -0.294 OA 
ENDBRANCH   5  13
TORSDOF 2
ENDMDL
MODEL      153
REMARK 921   NORMALIZED FREE ENERGY PREDICTED BY IDOCK:   -2.07 KCAL/MOL
REMARK 922        TOTAL FREE ENERGY PREDICTED BY IDOCK:   -2.65 KCAL/MOL
REMARK 923 INTER-LIGAND FREE ENERGY PREDICTED BY IDOCK:   -2.47 KCAL/MOL
REMARK 924 INTRA-LIGAND FREE ENERGY PREDICTED BY IDOCK:   -0.18 KCAL/MOL
REMARK 927      BINDING AFFINITY PREDICTED BY RF-SCORE:    0.00 PKD
ROOT
HETATM    1  C   UNL     1      -9.875  10.546  66.801  1.00  0.00    -0.193 C  
HETATM    2  O   UNL     1      -9.676  10.590  68.214  1.00  0.00    -0.147 OA 
HETATM    3  C   UNL     1      -8.381  11.159  68.483  1.00  0.00    -0.154 C  
HETATM    4  C   UNL     1      -7.784  11.637  67.161  1.00  0.00    -0.159 C  
HETATM    5  C   UNL     1      -9.539   9.192  66.177  1.00  0.00    -0.266 C  
HETATM    6  C   UNL     1      -8.906  11.505  66.138  1.00  0.00    -0.167 C  
HETATM    7  C   UNL     1      -9.143   9.630  64.773  1.00  0.00    -0.231 C  
HETATM    8  O   UNL     1      -8.450  10.888  64.921  1.00  0.00    -0.110 OA 
ENDROOT
BRANCH   4   9
HETATM    9  O   UNL     1      -7.083  12.875  67.188  1.00  0.00    -0.106 OA 
HETATM   10  O   UNL     1      -5.135  13.899  67.256  1.00  0.00    -0.306 OA 
HETATM   11  O   UNL     1      -5.168  11.673  67.294  1.00  0.00    -0.058 OA 
HETATM   12  N   UNL     1      -5.672  12.795  67.253  1.00  0.00    -0.071 N  
ENDBRANCH   4   9
BRANCH   5  13
HETATM   13  O   UNL     1      -8.420   8.628  66.871  1.00  0.00    -0.110 OA 
HETATM   14  N   UNL     1      -8.785   7.709  67.878  1.00  0.00    -0.125 N  
HETATM   15  O   UNL     1      -7.837   7.375  68.582  1.00  0.00    -0.117 OA 
HETATM   16  O   UNL     1      -9.961   7.344  67.901  1.00  0.00    -0.152 OA 
ENDBRANCH   5  13
TORSDOF 2
ENDMDL
MODEL      154
REMARK 921   NORMALIZED FREE ENERGY PREDICTED BY IDOCK:   -1.91 KCAL/MOL
REMARK 922        TOTAL FREE ENERGY PREDICTED BY IDOCK:   -2.47 KCAL/MOL
REMARK 923 INTER-LIGAND FREE ENERGY PREDICTED BY IDOCK:   -2.34 KCAL/MOL
REMARK 924 INTRA-LIGAND FREE ENERGY PREDICTED BY IDOCK:   -0.13 KCAL/MOL
REMARK 927      BINDING AFFINITY PREDICTED BY RF-SCORE:    0.00 PKD
ROOT
HETATM    1  C   UNL     1      -8.183   8.312  70.362  1.00  0.00    -0.114 C  
HETATM    2  O   UNL     1      -8.515   9.051  71.537  1.00  0.00    -0.308 OA 
HETATM    3  C   UNL     1      -8.150   8.275  72.693  1.00  0.00    -0.152 C  
HETATM    4  C   UNL     1      -7.410   7.026  72.217  1.00  0.00    -0.085 C  
HETATM    5  C   UNL     1      -9.359   7.534  69.775  1.00  0.00    -0.150 C  
HETATM    6  C   UNL     1      -7.178   7.236  70.726  1.00  0.00    -0.069 C  
HETATM    7  C   UNL     1      -8.618   6.386  69.102  1.00  0.00    -0.125 C  
HETATM    8  O   UNL     1      -7.506   6.062  69.963  1.00  0.00    -0.078 OA 
ENDROOT
BRANCH   4   9
HETATM    9  O   UNL     1      -6.286   6.617  72.990  1.00  0.00    -0.061 OA 
HETATM   10  O   UNL     1      -5.312   5.007  74.131  1.00  0.00    -0.016 OA 
HETATM   11  O   UNL     1      -7.309   4.613  73.232  1.00  0.00    -0.078 OA 
HETATM   12  N   UNL     1      -6.318   5.294  73.490  1.00  0.00    -0.059 N  
ENDBRANCH   4   9
BRANCH   5  13
HETATM   13  O   UNL     1     -10.178   7.055  70.848  1.00  0.00    -0.197 OA 
HETATM   14  N   UNL     1     -11.482   6.695  70.446  1.00  0.00    -0.362 N  
HETATM   15  O   UNL     1     -12.225   6.463  71.395  1.00  0.00    -0.292 OA 
HETATM   16  O   UNL     1     -11.694   6.627  69.234  1.00  0.00    -0.189 OA 
ENDBRANCH   5  13
TORSDOF 2
ENDMDL
MODEL      155
REMARK 921   NORMALIZED FREE ENERGY PREDICTED BY IDOCK:   -1.83 KCAL/MOL
REMARK 922        TOTAL FREE ENERGY PREDICTED BY IDOCK:   -2.37 KCAL/MOL
REMARK 923 INTER-LIGAND FREE ENERGY PREDICTED BY IDOCK:   -2.83 KCAL/MOL
REMARK 924 INTRA-LIGAND FREE ENERGY PREDICTED BY IDOCK:    0.46 KCAL/MOL
REMARK 927      BINDING AFFINITY PREDICTED BY RF-SCORE:    0.00 PKD
ROOT
HETATM    1  C   UNL     1     -10.784  10.537  66.704  1.00  0.00    -0.155 C  
HETATM    2  O   UNL     1     -11.019  10.446  68.109  1.00  0.00    -0.243 OA 
HETATM    3  C   UNL     1      -9.849  10.913  68.806  1.00  0.00    -0.196 C  
HETATM    4  C   UNL     1      -8.867  11.468  67.776  1.00  0.00    -0.153 C  
HETATM    5  C   UNL     1     -10.316   9.226  66.075  1.00  0.00     0.061 C  
HETATM    6  C   UNL     1      -9.632  11.492  66.459  1.00  0.00    -0.205 C  
HETATM    7  C   UNL     1      -9.503   9.761  64.903  1.00  0.00    -0.265 C  
HETATM    8  O   UNL     1      -8.850  10.958  65.376  1.00  0.00    -0.193 OA 
ENDROOT
BRANCH   4   9
HETATM    9  O   UNL     1      -8.170  12.656  68.135  1.00  0.00    -0.155 OA 
HETATM   10  O   UNL     1      -8.291  14.803  68.607  1.00  0.00    -0.152 OA 
HETATM   11  O   UNL     1     -10.164  13.725  68.076  1.00  0.00    -0.235 OA 
HETATM   12  N   UNL     1      -8.955  13.823  68.281  1.00  0.00    -0.185 N  
ENDBRANCH   4   9
BRANCH   5  13
HETATM   13  O   UNL     1      -9.476   8.539  67.009  1.00  0.00    -0.153 OA 
HETATM   14  N   UNL     1      -9.967   7.271  67.384  1.00  0.00    -0.158 N  
HETATM   15  O   UNL     1      -9.341   6.775  68.316  1.00  0.00    -0.126 OA 
HETATM   16  O   UNL     1     -10.910   6.821  66.730  1.00  0.00    -0.320 OA 
ENDBRANCH   5  13
TORSDOF 2
ENDMDL
MODEL      156
REMARK 921   NORMALIZED FREE ENERGY PREDICTED BY IDOCK:   -1.82 KCAL/MOL
REMARK 922        TOTAL FREE ENERGY PREDICTED BY IDOCK:   -2.37 KCAL/MOL
REMARK 923 INTER-LIGAND FREE ENERGY PREDICTED BY IDOCK:   -3.04 KCAL/MOL
REMARK 924 INTRA-LIGAND FREE ENERGY PREDICTED BY IDOCK:    0.67 KCAL/MOL
REMARK 927      BINDING AFFINITY PREDICTED BY RF-SCORE:    0.00 PKD
ROOT
HETATM    1  C   UNL     1      -9.317   6.700  69.749  1.00  0.00    -0.145 C  
HETATM    2  O   UNL     1      -8.336   7.651  70.163  1.00  0.00    -0.126 OA 
HETATM    3  C   UNL     1      -8.803   8.972  69.834  1.00  0.00    -0.158 C  
HETATM    4  C   UNL     1     -10.233   8.858  69.308  1.00  0.00    -0.209 C  
HETATM    5  C   UNL     1      -9.031   6.079  68.383  1.00  0.00    -0.114 C  
HETATM    6  C   UNL     1     -10.642   7.412  69.557  1.00  0.00    -0.237 C  
HETATM    7  C   UNL     1     -10.448   5.756  67.928  1.00  0.00    -0.228 C  
HETATM    8  O   UNL     1     -11.282   6.832  68.407  1.00  0.00    -0.174 OA 
ENDROOT
BRANCH   4   9
HETATM    9  O   UNL     1     -11.148   9.865  69.725  1.00  0.00    -0.239 OA 
HETATM   10  O   UNL     1     -12.255  10.787  71.389  1.00  0.00    -0.338 OA 
HETATM   11  O   UNL     1     -10.960   9.028  71.819  1.00  0.00    -0.335 OA 
HETATM   12  N   UNL     1     -11.476   9.883  71.101  1.00  0.00    -0.375 N  
ENDBRANCH   4   9
BRANCH   5  13
HETATM   13  O   UNL     1      -8.437   7.073  67.539  1.00  0.00    -0.121 OA 
HETATM   14  N   UNL     1      -7.618   6.535  66.524  1.00  0.00    -0.089 N  
HETATM   15  O   UNL     1      -6.974   7.394  65.928  1.00  0.00    -0.059 OA 
HETATM   16  O   UNL     1      -7.676   5.318  66.345  1.00  0.00    -0.090 OA 
ENDBRANCH   5  13
TORSDOF 2
ENDMDL
MODEL      157
REMARK 921   NORMALIZED FREE ENERGY PREDICTED BY IDOCK:   -1.04 KCAL/MOL
REMARK 922        TOTAL FREE ENERGY PREDICTED BY IDOCK:   -1.50 KCAL/MOL
REMARK 923 INTER-LIGAND FREE ENERGY PREDICTED BY IDOCK:   -1.98 KCAL/MOL
REMARK 924 INTRA-LIGAND FREE ENERGY PREDICTED BY IDOCK:    0.48 KCAL/MOL
REMARK 927      BINDING AFFINITY PREDICTED BY RF-SCORE:    0.00 PKD
ROOT
HETATM    1  C   UNL     1      -7.240   7.751  67.705  1.00  0.00    -0.091 C  
HETATM    2  O   UNL     1      -7.666   7.947  66.356  1.00  0.00    -0.092 OA 
HETATM    3  C   UNL     1      -8.493   9.123  66.297  1.00  0.00    -0.124 C  
HETATM    4  C   UNL     1      -8.471   9.795  67.669  1.00  0.00    -0.122 C  
HETATM    5  C   UNL     1      -8.101   6.757  68.481  1.00  0.00    -0.120 C  
HETATM    6  C   UNL     1      -7.406   9.052  68.466  1.00  0.00    -0.077 C  
HETATM    7  C   UNL     1      -7.917   7.285  69.898  1.00  0.00    -0.122 C  
HETATM    8  O   UNL     1      -7.861   8.723  69.790  1.00  0.00    -0.084 OA 
ENDROOT
BRANCH   4   9
HETATM    9  O   UNL     1      -8.408  11.216  67.683  1.00  0.00    -0.119 OA 
HETATM   10  O   UNL     1      -7.216  13.021  67.274  1.00  0.00    -0.138 OA 
HETATM   11  O   UNL     1      -6.288  11.031  66.912  1.00  0.00    -0.083 OA 
HETATM   12  N   UNL     1      -7.192  11.794  67.251  1.00  0.00    -0.132 N  
ENDBRANCH   4   9
BRANCH   5  13
HETATM   13  O   UNL     1      -9.463   6.895  68.058  1.00  0.00    -0.126 OA 
HETATM   14  N   UNL     1      -9.940   5.789  67.323  1.00  0.00    -0.140 N  
HETATM   15  O   UNL     1     -11.037   5.996  66.813  1.00  0.00    -0.291 OA 
HETATM   16  O   UNL     1      -9.237   4.778  67.315  1.00  0.00    -0.119 OA 
ENDBRANCH   5  13
TORSDOF 2
ENDMDL
MODEL      158
REMARK 921   NORMALIZED FREE ENERGY PREDICTED BY IDOCK:   -0.98 KCAL/MOL
REMARK 922        TOTAL FREE ENERGY PREDICTED BY IDOCK:   -1.43 KCAL/MOL
REMARK 923 INTER-LIGAND FREE ENERGY PREDICTED BY IDOCK:   -1.01 KCAL/MOL
REMARK 924 INTRA-LIGAND FREE ENERGY PREDICTED BY IDOCK:   -0.42 KCAL/MOL
REMARK 927      BINDING AFFINITY PREDICTED BY RF-SCORE:    0.00 PKD
ROOT
HETATM    1  C   UNL     1     -11.610  14.201  68.752  1.00  0.00    -0.327 C  
HETATM    2  O   UNL     1     -10.659  15.092  69.336  1.00  0.00    -0.241 OA 
HETATM    3  C   UNL     1     -10.157  15.970  68.312  1.00  0.00    -0.229 C  
HETATM    4  C   UNL     1     -10.946  15.712  67.030  1.00  0.00    -0.261 C  
HETATM    5  C   UNL     1     -11.023  12.844  68.368  1.00  0.00    -0.258 C  
HETATM    6  C   UNL     1     -12.083  14.781  67.434  1.00  0.00    -0.091 C  
HETATM    7  C   UNL     1     -11.944  12.464  67.216  1.00  0.00    -0.176 C  
HETATM    8  O   UNL     1     -12.234  13.689  66.510  1.00  0.00    -0.419 OA 
ENDROOT
BRANCH   4   9
HETATM    9  O   UNL     1     -11.296  16.854  66.255  1.00  0.00     0.426 OA 
HETATM   10  O   UNL     1     -11.260  17.837  64.286  1.00  0.00    -0.086 OA 
HETATM   11  O   UNL     1     -10.299  15.840  64.494  1.00  0.00    -0.245 OA 
HETATM   12  N   UNL     1     -10.911  16.829  64.894  1.00  0.00    -0.236 N  
ENDBRANCH   4   9
BRANCH   5  13
HETATM   13  O   UNL     1      -9.680  13.035  67.908  1.00  0.00    -0.205 OA 
HETATM   14  N   UNL     1      -8.701  12.603  68.827  1.00  0.00     0.078 N  
HETATM   15  O   UNL     1      -7.565  12.938  68.504  1.00  0.00    -0.126 OA 
HETATM   16  O   UNL     1      -9.091  11.938  69.788  1.00  0.00     1.384 OA 
ENDBRANCH   5  13
TORSDOF 2
ENDMDL
MODEL      159
REMARK 921   NORMALIZED FREE ENERGY PREDICTED BY IDOCK:   -0.60 KCAL/MOL
REMARK 922        TOTAL FREE ENERGY PREDICTED BY IDOCK:   -1.01 KCAL/MOL
REMARK 923 INTER-LIGAND FREE ENERGY PREDICTED BY IDOCK:   -0.57 KCAL/MOL
REMARK 924 INTRA-LIGAND FREE ENERGY PREDICTED BY IDOCK:   -0.44 KCAL/MOL
REMARK 927      BINDING AFFINITY PREDICTED BY RF-SCORE:    0.00 PKD
ROOT
HETATM    1  C   UNL     1      -5.345  16.142  69.039  1.00  0.00    -0.109 C  
HETATM    2  O   UNL     1      -6.053  16.506  70.225  1.00  0.00    -0.151 OA 
HETATM    3  C   UNL     1      -6.733  15.344  70.734  1.00  0.00     0.628 C  
HETATM    4  C   UNL     1      -6.312  14.137  69.897  1.00  0.00    -0.141 C  
HETATM    5  C   UNL     1      -6.104  16.455  67.751  1.00  0.00    -0.133 C  
HETATM    6  C   UNL     1      -5.179  14.636  69.009  1.00  0.00    -0.090 C  
HETATM    7  C   UNL     1      -5.531  15.386  66.830  1.00  0.00     1.074 C  
HETATM    8  O   UNL     1      -5.341  14.210  67.645  1.00  0.00    -0.307 OA 
ENDROOT
BRANCH   4   9
HETATM    9  O   UNL     1      -6.088  12.920  70.600  1.00  0.00    -0.146 OA 
HETATM   10  O   UNL     1      -6.434  10.748  70.700  1.00  0.00    -0.326 OA 
HETATM   11  O   UNL     1      -7.352  11.895  69.027  1.00  0.00    -0.104 OA 
HETATM   12  N   UNL     1      -6.683  11.761  70.051  1.00  0.00     0.062 N  
ENDBRANCH   4   9
BRANCH   5  13
HETATM   13  O   UNL     1      -7.503  16.242  67.975  1.00  0.00    -0.131 OA 
HETATM   14  N   UNL     1      -8.291  17.393  67.766  1.00  0.00    -0.214 N  
HETATM   15  O   UNL     1      -9.452  17.247  68.136  1.00  0.00    -0.262 OA 
HETATM   16  O   UNL     1      -7.743  18.355  67.226  1.00  0.00    -0.219 OA 
ENDBRANCH   5  13
TORSDOF 2
ENDMDL
MODEL      160
REMARK 921   NORMALIZED FREE ENERGY PREDICTED BY IDOCK:   -0.10 KCAL/MOL
REMARK 922        TOTAL FREE ENERGY PREDICTED BY IDOCK:   -0.44 KCAL/MOL
REMARK 923 INTER-LIGAND FREE ENERGY PREDICTED BY IDOCK:   -1.07 KCAL/MOL
REMARK 924 INTRA-LIGAND FREE ENERGY PREDICTED BY IDOCK:    0.63 KCAL/MOL
REMARK 927      BINDING AFFINITY PREDICTED BY RF-SCORE:    0.00 PKD
ROOT
HETATM    1  C   UNL     1      -8.852  13.748  66.563  1.00  0.00     0.020 C  
HETATM    2  O   UNL     1      -7.613  13.041  66.619  1.00  0.00     0.319 OA 
HETATM    3  C   UNL     1      -7.449  12.496  67.940  1.00  0.00    -0.120 C  
HETATM    4  C   UNL     1      -8.732  12.753  68.728  1.00  0.00     0.182 C  
HETATM    5  C   UNL     1      -8.709  15.253  66.786  1.00  0.00    -0.270 C  
HETATM    6  C   UNL     1      -9.731  13.291  67.711  1.00  0.00    -0.217 C  
HETATM    7  C   UNL     1     -10.076  15.572  67.378  1.00  0.00    -0.246 C  
HETATM    8  O   UNL     1     -10.431  14.445  68.207  1.00  0.00    -0.234 OA 
ENDROOT
BRANCH   4   9
HETATM    9  O   UNL     1      -9.183  11.702  69.576  1.00  0.00     0.569 OA 
HETATM   10  O   UNL     1      -9.590   9.551  69.802  1.00  0.00    -0.187 OA 
HETATM   11  O   UNL     1      -8.856  10.293  67.836  1.00  0.00    -0.122 OA 
HETATM   12  N   UNL     1      -9.208  10.407  69.009  1.00  0.00    -0.179 N  
ENDBRANCH   4   9
BRANCH   5  13
HETATM   13  O   UNL     1      -7.670  15.482  67.745  1.00  0.00    -0.123 OA 
HETATM   14  N   UNL     1      -6.828  16.565  67.417  1.00  0.00    -0.143 N  
HETATM   15  O   UNL     1      -5.841  16.636  68.143  1.00  0.00    -0.109 OA 
HETATM   16  O   UNL     1      -7.194  17.299  66.498  1.00  0.00    -0.213 OA 
ENDBRANCH   5  13
TORSDOF 2
ENDMDL
MODEL      161
REMARK 921   NORMALIZED FREE ENERGY PREDICTED BY IDOCK:    2.37 KCAL/MOL
REMARK 922        TOTAL FREE ENERGY PREDICTED BY IDOCK:    2.31 KCAL/MOL
REMARK 923 INTER-LIGAND FREE ENERGY PREDICTED BY IDOCK:    1.17 KCAL/MOL
REMARK 924 INTRA-LIGAND FREE ENERGY PREDICTED BY IDOCK:    1.14 KCAL/MOL
REMARK 927      BINDING AFFINITY PREDICTED BY RF-SCORE:    0.00 PKD
ROOT
HETATM    1  C   UNL     1      -7.166  11.450  64.854  1.00  0.00     1.404 C  
HETATM    2  O   UNL     1      -6.143  10.749  65.562  1.00  0.00    -0.124 OA 
HETATM    3  C   UNL     1      -6.518   9.364  65.669  1.00  0.00    -0.069 C  
HETATM    4  C   UNL     1      -7.791   9.147  64.852  1.00  0.00    -0.117 C  
HETATM    5  C   UNL     1      -8.169  12.155  65.766  1.00  0.00     0.879 C  
HETATM    6  C   UNL     1      -8.009  10.448  64.089  1.00  0.00    -0.073 C  
HETATM    7  C   UNL     1      -9.404  12.143  64.874  1.00  0.00     0.264 C  
HETATM    8  O   UNL     1      -9.376  10.888  64.162  1.00  0.00    -0.217 OA 
ENDROOT
BRANCH   4   9
HETATM    9  O   UNL     1      -7.870   7.941  64.101  1.00  0.00    -0.126 OA 
HETATM   10  O   UNL     1      -7.194   6.811  62.337  1.00  0.00    -0.050 OA 
HETATM   11  O   UNL     1      -6.419   8.876  62.637  1.00  0.00    -0.095 OA 
HETATM   12  N   UNL     1      -7.089   7.885  62.923  1.00  0.00    -0.084 N  
ENDBRANCH   4   9
BRANCH   5  13
HETATM   13  O   UNL     1      -8.375  11.353  66.935  1.00  0.00    -0.147 OA 
HETATM   14  N   UNL     1      -7.448  11.611  67.966  1.00  0.00    -0.093 N  
HETATM   15  O   UNL     1      -7.519  10.797  68.883  1.00  0.00    -0.097 OA 
HETATM   16  O   UNL     1      -6.732  12.605  67.839  1.00  0.00    -0.082 OA 
ENDBRANCH   5  13
TORSDOF 2
ENDMDL
MODEL      162
REMARK 921   NORMALIZED FREE ENERGY PREDICTED BY IDOCK:    4.30 KCAL/MOL
REMARK 922        TOTAL FREE ENERGY PREDICTED BY IDOCK:    4.47 KCAL/MOL
REMARK 923 INTER-LIGAND FREE ENERGY PREDICTED BY IDOCK:    2.63 KCAL/MOL
REMARK 924 INTRA-LIGAND FREE ENERGY PREDICTED BY IDOCK:    1.85 KCAL/MOL
REMARK 927      BINDING AFFINITY PREDICTED BY RF-SCORE:    0.00 PKD
ROOT
HETATM    1  C   UNL     1      -5.126  16.550  70.183  1.00  0.00    -0.175 C  
HETATM    2  O   UNL     1      -5.513  17.457  71.216  1.00  0.00    -0.088 OA 
HETATM    3  C   UNL     1      -6.224  16.726  72.232  1.00  0.00     3.428 C  
HETATM    4  C   UNL     1      -6.155  15.239  71.889  1.00  0.00     1.017 C  
HETATM    5  C   UNL     1      -6.088  16.525  68.997  1.00  0.00    -0.155 C  
HETATM    6  C   UNL     1      -5.177  15.136  70.726  1.00  0.00    -0.138 C  
HETATM    7  C   UNL     1      -5.873  15.101  68.502  1.00  0.00    -0.095 C  
HETATM    8  O   UNL     1      -5.678  14.288  69.678  1.00  0.00    -0.093 OA 
ENDROOT
BRANCH   4   9
HETATM    9  O   UNL     1      -5.957  14.341  72.976  1.00  0.00    -0.205 OA 
HETATM   10  O   UNL     1      -5.363  12.324  73.627  1.00  0.00    -0.119 OA 
HETATM   11  O   UNL     1      -5.375  12.777  71.448  1.00  0.00    -0.270 OA 
HETATM   12  N   UNL     1      -5.529  13.036  72.640  1.00  0.00     0.307 N  
ENDBRANCH   4   9
BRANCH   5  13
HETATM   13  O   UNL     1      -7.424  16.701  69.482  1.00  0.00    -0.143 OA 
HETATM   14  N   UNL     1      -8.303  17.255  68.528  1.00  0.00    -0.260 N  
HETATM   15  O   UNL     1      -9.388  17.569  69.008  1.00  0.00    -0.209 OA 
HETATM   16  O   UNL     1      -7.898  17.319  67.366  1.00  0.00    -0.176 OA 
ENDBRANCH   5  13
TORSDOF 2
ENDMDL
MODEL      163
REMARK 921   NORMALIZED FREE ENERGY PREDICTED BY IDOCK:    5.38 KCAL/MOL
REMARK 922        TOTAL FREE ENERGY PREDICTED BY IDOCK:    5.67 KCAL/MOL
REMARK 923 INTER-LIGAND FREE ENERGY PREDICTED BY IDOCK:    4.10 KCAL/MOL
REMARK 924 INTRA-LIGAND FREE ENERGY PREDICTED BY IDOCK:    1.57 KCAL/MOL
REMARK 927      BINDING AFFINITY PREDICTED BY RF-SCORE:    0.00 PKD
ROOT
HETATM    1  C   UNL     1      -8.697  14.292  67.969  1.00  0.00    -0.177 C  
HETATM    2  O   UNL     1      -9.203  12.959  68.049  1.00  0.00    -0.199 OA 
HETATM    3  C   UNL     1     -10.589  12.964  67.663  1.00  0.00    -0.223 C  
HETATM    4  C   UNL     1     -10.943  14.366  67.170  1.00  0.00    -0.303 C  
HETATM    5  C   UNL     1      -8.704  15.031  69.306  1.00  0.00    -0.161 C  
HETATM    6  C   UNL     1      -9.619  15.115  67.092  1.00  0.00    -0.218 C  
HETATM    7  C   UNL     1      -8.840  16.469  68.822  1.00  0.00    -0.255 C  
HETATM    8  O   UNL     1      -9.711  16.427  67.673  1.00  0.00    -0.234 OA 
ENDROOT
BRANCH   4   9
HETATM    9  O   UNL     1     -11.794  14.446  66.031  1.00  0.00    -0.373 OA 
HETATM   10  O   UNL     1     -13.242  13.423  64.726  1.00  0.00    -0.590 OA 
HETATM   11  O   UNL     1     -12.348  12.286  66.418  1.00  0.00    -0.531 OA 
HETATM   12  N   UNL     1     -12.518  13.275  65.707  1.00  0.00    -0.442 N  
ENDBRANCH   4   9
BRANCH   5  13
HETATM   13  O   UNL     1      -9.860  14.630  70.050  1.00  0.00     0.238 OA 
HETATM   14  N   UNL     1      -9.852  15.073  71.390  1.00  0.00     1.744 N  
HETATM   15  O   UNL     1     -10.749  14.573  72.061  1.00  0.00     1.280 OA 
HETATM   16  O   UNL     1      -8.996  15.904  71.698  1.00  0.00     4.549 OA 
ENDBRANCH   5  13
TORSDOF 2
ENDMDL
MODEL      164
REMARK 921   NORMALIZED FREE ENERGY PREDICTED BY IDOCK:    6.25 KCAL/MOL
REMARK 922        TOTAL FREE ENERGY PREDICTED BY IDOCK:    6.64 KCAL/MOL
REMARK 923 INTER-LIGAND FREE ENERGY PREDICTED BY IDOCK:    3.39 KCAL/MOL
REMARK 924 INTRA-LIGAND FREE ENERGY PREDICTED BY IDOCK:    3.25 KCAL/MOL
REMARK 927      BINDING AFFINITY PREDICTED BY RF-SCORE:    0.00 PKD
ROOT
HETATM    1  C   UNL     1     -11.916  14.479  72.898  1.00  0.00     0.099 C  
HETATM    2  O   UNL     1     -11.370  13.539  71.973  1.00  0.00     2.274 OA 
HETATM    3  C   UNL     1     -11.371  14.126  70.659  1.00  0.00     0.116 C  
HETATM    4  C   UNL     1     -11.813  15.583  70.785  1.00  0.00    -0.367 C  
HETATM    5  C   UNL     1     -13.400  14.264  73.186  1.00  0.00    -0.144 C  
HETATM    6  C   UNL     1     -11.860  15.863  72.282  1.00  0.00    -0.516 C  
HETATM    7  C   UNL     1     -13.821  15.687  73.531  1.00  0.00     0.434 C  
HETATM    8  O   UNL     1     -13.064  16.554  72.660  1.00  0.00     0.021 OA 
ENDROOT
BRANCH   4   9
HETATM    9  O   UNL     1     -11.127  16.531  69.976  1.00  0.00    -0.345 OA 
HETATM   10  O   UNL     1      -9.419  16.941  68.649  1.00  0.00    -0.252 OA 
HETATM   11  O   UNL     1      -9.602  14.913  69.550  1.00  0.00    -0.133 OA 
HETATM   12  N   UNL     1      -9.947  16.076  69.343  1.00  0.00    -0.254 N  
ENDBRANCH   4   9
BRANCH   5  13
HETATM   13  O   UNL     1     -14.044  13.816  71.988  1.00  0.00    -0.469 OA 
HETATM   14  N   UNL     1     -13.720  12.489  71.634  1.00  0.00     0.112 N  
HETATM   15  O   UNL     1     -14.128  12.182  70.518  1.00  0.00     2.926 OA 
HETATM   16  O   UNL     1     -13.120  11.818  72.475  1.00  0.00    -0.107 OA 
ENDBRANCH   5  13
TORSDOF 2
ENDMDL
