MODEL        1
REMARK 921   NORMALIZED FREE ENERGY PREDICTED BY IDOCK:   -5.43 KCAL/MOL
REMARK 922        TOTAL FREE ENERGY PREDICTED BY IDOCK:   -5.93 KCAL/MOL
REMARK 923 INTER-LIGAND FREE ENERGY PREDICTED BY IDOCK:   -5.75 KCAL/MOL
REMARK 924 INTRA-LIGAND FREE ENERGY PREDICTED BY IDOCK:   -0.19 KCAL/MOL
REMARK 927      BINDING AFFINITY PREDICTED BY RF-SCORE:    0.00 PKD
ROOT
HETATM    1  C   UNL     1     -12.407  14.661  64.571  1.00  0.00    -0.398 C  
HETATM    2  O   UNL     1     -12.460  13.932  63.343  1.00  0.00    -0.833 OA 
HETATM    3  C   UNL     1     -11.960  12.603  63.568  1.00  0.00    -0.548 C  
HETATM    4  C   UNL     1     -11.661  12.432  65.057  1.00  0.00    -0.371 C  
HETATM    5  C   UNL     1     -12.323  13.653  65.690  1.00  0.00    -0.478 C  
HETATM    6  H   UNL     1     -10.462  17.288  64.362  1.00  0.00     0.000 HD 
HETATM    7  O   UNL     1     -11.554  14.228  66.750  1.00  0.00    -0.356 OA 
HETATM    8  O   UNL     1     -11.266  16.791  64.263  1.00  0.00    -1.163 OA 
HETATM    9  C   UNL     1     -10.882  15.393  66.233  1.00  0.00    -0.301 C  
HETATM   10  C   UNL     1     -11.121  15.456  64.728  1.00  0.00    -0.403 C  
ENDROOT
BRANCH   4  11
HETATM   11  O   UNL     1     -10.250  12.475  65.282  1.00  0.00    -0.279 OA 
HETATM   12  O   UNL     1     -10.535  10.386  66.093  1.00  0.00    -0.225 OA 
HETATM   13  N   UNL     1      -9.747  11.318  65.918  1.00  0.00    -0.215 N  
HETATM   14  O   UNL     1      -8.547  11.393  66.160  1.00  0.00    -0.177 OA 
ENDBRANCH   4  11
TORSDOF 1
ENDMDL
MODEL        2
REMARK 921   NORMALIZED FREE ENERGY PREDICTED BY IDOCK:   -5.11 KCAL/MOL
REMARK 922        TOTAL FREE ENERGY PREDICTED BY IDOCK:   -5.59 KCAL/MOL
REMARK 923 INTER-LIGAND FREE ENERGY PREDICTED BY IDOCK:   -5.58 KCAL/MOL
REMARK 924 INTRA-LIGAND FREE ENERGY PREDICTED BY IDOCK:   -0.01 KCAL/MOL
REMARK 927      BINDING AFFINITY PREDICTED BY RF-SCORE:    0.00 PKD
ROOT
HETATM    1  C   UNL     1     -11.644  12.308  65.760  1.00  0.00    -0.388 C  
HETATM    2  O   UNL     1     -12.822  12.879  65.186  1.00  0.00    -0.702 OA 
HETATM    3  C   UNL     1     -12.520  14.209  64.731  1.00  0.00    -0.373 C  
HETATM    4  C   UNL     1     -11.029  14.475  64.932  1.00  0.00    -0.410 C  
HETATM    5  C   UNL     1     -10.464  13.091  65.240  1.00  0.00    -0.304 C  
HETATM    6  H   UNL     1     -12.053  11.552  68.920  1.00  0.00     0.000 HD 
HETATM    7  O   UNL     1      -9.456  13.104  66.255  1.00  0.00    -0.252 OA 
HETATM    8  O   UNL     1     -12.106  11.421  67.981  1.00  0.00    -0.629 OA 
HETATM    9  C   UNL     1     -10.058  12.663  67.487  1.00  0.00    -0.212 C  
HETATM   10  C   UNL     1     -11.559  12.519  67.263  1.00  0.00    -0.367 C  
ENDROOT
BRANCH   4  11
HETATM   11  O   UNL     1     -10.831  15.339  66.053  1.00  0.00    -0.322 OA 
HETATM   12  O   UNL     1     -10.917  16.994  64.517  1.00  0.00    -1.031 OA 
HETATM   13  N   UNL     1     -10.719  16.703  65.698  1.00  0.00    -0.280 N  
HETATM   14  O   UNL     1     -10.489  17.426  66.662  1.00  0.00    -0.310 OA 
ENDBRANCH   4  11
TORSDOF 1
ENDMDL
MODEL        3
REMARK 921   NORMALIZED FREE ENERGY PREDICTED BY IDOCK:   -5.07 KCAL/MOL
REMARK 922        TOTAL FREE ENERGY PREDICTED BY IDOCK:   -5.55 KCAL/MOL
REMARK 923 INTER-LIGAND FREE ENERGY PREDICTED BY IDOCK:   -5.75 KCAL/MOL
REMARK 924 INTRA-LIGAND FREE ENERGY PREDICTED BY IDOCK:    0.20 KCAL/MOL
REMARK 927      BINDING AFFINITY PREDICTED BY RF-SCORE:    0.00 PKD
ROOT
HETATM    1  C   UNL     1     -10.844  11.729  65.381  1.00  0.00    -0.295 C  
HETATM    2  O   UNL     1      -9.649  12.241  65.974  1.00  0.00    -0.240 OA 
HETATM    3  C   UNL     1      -9.867  13.611  66.352  1.00  0.00    -0.296 C  
HETATM    4  C   UNL     1     -11.326  13.974  66.078  1.00  0.00    -0.328 C  
HETATM    5  C   UNL     1     -11.981  12.621  65.814  1.00  0.00    -0.446 C  
HETATM    6  H   UNL     1     -10.375  10.785  62.280  1.00  0.00     0.000 HD 
HETATM    7  O   UNL     1     -12.947  12.655  64.759  1.00  0.00    -0.816 OA 
HETATM    8  O   UNL     1     -10.367  10.698  63.226  1.00  0.00    -0.210 OA 
HETATM    9  C   UNL     1     -12.334  12.110  63.575  1.00  0.00    -0.574 C  
HETATM   10  C   UNL     1     -10.857  11.868  63.867  1.00  0.00    -0.395 C  
ENDROOT
BRANCH   4  11
HETATM   11  O   UNL     1     -11.417  14.792  64.910  1.00  0.00    -0.378 OA 
HETATM   12  O   UNL     1     -10.768  16.458  66.291  1.00  0.00    -0.266 OA 
HETATM   13  N   UNL     1     -11.151  16.158  65.158  1.00  0.00    -0.299 N  
HETATM   14  O   UNL     1     -11.291  16.857  64.161  1.00  0.00    -1.208 OA 
ENDBRANCH   4  11
TORSDOF 1
ENDMDL
MODEL        4
REMARK 921   NORMALIZED FREE ENERGY PREDICTED BY IDOCK:   -4.90 KCAL/MOL
REMARK 922        TOTAL FREE ENERGY PREDICTED BY IDOCK:   -5.37 KCAL/MOL
REMARK 923 INTER-LIGAND FREE ENERGY PREDICTED BY IDOCK:   -5.18 KCAL/MOL
REMARK 924 INTRA-LIGAND FREE ENERGY PREDICTED BY IDOCK:   -0.19 KCAL/MOL
REMARK 927      BINDING AFFINITY PREDICTED BY RF-SCORE:    0.00 PKD
ROOT
HETATM    1  C   UNL     1     -10.683  14.867  64.951  1.00  0.00    -0.405 C  
HETATM    2  O   UNL     1     -10.518  16.283  64.870  1.00  0.00    -0.624 OA 
HETATM    3  C   UNL     1     -10.376  16.813  66.200  1.00  0.00    -0.330 C  
HETATM    4  C   UNL     1     -10.346  15.652  67.194  1.00  0.00    -0.285 C  
HETATM    5  C   UNL     1     -10.167  14.429  66.299  1.00  0.00    -0.299 C  
HETATM    6  H   UNL     1     -13.554  13.887  63.716  1.00  0.00     0.000 HD 
HETATM    7  O   UNL     1     -10.936  13.299  66.725  1.00  0.00    -0.281 OA 
HETATM    8  O   UNL     1     -12.642  14.151  63.692  1.00  0.00    -0.831 OA 
HETATM    9  C   UNL     1     -12.102  13.212  65.884  1.00  0.00    -0.444 C  
HETATM   10  C   UNL     1     -12.144  14.445  64.990  1.00  0.00    -0.415 C  
ENDROOT
BRANCH   4  11
HETATM   11  O   UNL     1     -11.594  15.568  67.886  1.00  0.00    -0.319 OA 
HETATM   12  O   UNL     1     -10.333  15.817  69.744  1.00  0.00    -0.273 OA 
HETATM   13  N   UNL     1     -11.460  15.604  69.292  1.00  0.00    -0.336 N  
HETATM   14  O   UNL     1     -12.531  15.470  69.875  1.00  0.00    -0.336 OA 
ENDBRANCH   4  11
TORSDOF 1
ENDMDL
MODEL        5
REMARK 921   NORMALIZED FREE ENERGY PREDICTED BY IDOCK:   -4.70 KCAL/MOL
REMARK 922        TOTAL FREE ENERGY PREDICTED BY IDOCK:   -5.16 KCAL/MOL
REMARK 923 INTER-LIGAND FREE ENERGY PREDICTED BY IDOCK:   -5.13 KCAL/MOL
REMARK 924 INTRA-LIGAND FREE ENERGY PREDICTED BY IDOCK:   -0.03 KCAL/MOL
REMARK 927      BINDING AFFINITY PREDICTED BY RF-SCORE:    0.00 PKD
ROOT
HETATM    1  C   UNL     1     -11.330  14.717  67.011  1.00  0.00    -0.355 C  
HETATM    2  O   UNL     1     -10.834  15.802  66.225  1.00  0.00    -0.306 OA 
HETATM    3  C   UNL     1     -11.032  15.498  64.833  1.00  0.00    -0.436 C  
HETATM    4  C   UNL     1     -11.796  14.180  64.719  1.00  0.00    -0.417 C  
HETATM    5  C   UNL     1     -12.281  13.930  66.144  1.00  0.00    -0.464 C  
HETATM    6  H   UNL     1      -8.978  13.332  68.823  1.00  0.00     0.000 HD 
HETATM    7  O   UNL     1     -12.206  12.555  66.535  1.00  0.00    -0.569 OA 
HETATM    8  O   UNL     1      -9.650  13.969  68.609  1.00  0.00    -0.213 OA 
HETATM    9  C   UNL     1     -11.037  12.389  67.359  1.00  0.00    -0.272 C  
HETATM   10  C   UNL     1     -10.254  13.697  67.352  1.00  0.00    -0.241 C  
ENDROOT
BRANCH   4  11
HETATM   11  O   UNL     1     -10.909  13.133  64.318  1.00  0.00    -0.374 OA 
HETATM   12  O   UNL     1     -12.714  12.312  63.236  1.00  0.00    -0.699 OA 
HETATM   13  N   UNL     1     -11.539  12.122  63.558  1.00  0.00    -0.464 N  
HETATM   14  O   UNL     1     -10.782  11.201  63.273  1.00  0.00    -0.319 OA 
ENDBRANCH   4  11
TORSDOF 1
ENDMDL
MODEL        6
REMARK 921   NORMALIZED FREE ENERGY PREDICTED BY IDOCK:   -4.70 KCAL/MOL
REMARK 922        TOTAL FREE ENERGY PREDICTED BY IDOCK:   -5.16 KCAL/MOL
REMARK 923 INTER-LIGAND FREE ENERGY PREDICTED BY IDOCK:   -5.03 KCAL/MOL
REMARK 924 INTRA-LIGAND FREE ENERGY PREDICTED BY IDOCK:   -0.13 KCAL/MOL
REMARK 927      BINDING AFFINITY PREDICTED BY RF-SCORE:    0.00 PKD
ROOT
HETATM    1  C   UNL     1     -12.031  12.355  65.514  1.00  0.00    -0.391 C  
HETATM    2  O   UNL     1     -11.200  12.055  66.636  1.00  0.00    -0.293 OA 
HETATM    3  C   UNL     1     -10.851  13.282  67.298  1.00  0.00    -0.264 C  
HETATM    4  C   UNL     1     -11.587  14.437  66.620  1.00  0.00    -0.384 C  
HETATM    5  C   UNL     1     -12.610  13.730  65.735  1.00  0.00    -0.480 C  
HETATM    6  H   UNL     1     -10.677  11.404  62.687  1.00  0.00     0.000 HD 
HETATM    7  O   UNL     1     -12.780  14.353  64.459  1.00  0.00    -0.663 OA 
HETATM    8  O   UNL     1     -11.170  11.302  63.493  1.00  0.00    -0.344 OA 
HETATM    9  C   UNL     1     -12.044  13.586  63.487  1.00  0.00    -0.364 C  
HETATM   10  C   UNL     1     -11.243  12.518  64.223  1.00  0.00    -0.355 C  
ENDROOT
BRANCH   4  11
HETATM   11  O   UNL     1     -10.680  15.187  65.809  1.00  0.00    -0.318 OA 
HETATM   12  O   UNL     1     -10.784  16.707  67.477  1.00  0.00    -0.325 OA 
HETATM   13  N   UNL     1     -10.356  16.452  66.349  1.00  0.00    -0.308 N  
HETATM   14  O   UNL     1      -9.627  17.109  65.615  1.00  0.00    -0.535 OA 
ENDBRANCH   4  11
TORSDOF 1
ENDMDL
MODEL        7
REMARK 921   NORMALIZED FREE ENERGY PREDICTED BY IDOCK:   -4.60 KCAL/MOL
REMARK 922        TOTAL FREE ENERGY PREDICTED BY IDOCK:   -5.06 KCAL/MOL
REMARK 923 INTER-LIGAND FREE ENERGY PREDICTED BY IDOCK:   -4.87 KCAL/MOL
REMARK 924 INTRA-LIGAND FREE ENERGY PREDICTED BY IDOCK:   -0.19 KCAL/MOL
REMARK 927      BINDING AFFINITY PREDICTED BY RF-SCORE:    0.00 PKD
ROOT
HETATM    1  C   UNL     1     -10.571  12.672  63.929  1.00  0.00    -0.428 C  
HETATM    2  O   UNL     1     -11.910  13.016  63.569  1.00  0.00    -0.504 OA 
HETATM    3  C   UNL     1     -12.658  13.290  64.766  1.00  0.00    -0.337 C  
HETATM    4  C   UNL     1     -11.715  13.218  65.966  1.00  0.00    -0.368 C  
HETATM    5  C   UNL     1     -10.331  13.192  65.324  1.00  0.00    -0.305 C  
HETATM    6  H   UNL     1      -9.777   9.641  62.974  1.00  0.00     0.000 HD 
HETATM    7  O   UNL     1      -9.419  12.306  65.979  1.00  0.00    -0.239 OA 
HETATM    8  O   UNL     1      -9.904  10.578  62.878  1.00  0.00    -0.309 OA 
HETATM    9  C   UNL     1      -9.334  11.097  65.199  1.00  0.00    -0.213 C  
HETATM   10  C   UNL     1     -10.369  11.173  64.082  1.00  0.00    -0.361 C  
ENDROOT
BRANCH   4  11
HETATM   11  O   UNL     1     -11.936  12.005  66.690  1.00  0.00    -0.614 OA 
HETATM   12  O   UNL     1     -11.964  13.349  68.506  1.00  0.00    -0.348 OA 
HETATM   13  N   UNL     1     -11.991  12.189  68.090  1.00  0.00    -0.283 N  
HETATM   14  O   UNL     1     -12.120  11.134  68.703  1.00  0.00    -0.556 OA 
ENDBRANCH   4  11
TORSDOF 1
ENDMDL
MODEL        8
REMARK 921   NORMALIZED FREE ENERGY PREDICTED BY IDOCK:   -4.60 KCAL/MOL
REMARK 922        TOTAL FREE ENERGY PREDICTED BY IDOCK:   -5.05 KCAL/MOL
REMARK 923 INTER-LIGAND FREE ENERGY PREDICTED BY IDOCK:   -4.87 KCAL/MOL
REMARK 924 INTRA-LIGAND FREE ENERGY PREDICTED BY IDOCK:   -0.18 KCAL/MOL
REMARK 927      BINDING AFFINITY PREDICTED BY RF-SCORE:    0.00 PKD
ROOT
HETATM    1  C   UNL     1      -9.989  12.317  68.421  1.00  0.00    -0.209 C  
HETATM    2  O   UNL     1      -9.309  13.441  67.861  1.00  0.00    -0.200 OA 
HETATM    3  C   UNL     1     -10.177  14.087  66.914  1.00  0.00    -0.260 C  
HETATM    4  C   UNL     1     -11.540  13.395  66.941  1.00  0.00    -0.365 C  
HETATM    5  C   UNL     1     -11.465  12.522  68.190  1.00  0.00    -0.319 C  
HETATM    6  H   UNL     1      -8.440   9.500  67.792  1.00  0.00     0.000 HD 
HETATM    7  O   UNL     1     -12.072  11.237  68.019  1.00  0.00    -0.638 OA 
HETATM    8  O   UNL     1      -8.620  10.309  68.257  1.00  0.00    -0.117 OA 
HETATM    9  C   UNL     1     -11.023  10.274  67.804  1.00  0.00    -0.300 C  
HETATM   10  C   UNL     1      -9.701  11.023  67.676  1.00  0.00    -0.168 C  
ENDROOT
BRANCH   4  11
HETATM   11  O   UNL     1     -11.693  12.572  65.783  1.00  0.00    -0.384 OA 
HETATM   12  O   UNL     1     -13.347  14.014  65.244  1.00  0.00    -0.741 OA 
HETATM   13  N   UNL     1     -12.764  12.969  64.950  1.00  0.00    -0.434 N  
HETATM   14  O   UNL     1     -12.923  12.219  63.992  1.00  0.00    -0.740 OA 
ENDBRANCH   4  11
TORSDOF 1
ENDMDL
MODEL        9
REMARK 921   NORMALIZED FREE ENERGY PREDICTED BY IDOCK:   -4.57 KCAL/MOL
REMARK 922        TOTAL FREE ENERGY PREDICTED BY IDOCK:   -5.03 KCAL/MOL
REMARK 923 INTER-LIGAND FREE ENERGY PREDICTED BY IDOCK:   -4.99 KCAL/MOL
REMARK 924 INTRA-LIGAND FREE ENERGY PREDICTED BY IDOCK:   -0.04 KCAL/MOL
REMARK 927      BINDING AFFINITY PREDICTED BY RF-SCORE:    0.00 PKD
ROOT
HETATM    1  C   UNL     1     -12.264  14.462  65.003  1.00  0.00    -0.414 C  
HETATM    2  O   UNL     1     -12.323  13.370  64.084  1.00  0.00    -0.558 OA 
HETATM    3  C   UNL     1     -11.582  12.263  64.627  1.00  0.00    -0.344 C  
HETATM    4  C   UNL     1     -11.102  12.630  66.030  1.00  0.00    -0.287 C  
HETATM    5  C   UNL     1     -11.890  13.897  66.351  1.00  0.00    -0.411 C  
HETATM    6  H   UNL     1     -10.829  17.099  63.694  1.00  0.00     0.000 HD 
HETATM    7  O   UNL     1     -11.122  14.881  67.049  1.00  0.00    -0.323 OA 
HETATM    8  O   UNL     1     -11.542  16.499  63.880  1.00  0.00    -1.175 OA 
HETATM    9  C   UNL     1     -10.717  15.886  66.099  1.00  0.00    -0.271 C  
HETATM   10  C   UNL     1     -11.122  15.421  64.705  1.00  0.00    -0.403 C  
ENDROOT
BRANCH   4  11
HETATM   11  O   UNL     1      -9.703  12.923  66.008  1.00  0.00    -0.266 OA 
HETATM   12  O   UNL     1      -9.703  12.029  68.082  1.00  0.00    -0.188 OA 
HETATM   13  N   UNL     1      -9.044  12.610  67.218  1.00  0.00    -0.184 N  
HETATM   14  O   UNL     1      -7.858  12.922  67.207  1.00  0.00    -0.167 OA 
ENDBRANCH   4  11
TORSDOF 1
ENDMDL
MODEL       10
REMARK 921   NORMALIZED FREE ENERGY PREDICTED BY IDOCK:   -4.57 KCAL/MOL
REMARK 922        TOTAL FREE ENERGY PREDICTED BY IDOCK:   -5.02 KCAL/MOL
REMARK 923 INTER-LIGAND FREE ENERGY PREDICTED BY IDOCK:   -4.85 KCAL/MOL
REMARK 924 INTRA-LIGAND FREE ENERGY PREDICTED BY IDOCK:   -0.17 KCAL/MOL
REMARK 927      BINDING AFFINITY PREDICTED BY RF-SCORE:    0.00 PKD
ROOT
HETATM    1  C   UNL     1      -9.873  13.398  67.692  1.00  0.00    -0.226 C  
HETATM    2  O   UNL     1      -8.551  13.806  67.337  1.00  0.00    -0.181 OA 
HETATM    3  C   UNL     1      -8.613  15.108  66.729  1.00  0.00    -0.262 C  
HETATM    4  C   UNL     1     -10.054  15.614  66.788  1.00  0.00    -0.272 C  
HETATM    5  C   UNL     1     -10.728  14.639  67.749  1.00  0.00    -0.265 C  
HETATM    6  H   UNL     1     -10.776  10.658  66.141  1.00  0.00     0.000 HD 
HETATM    7  O   UNL     1     -12.057  14.283  67.355  1.00  0.00    -0.400 OA 
HETATM    8  O   UNL     1     -10.356  11.176  66.818  1.00  0.00    -0.223 OA 
HETATM    9  C   UNL     1     -12.006  12.979  66.744  1.00  0.00    -0.369 C  
HETATM   10  C   UNL     1     -10.544  12.569  66.608  1.00  0.00    -0.237 C  
ENDROOT
BRANCH   4  11
HETATM   11  O   UNL     1     -10.660  15.519  65.497  1.00  0.00    -0.343 OA 
HETATM   12  O   UNL     1     -10.657  17.777  65.569  1.00  0.00    -0.632 OA 
HETATM   13  N   UNL     1     -11.010  16.772  64.948  1.00  0.00    -0.236 N  
HETATM   14  O   UNL     1     -11.584  16.674  63.868  1.00  0.00    -1.204 OA 
ENDBRANCH   4  11
TORSDOF 1
ENDMDL
MODEL       11
REMARK 921   NORMALIZED FREE ENERGY PREDICTED BY IDOCK:   -4.55 KCAL/MOL
REMARK 922        TOTAL FREE ENERGY PREDICTED BY IDOCK:   -5.01 KCAL/MOL
REMARK 923 INTER-LIGAND FREE ENERGY PREDICTED BY IDOCK:   -4.82 KCAL/MOL
REMARK 924 INTRA-LIGAND FREE ENERGY PREDICTED BY IDOCK:   -0.19 KCAL/MOL
REMARK 927      BINDING AFFINITY PREDICTED BY RF-SCORE:    0.00 PKD
ROOT
HETATM    1  C   UNL     1     -10.587  13.390  64.563  1.00  0.00    -0.425 C  
HETATM    2  O   UNL     1     -11.908  13.876  64.317  1.00  0.00    -0.408 OA 
HETATM    3  C   UNL     1     -12.642  13.872  65.553  1.00  0.00    -0.526 C  
HETATM    4  C   UNL     1     -11.704  13.455  66.685  1.00  0.00    -0.385 C  
HETATM    5  C   UNL     1     -10.323  13.528  66.041  1.00  0.00    -0.303 C  
HETATM    6  H   UNL     1      -9.939  10.665  62.864  1.00  0.00     0.000 HD 
HETATM    7  O   UNL     1      -9.455  12.463  66.440  1.00  0.00    -0.237 OA 
HETATM    8  O   UNL     1     -10.020  11.601  63.009  1.00  0.00    -0.383 OA 
HETATM    9  C   UNL     1      -9.427  11.489  65.379  1.00  0.00    -0.198 C  
HETATM   10  C   UNL     1     -10.456  11.893  64.330  1.00  0.00    -0.326 C  
ENDROOT
BRANCH   4  11
HETATM   11  O   UNL     1     -11.983  12.110  67.082  1.00  0.00    -0.580 OA 
HETATM   12  O   UNL     1     -11.942  12.949  69.179  1.00  0.00    -0.298 OA 
HETATM   13  N   UNL     1     -12.027  11.935  68.483  1.00  0.00    -0.290 N  
HETATM   14  O   UNL     1     -12.207  10.767  68.810  1.00  0.00    -0.460 OA 
ENDBRANCH   4  11
TORSDOF 1
ENDMDL
MODEL       12
REMARK 921   NORMALIZED FREE ENERGY PREDICTED BY IDOCK:   -4.53 KCAL/MOL
REMARK 922        TOTAL FREE ENERGY PREDICTED BY IDOCK:   -4.99 KCAL/MOL
REMARK 923 INTER-LIGAND FREE ENERGY PREDICTED BY IDOCK:   -4.79 KCAL/MOL
REMARK 924 INTRA-LIGAND FREE ENERGY PREDICTED BY IDOCK:   -0.20 KCAL/MOL
REMARK 927      BINDING AFFINITY PREDICTED BY RF-SCORE:    0.00 PKD
ROOT
HETATM    1  C   UNL     1     -12.228  13.700  64.248  1.00  0.00    -0.396 C  
HETATM    2  O   UNL     1     -13.077  14.063  65.339  1.00  0.00    -0.763 OA 
HETATM    3  C   UNL     1     -12.276  14.208  66.524  1.00  0.00    -0.433 C  
HETATM    4  C   UNL     1     -10.805  14.027  66.153  1.00  0.00    -0.291 C  
HETATM    5  C   UNL     1     -10.819  14.080  64.628  1.00  0.00    -0.403 C  
HETATM    6  H   UNL     1     -13.028  10.788  62.979  1.00  0.00     0.000 HD 
HETATM    7  O   UNL     1      -9.925  13.143  64.020  1.00  0.00    -0.304 OA 
HETATM    8  O   UNL     1     -13.086  11.728  63.103  1.00  0.00    -0.568 OA 
HETATM    9  C   UNL     1     -10.702  12.020  63.561  1.00  0.00    -0.455 C  
HETATM   10  C   UNL     1     -12.135  12.195  64.050  1.00  0.00    -0.443 C  
ENDROOT
BRANCH   4  11
HETATM   11  O   UNL     1     -10.344  12.745  66.588  1.00  0.00    -0.238 OA 
HETATM   12  O   UNL     1      -8.773  13.929  67.699  1.00  0.00    -0.165 OA 
HETATM   13  N   UNL     1      -9.178  12.808  67.383  1.00  0.00    -0.185 N  
HETATM   14  O   UNL     1      -8.759  11.700  67.699  1.00  0.00    -0.147 OA 
ENDBRANCH   4  11
TORSDOF 1
ENDMDL
MODEL       13
REMARK 921   NORMALIZED FREE ENERGY PREDICTED BY IDOCK:   -4.51 KCAL/MOL
REMARK 922        TOTAL FREE ENERGY PREDICTED BY IDOCK:   -4.97 KCAL/MOL
REMARK 923 INTER-LIGAND FREE ENERGY PREDICTED BY IDOCK:   -4.78 KCAL/MOL
REMARK 924 INTRA-LIGAND FREE ENERGY PREDICTED BY IDOCK:   -0.19 KCAL/MOL
REMARK 927      BINDING AFFINITY PREDICTED BY RF-SCORE:    0.00 PKD
ROOT
HETATM    1  C   UNL     1     -10.602  14.021  64.744  1.00  0.00    -0.421 C  
HETATM    2  O   UNL     1      -9.990  14.923  65.667  1.00  0.00    -0.319 OA 
HETATM    3  C   UNL     1      -9.726  14.223  66.895  1.00  0.00    -0.264 C  
HETATM    4  C   UNL     1     -10.098  12.752  66.717  1.00  0.00    -0.236 C  
HETATM    5  C   UNL     1     -10.293  12.620  65.209  1.00  0.00    -0.289 C  
HETATM    6  H   UNL     1     -13.597  15.007  63.859  1.00  0.00     0.000 HD 
HETATM    7  O   UNL     1     -11.394  11.779  64.852  1.00  0.00    -0.301 OA 
HETATM    8  O   UNL     1     -12.648  14.976  63.830  1.00  0.00    -0.813 OA 
HETATM    9  C   UNL     1     -12.503  12.626  64.491  1.00  0.00    -0.448 C  
HETATM   10  C   UNL     1     -12.121  14.071  64.790  1.00  0.00    -0.437 C  
ENDROOT
BRANCH   4  11
HETATM   11  O   UNL     1     -11.327  12.472  67.391  1.00  0.00    -0.275 OA 
HETATM   12  O   UNL     1     -10.220  10.679  68.206  1.00  0.00    -0.156 OA 
HETATM   13  N   UNL     1     -11.300  11.269  68.131  1.00  0.00    -0.279 N  
HETATM   14  O   UNL     1     -12.378  11.009  68.654  1.00  0.00    -0.539 OA 
ENDBRANCH   4  11
TORSDOF 1
ENDMDL
MODEL       14
REMARK 921   NORMALIZED FREE ENERGY PREDICTED BY IDOCK:   -4.49 KCAL/MOL
REMARK 922        TOTAL FREE ENERGY PREDICTED BY IDOCK:   -4.94 KCAL/MOL
REMARK 923 INTER-LIGAND FREE ENERGY PREDICTED BY IDOCK:   -4.78 KCAL/MOL
REMARK 924 INTRA-LIGAND FREE ENERGY PREDICTED BY IDOCK:   -0.17 KCAL/MOL
REMARK 927      BINDING AFFINITY PREDICTED BY RF-SCORE:    0.00 PKD
ROOT
HETATM    1  C   UNL     1     -10.209  16.418  68.413  1.00  0.00    -0.259 C  
HETATM    2  O   UNL     1     -11.190  16.035  69.378  1.00  0.00    -0.305 OA 
HETATM    3  C   UNL     1     -11.809  14.810  68.952  1.00  0.00    -0.296 C  
HETATM    4  C   UNL     1     -11.112  14.318  67.684  1.00  0.00    -0.292 C  
HETATM    5  C   UNL     1      -9.861  15.189  67.611  1.00  0.00    -0.219 C  
HETATM    6  H   UNL     1     -10.880  19.324  67.058  1.00  0.00     0.000 HD 
HETATM    7  O   UNL     1      -9.536  15.603  66.280  1.00  0.00    -0.259 OA 
HETATM    8  O   UNL     1     -10.537  18.729  67.715  1.00  0.00    -0.410 OA 
HETATM    9  C   UNL     1      -9.975  16.965  66.117  1.00  0.00    -0.315 C  
HETATM   10  C   UNL     1     -10.757  17.370  67.362  1.00  0.00    -0.251 C  
ENDROOT
BRANCH   4  11
HETATM   11  O   UNL     1     -11.940  14.563  66.544  1.00  0.00    -0.397 OA 
HETATM   12  O   UNL     1     -12.144  12.314  66.481  1.00  0.00    -0.616 OA 
HETATM   13  N   UNL     1     -12.401  13.382  65.921  1.00  0.00    -0.443 N  
HETATM   14  O   UNL     1     -13.059  13.604  64.910  1.00  0.00    -0.713 OA 
ENDBRANCH   4  11
TORSDOF 1
ENDMDL
MODEL       15
REMARK 921   NORMALIZED FREE ENERGY PREDICTED BY IDOCK:   -4.42 KCAL/MOL
REMARK 922        TOTAL FREE ENERGY PREDICTED BY IDOCK:   -4.87 KCAL/MOL
REMARK 923 INTER-LIGAND FREE ENERGY PREDICTED BY IDOCK:   -4.69 KCAL/MOL
REMARK 924 INTRA-LIGAND FREE ENERGY PREDICTED BY IDOCK:   -0.18 KCAL/MOL
REMARK 927      BINDING AFFINITY PREDICTED BY RF-SCORE:    0.00 PKD
ROOT
HETATM    1  C   UNL     1     -10.369  14.528  67.825  1.00  0.00    -0.237 C  
HETATM    2  O   UNL     1     -11.328  13.616  68.363  1.00  0.00    -0.260 OA 
HETATM    3  C   UNL     1     -11.773  12.737  67.316  1.00  0.00    -0.378 C  
HETATM    4  C   UNL     1     -10.974  13.034  66.047  1.00  0.00    -0.275 C  
HETATM    5  C   UNL     1      -9.841  13.925  66.547  1.00  0.00    -0.290 C  
HETATM    6  H   UNL     1     -11.351  17.643  68.077  1.00  0.00     0.000 HD 
HETATM    7  O   UNL     1      -9.522  14.993  65.649  1.00  0.00    -0.295 OA 
HETATM    8  O   UNL     1     -10.961  16.827  68.370  1.00  0.00    -0.355 OA 
HETATM    9  C   UNL     1     -10.122  16.199  66.160  1.00  0.00    -0.338 C  
HETATM   10  C   UNL     1     -10.994  15.832  67.356  1.00  0.00    -0.279 C  
ENDROOT
BRANCH   4  11
HETATM   11  O   UNL     1     -11.783  13.756  65.116  1.00  0.00    -0.323 OA 
HETATM   12  O   UNL     1     -11.556  11.917  63.824  1.00  0.00    -0.417 OA 
HETATM   13  N   UNL     1     -11.986  13.070  63.898  1.00  0.00    -0.450 N  
HETATM   14  O   UNL     1     -12.630  13.725  63.086  1.00  0.00    -0.793 OA 
ENDBRANCH   4  11
TORSDOF 1
ENDMDL
MODEL       16
REMARK 921   NORMALIZED FREE ENERGY PREDICTED BY IDOCK:   -4.39 KCAL/MOL
REMARK 922        TOTAL FREE ENERGY PREDICTED BY IDOCK:   -4.83 KCAL/MOL
REMARK 923 INTER-LIGAND FREE ENERGY PREDICTED BY IDOCK:   -4.69 KCAL/MOL
REMARK 924 INTRA-LIGAND FREE ENERGY PREDICTED BY IDOCK:   -0.14 KCAL/MOL
REMARK 927      BINDING AFFINITY PREDICTED BY RF-SCORE:    0.00 PKD
ROOT
HETATM    1  C   UNL     1     -10.613  13.663  67.949  1.00  0.00    -0.249 C  
HETATM    2  O   UNL     1     -11.163  12.552  68.660  1.00  0.00    -0.241 OA 
HETATM    3  C   UNL     1     -11.457  11.501  67.724  1.00  0.00    -0.286 C  
HETATM    4  C   UNL     1     -10.971  11.921  66.338  1.00  0.00    -0.292 C  
HETATM    5  C   UNL     1     -10.107  13.146  66.625  1.00  0.00    -0.264 C  
HETATM    6  H   UNL     1     -12.456  16.354  68.247  1.00  0.00     0.000 HD 
HETATM    7  O   UNL     1     -10.258  14.186  65.654  1.00  0.00    -0.310 OA 
HETATM    8  O   UNL     1     -11.799  15.718  68.503  1.00  0.00    -0.363 OA 
HETATM    9  C   UNL     1     -11.122  15.195  66.212  1.00  0.00    -0.309 C  
HETATM   10  C   UNL     1     -11.666  14.681  67.540  1.00  0.00    -0.379 C  
ENDROOT
BRANCH   4  11
HETATM   11  O   UNL     1     -12.083  12.294  65.521  1.00  0.00    -0.523 OA 
HETATM   12  O   UNL     1     -10.971  11.201  63.886  1.00  0.00    -0.374 OA 
HETATM   13  N   UNL     1     -11.946  11.900  64.171  1.00  0.00    -0.334 N  
HETATM   14  O   UNL     1     -12.877  12.279  63.469  1.00  0.00    -0.768 OA 
ENDBRANCH   4  11
TORSDOF 1
ENDMDL
MODEL       17
REMARK 921   NORMALIZED FREE ENERGY PREDICTED BY IDOCK:   -4.37 KCAL/MOL
REMARK 922        TOTAL FREE ENERGY PREDICTED BY IDOCK:   -4.82 KCAL/MOL
REMARK 923 INTER-LIGAND FREE ENERGY PREDICTED BY IDOCK:   -4.62 KCAL/MOL
REMARK 924 INTRA-LIGAND FREE ENERGY PREDICTED BY IDOCK:   -0.20 KCAL/MOL
REMARK 927      BINDING AFFINITY PREDICTED BY RF-SCORE:    0.00 PKD
ROOT
HETATM    1  C   UNL     1     -10.408  16.619  66.020  1.00  0.00    -0.340 C  
HETATM    2  O   UNL     1     -10.924  16.411  64.704  1.00  0.00    -0.707 OA 
HETATM    3  C   UNL     1     -11.441  15.072  64.614  1.00  0.00    -0.381 C  
HETATM    4  C   UNL     1     -11.345  14.410  65.988  1.00  0.00    -0.335 C  
HETATM    5  C   UNL     1     -11.027  15.578  66.918  1.00  0.00    -0.268 C  
HETATM    6  H   UNL     1      -7.204  17.302  65.995  1.00  0.00     0.000 HD 
HETATM    7  O   UNL     1     -10.079  15.248  67.938  1.00  0.00    -0.230 OA 
HETATM    8  O   UNL     1      -8.134  17.488  65.930  1.00  0.00    -0.536 OA 
HETATM    9  C   UNL     1      -8.797  15.772  67.541  1.00  0.00    -0.186 C  
HETATM   10  C   UNL     1      -8.921  16.321  66.124  1.00  0.00    -0.339 C  
ENDROOT
BRANCH   4  11
HETATM   11  O   UNL     1     -10.267  13.471  66.005  1.00  0.00    -0.292 OA 
HETATM   12  O   UNL     1     -11.848  11.998  66.665  1.00  0.00    -0.583 OA 
HETATM   13  N   UNL     1     -10.648  12.188  66.457  1.00  0.00    -0.231 N  
HETATM   14  O   UNL     1      -9.703  11.409  66.525  1.00  0.00    -0.193 OA 
ENDBRANCH   4  11
TORSDOF 1
ENDMDL
MODEL       18
REMARK 921   NORMALIZED FREE ENERGY PREDICTED BY IDOCK:   -4.37 KCAL/MOL
REMARK 922        TOTAL FREE ENERGY PREDICTED BY IDOCK:   -4.81 KCAL/MOL
REMARK 923 INTER-LIGAND FREE ENERGY PREDICTED BY IDOCK:   -4.65 KCAL/MOL
REMARK 924 INTRA-LIGAND FREE ENERGY PREDICTED BY IDOCK:   -0.16 KCAL/MOL
REMARK 927      BINDING AFFINITY PREDICTED BY RF-SCORE:    0.00 PKD
ROOT
HETATM    1  C   UNL     1     -12.107  14.496  65.523  1.00  0.00    -0.299 C  
HETATM    2  O   UNL     1     -13.131  13.796  64.814  1.00  0.00    -0.651 OA 
HETATM    3  C   UNL     1     -12.682  12.456  64.550  1.00  0.00    -0.314 C  
HETATM    4  C   UNL     1     -11.324  12.247  65.221  1.00  0.00    -0.338 C  
HETATM    5  C   UNL     1     -11.195  13.462  66.136  1.00  0.00    -0.295 C  
HETATM    6  H   UNL     1     -11.018  17.102  63.865  1.00  0.00     0.000 HD 
HETATM    7  O   UNL     1      -9.871  14.002  66.175  1.00  0.00    -0.292 OA 
HETATM    8  O   UNL     1     -11.599  16.617  64.439  1.00  0.00    -0.852 OA 
HETATM    9  C   UNL     1      -9.841  15.170  65.331  1.00  0.00    -0.274 C  
HETATM   10  C   UNL     1     -11.177  15.271  64.603  1.00  0.00    -0.356 C  
ENDROOT
BRANCH   4  11
HETATM   11  O   UNL     1     -10.285  12.267  64.240  1.00  0.00    -0.314 OA 
HETATM   12  O   UNL     1     -10.112  10.061  64.695  1.00  0.00    -0.271 OA 
HETATM   13  N   UNL     1      -9.641  11.019  64.079  1.00  0.00    -0.251 N  
HETATM   14  O   UNL     1      -8.712  11.064  63.279  1.00  0.00    -0.142 OA 
ENDBRANCH   4  11
TORSDOF 1
ENDMDL
MODEL       19
REMARK 921   NORMALIZED FREE ENERGY PREDICTED BY IDOCK:   -4.36 KCAL/MOL
REMARK 922        TOTAL FREE ENERGY PREDICTED BY IDOCK:   -4.81 KCAL/MOL
REMARK 923 INTER-LIGAND FREE ENERGY PREDICTED BY IDOCK:   -4.62 KCAL/MOL
REMARK 924 INTRA-LIGAND FREE ENERGY PREDICTED BY IDOCK:   -0.19 KCAL/MOL
REMARK 927      BINDING AFFINITY PREDICTED BY RF-SCORE:    0.00 PKD
ROOT
HETATM    1  C   UNL     1     -11.462  12.280  65.551  1.00  0.00    -0.361 C  
HETATM    2  O   UNL     1     -10.507  11.812  66.505  1.00  0.00    -0.218 OA 
HETATM    3  C   UNL     1     -10.470  12.728  67.613  1.00  0.00    -0.220 C  
HETATM    4  C   UNL     1     -11.541  13.799  67.407  1.00  0.00    -0.362 C  
HETATM    5  C   UNL     1     -12.383  13.237  66.265  1.00  0.00    -0.317 C  
HETATM    6  H   UNL     1     -10.089  12.929  62.649  1.00  0.00     0.000 HD 
HETATM    7  O   UNL     1     -12.805  14.233  65.329  1.00  0.00    -0.630 OA 
HETATM    8  O   UNL     1     -10.478  12.387  63.325  1.00  0.00    -0.395 OA 
HETATM    9  C   UNL     1     -11.951  14.146  64.171  1.00  0.00    -0.393 C  
HETATM   10  C   UNL     1     -10.838  13.148  64.469  1.00  0.00    -0.383 C  
ENDROOT
BRANCH   4  11
HETATM   11  O   UNL     1     -10.933  15.027  67.001  1.00  0.00    -0.307 OA 
HETATM   12  O   UNL     1     -11.862  15.858  68.886  1.00  0.00    -0.397 OA 
HETATM   13  N   UNL     1     -11.232  16.111  67.857  1.00  0.00    -0.294 N  
HETATM   14  O   UNL     1     -10.756  17.171  67.465  1.00  0.00    -0.342 OA 
ENDBRANCH   4  11
TORSDOF 1
ENDMDL
MODEL       20
REMARK 921   NORMALIZED FREE ENERGY PREDICTED BY IDOCK:   -4.36 KCAL/MOL
REMARK 922        TOTAL FREE ENERGY PREDICTED BY IDOCK:   -4.80 KCAL/MOL
REMARK 923 INTER-LIGAND FREE ENERGY PREDICTED BY IDOCK:   -4.67 KCAL/MOL
REMARK 924 INTRA-LIGAND FREE ENERGY PREDICTED BY IDOCK:   -0.13 KCAL/MOL
REMARK 927      BINDING AFFINITY PREDICTED BY RF-SCORE:    0.00 PKD
ROOT
HETATM    1  C   UNL     1      -8.895  18.759  66.349  1.00  0.00    -0.291 C  
HETATM    2  O   UNL     1      -8.177  17.596  65.933  1.00  0.00    -0.534 OA 
HETATM    3  C   UNL     1      -9.017  16.442  66.109  1.00  0.00    -0.332 C  
HETATM    4  C   UNL     1     -10.399  16.902  66.571  1.00  0.00    -0.299 C  
HETATM    5  C   UNL     1     -10.362  18.410  66.340  1.00  0.00    -0.405 C  
HETATM    6  H   UNL     1      -7.423  20.291  68.842  1.00  0.00     0.000 HD 
HETATM    7  O   UNL     1     -11.005  19.157  67.378  1.00  0.00    -0.475 OA 
HETATM    8  O   UNL     1      -7.584  20.064  67.933  1.00  0.00    -0.290 OA 
HETATM    9  C   UNL     1      -9.982  19.695  68.238  1.00  0.00    -0.436 C  
HETATM   10  C   UNL     1      -8.638  19.121  67.804  1.00  0.00    -0.301 C  
ENDROOT
BRANCH   4  11
HETATM   11  O   UNL     1     -10.565  16.629  67.964  1.00  0.00    -0.311 OA 
HETATM   12  O   UNL     1     -11.855  14.916  67.253  1.00  0.00    -0.345 OA 
HETATM   13  N   UNL     1     -11.442  15.551  68.225  1.00  0.00    -0.354 N  
HETATM   14  O   UNL     1     -11.623  15.367  69.424  1.00  0.00    -0.296 OA 
ENDBRANCH   4  11
TORSDOF 1
ENDMDL
MODEL       21
REMARK 921   NORMALIZED FREE ENERGY PREDICTED BY IDOCK:   -4.35 KCAL/MOL
REMARK 922        TOTAL FREE ENERGY PREDICTED BY IDOCK:   -4.80 KCAL/MOL
REMARK 923 INTER-LIGAND FREE ENERGY PREDICTED BY IDOCK:   -4.60 KCAL/MOL
REMARK 924 INTRA-LIGAND FREE ENERGY PREDICTED BY IDOCK:   -0.19 KCAL/MOL
REMARK 927      BINDING AFFINITY PREDICTED BY RF-SCORE:    0.00 PKD
ROOT
HETATM    1  C   UNL     1     -11.819  12.130  66.052  1.00  0.00    -0.257 C  
HETATM    2  O   UNL     1     -10.642  11.387  65.730  1.00  0.00    -0.255 OA 
HETATM    3  C   UNL     1      -9.488  12.164  66.094  1.00  0.00    -0.224 C  
HETATM    4  C   UNL     1      -9.952  13.445  66.787  1.00  0.00    -0.264 C  
HETATM    5  C   UNL     1     -11.429  13.179  67.062  1.00  0.00    -0.336 C  
HETATM    6  H   UNL     1     -13.638  12.766  63.403  1.00  0.00     0.000 HD 
HETATM    7  O   UNL     1     -12.258  14.327  66.856  1.00  0.00    -0.438 OA 
HETATM    8  O   UNL     1     -13.316  12.251  64.134  1.00  0.00    -0.731 OA 
HETATM    9  C   UNL     1     -12.910  14.182  65.579  1.00  0.00    -0.376 C  
HETATM   10  C   UNL     1     -12.334  12.954  64.883  1.00  0.00    -0.475 C  
ENDROOT
BRANCH   4  11
HETATM   11  O   UNL     1      -9.816  14.558  65.901  1.00  0.00    -0.305 OA 
HETATM   12  O   UNL     1      -8.816  15.560  67.662  1.00  0.00    -0.175 OA 
HETATM   13  N   UNL     1      -9.235  15.693  66.510  1.00  0.00    -0.267 N  
HETATM   14  O   UNL     1      -9.181  16.660  65.758  1.00  0.00    -0.502 OA 
ENDBRANCH   4  11
TORSDOF 1
ENDMDL
MODEL       22
REMARK 921   NORMALIZED FREE ENERGY PREDICTED BY IDOCK:   -4.34 KCAL/MOL
REMARK 922        TOTAL FREE ENERGY PREDICTED BY IDOCK:   -4.78 KCAL/MOL
REMARK 923 INTER-LIGAND FREE ENERGY PREDICTED BY IDOCK:   -4.60 KCAL/MOL
REMARK 924 INTRA-LIGAND FREE ENERGY PREDICTED BY IDOCK:   -0.18 KCAL/MOL
REMARK 927      BINDING AFFINITY PREDICTED BY RF-SCORE:    0.00 PKD
ROOT
HETATM    1  C   UNL     1     -10.952  13.077  65.597  1.00  0.00    -0.273 C  
HETATM    2  O   UNL     1     -11.902  13.646  64.694  1.00  0.00    -0.364 OA 
HETATM    3  C   UNL     1     -11.670  15.062  64.605  1.00  0.00    -0.382 C  
HETATM    4  C   UNL     1     -10.427  15.412  65.423  1.00  0.00    -0.402 C  
HETATM    5  C   UNL     1      -9.806  14.050  65.717  1.00  0.00    -0.256 C  
HETATM    6  H   UNL     1     -12.394  11.663  68.175  1.00  0.00     0.000 HD 
HETATM    7  O   UNL     1      -9.270  13.946  67.040  1.00  0.00    -0.231 OA 
HETATM    8  O   UNL     1     -12.068  11.721  67.285  1.00  0.00    -0.595 OA 
HETATM    9  C   UNL     1     -10.213  13.213  67.846  1.00  0.00    -0.233 C  
HETATM   10  C   UNL     1     -11.475  12.985  67.022  1.00  0.00    -0.333 C  
ENDROOT
BRANCH   4  11
HETATM   11  O   UNL     1     -10.808  16.045  66.646  1.00  0.00    -0.285 OA 
HETATM   12  O   UNL     1      -9.793  17.863  65.770  1.00  0.00    -0.540 OA 
HETATM   13  N   UNL     1     -10.348  17.377  66.757  1.00  0.00    -0.317 N  
HETATM   14  O   UNL     1     -10.629  17.888  67.835  1.00  0.00    -0.389 OA 
ENDBRANCH   4  11
TORSDOF 1
ENDMDL
MODEL       23
REMARK 921   NORMALIZED FREE ENERGY PREDICTED BY IDOCK:   -4.33 KCAL/MOL
REMARK 922        TOTAL FREE ENERGY PREDICTED BY IDOCK:   -4.77 KCAL/MOL
REMARK 923 INTER-LIGAND FREE ENERGY PREDICTED BY IDOCK:   -4.63 KCAL/MOL
REMARK 924 INTRA-LIGAND FREE ENERGY PREDICTED BY IDOCK:   -0.14 KCAL/MOL
REMARK 927      BINDING AFFINITY PREDICTED BY RF-SCORE:    0.00 PKD
ROOT
HETATM    1  C   UNL     1     -11.764  14.292  64.804  1.00  0.00    -0.415 C  
HETATM    2  O   UNL     1     -11.223  13.408  63.820  1.00  0.00    -0.289 OA 
HETATM    3  C   UNL     1     -11.035  12.111  64.412  1.00  0.00    -0.326 C  
HETATM    4  C   UNL     1     -11.585  12.134  65.838  1.00  0.00    -0.364 C  
HETATM    5  C   UNL     1     -12.372  13.441  65.890  1.00  0.00    -0.437 C  
HETATM    6  H   UNL     1      -9.783  16.832  65.401  1.00  0.00     0.000 HD 
HETATM    7  O   UNL     1     -12.233  14.137  67.132  1.00  0.00    -0.421 OA 
HETATM    8  O   UNL     1     -10.453  16.341  64.939  1.00  0.00    -0.624 OA 
HETATM    9  C   UNL     1     -11.291  15.209  66.939  1.00  0.00    -0.264 C  
HETATM   10  C   UNL     1     -10.692  15.077  65.543  1.00  0.00    -0.359 C  
ENDROOT
BRANCH   4  11
HETATM   11  O   UNL     1     -10.508  12.180  66.777  1.00  0.00    -0.215 OA 
HETATM   12  O   UNL     1     -11.764  10.720  67.959  1.00  0.00    -0.528 OA 
HETATM   13  N   UNL     1     -10.744  11.413  67.940  1.00  0.00    -0.189 N  
HETATM   14  O   UNL     1      -9.840  11.509  68.764  1.00  0.00    -0.201 OA 
ENDBRANCH   4  11
TORSDOF 1
ENDMDL
MODEL       24
REMARK 921   NORMALIZED FREE ENERGY PREDICTED BY IDOCK:   -4.32 KCAL/MOL
REMARK 922        TOTAL FREE ENERGY PREDICTED BY IDOCK:   -4.76 KCAL/MOL
REMARK 923 INTER-LIGAND FREE ENERGY PREDICTED BY IDOCK:   -4.63 KCAL/MOL
REMARK 924 INTRA-LIGAND FREE ENERGY PREDICTED BY IDOCK:   -0.13 KCAL/MOL
REMARK 927      BINDING AFFINITY PREDICTED BY RF-SCORE:    0.00 PKD
ROOT
HETATM    1  C   UNL     1     -10.665  13.012  65.942  1.00  0.00    -0.276 C  
HETATM    2  O   UNL     1      -9.354  13.181  66.485  1.00  0.00    -0.252 OA 
HETATM    3  C   UNL     1      -9.239  14.511  67.019  1.00  0.00    -0.240 C  
HETATM    4  C   UNL     1     -10.594  15.209  66.904  1.00  0.00    -0.297 C  
HETATM    5  C   UNL     1     -11.547  14.070  66.556  1.00  0.00    -0.374 C  
HETATM    6  H   UNL     1     -10.596  12.364  62.732  1.00  0.00     0.000 HD 
HETATM    7  O   UNL     1     -12.540  14.436  65.593  1.00  0.00    -0.408 OA 
HETATM    8  O   UNL     1     -10.553  12.166  63.661  1.00  0.00    -0.386 OA 
HETATM    9  C   UNL     1     -12.132  13.915  64.313  1.00  0.00    -0.440 C  
HETATM   10  C   UNL     1     -10.732  13.329  64.457  1.00  0.00    -0.411 C  
ENDROOT
BRANCH   4  11
HETATM   11  O   UNL     1     -10.566  16.160  65.838  1.00  0.00    -0.327 OA 
HETATM   12  O   UNL     1     -10.429  17.690  67.495  1.00  0.00    -0.351 OA 
HETATM   13  N   UNL     1     -10.541  17.502  66.282  1.00  0.00    -0.258 N  
HETATM   14  O   UNL     1     -10.579  18.308  65.358  1.00  0.00    -0.612 OA 
ENDBRANCH   4  11
TORSDOF 1
ENDMDL
MODEL       25
REMARK 921   NORMALIZED FREE ENERGY PREDICTED BY IDOCK:   -4.32 KCAL/MOL
REMARK 922        TOTAL FREE ENERGY PREDICTED BY IDOCK:   -4.76 KCAL/MOL
REMARK 923 INTER-LIGAND FREE ENERGY PREDICTED BY IDOCK:   -4.57 KCAL/MOL
REMARK 924 INTRA-LIGAND FREE ENERGY PREDICTED BY IDOCK:   -0.19 KCAL/MOL
REMARK 927      BINDING AFFINITY PREDICTED BY RF-SCORE:    0.00 PKD
ROOT
HETATM    1  C   UNL     1     -12.008  12.403  65.997  1.00  0.00    -0.350 C  
HETATM    2  O   UNL     1     -11.964  11.953  67.352  1.00  0.00    -0.603 OA 
HETATM    3  C   UNL     1     -11.792  13.090  68.215  1.00  0.00    -0.343 C  
HETATM    4  C   UNL     1     -11.831  14.363  67.370  1.00  0.00    -0.400 C  
HETATM    5  C   UNL     1     -12.347  13.872  66.020  1.00  0.00    -0.475 C  
HETATM    6  H   UNL     1      -9.577  11.142  64.200  1.00  0.00     0.000 HD 
HETATM    7  O   UNL     1     -11.701  14.496  64.906  1.00  0.00    -0.367 OA 
HETATM    8  O   UNL     1     -10.428  11.159  64.621  1.00  0.00    -0.309 OA 
HETATM    9  C   UNL     1     -10.723  13.575  64.385  1.00  0.00    -0.388 C  
HETATM   10  C   UNL     1     -10.645  12.376  65.323  1.00  0.00    -0.290 C  
ENDROOT
BRANCH   4  11
HETATM   11  O   UNL     1     -10.511  14.892  67.220  1.00  0.00    -0.257 OA 
HETATM   12  O   UNL     1     -11.358  16.713  68.255  1.00  0.00    -0.309 OA 
HETATM   13  N   UNL     1     -10.383  16.220  67.685  1.00  0.00    -0.277 N  
HETATM   14  O   UNL     1      -9.263  16.683  67.496  1.00  0.00    -0.206 OA 
ENDBRANCH   4  11
TORSDOF 1
ENDMDL
MODEL       26
REMARK 921   NORMALIZED FREE ENERGY PREDICTED BY IDOCK:   -4.32 KCAL/MOL
REMARK 922        TOTAL FREE ENERGY PREDICTED BY IDOCK:   -4.76 KCAL/MOL
REMARK 923 INTER-LIGAND FREE ENERGY PREDICTED BY IDOCK:   -4.60 KCAL/MOL
REMARK 924 INTRA-LIGAND FREE ENERGY PREDICTED BY IDOCK:   -0.15 KCAL/MOL
REMARK 927      BINDING AFFINITY PREDICTED BY RF-SCORE:    0.00 PKD
ROOT
HETATM    1  C   UNL     1      -9.087  17.089  68.386  1.00  0.00    -0.256 C  
HETATM    2  O   UNL     1      -8.100  17.427  67.410  1.00  0.00    -0.195 OA 
HETATM    3  C   UNL     1      -8.711  17.419  66.108  1.00  0.00    -0.147 C  
HETATM    4  C   UNL     1     -10.209  17.160  66.266  1.00  0.00    -0.334 C  
HETATM    5  C   UNL     1     -10.439  17.335  67.764  1.00  0.00    -0.371 C  
HETATM    6  H   UNL     1      -8.324  14.353  70.017  1.00  0.00     0.000 HD 
HETATM    7  O   UNL     1     -11.360  16.386  68.310  1.00  0.00    -0.350 OA 
HETATM    8  O   UNL     1      -8.303  15.282  69.820  1.00  0.00    -0.194 OA 
HETATM    9  C   UNL     1     -10.599  15.362  68.980  1.00  0.00    -0.247 C  
HETATM   10  C   UNL     1      -9.120  15.602  68.702  1.00  0.00    -0.205 C  
ENDROOT
BRANCH   4  11
HETATM   11  O   UNL     1     -10.517  15.819  65.882  1.00  0.00    -0.315 OA 
HETATM   12  O   UNL     1     -11.468  16.785  64.074  1.00  0.00    -1.198 OA 
HETATM   13  N   UNL     1     -11.271  15.735  64.690  1.00  0.00    -0.423 N  
HETATM   14  O   UNL     1     -11.581  14.583  64.404  1.00  0.00    -0.369 OA 
ENDBRANCH   4  11
TORSDOF 1
ENDMDL
MODEL       27
REMARK 921   NORMALIZED FREE ENERGY PREDICTED BY IDOCK:   -4.27 KCAL/MOL
REMARK 922        TOTAL FREE ENERGY PREDICTED BY IDOCK:   -4.71 KCAL/MOL
REMARK 923 INTER-LIGAND FREE ENERGY PREDICTED BY IDOCK:   -4.55 KCAL/MOL
REMARK 924 INTRA-LIGAND FREE ENERGY PREDICTED BY IDOCK:   -0.16 KCAL/MOL
REMARK 927      BINDING AFFINITY PREDICTED BY RF-SCORE:    0.00 PKD
ROOT
HETATM    1  C   UNL     1     -12.202  12.886  64.078  1.00  0.00    -0.426 C  
HETATM    2  O   UNL     1     -11.261  12.475  63.085  1.00  0.00    -0.388 OA 
HETATM    3  C   UNL     1     -10.198  11.747  63.723  1.00  0.00    -0.399 C  
HETATM    4  C   UNL     1     -10.527  11.591  65.207  1.00  0.00    -0.283 C  
HETATM    5  C   UNL     1     -11.992  12.011  65.288  1.00  0.00    -0.139 C  
HETATM    6  H   UNL     1     -12.481  16.146  64.239  1.00  0.00     0.000 HD 
HETATM    7  O   UNL     1     -12.296  12.782  66.454  1.00  0.00    -0.500 OA 
HETATM    8  O   UNL     1     -12.655  15.274  63.905  1.00  0.00    -0.765 OA 
HETATM    9  C   UNL     1     -12.365  14.168  66.067  1.00  0.00    -0.445 C  
HETATM   10  C   UNL     1     -11.923  14.283  64.612  1.00  0.00    -0.455 C  
ENDROOT
BRANCH   4  11
HETATM   11  O   UNL     1      -9.724  12.484  65.983  1.00  0.00    -0.256 OA 
HETATM   12  O   UNL     1      -9.485  10.717  67.370  1.00  0.00    -0.153 OA 
HETATM   13  N   UNL     1      -9.255  11.914  67.189  1.00  0.00    -0.178 N  
HETATM   14  O   UNL     1      -8.619  12.709  67.873  1.00  0.00    -0.160 OA 
ENDBRANCH   4  11
TORSDOF 1
ENDMDL
MODEL       28
REMARK 921   NORMALIZED FREE ENERGY PREDICTED BY IDOCK:   -4.25 KCAL/MOL
REMARK 922        TOTAL FREE ENERGY PREDICTED BY IDOCK:   -4.68 KCAL/MOL
REMARK 923 INTER-LIGAND FREE ENERGY PREDICTED BY IDOCK:   -4.51 KCAL/MOL
REMARK 924 INTRA-LIGAND FREE ENERGY PREDICTED BY IDOCK:   -0.17 KCAL/MOL
REMARK 927      BINDING AFFINITY PREDICTED BY RF-SCORE:    0.00 PKD
ROOT
HETATM    1  C   UNL     1     -10.760  17.665  67.189  1.00  0.00    -0.200 C  
HETATM    2  O   UNL     1      -9.985  16.568  67.676  1.00  0.00    -0.245 OA 
HETATM    3  C   UNL     1      -8.865  17.082  68.417  1.00  0.00    -0.247 C  
HETATM    4  C   UNL     1      -8.982  18.603  68.500  1.00  0.00    -0.334 C  
HETATM    5  C   UNL     1     -10.406  18.872  68.022  1.00  0.00    -0.389 C  
HETATM    6  H   UNL     1     -10.910  17.714  63.918  1.00  0.00     0.000 HD 
HETATM    7  O   UNL     1     -10.515  20.033  67.193  1.00  0.00    -0.427 OA 
HETATM    8  O   UNL     1     -11.157  17.449  64.796  1.00  0.00    -0.973 OA 
HETATM    9  C   UNL     1     -10.595  19.596  65.822  1.00  0.00    -0.438 C  
HETATM   10  C   UNL     1     -10.363  18.090  65.784  1.00  0.00    -0.175 C  
ENDROOT
BRANCH   4  11
HETATM   11  O   UNL     1      -8.048  19.215  67.607  1.00  0.00    -0.262 OA 
HETATM   12  O   UNL     1      -7.008  19.882  69.499  1.00  0.00    -0.325 OA 
HETATM   13  N   UNL     1      -7.038  19.950  68.268  1.00  0.00    -0.295 N  
HETATM   14  O   UNL     1      -6.279  20.519  67.491  1.00  0.00    -0.205 OA 
ENDBRANCH   4  11
TORSDOF 1
ENDMDL
MODEL       29
REMARK 921   NORMALIZED FREE ENERGY PREDICTED BY IDOCK:   -4.19 KCAL/MOL
REMARK 922        TOTAL FREE ENERGY PREDICTED BY IDOCK:   -4.63 KCAL/MOL
REMARK 923 INTER-LIGAND FREE ENERGY PREDICTED BY IDOCK:   -4.44 KCAL/MOL
REMARK 924 INTRA-LIGAND FREE ENERGY PREDICTED BY IDOCK:   -0.18 KCAL/MOL
REMARK 927      BINDING AFFINITY PREDICTED BY RF-SCORE:    0.00 PKD
ROOT
HETATM    1  C   UNL     1     -11.723  13.274  66.711  1.00  0.00    -0.385 C  
HETATM    2  O   UNL     1     -12.095  12.192  67.566  1.00  0.00    -0.534 OA 
HETATM    3  C   UNL     1     -11.204  11.088  67.335  1.00  0.00    -0.285 C  
HETATM    4  C   UNL     1     -10.127  11.521  66.341  1.00  0.00    -0.216 C  
HETATM    5  C   UNL     1     -10.299  13.036  66.276  1.00  0.00    -0.285 C  
HETATM    6  H   UNL     1     -14.126  14.093  64.641  1.00  0.00     0.000 HD 
HETATM    7  O   UNL     1     -10.141  13.567  64.957  1.00  0.00    -0.316 OA 
HETATM    8  O   UNL     1     -13.649  14.092  65.463  1.00  0.00    -0.596 OA 
HETATM    9  C   UNL     1     -11.453  13.824  64.420  1.00  0.00    -0.372 C  
HETATM   10  C   UNL     1     -12.487  13.276  65.396  1.00  0.00    -0.489 C  
ENDROOT
BRANCH   4  11
HETATM   11  O   UNL     1     -10.385  10.948  65.058  1.00  0.00    -0.285 OA 
HETATM   12  O   UNL     1      -8.187  10.430  65.086  1.00  0.00    -0.158 OA 
HETATM   13  N   UNL     1      -9.229  10.434  64.429  1.00  0.00    -0.227 N  
HETATM   14  O   UNL     1      -9.454  10.001  63.304  1.00  0.00    -0.295 OA 
ENDBRANCH   4  11
TORSDOF 1
ENDMDL
MODEL       30
REMARK 921   NORMALIZED FREE ENERGY PREDICTED BY IDOCK:   -4.18 KCAL/MOL
REMARK 922        TOTAL FREE ENERGY PREDICTED BY IDOCK:   -4.61 KCAL/MOL
REMARK 923 INTER-LIGAND FREE ENERGY PREDICTED BY IDOCK:   -4.43 KCAL/MOL
REMARK 924 INTRA-LIGAND FREE ENERGY PREDICTED BY IDOCK:   -0.18 KCAL/MOL
REMARK 927      BINDING AFFINITY PREDICTED BY RF-SCORE:    0.00 PKD
ROOT
HETATM    1  C   UNL     1     -11.811  14.313  66.854  1.00  0.00    -0.433 C  
HETATM    2  O   UNL     1     -11.049  15.284  66.135  1.00  0.00    -0.336 OA 
HETATM    3  C   UNL     1     -10.488  14.663  64.966  1.00  0.00    -0.421 C  
HETATM    4  C   UNL     1     -11.004  13.228  64.872  1.00  0.00    -0.330 C  
HETATM    5  C   UNL     1     -12.134  13.193  65.896  1.00  0.00    -0.444 C  
HETATM    6  H   UNL     1     -10.641  13.819  69.874  1.00  0.00     0.000 HD 
HETATM    7  O   UNL     1     -12.188  11.972  66.640  1.00  0.00    -0.550 OA 
HETATM    8  O   UNL     1     -11.146  14.255  69.197  1.00  0.00    -0.248 OA 
HETATM    9  C   UNL     1     -11.598  12.211  67.932  1.00  0.00    -0.347 C  
HETATM   10  C   UNL     1     -11.003  13.615  67.937  1.00  0.00    -0.259 C  
ENDROOT
BRANCH   4  11
HETATM   11  O   UNL     1      -9.976  12.312  65.254  1.00  0.00    -0.262 OA 
HETATM   12  O   UNL     1     -10.111  11.603  63.113  1.00  0.00    -0.397 OA 
HETATM   13  N   UNL     1      -9.607  11.419  64.223  1.00  0.00    -0.216 N  
HETATM   14  O   UNL     1      -8.768  10.599  64.582  1.00  0.00    -0.184 OA 
ENDBRANCH   4  11
TORSDOF 1
ENDMDL
MODEL       31
REMARK 921   NORMALIZED FREE ENERGY PREDICTED BY IDOCK:   -4.15 KCAL/MOL
REMARK 922        TOTAL FREE ENERGY PREDICTED BY IDOCK:   -4.58 KCAL/MOL
REMARK 923 INTER-LIGAND FREE ENERGY PREDICTED BY IDOCK:   -4.39 KCAL/MOL
REMARK 924 INTRA-LIGAND FREE ENERGY PREDICTED BY IDOCK:   -0.18 KCAL/MOL
REMARK 927      BINDING AFFINITY PREDICTED BY RF-SCORE:    0.00 PKD
ROOT
HETATM    1  C   UNL     1     -10.645  11.059  69.397  1.00  0.00    -0.174 C  
HETATM    2  O   UNL     1     -10.586   9.768  68.789  1.00  0.00    -0.207 OA 
HETATM    3  C   UNL     1     -10.645   9.923  67.361  1.00  0.00    -0.277 C  
HETATM    4  C   UNL     1     -10.640  11.414  67.024  1.00  0.00    -0.248 C  
HETATM    5  C   UNL     1     -10.260  12.071  68.348  1.00  0.00    -0.209 C  
HETATM    6  H   UNL     1     -13.262  11.386  71.340  1.00  0.00     0.000 HD 
HETATM    7  O   UNL     1     -10.980  13.279  68.607  1.00  0.00    -0.248 OA 
HETATM    8  O   UNL     1     -12.377  11.128  71.109  1.00  0.00    -0.365 OA 
HETATM    9  C   UNL     1     -12.028  12.979  69.549  1.00  0.00    -0.289 C  
HETATM   10  C   UNL     1     -12.062  11.471  69.767  1.00  0.00    -0.306 C  
ENDROOT
BRANCH   4  11
HETATM   11  O   UNL     1     -11.950  11.832  66.635  1.00  0.00    -0.561 OA 
HETATM   12  O   UNL     1     -10.978  12.293  64.649  1.00  0.00    -0.284 OA 
HETATM   13  N   UNL     1     -12.006  12.361  65.325  1.00  0.00    -0.416 N  
HETATM   14  O   UNL     1     -13.122  12.772  65.026  1.00  0.00    -0.811 OA 
ENDBRANCH   4  11
TORSDOF 1
ENDMDL
MODEL       32
REMARK 921   NORMALIZED FREE ENERGY PREDICTED BY IDOCK:   -4.12 KCAL/MOL
REMARK 922        TOTAL FREE ENERGY PREDICTED BY IDOCK:   -4.55 KCAL/MOL
REMARK 923 INTER-LIGAND FREE ENERGY PREDICTED BY IDOCK:   -4.36 KCAL/MOL
REMARK 924 INTRA-LIGAND FREE ENERGY PREDICTED BY IDOCK:   -0.20 KCAL/MOL
REMARK 927      BINDING AFFINITY PREDICTED BY RF-SCORE:    0.00 PKD
ROOT
HETATM    1  C   UNL     1     -11.256  14.118  65.195  1.00  0.00    -0.337 C  
HETATM    2  O   UNL     1     -12.121  14.499  66.267  1.00  0.00    -0.377 OA 
HETATM    3  C   UNL     1     -11.869  13.644  67.395  1.00  0.00    -0.393 C  
HETATM    4  C   UNL     1     -10.697  12.721  67.064  1.00  0.00    -0.253 C  
HETATM    5  C   UNL     1     -10.115  13.333  65.793  1.00  0.00    -0.286 C  
HETATM    6  H   UNL     1     -12.925  13.140  62.552  1.00  0.00     0.000 HD 
HETATM    7  O   UNL     1      -9.696  12.357  64.836  1.00  0.00    -0.139 OA 
HETATM    8  O   UNL     1     -12.524  13.764  63.145  1.00  0.00    -0.786 OA 
HETATM    9  C   UNL     1     -10.710  12.267  63.817  1.00  0.00    -0.449 C  
HETATM   10  C   UNL     1     -11.899  13.119  64.246  1.00  0.00    -0.406 C  
ENDROOT
BRANCH   4  11
HETATM   11  O   UNL     1     -11.175  11.402  66.792  1.00  0.00    -0.305 OA 
HETATM   12  O   UNL     1      -9.715  10.774  68.397  1.00  0.00    -0.161 OA 
HETATM   13  N   UNL     1     -10.516  10.399  67.539  1.00  0.00    -0.227 N  
HETATM   14  O   UNL     1     -10.893   9.268  67.251  1.00  0.00    -0.238 OA 
ENDBRANCH   4  11
TORSDOF 1
ENDMDL
MODEL       33
REMARK 921   NORMALIZED FREE ENERGY PREDICTED BY IDOCK:   -4.10 KCAL/MOL
REMARK 922        TOTAL FREE ENERGY PREDICTED BY IDOCK:   -4.53 KCAL/MOL
REMARK 923 INTER-LIGAND FREE ENERGY PREDICTED BY IDOCK:   -4.36 KCAL/MOL
REMARK 924 INTRA-LIGAND FREE ENERGY PREDICTED BY IDOCK:   -0.16 KCAL/MOL
REMARK 927      BINDING AFFINITY PREDICTED BY RF-SCORE:    0.00 PKD
ROOT
HETATM    1  C   UNL     1     -13.054   9.293  72.413  1.00  0.00    -0.406 C  
HETATM    2  O   UNL     1     -14.325   8.663  72.240  1.00  0.00    -0.451 OA 
HETATM    3  C   UNL     1     -14.122   7.345  71.703  1.00  0.00    -0.421 C  
HETATM    4  C   UNL     1     -12.622   7.069  71.621  1.00  0.00    -0.380 C  
HETATM    5  C   UNL     1     -12.011   8.204  72.438  1.00  0.00    -0.372 C  
HETATM    6  H   UNL     1     -12.772  12.016  70.614  1.00  0.00     0.000 HD 
HETATM    7  O   UNL     1     -10.807   8.727  71.870  1.00  0.00    -0.314 OA 
HETATM    8  O   UNL     1     -13.028  11.491  71.364  1.00  0.00    -0.412 OA 
HETATM    9  C   UNL     1     -11.130   9.959  71.198  1.00  0.00    -0.289 C  
HETATM   10  C   UNL     1     -12.644  10.132  71.213  1.00  0.00    -0.404 C  
ENDROOT
BRANCH   4  11
HETATM   11  O   UNL     1     -12.181   7.159  70.264  1.00  0.00    -0.111 OA 
HETATM   12  O   UNL     1     -10.993   5.302  70.754  1.00  0.00    -0.130 OA 
HETATM   13  N   UNL     1     -11.234   6.171  69.914  1.00  0.00    -0.406 N  
HETATM   14  O   UNL     1     -10.819   6.296  68.766  1.00  0.00    -0.268 OA 
ENDBRANCH   4  11
TORSDOF 1
ENDMDL
MODEL       34
REMARK 921   NORMALIZED FREE ENERGY PREDICTED BY IDOCK:   -4.08 KCAL/MOL
REMARK 922        TOTAL FREE ENERGY PREDICTED BY IDOCK:   -4.50 KCAL/MOL
REMARK 923 INTER-LIGAND FREE ENERGY PREDICTED BY IDOCK:   -4.34 KCAL/MOL
REMARK 924 INTRA-LIGAND FREE ENERGY PREDICTED BY IDOCK:   -0.17 KCAL/MOL
REMARK 927      BINDING AFFINITY PREDICTED BY RF-SCORE:    0.00 PKD
ROOT
HETATM    1  C   UNL     1      -9.558  20.335  67.381  1.00  0.00    -0.432 C  
HETATM    2  O   UNL     1     -10.175  20.328  66.092  1.00  0.00    -0.418 OA 
HETATM    3  C   UNL     1     -10.663  19.004  65.817  1.00  0.00    -0.276 C  
HETATM    4  C   UNL     1     -10.439  18.127  67.048  1.00  0.00    -0.370 C  
HETATM    5  C   UNL     1     -10.076  19.135  68.135  1.00  0.00    -0.402 C  
HETATM    6  H   UNL     1      -6.386  21.135  67.227  1.00  0.00     0.000 HD 
HETATM    7  O   UNL     1      -9.040  18.677  69.009  1.00  0.00    -0.231 OA 
HETATM    8  O   UNL     1      -7.322  21.293  67.265  1.00  0.00    -0.484 OA 
HETATM    9  C   UNL     1      -7.808  19.309  68.610  1.00  0.00    -0.361 C  
HETATM   10  C   UNL     1      -8.060  20.080  67.319  1.00  0.00    -0.320 C  
ENDROOT
BRANCH   4  11
HETATM   11  O   UNL     1      -9.340  17.240  66.824  1.00  0.00    -0.242 OA 
HETATM   12  O   UNL     1     -10.925  15.630  66.807  1.00  0.00    -0.310 OA 
HETATM   13  N   UNL     1      -9.718  15.879  66.773  1.00  0.00    -0.230 N  
HETATM   14  O   UNL     1      -8.760  15.125  66.642  1.00  0.00    -0.262 OA 
ENDBRANCH   4  11
TORSDOF 1
ENDMDL
MODEL       35
REMARK 921   NORMALIZED FREE ENERGY PREDICTED BY IDOCK:   -4.05 KCAL/MOL
REMARK 922        TOTAL FREE ENERGY PREDICTED BY IDOCK:   -4.48 KCAL/MOL
REMARK 923 INTER-LIGAND FREE ENERGY PREDICTED BY IDOCK:   -4.53 KCAL/MOL
REMARK 924 INTRA-LIGAND FREE ENERGY PREDICTED BY IDOCK:    0.05 KCAL/MOL
REMARK 927      BINDING AFFINITY PREDICTED BY RF-SCORE:    0.00 PKD
ROOT
HETATM    1  C   UNL     1     -10.066  16.608  65.972  1.00  0.00    -0.340 C  
HETATM    2  O   UNL     1     -10.596  17.512  66.943  1.00  0.00    -0.305 OA 
HETATM    3  C   UNL     1     -10.787  16.806  68.181  1.00  0.00    -0.353 C  
HETATM    4  C   UNL     1     -10.250  15.384  68.028  1.00  0.00    -0.235 C  
HETATM    5  C   UNL     1      -9.466  15.444  66.720  1.00  0.00    -0.241 C  
HETATM    6  H   UNL     1     -12.055  16.261  63.393  1.00  0.00     0.000 HD 
HETATM    7  O   UNL     1      -9.617  14.271  65.915  1.00  0.00    -0.274 OA 
HETATM    8  O   UNL     1     -11.381  16.671  63.923  1.00  0.00    -1.104 OA 
HETATM    9  C   UNL     1     -10.559  14.569  64.866  1.00  0.00    -0.427 C  
HETATM   10  C   UNL     1     -11.145  15.952  65.126  1.00  0.00    -0.311 C  
ENDROOT
BRANCH   4  11
HETATM   11  O   UNL     1     -11.336  14.462  67.900  1.00  0.00    -0.274 OA 
HETATM   12  O   UNL     1      -9.930  13.003  68.899  1.00  0.00    -0.066 OA 
HETATM   13  N   UNL     1     -11.024  13.160  68.353  1.00  0.00    -0.251 N  
HETATM   14  O   UNL     1     -11.942  12.366  68.181  1.00  0.00    -0.344 OA 
ENDBRANCH   4  11
TORSDOF 1
ENDMDL
MODEL       36
REMARK 921   NORMALIZED FREE ENERGY PREDICTED BY IDOCK:   -4.02 KCAL/MOL
REMARK 922        TOTAL FREE ENERGY PREDICTED BY IDOCK:   -4.45 KCAL/MOL
REMARK 923 INTER-LIGAND FREE ENERGY PREDICTED BY IDOCK:   -4.28 KCAL/MOL
REMARK 924 INTRA-LIGAND FREE ENERGY PREDICTED BY IDOCK:   -0.16 KCAL/MOL
REMARK 927      BINDING AFFINITY PREDICTED BY RF-SCORE:    0.00 PKD
ROOT
HETATM    1  C   UNL     1     -10.802  14.336  68.188  1.00  0.00    -0.244 C  
HETATM    2  O   UNL     1     -11.341  14.183  66.873  1.00  0.00    -0.307 OA 
HETATM    3  C   UNL     1     -10.965  15.322  66.081  1.00  0.00    -0.307 C  
HETATM    4  C   UNL     1     -10.042  16.217  66.907  1.00  0.00    -0.278 C  
HETATM    5  C   UNL     1      -9.680  15.340  68.102  1.00  0.00    -0.212 C  
HETATM    6  H   UNL     1     -13.145  14.444  70.475  1.00  0.00     0.000 HD 
HETATM    7  O   UNL     1      -9.630  16.059  69.337  1.00  0.00    -0.247 OA 
HETATM    8  O   UNL     1     -12.536  14.033  69.872  1.00  0.00    -0.333 OA 
HETATM    9  C   UNL     1     -10.850  15.795  70.057  1.00  0.00    -0.342 C  
HETATM   10  C   UNL     1     -11.778  14.994  69.151  1.00  0.00    -0.319 C  
ENDROOT
BRANCH   4  11
HETATM   11  O   UNL     1     -10.752  17.375  67.353  1.00  0.00    -0.333 OA 
HETATM   12  O   UNL     1      -9.443  18.479  65.880  1.00  0.00    -0.488 OA 
HETATM   13  N   UNL     1     -10.293  18.576  66.767  1.00  0.00    -0.382 N  
HETATM   14  O   UNL     1     -10.869  19.567  67.203  1.00  0.00    -0.491 OA 
ENDBRANCH   4  11
TORSDOF 1
ENDMDL
MODEL       37
REMARK 921   NORMALIZED FREE ENERGY PREDICTED BY IDOCK:   -4.01 KCAL/MOL
REMARK 922        TOTAL FREE ENERGY PREDICTED BY IDOCK:   -4.44 KCAL/MOL
REMARK 923 INTER-LIGAND FREE ENERGY PREDICTED BY IDOCK:   -4.24 KCAL/MOL
REMARK 924 INTRA-LIGAND FREE ENERGY PREDICTED BY IDOCK:   -0.19 KCAL/MOL
REMARK 927      BINDING AFFINITY PREDICTED BY RF-SCORE:    0.00 PKD
ROOT
HETATM    1  C   UNL     1     -12.139  14.017  65.661  1.00  0.00    -0.417 C  
HETATM    2  O   UNL     1     -12.521  14.037  67.038  1.00  0.00    -0.326 OA 
HETATM    3  C   UNL     1     -11.335  13.991  67.850  1.00  0.00    -0.291 C  
HETATM    4  C   UNL     1     -10.109  14.049  66.940  1.00  0.00    -0.259 C  
HETATM    5  C   UNL     1     -10.694  14.444  65.587  1.00  0.00    -0.320 C  
HETATM    6  H   UNL     1     -13.328  11.401  64.089  1.00  0.00     0.000 HD 
HETATM    7  O   UNL     1     -10.084  13.764  64.486  1.00  0.00    -0.348 OA 
HETATM    8  O   UNL     1     -13.344  12.278  64.454  1.00  0.00    -0.786 OA 
HETATM    9  C   UNL     1     -10.965  12.700  64.076  1.00  0.00    -0.406 C  
HETATM   10  C   UNL     1     -12.112  12.614  65.077  1.00  0.00    -0.444 C  
ENDROOT
BRANCH   4  11
HETATM   11  O   UNL     1      -9.506  12.756  66.848  1.00  0.00    -0.221 OA 
HETATM   12  O   UNL     1      -7.582  13.862  67.274  1.00  0.00    -0.160 OA 
HETATM   13  N   UNL     1      -8.099  12.781  66.983  1.00  0.00    -0.119 N  
HETATM   14  O   UNL     1      -7.589  11.675  66.842  1.00  0.00    -0.150 OA 
ENDBRANCH   4  11
TORSDOF 1
ENDMDL
MODEL       38
REMARK 921   NORMALIZED FREE ENERGY PREDICTED BY IDOCK:   -4.01 KCAL/MOL
REMARK 922        TOTAL FREE ENERGY PREDICTED BY IDOCK:   -4.43 KCAL/MOL
REMARK 923 INTER-LIGAND FREE ENERGY PREDICTED BY IDOCK:   -4.24 KCAL/MOL
REMARK 924 INTRA-LIGAND FREE ENERGY PREDICTED BY IDOCK:   -0.20 KCAL/MOL
REMARK 927      BINDING AFFINITY PREDICTED BY RF-SCORE:    0.00 PKD
ROOT
HETATM    1  C   UNL     1      -8.328  18.794  67.237  1.00  0.00    -0.268 C  
HETATM    2  O   UNL     1      -9.410  19.658  66.887  1.00  0.00    -0.321 OA 
HETATM    3  C   UNL     1     -10.648  19.027  67.256  1.00  0.00    -0.470 C  
HETATM    4  C   UNL     1     -10.340  17.717  67.981  1.00  0.00    -0.393 C  
HETATM    5  C   UNL     1      -8.844  17.818  68.265  1.00  0.00    -0.277 C  
HETATM    6  H   UNL     1      -6.574  17.894  64.620  1.00  0.00     0.000 HD 
HETATM    7  O   UNL     1      -8.150  16.579  68.091  1.00  0.00    -0.164 OA 
HETATM    8  O   UNL     1      -6.841  18.459  65.336  1.00  0.00    -0.496 OA 
HETATM    9  C   UNL     1      -7.476  16.620  66.818  1.00  0.00    -0.254 C  
HETATM   10  C   UNL     1      -7.903  17.890  66.090  1.00  0.00    -0.222 C  
ENDROOT
BRANCH   4  11
HETATM   11  O   UNL     1     -10.595  16.607  67.117  1.00  0.00    -0.316 OA 
HETATM   12  O   UNL     1     -11.813  15.818  68.849  1.00  0.00    -0.393 OA 
HETATM   13  N   UNL     1     -11.365  15.589  67.724  1.00  0.00    -0.317 N  
HETATM   14  O   UNL     1     -11.525  14.617  66.994  1.00  0.00    -0.348 OA 
ENDBRANCH   4  11
TORSDOF 1
ENDMDL
MODEL       39
REMARK 921   NORMALIZED FREE ENERGY PREDICTED BY IDOCK:   -3.99 KCAL/MOL
REMARK 922        TOTAL FREE ENERGY PREDICTED BY IDOCK:   -4.41 KCAL/MOL
REMARK 923 INTER-LIGAND FREE ENERGY PREDICTED BY IDOCK:   -4.23 KCAL/MOL
REMARK 924 INTRA-LIGAND FREE ENERGY PREDICTED BY IDOCK:   -0.18 KCAL/MOL
REMARK 927      BINDING AFFINITY PREDICTED BY RF-SCORE:    0.00 PKD
ROOT
HETATM    1  C   UNL     1     -10.162  11.535  68.103  1.00  0.00    -0.194 C  
HETATM    2  O   UNL     1      -9.974  10.201  67.626  1.00  0.00    -0.169 OA 
HETATM    3  C   UNL     1     -10.106  10.196  66.194  1.00  0.00    -0.246 C  
HETATM    4  C   UNL     1     -10.290  11.633  65.708  1.00  0.00    -0.249 C  
HETATM    5  C   UNL     1      -9.938  12.466  66.937  1.00  0.00    -0.215 C  
HETATM    6  H   UNL     1     -12.722  11.769  70.132  1.00  0.00     0.000 HD 
HETATM    7  O   UNL     1     -10.785  13.606  67.110  1.00  0.00    -0.273 OA 
HETATM    8  O   UNL     1     -11.822  11.590  69.884  1.00  0.00    -0.302 OA 
HETATM    9  C   UNL     1     -11.754  13.292  68.129  1.00  0.00    -0.362 C  
HETATM   10  C   UNL     1     -11.601  11.821  68.499  1.00  0.00    -0.321 C  
ENDROOT
BRANCH   4  11
HETATM   11  O   UNL     1     -11.654  11.856  65.345  1.00  0.00    -0.316 OA 
HETATM   12  O   UNL     1     -10.825  12.159  63.266  1.00  0.00    -0.415 OA 
HETATM   13  N   UNL     1     -11.824  12.204  63.986  1.00  0.00    -0.412 N  
HETATM   14  O   UNL     1     -12.991  12.452  63.702  1.00  0.00    -0.758 OA 
ENDBRANCH   4  11
TORSDOF 1
ENDMDL
MODEL       40
REMARK 921   NORMALIZED FREE ENERGY PREDICTED BY IDOCK:   -3.98 KCAL/MOL
REMARK 922        TOTAL FREE ENERGY PREDICTED BY IDOCK:   -4.40 KCAL/MOL
REMARK 923 INTER-LIGAND FREE ENERGY PREDICTED BY IDOCK:   -4.24 KCAL/MOL
REMARK 924 INTRA-LIGAND FREE ENERGY PREDICTED BY IDOCK:   -0.16 KCAL/MOL
REMARK 927      BINDING AFFINITY PREDICTED BY RF-SCORE:    0.00 PKD
ROOT
HETATM    1  C   UNL     1     -11.454  13.613  70.202  1.00  0.00    -0.041 C  
HETATM    2  O   UNL     1     -11.957  12.276  70.200  1.00  0.00    -0.334 OA 
HETATM    3  C   UNL     1     -11.968  11.785  68.848  1.00  0.00    -0.271 C  
HETATM    4  C   UNL     1     -11.336  12.835  67.935  1.00  0.00    -0.293 C  
HETATM    5  C   UNL     1     -10.692  13.811  68.916  1.00  0.00    -0.227 C  
HETATM    6  H   UNL     1     -13.654  15.757  71.340  1.00  0.00     0.000 HD 
HETATM    7  O   UNL     1     -10.827  15.180  68.523  1.00  0.00    -0.234 OA 
HETATM    8  O   UNL     1     -12.966  15.104  71.397  1.00  0.00    -0.339 OA 
HETATM    9  C   UNL     1     -11.889  15.764  69.303  1.00  0.00    -0.346 C  
HETATM   10  C   UNL     1     -12.556  14.658  70.112  1.00  0.00    -0.283 C  
ENDROOT
BRANCH   4  11
HETATM   11  O   UNL     1     -12.351  13.504  67.183  1.00  0.00    -0.315 OA 
HETATM   12  O   UNL     1     -11.479  12.387  65.423  1.00  0.00    -0.331 OA 
HETATM   13  N   UNL     1     -12.294  13.233  65.797  1.00  0.00    -0.451 N  
HETATM   14  O   UNL     1     -13.130  13.860  65.156  1.00  0.00    -0.773 OA 
ENDBRANCH   4  11
TORSDOF 1
ENDMDL
MODEL       41
REMARK 921   NORMALIZED FREE ENERGY PREDICTED BY IDOCK:   -3.92 KCAL/MOL
REMARK 922        TOTAL FREE ENERGY PREDICTED BY IDOCK:   -4.33 KCAL/MOL
REMARK 923 INTER-LIGAND FREE ENERGY PREDICTED BY IDOCK:   -4.14 KCAL/MOL
REMARK 924 INTRA-LIGAND FREE ENERGY PREDICTED BY IDOCK:   -0.20 KCAL/MOL
REMARK 927      BINDING AFFINITY PREDICTED BY RF-SCORE:    0.00 PKD
ROOT
HETATM    1  C   UNL     1      -8.507  18.803  67.152  1.00  0.00    -0.272 C  
HETATM    2  O   UNL     1      -7.871  18.497  68.394  1.00  0.00    -0.291 OA 
HETATM    3  C   UNL     1      -8.146  17.126  68.732  1.00  0.00    -0.252 C  
HETATM    4  C   UNL     1      -8.922  16.480  67.585  1.00  0.00    -0.197 C  
HETATM    5  C   UNL     1      -8.789  17.496  66.454  1.00  0.00    -0.241 C  
HETATM    6  H   UNL     1     -10.723  21.196  67.458  1.00  0.00     0.000 HD 
HETATM    7  O   UNL     1      -9.986  17.649  65.687  1.00  0.00    -0.558 OA 
HETATM    8  O   UNL     1      -9.857  20.822  67.346  1.00  0.00    -0.464 OA 
HETATM    9  C   UNL     1     -10.642  18.857  66.120  1.00  0.00    -0.407 C  
HETATM   10  C   UNL     1      -9.894  19.401  67.331  1.00  0.00    -0.345 C  
ENDROOT
BRANCH   4  11
HETATM   11  O   UNL     1     -10.297  16.334  67.946  1.00  0.00    -0.267 OA 
HETATM   12  O   UNL     1     -10.012  14.185  67.311  1.00  0.00    -0.243 OA 
HETATM   13  N   UNL     1     -10.811  15.042  67.691  1.00  0.00    -0.283 N  
HETATM   14  O   UNL     1     -12.007  14.948  67.947  1.00  0.00    -0.317 OA 
ENDBRANCH   4  11
TORSDOF 1
ENDMDL
MODEL       42
REMARK 921   NORMALIZED FREE ENERGY PREDICTED BY IDOCK:   -3.90 KCAL/MOL
REMARK 922        TOTAL FREE ENERGY PREDICTED BY IDOCK:   -4.32 KCAL/MOL
REMARK 923 INTER-LIGAND FREE ENERGY PREDICTED BY IDOCK:   -4.14 KCAL/MOL
REMARK 924 INTRA-LIGAND FREE ENERGY PREDICTED BY IDOCK:   -0.17 KCAL/MOL
REMARK 927      BINDING AFFINITY PREDICTED BY RF-SCORE:    0.00 PKD
ROOT
HETATM    1  C   UNL     1      -9.723  16.577  66.771  1.00  0.00    -0.258 C  
HETATM    2  O   UNL     1     -10.082  17.892  67.196  1.00  0.00    -0.313 OA 
HETATM    3  C   UNL     1     -10.513  17.838  68.566  1.00  0.00    -0.328 C  
HETATM    4  C   UNL     1     -10.324  16.414  69.088  1.00  0.00    -0.289 C  
HETATM    5  C   UNL     1      -9.467  15.756  68.010  1.00  0.00    -0.202 C  
HETATM    6  H   UNL     1     -11.572  15.540  64.274  1.00  0.00     0.000 HD 
HETATM    7  O   UNL     1      -9.843  14.404  67.735  1.00  0.00    -0.217 OA 
HETATM    8  O   UNL     1     -10.854  16.001  64.691  1.00  0.00    -0.608 OA 
HETATM    9  C   UNL     1     -10.619  14.395  66.521  1.00  0.00    -0.296 C  
HETATM   10  C   UNL     1     -10.873  15.839  66.103  1.00  0.00    -0.240 C  
ENDROOT
BRANCH   4  11
HETATM   11  O   UNL     1     -11.587  15.752  69.174  1.00  0.00    -0.351 OA 
HETATM   12  O   UNL     1     -11.220  15.806  71.403  1.00  0.00    -0.366 OA 
HETATM   13  N   UNL     1     -11.952  15.405  70.495  1.00  0.00    -0.326 N  
HETATM   14  O   UNL     1     -13.008  14.784  70.548  1.00  0.00    -0.350 OA 
ENDBRANCH   4  11
TORSDOF 1
ENDMDL
MODEL       43
REMARK 921   NORMALIZED FREE ENERGY PREDICTED BY IDOCK:   -3.89 KCAL/MOL
REMARK 922        TOTAL FREE ENERGY PREDICTED BY IDOCK:   -4.31 KCAL/MOL
REMARK 923 INTER-LIGAND FREE ENERGY PREDICTED BY IDOCK:   -4.12 KCAL/MOL
REMARK 924 INTRA-LIGAND FREE ENERGY PREDICTED BY IDOCK:   -0.19 KCAL/MOL
REMARK 927      BINDING AFFINITY PREDICTED BY RF-SCORE:    0.00 PKD
ROOT
HETATM    1  C   UNL     1     -11.783  13.410  68.088  1.00  0.00    -0.362 C  
HETATM    2  O   UNL     1     -12.000  14.299  69.185  1.00  0.00    -0.319 OA 
HETATM    3  C   UNL     1     -11.698  15.640  68.765  1.00  0.00    -0.370 C  
HETATM    4  C   UNL     1     -11.364  15.629  67.274  1.00  0.00    -0.122 C  
HETATM    5  C   UNL     1     -11.804  14.238  66.827  1.00  0.00    -0.426 C  
HETATM    6  H   UNL     1      -9.474  11.182  68.743  1.00  0.00     0.000 HD 
HETATM    7  O   UNL     1     -10.910  13.637  65.885  1.00  0.00    -0.274 OA 
HETATM    8  O   UNL     1     -10.347  11.556  68.747  1.00  0.00    -0.203 OA 
HETATM    9  C   UNL     1     -10.093  12.683  66.591  1.00  0.00    -0.241 C  
HETATM   10  C   UNL     1     -10.386  12.812  68.082  1.00  0.00    -0.239 C  
ENDROOT
BRANCH   4  11
HETATM   11  O   UNL     1      -9.954  15.774  67.088  1.00  0.00    -0.236 OA 
HETATM   12  O   UNL     1     -10.534  17.378  65.607  1.00  0.00    -0.577 OA 
HETATM   13  N   UNL     1      -9.613  16.721  66.096  1.00  0.00    -0.285 N  
HETATM   14  O   UNL     1      -8.404  16.792  65.903  1.00  0.00    -0.463 OA 
ENDBRANCH   4  11
TORSDOF 1
ENDMDL
MODEL       44
REMARK 921   NORMALIZED FREE ENERGY PREDICTED BY IDOCK:   -3.88 KCAL/MOL
REMARK 922        TOTAL FREE ENERGY PREDICTED BY IDOCK:   -4.29 KCAL/MOL
REMARK 923 INTER-LIGAND FREE ENERGY PREDICTED BY IDOCK:   -4.10 KCAL/MOL
REMARK 924 INTRA-LIGAND FREE ENERGY PREDICTED BY IDOCK:   -0.20 KCAL/MOL
REMARK 927      BINDING AFFINITY PREDICTED BY RF-SCORE:    0.00 PKD
ROOT
HETATM    1  C   UNL     1      -7.327  17.094  67.881  1.00  0.00    -0.178 C  
HETATM    2  O   UNL     1      -8.276  16.456  68.736  1.00  0.00    -0.211 OA 
HETATM    3  C   UNL     1      -9.546  16.402  68.064  1.00  0.00    -0.226 C  
HETATM    4  C   UNL     1      -9.380  16.948  66.647  1.00  0.00    -0.258 C  
HETATM    5  C   UNL     1      -7.865  17.019  66.474  1.00  0.00    -0.296 C  
HETATM    6  H   UNL     1      -6.122  19.838  69.204  1.00  0.00     0.000 HD 
HETATM    7  O   UNL     1      -7.430  18.184  65.767  1.00  0.00    -0.505 OA 
HETATM    8  O   UNL     1      -6.188  18.902  69.050  1.00  0.00    -0.230 OA 
HETATM    9  C   UNL     1      -6.935  19.132  66.733  1.00  0.00    -0.201 C  
HETATM   10  C   UNL     1      -7.223  18.591  68.128  1.00  0.00    -0.255 C  
ENDROOT
BRANCH   4  11
HETATM   11  O   UNL     1      -9.939  18.260  66.558  1.00  0.00    -0.334 OA 
HETATM   12  O   UNL     1     -11.093  17.415  64.809  1.00  0.00    -0.973 OA 
HETATM   13  N   UNL     1     -10.822  18.422  65.467  1.00  0.00    -0.106 N  
HETATM   14  O   UNL     1     -11.248  19.568  65.367  1.00  0.00    -0.326 OA 
ENDBRANCH   4  11
TORSDOF 1
ENDMDL
MODEL       45
REMARK 921   NORMALIZED FREE ENERGY PREDICTED BY IDOCK:   -3.88 KCAL/MOL
REMARK 922        TOTAL FREE ENERGY PREDICTED BY IDOCK:   -4.29 KCAL/MOL
REMARK 923 INTER-LIGAND FREE ENERGY PREDICTED BY IDOCK:   -4.09 KCAL/MOL
REMARK 924 INTRA-LIGAND FREE ENERGY PREDICTED BY IDOCK:   -0.20 KCAL/MOL
REMARK 927      BINDING AFFINITY PREDICTED BY RF-SCORE:    0.00 PKD
ROOT
HETATM    1  C   UNL     1     -10.092  15.088  67.528  1.00  0.00    -0.228 C  
HETATM    2  O   UNL     1     -10.200  13.715  67.910  1.00  0.00    -0.239 OA 
HETATM    3  C   UNL     1     -11.179  13.599  68.957  1.00  0.00    -0.273 C  
HETATM    4  C   UNL     1     -11.815  14.968  69.194  1.00  0.00    -0.308 C  
HETATM    5  C   UNL     1     -11.346  15.786  67.994  1.00  0.00    -0.310 C  
HETATM    6  H   UNL     1      -7.079  16.273  68.023  1.00  0.00     0.000 HD 
HETATM    7  O   UNL     1     -11.007  17.135  68.326  1.00  0.00    -0.352 OA 
HETATM    8  O   UNL     1      -7.767  15.813  67.556  1.00  0.00    -0.135 OA 
HETATM    9  C   UNL     1      -9.571  17.227  68.409  1.00  0.00    -0.285 C  
HETATM   10  C   UNL     1      -8.992  15.823  68.276  1.00  0.00    -0.182 C  
ENDROOT
BRANCH   4  11
HETATM   11  O   UNL     1     -11.307  15.542  70.400  1.00  0.00    -0.281 OA 
HETATM   12  O   UNL     1     -13.486  15.760  70.958  1.00  0.00    -0.581 OA 
HETATM   13  N   UNL     1     -12.319  16.004  71.272  1.00  0.00    -0.402 N  
HETATM   14  O   UNL     1     -11.869  16.549  72.274  1.00  0.00    -0.519 OA 
ENDBRANCH   4  11
TORSDOF 1
ENDMDL
MODEL       46
REMARK 921   NORMALIZED FREE ENERGY PREDICTED BY IDOCK:   -3.86 KCAL/MOL
REMARK 922        TOTAL FREE ENERGY PREDICTED BY IDOCK:   -4.28 KCAL/MOL
REMARK 923 INTER-LIGAND FREE ENERGY PREDICTED BY IDOCK:   -4.25 KCAL/MOL
REMARK 924 INTRA-LIGAND FREE ENERGY PREDICTED BY IDOCK:   -0.02 KCAL/MOL
REMARK 927      BINDING AFFINITY PREDICTED BY RF-SCORE:    0.00 PKD
ROOT
HETATM    1  C   UNL     1      -9.178  11.731  67.134  1.00  0.00    -0.179 C  
HETATM    2  O   UNL     1      -9.036  13.126  66.861  1.00  0.00    -0.227 OA 
HETATM    3  C   UNL     1     -10.295  13.639  66.392  1.00  0.00    -0.286 C  
HETATM    4  C   UNL     1     -11.341  12.526  66.465  1.00  0.00    -0.334 C  
HETATM    5  C   UNL     1     -10.651  11.450  67.298  1.00  0.00    -0.227 C  
HETATM    6  H   UNL     1      -7.192   9.903  65.279  1.00  0.00     0.000 HD 
HETATM    7  O   UNL     1     -10.906  10.122  66.831  1.00  0.00    -0.201 OA 
HETATM    8  O   UNL     1      -7.433  10.450  66.018  1.00  0.00    -0.122 OA 
HETATM    9  C   UNL     1      -9.753   9.682  66.088  1.00  0.00    -0.252 C  
HETATM   10  C   UNL     1      -8.792  10.857  65.951  1.00  0.00    -0.186 C  
ENDROOT
BRANCH   4  11
HETATM   11  O   UNL     1     -11.612  12.024  65.154  1.00  0.00    -0.329 OA 
HETATM   12  O   UNL     1     -13.284  13.544  65.154  1.00  0.00    -0.720 OA 
HETATM   13  N   UNL     1     -12.747  12.612  64.551  1.00  0.00    -0.411 N  
HETATM   14  O   UNL     1     -13.005  12.130  63.454  1.00  0.00    -0.776 OA 
ENDBRANCH   4  11
TORSDOF 1
ENDMDL
MODEL       47
REMARK 921   NORMALIZED FREE ENERGY PREDICTED BY IDOCK:   -3.86 KCAL/MOL
REMARK 922        TOTAL FREE ENERGY PREDICTED BY IDOCK:   -4.27 KCAL/MOL
REMARK 923 INTER-LIGAND FREE ENERGY PREDICTED BY IDOCK:   -4.07 KCAL/MOL
REMARK 924 INTRA-LIGAND FREE ENERGY PREDICTED BY IDOCK:   -0.20 KCAL/MOL
REMARK 927      BINDING AFFINITY PREDICTED BY RF-SCORE:    0.00 PKD
ROOT
HETATM    1  C   UNL     1      -9.919  10.949  67.982  1.00  0.00    -0.171 C  
HETATM    2  O   UNL     1      -8.982  10.390  68.905  1.00  0.00    -0.151 OA 
HETATM    3  C   UNL     1      -9.691   9.941  70.073  1.00  0.00    -0.227 C  
HETATM    4  C   UNL     1     -11.190  10.128  69.844  1.00  0.00    -0.287 C  
HETATM    5  C   UNL     1     -11.284  10.422  68.350  1.00  0.00    -0.258 C  
HETATM    6  H   UNL     1      -9.312  14.109  67.369  1.00  0.00     0.000 HD 
HETATM    7  O   UNL     1     -12.250  11.427  68.030  1.00  0.00    -0.607 OA 
HETATM    8  O   UNL     1      -9.213  13.169  67.270  1.00  0.00    -0.204 OA 
HETATM    9  C   UNL     1     -11.547  12.662  67.794  1.00  0.00    -0.348 C  
HETATM   10  C   UNL     1     -10.078  12.453  68.141  1.00  0.00    -0.224 C  
ENDROOT
BRANCH   4  11
HETATM   11  O   UNL     1     -11.662  11.252  70.590  1.00  0.00    -0.318 OA 
HETATM   12  O   UNL     1     -13.229   9.814  71.353  1.00  0.00    -0.370 OA 
HETATM   13  N   UNL     1     -12.831  10.981  71.336  1.00  0.00    -0.430 N  
HETATM   14  O   UNL     1     -13.260  11.969  71.922  1.00  0.00    -0.480 OA 
ENDBRANCH   4  11
TORSDOF 1
ENDMDL
MODEL       48
REMARK 921   NORMALIZED FREE ENERGY PREDICTED BY IDOCK:   -3.84 KCAL/MOL
REMARK 922        TOTAL FREE ENERGY PREDICTED BY IDOCK:   -4.26 KCAL/MOL
REMARK 923 INTER-LIGAND FREE ENERGY PREDICTED BY IDOCK:   -4.06 KCAL/MOL
REMARK 924 INTRA-LIGAND FREE ENERGY PREDICTED BY IDOCK:   -0.19 KCAL/MOL
REMARK 927      BINDING AFFINITY PREDICTED BY RF-SCORE:    0.00 PKD
ROOT
HETATM    1  C   UNL     1     -11.384  11.777  66.752  1.00  0.00    -0.320 C  
HETATM    2  O   UNL     1     -12.145  12.432  67.769  1.00  0.00    -0.447 OA 
HETATM    3  C   UNL     1     -12.215  13.836  67.466  1.00  0.00    -0.227 C  
HETATM    4  C   UNL     1     -11.545  14.085  66.115  1.00  0.00    -0.367 C  
HETATM    5  C   UNL     1     -11.373  12.681  65.544  1.00  0.00    -0.321 C  
HETATM    6  H   UNL     1      -8.695  10.343  67.953  1.00  0.00     0.000 HD 
HETATM    7  O   UNL     1     -10.130  12.496  64.860  1.00  0.00    -0.275 OA 
HETATM    8  O   UNL     1      -9.617  10.418  67.734  1.00  0.00    -0.150 OA 
HETATM    9  C   UNL     1      -9.239  11.784  65.740  1.00  0.00    -0.139 C  
HETATM   10  C   UNL     1      -9.910  11.658  67.104  1.00  0.00    -0.188 C  
ENDROOT
BRANCH   4  11
HETATM   11  O   UNL     1     -10.264  14.690  66.309  1.00  0.00    -0.273 OA 
HETATM   12  O   UNL     1     -10.984  16.193  64.783  1.00  0.00    -0.594 OA 
HETATM   13  N   UNL     1     -10.038  15.807  65.474  1.00  0.00    -0.359 N  
HETATM   14  O   UNL     1      -8.914  16.279  65.606  1.00  0.00    -0.403 OA 
ENDBRANCH   4  11
TORSDOF 1
ENDMDL
MODEL       49
REMARK 921   NORMALIZED FREE ENERGY PREDICTED BY IDOCK:   -3.84 KCAL/MOL
REMARK 922        TOTAL FREE ENERGY PREDICTED BY IDOCK:   -4.25 KCAL/MOL
REMARK 923 INTER-LIGAND FREE ENERGY PREDICTED BY IDOCK:   -4.06 KCAL/MOL
REMARK 924 INTRA-LIGAND FREE ENERGY PREDICTED BY IDOCK:   -0.19 KCAL/MOL
REMARK 927      BINDING AFFINITY PREDICTED BY RF-SCORE:    0.00 PKD
ROOT
HETATM    1  C   UNL     1     -10.032  13.313  65.891  1.00  0.00    -0.272 C  
HETATM    2  O   UNL     1      -8.789  13.423  66.587  1.00  0.00    -0.176 OA 
HETATM    3  C   UNL     1      -8.926  12.817  67.883  1.00  0.00    -0.186 C  
HETATM    4  C   UNL     1     -10.313  12.186  67.991  1.00  0.00    -0.205 C  
HETATM    5  C   UNL     1     -10.823  12.212  66.553  1.00  0.00    -0.270 C  
HETATM    6  H   UNL     1     -11.295  16.242  65.148  1.00  0.00     0.000 HD 
HETATM    7  O   UNL     1     -12.213  12.539  66.451  1.00  0.00    -0.584 OA 
HETATM    8  O   UNL     1     -10.739  15.480  65.033  1.00  0.00    -0.413 OA 
HETATM    9  C   UNL     1     -12.318  13.922  66.062  1.00  0.00    -0.475 C  
HETATM   10  C   UNL     1     -10.921  14.532  66.076  1.00  0.00    -0.324 C  
ENDROOT
BRANCH   4  11
HETATM   11  O   UNL     1     -11.155  12.992  68.819  1.00  0.00    -0.249 OA 
HETATM   12  O   UNL     1     -11.308  11.137  70.098  1.00  0.00    -0.279 OA 
HETATM   13  N   UNL     1     -11.701  12.291  69.917  1.00  0.00    -0.301 N  
HETATM   14  O   UNL     1     -12.468  12.976  70.584  1.00  0.00    -0.331 OA 
ENDBRANCH   4  11
TORSDOF 1
ENDMDL
MODEL       50
REMARK 921   NORMALIZED FREE ENERGY PREDICTED BY IDOCK:   -3.81 KCAL/MOL
REMARK 922        TOTAL FREE ENERGY PREDICTED BY IDOCK:   -4.22 KCAL/MOL
REMARK 923 INTER-LIGAND FREE ENERGY PREDICTED BY IDOCK:   -4.05 KCAL/MOL
REMARK 924 INTRA-LIGAND FREE ENERGY PREDICTED BY IDOCK:   -0.17 KCAL/MOL
REMARK 927      BINDING AFFINITY PREDICTED BY RF-SCORE:    0.00 PKD
ROOT
HETATM    1  C   UNL     1      -8.652  19.476  66.255  1.00  0.00    -0.361 C  
HETATM    2  O   UNL     1      -8.197  20.357  67.283  1.00  0.00    -0.333 OA 
HETATM    3  C   UNL     1      -7.735  19.575  68.397  1.00  0.00    -0.337 C  
HETATM    4  C   UNL     1      -7.800  18.095  68.023  1.00  0.00    -0.261 C  
HETATM    5  C   UNL     1      -8.036  18.123  66.516  1.00  0.00    -0.269 C  
HETATM    6  H   UNL     1     -11.826  19.910  65.572  1.00  0.00     0.000 HD 
HETATM    7  O   UNL     1      -8.954  17.122  66.067  1.00  0.00    -0.481 OA 
HETATM    8  O   UNL     1     -10.893  20.085  65.522  1.00  0.00    -0.381 OA 
HETATM    9  C   UNL     1     -10.231  17.754  65.848  1.00  0.00    -0.225 C  
HETATM   10  C   UNL     1     -10.144  19.195  66.337  1.00  0.00    -0.419 C  
ENDROOT
BRANCH   4  11
HETATM   11  O   UNL     1      -8.911  17.474  68.675  1.00  0.00    -0.276 OA 
HETATM   12  O   UNL     1      -7.443  15.815  69.121  1.00  0.00    -0.177 OA 
HETATM   13  N   UNL     1      -8.616  16.190  69.187  1.00  0.00    -0.249 N  
HETATM   14  O   UNL     1      -9.592  15.644  69.690  1.00  0.00    -0.277 OA 
ENDBRANCH   4  11
TORSDOF 1
ENDMDL
MODEL       51
REMARK 921   NORMALIZED FREE ENERGY PREDICTED BY IDOCK:   -3.80 KCAL/MOL
REMARK 922        TOTAL FREE ENERGY PREDICTED BY IDOCK:   -4.21 KCAL/MOL
REMARK 923 INTER-LIGAND FREE ENERGY PREDICTED BY IDOCK:   -4.02 KCAL/MOL
REMARK 924 INTRA-LIGAND FREE ENERGY PREDICTED BY IDOCK:   -0.19 KCAL/MOL
REMARK 927      BINDING AFFINITY PREDICTED BY RF-SCORE:    0.00 PKD
ROOT
HETATM    1  C   UNL     1     -12.118  10.464  71.345  1.00  0.00    -0.327 C  
HETATM    2  O   UNL     1     -13.474  10.094  71.602  1.00  0.00    -0.346 OA 
HETATM    3  C   UNL     1     -13.543   8.667  71.771  1.00  0.00    -0.403 C  
HETATM    4  C   UNL     1     -12.127   8.094  71.722  1.00  0.00    -0.315 C  
HETATM    5  C   UNL     1     -11.243   9.333  71.825  1.00  0.00    -0.343 C  
HETATM    6  H   UNL     1     -11.764  11.900  68.423  1.00  0.00     0.000 HD 
HETATM    7  O   UNL     1     -10.087   9.275  70.984  1.00  0.00    -0.270 OA 
HETATM    8  O   UNL     1     -11.964  11.854  69.351  1.00  0.00    -0.306 OA 
HETATM    9  C   UNL     1     -10.345  10.082  69.818  1.00  0.00    -0.255 C  
HETATM   10  C   UNL     1     -11.799  10.538  69.860  1.00  0.00    -0.282 C  
ENDROOT
BRANCH   4  11
HETATM   11  O   UNL     1     -11.906   7.444  70.468  1.00  0.00    -0.254 OA 
HETATM   12  O   UNL     1     -11.056   5.774  71.729  1.00  0.00    -0.265 OA 
HETATM   13  N   UNL     1     -11.250   6.199  70.588  1.00  0.00    -0.323 N  
HETATM   14  O   UNL     1     -11.011   5.681  69.502  1.00  0.00    -0.334 OA 
ENDBRANCH   4  11
TORSDOF 1
ENDMDL
MODEL       52
REMARK 921   NORMALIZED FREE ENERGY PREDICTED BY IDOCK:   -3.78 KCAL/MOL
REMARK 922        TOTAL FREE ENERGY PREDICTED BY IDOCK:   -4.19 KCAL/MOL
REMARK 923 INTER-LIGAND FREE ENERGY PREDICTED BY IDOCK:   -4.10 KCAL/MOL
REMARK 924 INTRA-LIGAND FREE ENERGY PREDICTED BY IDOCK:   -0.08 KCAL/MOL
REMARK 927      BINDING AFFINITY PREDICTED BY RF-SCORE:    0.00 PKD
ROOT
HETATM    1  C   UNL     1      -9.215  12.311  67.222  1.00  0.00    -0.185 C  
HETATM    2  O   UNL     1      -9.865  11.382  68.092  1.00  0.00    -0.178 OA 
HETATM    3  C   UNL     1     -11.171  11.090  67.567  1.00  0.00    -0.302 C  
HETATM    4  C   UNL     1     -11.334  11.796  66.221  1.00  0.00    -0.287 C  
HETATM    5  C   UNL     1      -9.914  12.246  65.888  1.00  0.00    -0.254 C  
HETATM    6  H   UNL     1      -8.489  15.121  68.741  1.00  0.00     0.000 HD 
HETATM    7  O   UNL     1      -9.858  13.545  65.291  1.00  0.00    -0.208 OA 
HETATM    8  O   UNL     1      -8.362  14.217  68.476  1.00  0.00    -0.151 OA 
HETATM    9  C   UNL     1      -9.460  14.485  66.307  1.00  0.00    -0.283 C  
HETATM   10  C   UNL     1      -9.419  13.757  67.646  1.00  0.00    -0.217 C  
ENDROOT
BRANCH   4  11
HETATM   11  O   UNL     1     -12.183  12.936  66.366  1.00  0.00    -0.453 OA 
HETATM   12  O   UNL     1     -12.921  12.378  64.305  1.00  0.00    -0.737 OA 
HETATM   13  N   UNL     1     -12.968  13.201  65.221  1.00  0.00    -0.283 N  
HETATM   14  O   UNL     1     -13.646  14.217  65.335  1.00  0.00    -0.568 OA 
ENDBRANCH   4  11
TORSDOF 1
ENDMDL
MODEL       53
REMARK 921   NORMALIZED FREE ENERGY PREDICTED BY IDOCK:   -3.77 KCAL/MOL
REMARK 922        TOTAL FREE ENERGY PREDICTED BY IDOCK:   -4.18 KCAL/MOL
REMARK 923 INTER-LIGAND FREE ENERGY PREDICTED BY IDOCK:   -4.00 KCAL/MOL
REMARK 924 INTRA-LIGAND FREE ENERGY PREDICTED BY IDOCK:   -0.18 KCAL/MOL
REMARK 927      BINDING AFFINITY PREDICTED BY RF-SCORE:    0.00 PKD
ROOT
HETATM    1  C   UNL     1     -10.049   6.076  71.558  1.00  0.00    -0.192 C  
HETATM    2  O   UNL     1     -10.683   5.561  70.386  1.00  0.00    -0.285 OA 
HETATM    3  C   UNL     1     -11.713   6.475  69.974  1.00  0.00    -0.322 C  
HETATM    4  C   UNL     1     -11.673   7.706  70.879  1.00  0.00    -0.271 C  
HETATM    5  C   UNL     1     -10.350   7.552  71.623  1.00  0.00    -0.192 C  
HETATM    6  H   UNL     1     -10.370   4.059  74.120  1.00  0.00     0.000 HD 
HETATM    7  O   UNL     1     -10.426   7.932  73.000  1.00  0.00    -0.334 OA 
HETATM    8  O   UNL     1      -9.985   4.391  73.317  1.00  0.00    -0.135 OA 
HETATM    9  C   UNL     1     -10.518   6.730  73.789  1.00  0.00    -0.354 C  
HETATM   10  C   UNL     1     -10.666   5.544  72.843  1.00  0.00    -0.249 C  
ENDROOT
BRANCH   4  11
HETATM   11  O   UNL     1     -12.759   7.666  71.808  1.00  0.00    -0.318 OA 
HETATM   12  O   UNL     1     -13.042   9.834  71.239  1.00  0.00    -0.360 OA 
HETATM   13  N   UNL     1     -13.401   8.914  71.976  1.00  0.00    -0.390 N  
HETATM   14  O   UNL     1     -14.290   8.880  72.821  1.00  0.00    -0.600 OA 
ENDBRANCH   4  11
TORSDOF 1
ENDMDL
MODEL       54
REMARK 921   NORMALIZED FREE ENERGY PREDICTED BY IDOCK:   -3.76 KCAL/MOL
REMARK 922        TOTAL FREE ENERGY PREDICTED BY IDOCK:   -4.17 KCAL/MOL
REMARK 923 INTER-LIGAND FREE ENERGY PREDICTED BY IDOCK:   -4.00 KCAL/MOL
REMARK 924 INTRA-LIGAND FREE ENERGY PREDICTED BY IDOCK:   -0.18 KCAL/MOL
REMARK 927      BINDING AFFINITY PREDICTED BY RF-SCORE:    0.00 PKD
ROOT
HETATM    1  C   UNL     1     -10.947   5.714  72.010  1.00  0.00    -0.243 C  
HETATM    2  O   UNL     1     -10.176   6.112  73.145  1.00  0.00    -0.181 OA 
HETATM    3  C   UNL     1     -10.440   7.497  73.425  1.00  0.00    -0.348 C  
HETATM    4  C   UNL     1     -11.527   7.996  72.473  1.00  0.00    -0.409 C  
HETATM    5  C   UNL     1     -12.069   6.710  71.855  1.00  0.00    -0.340 C  
HETATM    6  H   UNL     1      -9.061   4.721  69.523  1.00  0.00     0.000 HD 
HETATM    7  O   UNL     1     -12.365   6.834  70.461  1.00  0.00    -0.326 OA 
HETATM    8  O   UNL     1      -9.538   4.637  70.341  1.00  0.00    -0.164 OA 
HETATM    9  C   UNL     1     -11.287   6.229  69.721  1.00  0.00    -0.436 C  
HETATM   10  C   UNL     1     -10.184   5.849  70.702  1.00  0.00    -0.209 C  
ENDROOT
BRANCH   4  11
HETATM   11  O   UNL     1     -10.948   8.816  71.455  1.00  0.00    -0.259 OA 
HETATM   12  O   UNL     1     -12.683  10.197  71.885  1.00  0.00    -0.409 OA 
HETATM   13  N   UNL     1     -11.706   9.973  71.167  1.00  0.00    -0.374 N  
HETATM   14  O   UNL     1     -11.231  10.636  70.251  1.00  0.00    -0.298 OA 
ENDBRANCH   4  11
TORSDOF 1
ENDMDL
MODEL       55
REMARK 921   NORMALIZED FREE ENERGY PREDICTED BY IDOCK:   -3.74 KCAL/MOL
REMARK 922        TOTAL FREE ENERGY PREDICTED BY IDOCK:   -4.15 KCAL/MOL
REMARK 923 INTER-LIGAND FREE ENERGY PREDICTED BY IDOCK:   -3.95 KCAL/MOL
REMARK 924 INTRA-LIGAND FREE ENERGY PREDICTED BY IDOCK:   -0.20 KCAL/MOL
REMARK 927      BINDING AFFINITY PREDICTED BY RF-SCORE:    0.00 PKD
ROOT
HETATM    1  C   UNL     1     -10.356  15.428  66.934  1.00  0.00    -0.277 C  
HETATM    2  O   UNL     1      -9.299  14.665  66.350  1.00  0.00    -0.279 OA 
HETATM    3  C   UNL     1      -9.571  13.267  66.546  1.00  0.00    -0.264 C  
HETATM    4  C   UNL     1     -10.940  13.117  67.208  1.00  0.00    -0.268 C  
HETATM    5  C   UNL     1     -11.545  14.512  67.082  1.00  0.00    -0.388 C  
HETATM    6  H   UNL     1      -9.284  17.392  69.326  1.00  0.00     0.000 HD 
HETATM    7  O   UNL     1     -12.278  14.918  68.242  1.00  0.00    -0.170 OA 
HETATM    8  O   UNL     1      -9.468  17.132  68.431  1.00  0.00    -0.258 OA 
HETATM    9  C   UNL     1     -11.446  15.814  69.004  1.00  0.00    -0.391 C  
HETATM   10  C   UNL     1     -10.062  15.843  68.367  1.00  0.00    -0.223 C  
ENDROOT
BRANCH   4  11
HETATM   11  O   UNL     1     -10.783  12.780  68.588  1.00  0.00    -0.245 OA 
HETATM   12  O   UNL     1     -12.211  11.094  68.116  1.00  0.00    -0.612 OA 
HETATM   13  N   UNL     1     -11.582  11.687  68.995  1.00  0.00    -0.287 N  
HETATM   14  O   UNL     1     -11.483  11.447  70.193  1.00  0.00    -0.288 OA 
ENDBRANCH   4  11
TORSDOF 1
ENDMDL
MODEL       56
REMARK 921   NORMALIZED FREE ENERGY PREDICTED BY IDOCK:   -3.73 KCAL/MOL
REMARK 922        TOTAL FREE ENERGY PREDICTED BY IDOCK:   -4.14 KCAL/MOL
REMARK 923 INTER-LIGAND FREE ENERGY PREDICTED BY IDOCK:   -4.01 KCAL/MOL
REMARK 924 INTRA-LIGAND FREE ENERGY PREDICTED BY IDOCK:   -0.13 KCAL/MOL
REMARK 927      BINDING AFFINITY PREDICTED BY RF-SCORE:    0.00 PKD
ROOT
HETATM    1  C   UNL     1      -6.166  18.888  67.090  1.00  0.00    -0.171 C  
HETATM    2  O   UNL     1      -6.595  18.245  68.292  1.00  0.00    -0.201 OA 
HETATM    3  C   UNL     1      -7.437  17.131  67.950  1.00  0.00    -0.177 C  
HETATM    4  C   UNL     1      -7.470  16.985  66.429  1.00  0.00    -0.301 C  
HETATM    5  C   UNL     1      -6.341  17.900  65.964  1.00  0.00    -0.253 C  
HETATM    6  H   UNL     1      -7.170  22.001  66.930  1.00  0.00     0.000 HD 
HETATM    7  O   UNL     1      -6.658  18.631  64.776  1.00  0.00    -0.472 OA 
HETATM    8  O   UNL     1      -6.604  21.282  67.186  1.00  0.00    -0.425 OA 
HETATM    9  C   UNL     1      -7.013  19.974  65.160  1.00  0.00    -0.209 C  
HETATM   10  C   UNL     1      -7.072  20.038  66.682  1.00  0.00    -0.240 C  
ENDROOT
BRANCH   4  11
HETATM   11  O   UNL     1      -8.719  17.458  65.919  1.00  0.00    -0.522 OA 
HETATM   12  O   UNL     1      -9.219  15.265  65.713  1.00  0.00    -0.289 OA 
HETATM   13  N   UNL     1      -9.581  16.423  65.493  1.00  0.00    -0.053 N  
HETATM   14  O   UNL     1     -10.622  16.844  65.002  1.00  0.00    -0.700 OA 
ENDBRANCH   4  11
TORSDOF 1
ENDMDL
MODEL       57
REMARK 921   NORMALIZED FREE ENERGY PREDICTED BY IDOCK:   -3.72 KCAL/MOL
REMARK 922        TOTAL FREE ENERGY PREDICTED BY IDOCK:   -4.13 KCAL/MOL
REMARK 923 INTER-LIGAND FREE ENERGY PREDICTED BY IDOCK:   -3.96 KCAL/MOL
REMARK 924 INTRA-LIGAND FREE ENERGY PREDICTED BY IDOCK:   -0.17 KCAL/MOL
REMARK 927      BINDING AFFINITY PREDICTED BY RF-SCORE:    0.00 PKD
ROOT
HETATM    1  C   UNL     1     -10.942  11.985  66.941  1.00  0.00    -0.281 C  
HETATM    2  O   UNL     1     -11.401  12.682  68.101  1.00  0.00    -0.249 OA 
HETATM    3  C   UNL     1     -12.072  13.884  67.686  1.00  0.00    -0.307 C  
HETATM    4  C   UNL     1     -12.140  13.912  66.160  1.00  0.00    -0.448 C  
HETATM    5  C   UNL     1     -11.737  12.494  65.765  1.00  0.00    -0.426 C  
HETATM    6  H   UNL     1      -7.683  11.658  66.907  1.00  0.00     0.000 HD 
HETATM    7  O   UNL     1     -10.899  12.446  64.606  1.00  0.00    -0.284 OA 
HETATM    8  O   UNL     1      -8.577  11.437  67.141  1.00  0.00    -0.142 OA 
HETATM    9  C   UNL     1      -9.541  12.251  65.046  1.00  0.00     0.038 C  
HETATM   10  C   UNL     1      -9.512  12.341  66.567  1.00  0.00    -0.236 C  
ENDROOT
BRANCH   4  11
HETATM   11  O   UNL     1     -11.190  14.847  65.645  1.00  0.00    -0.341 OA 
HETATM   12  O   UNL     1     -12.868  15.462  64.263  1.00  0.00    -0.412 OA 
HETATM   13  N   UNL     1     -11.679  15.604  64.556  1.00  0.00    -0.305 N  
HETATM   14  O   UNL     1     -10.835  16.359  64.085  1.00  0.00    -0.573 OA 
ENDBRANCH   4  11
TORSDOF 1
ENDMDL
MODEL       58
REMARK 921   NORMALIZED FREE ENERGY PREDICTED BY IDOCK:   -3.72 KCAL/MOL
REMARK 922        TOTAL FREE ENERGY PREDICTED BY IDOCK:   -4.13 KCAL/MOL
REMARK 923 INTER-LIGAND FREE ENERGY PREDICTED BY IDOCK:   -4.01 KCAL/MOL
REMARK 924 INTRA-LIGAND FREE ENERGY PREDICTED BY IDOCK:   -0.11 KCAL/MOL
REMARK 927      BINDING AFFINITY PREDICTED BY RF-SCORE:    0.00 PKD
ROOT
HETATM    1  C   UNL     1     -11.365  15.372  65.958  1.00  0.00    -0.089 C  
HETATM    2  O   UNL     1     -11.013  14.018  65.670  1.00  0.00    -0.292 OA 
HETATM    3  C   UNL     1      -9.847  13.667  66.434  1.00  0.00    -0.296 C  
HETATM    4  C   UNL     1      -9.486  14.836  67.350  1.00  0.00    -0.207 C  
HETATM    5  C   UNL     1     -10.713  15.739  67.268  1.00  0.00    -0.313 C  
HETATM    6  H   UNL     1     -11.248  17.272  63.293  1.00  0.00     0.000 HD 
HETATM    7  O   UNL     1     -10.389  17.132  67.230  1.00  0.00    -0.310 OA 
HETATM    8  O   UNL     1     -11.631  16.653  63.903  1.00  0.00    -1.204 OA 
HETATM    9  C   UNL     1     -10.499  17.578  65.865  1.00  0.00    -0.249 C  
HETATM   10  C   UNL     1     -10.751  16.362  64.981  1.00  0.00    -0.259 C  
ENDROOT
BRANCH   4  11
HETATM   11  O   UNL     1      -8.343  15.524  66.837  1.00  0.00    -0.214 OA 
HETATM   12  O   UNL     1      -7.215  14.395  68.437  1.00  0.00    -0.099 OA 
HETATM   13  N   UNL     1      -7.156  15.255  67.555  1.00  0.00    -0.183 N  
HETATM   14  O   UNL     1      -6.196  15.898  67.144  1.00  0.00    -0.298 OA 
ENDBRANCH   4  11
TORSDOF 1
ENDMDL
MODEL       59
REMARK 921   NORMALIZED FREE ENERGY PREDICTED BY IDOCK:   -3.71 KCAL/MOL
REMARK 922        TOTAL FREE ENERGY PREDICTED BY IDOCK:   -4.11 KCAL/MOL
REMARK 923 INTER-LIGAND FREE ENERGY PREDICTED BY IDOCK:   -3.92 KCAL/MOL
REMARK 924 INTRA-LIGAND FREE ENERGY PREDICTED BY IDOCK:   -0.20 KCAL/MOL
REMARK 927      BINDING AFFINITY PREDICTED BY RF-SCORE:    0.00 PKD
ROOT
HETATM    1  C   UNL     1      -9.939  14.537  68.326  1.00  0.00    -0.229 C  
HETATM    2  O   UNL     1      -9.262  14.446  67.071  1.00  0.00    -0.214 OA 
HETATM    3  C   UNL     1      -8.773  15.749  66.710  1.00  0.00    -0.271 C  
HETATM    4  C   UNL     1      -9.064  16.721  67.852  1.00  0.00    -0.224 C  
HETATM    5  C   UNL     1      -9.469  15.802  69.001  1.00  0.00    -0.247 C  
HETATM    6  H   UNL     1     -13.093  13.685  68.090  1.00  0.00     0.000 HD 
HETATM    7  O   UNL     1     -10.550  16.317  69.784  1.00  0.00    -0.308 OA 
HETATM    8  O   UNL     1     -12.158  13.543  68.185  1.00  0.00    -0.346 OA 
HETATM    9  C   UNL     1     -11.755  15.637  69.382  1.00  0.00    -0.383 C  
HETATM   10  C   UNL     1     -11.434  14.765  68.173  1.00  0.00    -0.323 C  
ENDROOT
BRANCH   4  11
HETATM   11  O   UNL     1     -10.159  17.572  67.504  1.00  0.00    -0.301 OA 
HETATM   12  O   UNL     1      -8.748  19.249  68.052  1.00  0.00    -0.298 OA 
HETATM   13  N   UNL     1      -9.894  18.944  67.716  1.00  0.00    -0.323 N  
HETATM   14  O   UNL     1     -10.861  19.657  67.471  1.00  0.00    -0.452 OA 
ENDBRANCH   4  11
TORSDOF 1
ENDMDL
MODEL       60
REMARK 921   NORMALIZED FREE ENERGY PREDICTED BY IDOCK:   -3.70 KCAL/MOL
REMARK 922        TOTAL FREE ENERGY PREDICTED BY IDOCK:   -4.10 KCAL/MOL
REMARK 923 INTER-LIGAND FREE ENERGY PREDICTED BY IDOCK:   -3.91 KCAL/MOL
REMARK 924 INTRA-LIGAND FREE ENERGY PREDICTED BY IDOCK:   -0.19 KCAL/MOL
REMARK 927      BINDING AFFINITY PREDICTED BY RF-SCORE:    0.00 PKD
ROOT
HETATM    1  C   UNL     1      -9.558   7.257  71.453  1.00  0.00    -0.160 C  
HETATM    2  O   UNL     1      -9.682   6.367  72.565  1.00  0.00    -0.163 OA 
HETATM    3  C   UNL     1     -11.077   6.171  72.851  1.00  0.00    -0.247 C  
HETATM    4  C   UNL     1     -11.907   6.899  71.794  1.00  0.00    -0.316 C  
HETATM    5  C   UNL     1     -10.878   7.253  70.723  1.00  0.00    -0.241 C  
HETATM    6  H   UNL     1      -7.942   9.995  72.238  1.00  0.00     0.000 HD 
HETATM    7  O   UNL     1     -11.077   8.550  70.155  1.00  0.00    -0.248 OA 
HETATM    8  O   UNL     1      -8.038   9.087  71.975  1.00  0.00    -0.360 OA 
HETATM    9  C   UNL     1     -10.127   9.451  70.757  1.00  0.00    -0.298 C  
HETATM   10  C   UNL     1      -9.404   8.709  71.875  1.00  0.00    -0.287 C  
ENDROOT
BRANCH   4  11
HETATM   11  O   UNL     1     -12.462   8.095  72.346  1.00  0.00    -0.322 OA 
HETATM   12  O   UNL     1     -14.407   7.328  71.490  1.00  0.00    -0.437 OA 
HETATM   13  N   UNL     1     -13.837   8.260  72.060  1.00  0.00    -0.363 N  
HETATM   14  O   UNL     1     -14.286   9.318  72.486  1.00  0.00    -0.469 OA 
ENDBRANCH   4  11
TORSDOF 1
ENDMDL
MODEL       61
REMARK 921   NORMALIZED FREE ENERGY PREDICTED BY IDOCK:   -3.67 KCAL/MOL
REMARK 922        TOTAL FREE ENERGY PREDICTED BY IDOCK:   -4.07 KCAL/MOL
REMARK 923 INTER-LIGAND FREE ENERGY PREDICTED BY IDOCK:   -3.88 KCAL/MOL
REMARK 924 INTRA-LIGAND FREE ENERGY PREDICTED BY IDOCK:   -0.20 KCAL/MOL
REMARK 927      BINDING AFFINITY PREDICTED BY RF-SCORE:    0.00 PKD
ROOT
HETATM    1  C   UNL     1     -10.983  12.563  66.958  1.00  0.00    -0.267 C  
HETATM    2  O   UNL     1      -9.589  12.255  66.911  1.00  0.00    -0.202 OA 
HETATM    3  C   UNL     1      -8.838  13.457  67.153  1.00  0.00    -0.222 C  
HETATM    4  C   UNL     1      -9.810  14.591  67.478  1.00  0.00    -0.222 C  
HETATM    5  C   UNL     1     -11.133  13.865  67.705  1.00  0.00    -0.262 C  
HETATM    6  H   UNL     1     -12.481  11.937  64.113  1.00  0.00     0.000 HD 
HETATM    7  O   UNL     1     -12.260  14.561  67.167  1.00  0.00    -0.355 OA 
HETATM    8  O   UNL     1     -12.120  11.736  64.968  1.00  0.00    -0.217 OA 
HETATM    9  C   UNL     1     -12.620  13.932  65.922  1.00  0.00    -0.456 C  
HETATM   10  C   UNL     1     -11.562  12.886  65.589  1.00  0.00    -0.361 C  
ENDROOT
BRANCH   4  11
HETATM   11  O   UNL     1      -9.926  15.471  66.358  1.00  0.00    -0.255 OA 
HETATM   12  O   UNL     1      -9.515  17.098  67.871  1.00  0.00    -0.248 OA 
HETATM   13  N   UNL     1      -9.812  16.837  66.703  1.00  0.00    -0.264 N  
HETATM   14  O   UNL     1      -9.974  17.584  65.744  1.00  0.00    -0.546 OA 
ENDBRANCH   4  11
TORSDOF 1
ENDMDL
MODEL       62
REMARK 921   NORMALIZED FREE ENERGY PREDICTED BY IDOCK:   -3.67 KCAL/MOL
REMARK 922        TOTAL FREE ENERGY PREDICTED BY IDOCK:   -4.07 KCAL/MOL
REMARK 923 INTER-LIGAND FREE ENERGY PREDICTED BY IDOCK:   -3.88 KCAL/MOL
REMARK 924 INTRA-LIGAND FREE ENERGY PREDICTED BY IDOCK:   -0.19 KCAL/MOL
REMARK 927      BINDING AFFINITY PREDICTED BY RF-SCORE:    0.00 PKD
ROOT
HETATM    1  C   UNL     1     -12.100   8.075  72.359  1.00  0.00    -0.321 C  
HETATM    2  O   UNL     1     -12.047   6.672  72.091  1.00  0.00    -0.307 OA 
HETATM    3  C   UNL     1     -11.173   6.444  70.973  1.00  0.00    -0.313 C  
HETATM    4  C   UNL     1     -10.542   7.773  70.558  1.00  0.00    -0.226 C  
HETATM    5  C   UNL     1     -10.886   8.702  71.720  1.00  0.00    -0.325 C  
HETATM    6  H   UNL     1     -15.129   9.279  72.040  1.00  0.00     0.000 HD 
HETATM    7  O   UNL     1     -11.235  10.025  71.302  1.00  0.00    -0.341 OA 
HETATM    8  O   UNL     1     -14.407   8.846  72.481  1.00  0.00    -0.579 OA 
HETATM    9  C   UNL     1     -12.671  10.141  71.344  1.00  0.00    -0.425 C  
HETATM   10  C   UNL     1     -13.255   8.767  71.653  1.00  0.00    -0.357 C  
ENDROOT
BRANCH   4  11
HETATM   11  O   UNL     1     -11.153   8.252  69.358  1.00  0.00    -0.075 OA 
HETATM   12  O   UNL     1      -9.027   8.540  68.649  1.00  0.00    -0.139 OA 
HETATM   13  N   UNL     1     -10.222   8.710  68.398  1.00  0.00    -0.195 N  
HETATM   14  O   UNL     1     -10.761   9.174  67.399  1.00  0.00    -0.277 OA 
ENDBRANCH   4  11
TORSDOF 1
ENDMDL
MODEL       63
REMARK 921   NORMALIZED FREE ENERGY PREDICTED BY IDOCK:   -3.67 KCAL/MOL
REMARK 922        TOTAL FREE ENERGY PREDICTED BY IDOCK:   -4.07 KCAL/MOL
REMARK 923 INTER-LIGAND FREE ENERGY PREDICTED BY IDOCK:   -3.87 KCAL/MOL
REMARK 924 INTRA-LIGAND FREE ENERGY PREDICTED BY IDOCK:   -0.20 KCAL/MOL
REMARK 927      BINDING AFFINITY PREDICTED BY RF-SCORE:    0.00 PKD
ROOT
HETATM    1  C   UNL     1     -10.559  14.957  67.410  1.00  0.00    -0.263 C  
HETATM    2  O   UNL     1     -11.063  14.813  68.739  1.00  0.00    -0.243 OA 
HETATM    3  C   UNL     1     -11.133  16.110  69.355  1.00  0.00    -0.335 C  
HETATM    4  C   UNL     1     -10.746  17.169  68.323  1.00  0.00    -0.363 C  
HETATM    5  C   UNL     1     -10.758  16.397  67.007  1.00  0.00    -0.217 C  
HETATM    6  H   UNL     1      -7.746  13.336  66.975  1.00  0.00     0.000 HD 
HETATM    7  O   UNL     1      -9.693  16.764  66.125  1.00  0.00    -0.286 OA 
HETATM    8  O   UNL     1      -8.689  13.444  67.025  1.00  0.00    -0.216 OA 
HETATM    9  C   UNL     1      -8.671  15.752  66.215  1.00  0.00    -0.323 C  
HETATM   10  C   UNL     1      -9.050  14.784  67.330  1.00  0.00    -0.195 C  
ENDROOT
BRANCH   4  11
HETATM   11  O   UNL     1      -9.427  17.652  68.588  1.00  0.00    -0.283 OA 
HETATM   12  O   UNL     1     -10.383  19.695  68.454  1.00  0.00    -0.431 OA 
HETATM   13  N   UNL     1      -9.332  19.062  68.572  1.00  0.00    -0.358 N  
HETATM   14  O   UNL     1      -8.185  19.462  68.741  1.00  0.00    -0.360 OA 
ENDBRANCH   4  11
TORSDOF 1
ENDMDL
MODEL       64
REMARK 921   NORMALIZED FREE ENERGY PREDICTED BY IDOCK:   -3.62 KCAL/MOL
REMARK 922        TOTAL FREE ENERGY PREDICTED BY IDOCK:   -4.02 KCAL/MOL
REMARK 923 INTER-LIGAND FREE ENERGY PREDICTED BY IDOCK:   -3.83 KCAL/MOL
REMARK 924 INTRA-LIGAND FREE ENERGY PREDICTED BY IDOCK:   -0.19 KCAL/MOL
REMARK 927      BINDING AFFINITY PREDICTED BY RF-SCORE:    0.00 PKD
ROOT
HETATM    1  C   UNL     1      -9.399  14.589  68.338  1.00  0.00    -0.208 C  
HETATM    2  O   UNL     1      -9.357  15.841  67.651  1.00  0.00    -0.213 OA 
HETATM    3  C   UNL     1     -10.460  15.906  66.732  1.00  0.00    -0.309 C  
HETATM    4  C   UNL     1     -11.327  14.661  66.911  1.00  0.00    -0.356 C  
HETATM    5  C   UNL     1     -10.802  14.051  68.207  1.00  0.00    -0.255 C  
HETATM    6  H   UNL     1      -6.720  12.788  67.786  1.00  0.00     0.000 HD 
HETATM    7  O   UNL     1     -10.730  12.623  68.173  1.00  0.00    -0.211 OA 
HETATM    8  O   UNL     1      -7.246  13.457  68.207  1.00  0.00    -0.090 OA 
HETATM    9  C   UNL     1      -9.357  12.251  67.944  1.00  0.00    -0.190 C  
HETATM   10  C   UNL     1      -8.557  13.518  67.663  1.00  0.00    -0.185 C  
ENDROOT
BRANCH   4  11
HETATM   11  O   UNL     1     -11.112  13.754  65.827  1.00  0.00    -0.288 OA 
HETATM   12  O   UNL     1     -13.318  14.038  65.435  1.00  0.00    -0.721 OA 
HETATM   13  N   UNL     1     -12.293  13.431  65.122  1.00  0.00    -0.432 N  
HETATM   14  O   UNL     1     -12.104  12.606  64.234  1.00  0.00    -0.375 OA 
ENDBRANCH   4  11
TORSDOF 1
ENDMDL
MODEL       65
REMARK 921   NORMALIZED FREE ENERGY PREDICTED BY IDOCK:   -3.60 KCAL/MOL
REMARK 922        TOTAL FREE ENERGY PREDICTED BY IDOCK:   -4.00 KCAL/MOL
REMARK 923 INTER-LIGAND FREE ENERGY PREDICTED BY IDOCK:   -3.86 KCAL/MOL
REMARK 924 INTRA-LIGAND FREE ENERGY PREDICTED BY IDOCK:   -0.14 KCAL/MOL
REMARK 927      BINDING AFFINITY PREDICTED BY RF-SCORE:    0.00 PKD
ROOT
HETATM    1  C   UNL     1     -12.017   7.640  71.973  1.00  0.00    -0.302 C  
HETATM    2  O   UNL     1     -11.266   6.868  71.034  1.00  0.00    -0.257 OA 
HETATM    3  C   UNL     1     -10.585   7.760  70.136  1.00  0.00    -0.237 C  
HETATM    4  C   UNL     1     -10.831   9.199  70.587  1.00  0.00    -0.264 C  
HETATM    5  C   UNL     1     -11.438   9.033  71.977  1.00  0.00    -0.338 C  
HETATM    6  H   UNL     1     -15.229   7.026  71.784  1.00  0.00     0.000 HD 
HETATM    7  O   UNL     1     -12.497   9.955  72.247  1.00  0.00    -0.255 OA 
HETATM    8  O   UNL     1     -14.331   6.883  72.060  1.00  0.00    -0.310 OA 
HETATM    9  C   UNL     1     -13.748   9.258  72.085  1.00  0.00    -0.453 C  
HETATM   10  C   UNL     1     -13.454   7.868  71.531  1.00  0.00    -0.306 C  
ENDROOT
BRANCH   4  11
HETATM   11  O   UNL     1     -11.775   9.830  69.719  1.00  0.00    -0.109 OA 
HETATM   12  O   UNL     1      -9.972  10.920  68.905  1.00  0.00    -0.189 OA 
HETATM   13  N   UNL     1     -11.199  10.809  68.879  1.00  0.00    -0.247 N  
HETATM   14  O   UNL     1     -12.029  11.385  68.183  1.00  0.00    -0.594 OA 
ENDBRANCH   4  11
TORSDOF 1
ENDMDL
MODEL       66
REMARK 921   NORMALIZED FREE ENERGY PREDICTED BY IDOCK:   -3.55 KCAL/MOL
REMARK 922        TOTAL FREE ENERGY PREDICTED BY IDOCK:   -3.95 KCAL/MOL
REMARK 923 INTER-LIGAND FREE ENERGY PREDICTED BY IDOCK:   -3.76 KCAL/MOL
REMARK 924 INTRA-LIGAND FREE ENERGY PREDICTED BY IDOCK:   -0.19 KCAL/MOL
REMARK 927      BINDING AFFINITY PREDICTED BY RF-SCORE:    0.00 PKD
ROOT
HETATM    1  C   UNL     1     -11.617   9.029  70.992  1.00  0.00    -0.300 C  
HETATM    2  O   UNL     1     -10.376   9.564  71.454  1.00  0.00    -0.302 OA 
HETATM    3  C   UNL     1      -9.584   8.496  72.002  1.00  0.00    -0.301 C  
HETATM    4  C   UNL     1     -10.319   7.174  71.786  1.00  0.00    -0.196 C  
HETATM    5  C   UNL     1     -11.427   7.545  70.804  1.00  0.00    -0.284 C  
HETATM    6  H   UNL     1     -14.182  10.334  72.556  1.00  0.00     0.000 HD 
HETATM    7  O   UNL     1     -12.672   6.897  71.085  1.00  0.00    -0.369 OA 
HETATM    8  O   UNL     1     -13.494  10.287  71.903  1.00  0.00    -0.377 OA 
HETATM    9  C   UNL     1     -13.529   7.847  71.748  1.00  0.00    -0.335 C  
HETATM   10  C   UNL     1     -12.718   9.105  72.038  1.00  0.00    -0.398 C  
ENDROOT
BRANCH   4  11
HETATM   11  O   UNL     1     -10.892   6.725  73.016  1.00  0.00    -0.259 OA 
HETATM   12  O   UNL     1      -9.621   4.887  72.687  1.00  0.00    -0.136 OA 
HETATM   13  N   UNL     1     -10.486   5.423  73.384  1.00  0.00    -0.214 N  
HETATM   14  O   UNL     1     -11.031   5.027  74.408  1.00  0.00    -0.289 OA 
ENDBRANCH   4  11
TORSDOF 1
ENDMDL
MODEL       67
REMARK 921   NORMALIZED FREE ENERGY PREDICTED BY IDOCK:   -3.51 KCAL/MOL
REMARK 922        TOTAL FREE ENERGY PREDICTED BY IDOCK:   -3.90 KCAL/MOL
REMARK 923 INTER-LIGAND FREE ENERGY PREDICTED BY IDOCK:   -3.71 KCAL/MOL
REMARK 924 INTRA-LIGAND FREE ENERGY PREDICTED BY IDOCK:   -0.19 KCAL/MOL
REMARK 927      BINDING AFFINITY PREDICTED BY RF-SCORE:    0.00 PKD
ROOT
HETATM    1  C   UNL     1     -10.049  11.897  68.279  1.00  0.00    -0.203 C  
HETATM    2  O   UNL     1      -9.245  11.164  67.353  1.00  0.00    -0.152 OA 
HETATM    3  C   UNL     1      -8.629  12.088  66.439  1.00  0.00    -0.037 C  
HETATM    4  C   UNL     1      -8.976  13.513  66.867  1.00  0.00    -0.209 C  
HETATM    5  C   UNL     1      -9.570  13.326  68.260  1.00  0.00    -0.221 C  
HETATM    6  H   UNL     1     -13.210  11.054  68.104  1.00  0.00     0.000 HD 
HETATM    7  O   UNL     1     -10.692  14.176  68.516  1.00  0.00    -0.240 OA 
HETATM    8  O   UNL     1     -12.304  10.979  68.381  1.00  0.00    -0.528 OA 
HETATM    9  C   UNL     1     -11.890  13.390  68.367  1.00  0.00    -0.366 C  
HETATM   10  C   UNL     1     -11.499  12.015  67.835  1.00  0.00    -0.330 C  
ENDROOT
BRANCH   4  11
HETATM   11  O   UNL     1      -9.963  14.061  65.989  1.00  0.00    -0.298 OA 
HETATM   12  O   UNL     1      -8.593  15.856  65.922  1.00  0.00    -0.237 OA 
HETATM   13  N   UNL     1      -9.680  15.384  65.582  1.00  0.00    -0.346 N  
HETATM   14  O   UNL     1     -10.563  15.863  64.879  1.00  0.00    -0.546 OA 
ENDBRANCH   4  11
TORSDOF 1
ENDMDL
MODEL       68
REMARK 921   NORMALIZED FREE ENERGY PREDICTED BY IDOCK:   -3.50 KCAL/MOL
REMARK 922        TOTAL FREE ENERGY PREDICTED BY IDOCK:   -3.89 KCAL/MOL
REMARK 923 INTER-LIGAND FREE ENERGY PREDICTED BY IDOCK:   -3.71 KCAL/MOL
REMARK 924 INTRA-LIGAND FREE ENERGY PREDICTED BY IDOCK:   -0.18 KCAL/MOL
REMARK 927      BINDING AFFINITY PREDICTED BY RF-SCORE:    0.00 PKD
ROOT
HETATM    1  C   UNL     1     -11.062   7.630  72.917  1.00  0.00    -0.393 C  
HETATM    2  O   UNL     1      -9.638   7.735  72.960  1.00  0.00    -0.207 OA 
HETATM    3  C   UNL     1      -9.208   8.647  71.935  1.00  0.00    -0.275 C  
HETATM    4  C   UNL     1     -10.439   9.246  71.256  1.00  0.00    -0.338 C  
HETATM    5  C   UNL     1     -11.582   8.840  72.182  1.00  0.00    -0.364 C  
HETATM    6  H   UNL     1     -12.055   4.573  72.284  1.00  0.00     0.000 HD 
HETATM    7  O   UNL     1     -12.770   8.460  71.481  1.00  0.00    -0.311 OA 
HETATM    8  O   UNL     1     -11.755   5.296  72.823  1.00  0.00    -0.275 OA 
HETATM    9  C   UNL     1     -12.838   7.020  71.468  1.00  0.00    -0.372 C  
HETATM   10  C   UNL     1     -11.542   6.473  72.055  1.00  0.00    -0.311 C  
ENDROOT
BRANCH   4  11
HETATM   11  O   UNL     1     -10.624   8.654  69.969  1.00  0.00    -0.219 OA 
HETATM   12  O   UNL     1     -10.197  10.731  69.191  1.00  0.00    -0.208 OA 
HETATM   13  N   UNL     1     -10.533   9.580  68.906  1.00  0.00    -0.211 N  
HETATM   14  O   UNL     1     -10.754   9.071  67.812  1.00  0.00    -0.229 OA 
ENDBRANCH   4  11
TORSDOF 1
ENDMDL
MODEL       69
REMARK 921   NORMALIZED FREE ENERGY PREDICTED BY IDOCK:   -3.46 KCAL/MOL
REMARK 922        TOTAL FREE ENERGY PREDICTED BY IDOCK:   -3.85 KCAL/MOL
REMARK 923 INTER-LIGAND FREE ENERGY PREDICTED BY IDOCK:   -3.73 KCAL/MOL
REMARK 924 INTRA-LIGAND FREE ENERGY PREDICTED BY IDOCK:   -0.12 KCAL/MOL
REMARK 927      BINDING AFFINITY PREDICTED BY RF-SCORE:    0.00 PKD
ROOT
HETATM    1  C   UNL     1     -10.073   9.377  68.795  1.00  0.00    -0.193 C  
HETATM    2  O   UNL     1     -10.959  10.214  68.049  1.00  0.00    -0.265 OA 
HETATM    3  C   UNL     1     -11.852  10.876  68.960  1.00  0.00    -0.299 C  
HETATM    4  C   UNL     1     -11.450  10.523  70.391  1.00  0.00    -0.341 C  
HETATM    5  C   UNL     1     -10.082   9.870  70.221  1.00  0.00    -0.237 C  
HETATM    6  H   UNL     1     -10.375   6.220  67.977  1.00  0.00     0.000 HD 
HETATM    7  O   UNL     1      -9.881   8.745  71.082  1.00  0.00    -0.200 OA 
HETATM    8  O   UNL     1     -10.059   7.113  67.898  1.00  0.00    -0.158 OA 
HETATM    9  C   UNL     1     -10.074   7.548  70.304  1.00  0.00    -0.194 C  
HETATM   10  C   UNL     1     -10.578   7.949  68.923  1.00  0.00    -0.145 C  
ENDROOT
BRANCH   4  11
HETATM   11  O   UNL     1     -12.373   9.579  70.940  1.00  0.00    -0.288 OA 
HETATM   12  O   UNL     1     -13.230  11.371  72.017  1.00  0.00    -0.503 OA 
HETATM   13  N   UNL     1     -13.268  10.147  71.876  1.00  0.00    -0.451 N  
HETATM   14  O   UNL     1     -14.013   9.316  72.384  1.00  0.00    -0.460 OA 
ENDBRANCH   4  11
TORSDOF 1
ENDMDL
MODEL       70
REMARK 921   NORMALIZED FREE ENERGY PREDICTED BY IDOCK:   -3.43 KCAL/MOL
REMARK 922        TOTAL FREE ENERGY PREDICTED BY IDOCK:   -3.82 KCAL/MOL
REMARK 923 INTER-LIGAND FREE ENERGY PREDICTED BY IDOCK:   -3.85 KCAL/MOL
REMARK 924 INTRA-LIGAND FREE ENERGY PREDICTED BY IDOCK:    0.02 KCAL/MOL
REMARK 927      BINDING AFFINITY PREDICTED BY RF-SCORE:    0.00 PKD
ROOT
HETATM    1  C   UNL     1      -9.344  16.875  68.162  1.00  0.00    -0.240 C  
HETATM    2  O   UNL     1     -10.627  17.286  68.638  1.00  0.00    -0.347 OA 
HETATM    3  C   UNL     1     -11.321  16.138  69.156  1.00  0.00    -0.323 C  
HETATM    4  C   UNL     1     -10.386  14.930  69.104  1.00  0.00    -0.245 C  
HETATM    5  C   UNL     1      -9.024  15.552  68.812  1.00  0.00    -0.204 C  
HETATM    6  H   UNL     1      -8.977  17.444  64.957  1.00  0.00     0.000 HD 
HETATM    7  O   UNL     1      -8.236  14.786  67.897  1.00  0.00    -0.135 OA 
HETATM    8  O   UNL     1      -8.976  17.655  65.884  1.00  0.00    -0.519 OA 
HETATM    9  C   UNL     1      -8.322  15.411  66.602  1.00  0.00    -0.220 C  
HETATM   10  C   UNL     1      -9.346  16.537  66.680  1.00  0.00    -0.256 C  
ENDROOT
BRANCH   4  11
HETATM   11  O   UNL     1     -10.764  14.065  68.031  1.00  0.00    -0.239 OA 
HETATM   12  O   UNL     1     -12.094  13.088  69.574  1.00  0.00    -0.293 OA 
HETATM   13  N   UNL     1     -11.661  13.045  68.420  1.00  0.00    -0.312 N  
HETATM   14  O   UNL     1     -11.929  12.274  67.505  1.00  0.00    -0.513 OA 
ENDBRANCH   4  11
TORSDOF 1
ENDMDL
MODEL       71
REMARK 921   NORMALIZED FREE ENERGY PREDICTED BY IDOCK:   -3.40 KCAL/MOL
REMARK 922        TOTAL FREE ENERGY PREDICTED BY IDOCK:   -3.78 KCAL/MOL
REMARK 923 INTER-LIGAND FREE ENERGY PREDICTED BY IDOCK:   -3.62 KCAL/MOL
REMARK 924 INTRA-LIGAND FREE ENERGY PREDICTED BY IDOCK:   -0.17 KCAL/MOL
REMARK 927      BINDING AFFINITY PREDICTED BY RF-SCORE:    0.00 PKD
ROOT
HETATM    1  C   UNL     1     -11.740  13.660  67.790  1.00  0.00    -0.362 C  
HETATM    2  O   UNL     1     -11.571  14.164  69.116  1.00  0.00    -0.266 OA 
HETATM    3  C   UNL     1     -10.378  14.966  69.161  1.00  0.00    -0.245 C  
HETATM    4  C   UNL     1      -9.798  15.068  67.751  1.00  0.00    -0.220 C  
HETATM    5  C   UNL     1     -10.920  14.528  66.869  1.00  0.00    -0.316 C  
HETATM    6  H   UNL     1     -11.688  10.386  67.701  1.00  0.00     0.000 HD 
HETATM    7  O   UNL     1     -10.450  13.714  65.791  1.00  0.00    -0.280 OA 
HETATM    8  O   UNL     1     -12.073  11.247  67.819  1.00  0.00    -0.631 OA 
HETATM    9  C   UNL     1     -10.650  12.334  66.153  1.00  0.00    -0.249 C  
HETATM   10  C   UNL     1     -11.125  12.282  67.601  1.00  0.00    -0.268 C  
ENDROOT
BRANCH   4  11
HETATM   11  O   UNL     1      -8.645  14.231  67.635  1.00  0.00    -0.162 OA 
HETATM   12  O   UNL     1      -7.510  16.181  67.513  1.00  0.00    -0.131 OA 
HETATM   13  N   UNL     1      -7.445  14.952  67.442  1.00  0.00    -0.197 N  
HETATM   14  O   UNL     1      -6.473  14.221  67.282  1.00  0.00    -0.291 OA 
ENDBRANCH   4  11
TORSDOF 1
ENDMDL
MODEL       72
REMARK 921   NORMALIZED FREE ENERGY PREDICTED BY IDOCK:   -3.39 KCAL/MOL
REMARK 922        TOTAL FREE ENERGY PREDICTED BY IDOCK:   -3.78 KCAL/MOL
REMARK 923 INTER-LIGAND FREE ENERGY PREDICTED BY IDOCK:   -3.62 KCAL/MOL
REMARK 924 INTRA-LIGAND FREE ENERGY PREDICTED BY IDOCK:   -0.16 KCAL/MOL
REMARK 927      BINDING AFFINITY PREDICTED BY RF-SCORE:    0.00 PKD
ROOT
HETATM    1  C   UNL     1      -9.672  18.137  66.397  1.00  0.00    -0.327 C  
HETATM    2  O   UNL     1      -8.410  18.632  65.947  1.00  0.00    -0.494 OA 
HETATM    3  C   UNL     1      -7.429  17.588  66.070  1.00  0.00    -0.239 C  
HETATM    4  C   UNL     1      -8.124  16.308  66.532  1.00  0.00    -0.302 C  
HETATM    5  C   UNL     1      -9.606  16.630  66.358  1.00  0.00    -0.285 C  
HETATM    6  H   UNL     1     -10.815  19.823  68.962  1.00  0.00     0.000 HD 
HETATM    7  O   UNL     1     -10.424  16.120  67.414  1.00  0.00    -0.299 OA 
HETATM    8  O   UNL     1     -10.653  19.640  68.044  1.00  0.00    -0.425 OA 
HETATM    9  C   UNL     1     -10.731  17.210  68.306  1.00  0.00    -0.363 C  
HETATM   10  C   UNL     1      -9.930  18.430  67.867  1.00  0.00    -0.350 C  
ENDROOT
BRANCH   4  11
HETATM   11  O   UNL     1      -7.840  16.067  67.912  1.00  0.00    -0.133 OA 
HETATM   12  O   UNL     1      -7.588  13.918  67.262  1.00  0.00    -0.160 OA 
HETATM   13  N   UNL     1      -7.624  14.703  68.212  1.00  0.00    -0.110 N  
HETATM   14  O   UNL     1      -7.442  14.503  69.408  1.00  0.00    -0.135 OA 
ENDBRANCH   4  11
TORSDOF 1
ENDMDL
MODEL       73
REMARK 921   NORMALIZED FREE ENERGY PREDICTED BY IDOCK:   -3.37 KCAL/MOL
REMARK 922        TOTAL FREE ENERGY PREDICTED BY IDOCK:   -3.76 KCAL/MOL
REMARK 923 INTER-LIGAND FREE ENERGY PREDICTED BY IDOCK:   -3.58 KCAL/MOL
REMARK 924 INTRA-LIGAND FREE ENERGY PREDICTED BY IDOCK:   -0.18 KCAL/MOL
REMARK 927      BINDING AFFINITY PREDICTED BY RF-SCORE:    0.00 PKD
ROOT
HETATM    1  C   UNL     1      -7.935  15.829  66.849  1.00  0.00    -0.250 C  
HETATM    2  O   UNL     1      -9.135  15.160  66.456  1.00  0.00    -0.259 OA 
HETATM    3  C   UNL     1     -10.140  16.144  66.156  1.00  0.00    -0.338 C  
HETATM    4  C   UNL     1      -9.517  17.536  66.263  1.00  0.00    -0.219 C  
HETATM    5  C   UNL     1      -8.021  17.246  66.339  1.00  0.00    -0.303 C  
HETATM    6  H   UNL     1      -7.041  15.066  69.906  1.00  0.00     0.000 HD 
HETATM    7  O   UNL     1      -7.326  18.093  67.258  1.00  0.00    -0.202 OA 
HETATM    8  O   UNL     1      -7.108  14.951  68.965  1.00  0.00    -0.111 OA 
HETATM    9  C   UNL     1      -7.097  17.346  68.468  1.00  0.00    -0.219 C  
HETATM   10  C   UNL     1      -7.828  16.013  68.354  1.00  0.00    -0.149 C  
ENDROOT
BRANCH   4  11
HETATM   11  O   UNL     1      -9.948  18.174  67.467  1.00  0.00    -0.306 OA 
HETATM   12  O   UNL     1     -10.317  19.959  66.133  1.00  0.00    -0.465 OA 
HETATM   13  N   UNL     1     -10.305  19.529  67.289  1.00  0.00    -0.415 N  
HETATM   14  O   UNL     1     -10.614  20.081  68.339  1.00  0.00    -0.340 OA 
ENDBRANCH   4  11
TORSDOF 1
ENDMDL
MODEL       74
REMARK 921   NORMALIZED FREE ENERGY PREDICTED BY IDOCK:   -3.37 KCAL/MOL
REMARK 922        TOTAL FREE ENERGY PREDICTED BY IDOCK:   -3.76 KCAL/MOL
REMARK 923 INTER-LIGAND FREE ENERGY PREDICTED BY IDOCK:   -3.62 KCAL/MOL
REMARK 924 INTRA-LIGAND FREE ENERGY PREDICTED BY IDOCK:   -0.14 KCAL/MOL
REMARK 927      BINDING AFFINITY PREDICTED BY RF-SCORE:    0.00 PKD
ROOT
HETATM    1  C   UNL     1     -10.525  12.497  65.460  1.00  0.00    -0.279 C  
HETATM    2  O   UNL     1     -11.442  12.730  66.531  1.00  0.00    -0.317 OA 
HETATM    3  C   UNL     1     -11.318  11.666  67.490  1.00  0.00    -0.298 C  
HETATM    4  C   UNL     1     -10.177  10.744  67.061  1.00  0.00    -0.217 C  
HETATM    5  C   UNL     1      -9.474  11.541  65.966  1.00  0.00    -0.229 C  
HETATM    6  H   UNL     1     -12.051  12.139  62.584  1.00  0.00     0.000 HD 
HETATM    7  O   UNL     1      -9.040  10.734  64.868  1.00  0.00    -0.192 OA 
HETATM    8  O   UNL     1     -11.660  12.615  63.308  1.00  0.00    -0.489 OA 
HETATM    9  C   UNL     1      -9.982  10.902  63.791  1.00  0.00    -0.351 C  
HETATM   10  C   UNL     1     -11.152  11.736  64.302  1.00  0.00    -0.355 C  
ENDROOT
BRANCH   4  11
HETATM   11  O   UNL     1     -10.705   9.533  66.515  1.00  0.00    -0.109 OA 
HETATM   12  O   UNL     1     -10.074   8.624  68.485  1.00  0.00    -0.180 OA 
HETATM   13  N   UNL     1     -10.535   8.414  67.361  1.00  0.00    -0.282 N  
HETATM   14  O   UNL     1     -10.937   7.371  66.856  1.00  0.00    -0.324 OA 
ENDBRANCH   4  11
TORSDOF 1
ENDMDL
MODEL       75
REMARK 921   NORMALIZED FREE ENERGY PREDICTED BY IDOCK:   -3.36 KCAL/MOL
REMARK 922        TOTAL FREE ENERGY PREDICTED BY IDOCK:   -3.74 KCAL/MOL
REMARK 923 INTER-LIGAND FREE ENERGY PREDICTED BY IDOCK:   -3.55 KCAL/MOL
REMARK 924 INTRA-LIGAND FREE ENERGY PREDICTED BY IDOCK:   -0.20 KCAL/MOL
REMARK 927      BINDING AFFINITY PREDICTED BY RF-SCORE:    0.00 PKD
ROOT
HETATM    1  C   UNL     1     -11.269  14.614  67.008  1.00  0.00    -0.344 C  
HETATM    2  O   UNL     1     -12.150  14.345  65.917  1.00  0.00    -0.384 OA 
HETATM    3  C   UNL     1     -12.260  12.921  65.747  1.00  0.00    -0.439 C  
HETATM    4  C   UNL     1     -11.480  12.228  66.864  1.00  0.00    -0.356 C  
HETATM    5  C   UNL     1     -11.189  13.362  67.844  1.00  0.00    -0.275 C  
HETATM    6  H   UNL     1      -8.637  16.327  66.074  1.00  0.00     0.000 HD 
HETATM    7  O   UNL     1      -9.881  13.292  68.419  1.00  0.00    -0.234 OA 
HETATM    8  O   UNL     1      -9.537  16.197  66.350  1.00  0.00    -0.249 OA 
HETATM    9  C   UNL     1      -9.042  14.242  67.734  1.00  0.00    -0.195 C  
HETATM   10  C   UNL     1      -9.829  14.823  66.565  1.00  0.00    -0.272 C  
ENDROOT
BRANCH   4  11
HETATM   11  O   UNL     1     -10.253  11.704  66.352  1.00  0.00    -0.211 OA 
HETATM   12  O   UNL     1     -10.981   9.747  67.213  1.00  0.00    -0.235 OA 
HETATM   13  N   UNL     1     -10.052  10.340  66.660  1.00  0.00    -0.215 N  
HETATM   14  O   UNL     1      -8.969   9.918  66.269  1.00  0.00    -0.141 OA 
ENDBRANCH   4  11
TORSDOF 1
ENDMDL
MODEL       76
REMARK 921   NORMALIZED FREE ENERGY PREDICTED BY IDOCK:   -3.34 KCAL/MOL
REMARK 922        TOTAL FREE ENERGY PREDICTED BY IDOCK:   -3.72 KCAL/MOL
REMARK 923 INTER-LIGAND FREE ENERGY PREDICTED BY IDOCK:   -3.57 KCAL/MOL
REMARK 924 INTRA-LIGAND FREE ENERGY PREDICTED BY IDOCK:   -0.15 KCAL/MOL
REMARK 927      BINDING AFFINITY PREDICTED BY RF-SCORE:    0.00 PKD
ROOT
HETATM    1  C   UNL     1     -11.023  11.511  68.978  1.00  0.00    -0.234 C  
HETATM    2  O   UNL     1     -12.099  11.861  69.851  1.00  0.00    -0.301 OA 
HETATM    3  C   UNL     1     -12.237  10.840  70.854  1.00  0.00    -0.384 C  
HETATM    4  C   UNL     1     -11.114   9.818  70.677  1.00  0.00    -0.332 C  
HETATM    5  C   UNL     1     -10.162  10.508  69.704  1.00  0.00    -0.168 C  
HETATM    6  H   UNL     1     -12.023  11.122  65.884  1.00  0.00     0.000 HD 
HETATM    7  O   UNL     1      -9.600   9.619  68.735  1.00  0.00    -0.147 OA 
HETATM    8  O   UNL     1     -11.734  11.603  66.650  1.00  0.00    -0.523 OA 
HETATM    9  C   UNL     1     -10.314   9.801  67.496  1.00  0.00    -0.237 C  
HETATM   10  C   UNL     1     -11.487  10.741  67.752  1.00  0.00    -0.202 C  
ENDROOT
BRANCH   4  11
HETATM   11  O   UNL     1     -11.628   8.623  70.085  1.00  0.00    -0.095 OA 
HETATM   12  O   UNL     1     -11.319   7.732  72.138  1.00  0.00    -0.267 OA 
HETATM   13  N   UNL     1     -11.635   7.518  70.966  1.00  0.00    -0.279 N  
HETATM   14  O   UNL     1     -12.021   6.485  70.429  1.00  0.00    -0.397 OA 
ENDBRANCH   4  11
TORSDOF 1
ENDMDL
MODEL       77
REMARK 921   NORMALIZED FREE ENERGY PREDICTED BY IDOCK:   -3.31 KCAL/MOL
REMARK 922        TOTAL FREE ENERGY PREDICTED BY IDOCK:   -3.69 KCAL/MOL
REMARK 923 INTER-LIGAND FREE ENERGY PREDICTED BY IDOCK:   -3.51 KCAL/MOL
REMARK 924 INTRA-LIGAND FREE ENERGY PREDICTED BY IDOCK:   -0.18 KCAL/MOL
REMARK 927      BINDING AFFINITY PREDICTED BY RF-SCORE:    0.00 PKD
ROOT
HETATM    1  C   UNL     1     -10.864   8.591  72.106  1.00  0.00    -0.357 C  
HETATM    2  O   UNL     1      -9.630   9.205  71.733  1.00  0.00    -0.283 OA 
HETATM    3  C   UNL     1      -9.465   9.094  70.309  1.00  0.00    -0.219 C  
HETATM    4  C   UNL     1     -10.721   8.458  69.714  1.00  0.00    -0.211 C  
HETATM    5  C   UNL     1     -11.720   8.510  70.866  1.00  0.00    -0.245 C  
HETATM    6  H   UNL     1     -10.421   6.075  74.156  1.00  0.00     0.000 HD 
HETATM    7  O   UNL     1     -12.535   7.338  70.963  1.00  0.00    -0.334 OA 
HETATM    8  O   UNL     1     -10.523   6.987  73.907  1.00  0.00    -0.375 OA 
HETATM    9  C   UNL     1     -12.007   6.515  72.021  1.00  0.00    -0.326 C  
HETATM   10  C   UNL     1     -10.700   7.133  72.505  1.00  0.00    -0.250 C  
ENDROOT
BRANCH   4  11
HETATM   11  O   UNL     1     -10.461   7.098  69.359  1.00  0.00    -0.209 OA 
HETATM   12  O   UNL     1     -10.807   7.810  67.244  1.00  0.00    -0.284 OA 
HETATM   13  N   UNL     1     -10.601   6.841  67.977  1.00  0.00    -0.210 N  
HETATM   14  O   UNL     1     -10.434   5.659  67.695  1.00  0.00    -0.209 OA 
ENDBRANCH   4  11
TORSDOF 1
ENDMDL
MODEL       78
REMARK 921   NORMALIZED FREE ENERGY PREDICTED BY IDOCK:   -3.30 KCAL/MOL
REMARK 922        TOTAL FREE ENERGY PREDICTED BY IDOCK:   -3.68 KCAL/MOL
REMARK 923 INTER-LIGAND FREE ENERGY PREDICTED BY IDOCK:   -3.50 KCAL/MOL
REMARK 924 INTRA-LIGAND FREE ENERGY PREDICTED BY IDOCK:   -0.18 KCAL/MOL
REMARK 927      BINDING AFFINITY PREDICTED BY RF-SCORE:    0.00 PKD
ROOT
HETATM    1  C   UNL     1     -12.357   6.874  71.473  1.00  0.00    -0.376 C  
HETATM    2  O   UNL     1     -12.996   7.971  72.129  1.00  0.00    -0.294 OA 
HETATM    3  C   UNL     1     -12.277   9.178  71.824  1.00  0.00    -0.372 C  
HETATM    4  C   UNL     1     -11.165   8.854  70.827  1.00  0.00    -0.272 C  
HETATM    5  C   UNL     1     -11.513   7.443  70.361  1.00  0.00    -0.225 C  
HETATM    6  H   UNL     1     -11.265   4.634  73.599  1.00  0.00     0.000 HD 
HETATM    7  O   UNL     1     -10.366   6.603  70.197  1.00  0.00    -0.194 OA 
HETATM    8  O   UNL     1     -11.903   5.071  73.048  1.00  0.00    -0.269 OA 
HETATM    9  C   UNL     1     -10.278   5.740  71.347  1.00  0.00    -0.216 C  
HETATM   10  C   UNL     1     -11.335   6.174  72.356  1.00  0.00    -0.296 C  
ENDROOT
BRANCH   4  11
HETATM   11  O   UNL     1      -9.899   8.847  71.491  1.00  0.00    -0.266 OA 
HETATM   12  O   UNL     1      -9.207  10.064  69.718  1.00  0.00    -0.219 OA 
HETATM   13  N   UNL     1      -8.876   9.488  70.756  1.00  0.00    -0.166 N  
HETATM   14  O   UNL     1      -7.783   9.421  71.308  1.00  0.00    -0.336 OA 
ENDBRANCH   4  11
TORSDOF 1
ENDMDL
MODEL       79
REMARK 921   NORMALIZED FREE ENERGY PREDICTED BY IDOCK:   -3.28 KCAL/MOL
REMARK 922        TOTAL FREE ENERGY PREDICTED BY IDOCK:   -3.66 KCAL/MOL
REMARK 923 INTER-LIGAND FREE ENERGY PREDICTED BY IDOCK:   -3.49 KCAL/MOL
REMARK 924 INTRA-LIGAND FREE ENERGY PREDICTED BY IDOCK:   -0.17 KCAL/MOL
REMARK 927      BINDING AFFINITY PREDICTED BY RF-SCORE:    0.00 PKD
ROOT
HETATM    1  C   UNL     1      -9.463   9.012  69.961  1.00  0.00    -0.187 C  
HETATM    2  O   UNL     1     -10.105  10.157  69.397  1.00  0.00    -0.205 OA 
HETATM    3  C   UNL     1     -11.343  10.385  70.091  1.00  0.00    -0.323 C  
HETATM    4  C   UNL     1     -11.458   9.386  71.241  1.00  0.00    -0.363 C  
HETATM    5  C   UNL     1     -10.055   8.792  71.331  1.00  0.00    -0.284 C  
HETATM    6  H   UNL     1      -9.061   6.616  67.764  1.00  0.00     0.000 HD 
HETATM    7  O   UNL     1     -10.051   7.386  71.597  1.00  0.00    -0.184 OA 
HETATM    8  O   UNL     1      -8.848   7.421  68.222  1.00  0.00    -0.128 OA 
HETATM    9  C   UNL     1      -9.800   6.698  70.356  1.00  0.00    -0.175 C  
HETATM   10  C   UNL     1      -9.804   7.724  69.228  1.00  0.00    -0.173 C  
ENDROOT
BRANCH   4  11
HETATM   11  O   UNL     1     -12.397   8.361  70.908  1.00  0.00    -0.197 OA 
HETATM   12  O   UNL     1     -13.641   9.265  72.564  1.00  0.00    -0.467 OA 
HETATM   13  N   UNL     1     -13.535   8.349  71.746  1.00  0.00    -0.354 N  
HETATM   14  O   UNL     1     -14.304   7.428  71.489  1.00  0.00    -0.448 OA 
ENDBRANCH   4  11
TORSDOF 1
ENDMDL
MODEL       80
REMARK 921   NORMALIZED FREE ENERGY PREDICTED BY IDOCK:   -3.27 KCAL/MOL
REMARK 922        TOTAL FREE ENERGY PREDICTED BY IDOCK:   -3.65 KCAL/MOL
REMARK 923 INTER-LIGAND FREE ENERGY PREDICTED BY IDOCK:   -3.49 KCAL/MOL
REMARK 924 INTRA-LIGAND FREE ENERGY PREDICTED BY IDOCK:   -0.16 KCAL/MOL
REMARK 927      BINDING AFFINITY PREDICTED BY RF-SCORE:    0.00 PKD
ROOT
HETATM    1  C   UNL     1     -10.763   7.173  70.696  1.00  0.00    -0.235 C  
HETATM    2  O   UNL     1     -10.857   6.368  69.520  1.00  0.00    -0.252 OA 
HETATM    3  C   UNL     1     -10.578   7.187  68.371  1.00  0.00    -0.186 C  
HETATM    4  C   UNL     1     -10.180   8.584  68.845  1.00  0.00    -0.207 C  
HETATM    5  C   UNL     1      -9.955   8.396  70.342  1.00  0.00    -0.185 C  
HETATM    6  H   UNL     1     -13.597   7.299  72.333  1.00  0.00     0.000 HD 
HETATM    7  O   UNL     1     -10.434   9.491  71.128  1.00  0.00    -0.313 OA 
HETATM    8  O   UNL     1     -12.761   6.934  72.069  1.00  0.00    -0.290 OA 
HETATM    9  C   UNL     1     -11.698   9.105  71.704  1.00  0.00    -0.378 C  
HETATM   10  C   UNL     1     -12.102   7.758  71.118  1.00  0.00    -0.286 C  
ENDROOT
BRANCH   4  11
HETATM   11  O   UNL     1     -11.256   9.500  68.628  1.00  0.00    -0.053 OA 
HETATM   12  O   UNL     1      -9.920  10.351  67.017  1.00  0.00    -0.190 OA 
HETATM   13  N   UNL     1     -10.976  10.472  67.641  1.00  0.00    -0.300 N  
HETATM   14  O   UNL     1     -11.882  11.288  67.508  1.00  0.00    -0.613 OA 
ENDBRANCH   4  11
TORSDOF 1
ENDMDL
MODEL       81
REMARK 921   NORMALIZED FREE ENERGY PREDICTED BY IDOCK:   -3.25 KCAL/MOL
REMARK 922        TOTAL FREE ENERGY PREDICTED BY IDOCK:   -3.63 KCAL/MOL
REMARK 923 INTER-LIGAND FREE ENERGY PREDICTED BY IDOCK:   -3.62 KCAL/MOL
REMARK 924 INTRA-LIGAND FREE ENERGY PREDICTED BY IDOCK:   -0.01 KCAL/MOL
REMARK 927      BINDING AFFINITY PREDICTED BY RF-SCORE:    0.00 PKD
ROOT
HETATM    1  C   UNL     1     -11.212   6.103  71.987  1.00  0.00    -0.286 C  
HETATM    2  O   UNL     1     -11.092   6.974  73.113  1.00  0.00    -0.279 OA 
HETATM    3  C   UNL     1     -11.410   8.315  72.701  1.00  0.00    -0.350 C  
HETATM    4  C   UNL     1     -11.863   8.289  71.242  1.00  0.00    -0.288 C  
HETATM    5  C   UNL     1     -12.073   6.803  70.965  1.00  0.00    -0.372 C  
HETATM    6  H   UNL     1      -8.377   4.636  71.255  1.00  0.00     0.000 HD 
HETATM    7  O   UNL     1     -11.634   6.403  69.664  1.00  0.00    -0.417 OA 
HETATM    8  O   UNL     1      -9.199   4.759  71.715  1.00  0.00    -0.133 OA 
HETATM    9  C   UNL     1     -10.353   5.758  69.804  1.00  0.00    -0.263 C  
HETATM   10  C   UNL     1      -9.896   5.907  71.251  1.00  0.00    -0.176 C  
ENDROOT
BRANCH   4  11
HETATM   11  O   UNL     1     -10.827   8.798  70.399  1.00  0.00    -0.219 OA 
HETATM   12  O   UNL     1     -11.862  10.785  70.691  1.00  0.00    -0.318 OA 
HETATM   13  N   UNL     1     -10.964  10.174  70.108  1.00  0.00    -0.295 N  
HETATM   14  O   UNL     1     -10.104  10.583  69.335  1.00  0.00    -0.222 OA 
ENDBRANCH   4  11
TORSDOF 1
ENDMDL
MODEL       82
REMARK 921   NORMALIZED FREE ENERGY PREDICTED BY IDOCK:   -3.22 KCAL/MOL
REMARK 922        TOTAL FREE ENERGY PREDICTED BY IDOCK:   -3.60 KCAL/MOL
REMARK 923 INTER-LIGAND FREE ENERGY PREDICTED BY IDOCK:   -3.41 KCAL/MOL
REMARK 924 INTRA-LIGAND FREE ENERGY PREDICTED BY IDOCK:   -0.19 KCAL/MOL
REMARK 927      BINDING AFFINITY PREDICTED BY RF-SCORE:    0.00 PKD
ROOT
HETATM    1  C   UNL     1     -11.196   6.420  69.572  1.00  0.00    -0.412 C  
HETATM    2  O   UNL     1     -10.456   5.198  69.605  1.00  0.00    -0.280 OA 
HETATM    3  C   UNL     1     -10.003   4.964  70.949  1.00  0.00    -0.217 C  
HETATM    4  C   UNL     1     -10.572   6.051  71.860  1.00  0.00    -0.226 C  
HETATM    5  C   UNL     1     -11.626   6.725  70.986  1.00  0.00    -0.339 C  
HETATM    6  H   UNL     1      -9.828   8.636  67.586  1.00  0.00     0.000 HD 
HETATM    7  O   UNL     1     -11.666   8.146  71.142  1.00  0.00    -0.280 OA 
HETATM    8  O   UNL     1     -10.366   7.886  67.813  1.00  0.00    -0.205 OA 
HETATM    9  C   UNL     1     -10.977   8.737  70.023  1.00  0.00    -0.209 C  
HETATM   10  C   UNL     1     -10.336   7.619  69.209  1.00  0.00    -0.217 C  
ENDROOT
BRANCH   4  11
HETATM   11  O   UNL     1      -9.550   6.991  72.199  1.00  0.00    -0.148 OA 
HETATM   12  O   UNL     1     -10.323   6.744  74.307  1.00  0.00    -0.369 OA 
HETATM   13  N   UNL     1      -9.548   7.351  73.565  1.00  0.00    -0.243 N  
HETATM   14  O   UNL     1      -8.706   8.203  73.830  1.00  0.00    -0.264 OA 
ENDBRANCH   4  11
TORSDOF 1
ENDMDL
MODEL       83
REMARK 921   NORMALIZED FREE ENERGY PREDICTED BY IDOCK:   -3.22 KCAL/MOL
REMARK 922        TOTAL FREE ENERGY PREDICTED BY IDOCK:   -3.59 KCAL/MOL
REMARK 923 INTER-LIGAND FREE ENERGY PREDICTED BY IDOCK:   -3.40 KCAL/MOL
REMARK 924 INTRA-LIGAND FREE ENERGY PREDICTED BY IDOCK:   -0.19 KCAL/MOL
REMARK 927      BINDING AFFINITY PREDICTED BY RF-SCORE:    0.00 PKD
ROOT
HETATM    1  C   UNL     1      -8.862   8.983  66.524  1.00  0.00    -0.135 C  
HETATM    2  O   UNL     1      -8.450   8.305  65.335  1.00  0.00    -0.163 OA 
HETATM    3  C   UNL     1      -8.692   9.159  64.204  1.00  0.00    -0.141 C  
HETATM    4  C   UNL     1      -9.196  10.512  64.704  1.00  0.00    -0.235 C  
HETATM    5  C   UNL     1      -8.922  10.456  66.204  1.00  0.00    -0.157 C  
HETATM    6  H   UNL     1     -11.249   7.382  68.094  1.00  0.00     0.000 HD 
HETATM    7  O   UNL     1      -9.962  11.041  66.993  1.00  0.00    -0.183 OA 
HETATM    8  O   UNL     1     -10.354   7.583  67.846  1.00  0.00    -0.191 OA 
HETATM    9  C   UNL     1     -10.765   9.974  67.533  1.00  0.00    -0.281 C  
HETATM   10  C   UNL     1     -10.294   8.660  66.920  1.00  0.00    -0.285 C  
ENDROOT
BRANCH   4  11
HETATM   11  O   UNL     1     -10.602  10.626  64.473  1.00  0.00    -0.304 OA 
HETATM   12  O   UNL     1     -10.031  12.422  63.227  1.00  0.00    -0.392 OA 
HETATM   13  N   UNL     1     -10.954  11.755  63.699  1.00  0.00    -0.413 N  
HETATM   14  O   UNL     1     -12.166  11.876  63.560  1.00  0.00    -0.524 OA 
ENDBRANCH   4  11
TORSDOF 1
ENDMDL
MODEL       84
REMARK 921   NORMALIZED FREE ENERGY PREDICTED BY IDOCK:   -3.22 KCAL/MOL
REMARK 922        TOTAL FREE ENERGY PREDICTED BY IDOCK:   -3.59 KCAL/MOL
REMARK 923 INTER-LIGAND FREE ENERGY PREDICTED BY IDOCK:   -3.41 KCAL/MOL
REMARK 924 INTRA-LIGAND FREE ENERGY PREDICTED BY IDOCK:   -0.18 KCAL/MOL
REMARK 927      BINDING AFFINITY PREDICTED BY RF-SCORE:    0.00 PKD
ROOT
HETATM    1  C   UNL     1      -9.297  18.602  66.262  1.00  0.00    -0.243 C  
HETATM    2  O   UNL     1      -8.470  19.630  65.714  1.00  0.00    -0.401 OA 
HETATM    3  C   UNL     1      -7.103  19.371  66.076  1.00  0.00    -0.273 C  
HETATM    4  C   UNL     1      -7.032  18.037  66.817  1.00  0.00    -0.195 C  
HETATM    5  C   UNL     1      -8.407  17.423  66.569  1.00  0.00    -0.273 C  
HETATM    6  H   UNL     1     -11.507  19.787  68.369  1.00  0.00     0.000 HD 
HETATM    7  O   UNL     1      -8.940  16.748  67.712  1.00  0.00    -0.212 OA 
HETATM    8  O   UNL     1     -11.152  19.560  67.517  1.00  0.00    -0.398 OA 
HETATM    9  C   UNL     1      -9.911  17.615  68.329  1.00  0.00    -0.339 C  
HETATM   10  C   UNL     1      -9.865  18.966  67.624  1.00  0.00    -0.331 C  
ENDROOT
BRANCH   4  11
HETATM   11  O   UNL     1      -6.848  18.263  68.216  1.00  0.00    -0.218 OA 
HETATM   12  O   UNL     1      -5.260  16.665  68.046  1.00  0.00    -0.107 OA 
HETATM   13  N   UNL     1      -5.891  17.404  68.803  1.00  0.00    -0.168 N  
HETATM   14  O   UNL     1      -5.787  17.567  70.014  1.00  0.00    -0.250 OA 
ENDBRANCH   4  11
TORSDOF 1
ENDMDL
MODEL       85
REMARK 921   NORMALIZED FREE ENERGY PREDICTED BY IDOCK:   -3.21 KCAL/MOL
REMARK 922        TOTAL FREE ENERGY PREDICTED BY IDOCK:   -3.59 KCAL/MOL
REMARK 923 INTER-LIGAND FREE ENERGY PREDICTED BY IDOCK:   -3.39 KCAL/MOL
REMARK 924 INTRA-LIGAND FREE ENERGY PREDICTED BY IDOCK:   -0.20 KCAL/MOL
REMARK 927      BINDING AFFINITY PREDICTED BY RF-SCORE:    0.00 PKD
ROOT
HETATM    1  C   UNL     1     -11.749   7.906  72.364  1.00  0.00    -0.367 C  
HETATM    2  O   UNL     1     -12.711   8.686  73.076  1.00  0.00    -0.242 OA 
HETATM    3  C   UNL     1     -13.129   9.782  72.245  1.00  0.00    -0.356 C  
HETATM    4  C   UNL     1     -12.471   9.641  70.873  1.00  0.00    -0.238 C  
HETATM    5  C   UNL     1     -11.906   8.224  70.898  1.00  0.00    -0.216 C  
HETATM    6  H   UNL     1      -8.852   7.826  73.890  1.00  0.00     0.000 HD 
HETATM    7  O   UNL     1     -10.621   8.116  70.278  1.00  0.00    -0.219 OA 
HETATM    8  O   UNL     1      -9.747   7.563  73.709  1.00  0.00    -0.284 OA 
HETATM    9  C   UNL     1      -9.626   8.073  71.320  1.00  0.00    -0.156 C  
HETATM   10  C   UNL     1     -10.317   8.327  72.655  1.00  0.00    -0.304 C  
ENDROOT
BRANCH   4  11
HETATM   11  O   UNL     1     -11.406  10.586  70.741  1.00  0.00    -0.327 OA 
HETATM   12  O   UNL     1     -12.454  11.175  68.828  1.00  0.00    -0.468 OA 
HETATM   13  N   UNL     1     -11.462  11.332  69.543  1.00  0.00    -0.279 N  
HETATM   14  O   UNL     1     -10.510  12.095  69.414  1.00  0.00     0.063 OA 
ENDBRANCH   4  11
TORSDOF 1
ENDMDL
MODEL       86
REMARK 921   NORMALIZED FREE ENERGY PREDICTED BY IDOCK:   -3.20 KCAL/MOL
REMARK 922        TOTAL FREE ENERGY PREDICTED BY IDOCK:   -3.58 KCAL/MOL
REMARK 923 INTER-LIGAND FREE ENERGY PREDICTED BY IDOCK:   -3.39 KCAL/MOL
REMARK 924 INTRA-LIGAND FREE ENERGY PREDICTED BY IDOCK:   -0.19 KCAL/MOL
REMARK 927      BINDING AFFINITY PREDICTED BY RF-SCORE:    0.00 PKD
ROOT
HETATM    1  C   UNL     1     -10.648   8.552  71.596  1.00  0.00    -0.283 C  
HETATM    2  O   UNL     1     -11.270   8.089  70.397  1.00  0.00    -0.268 OA 
HETATM    3  C   UNL     1     -11.746   6.748  70.607  1.00  0.00    -0.386 C  
HETATM    4  C   UNL     1     -11.506   6.361  72.066  1.00  0.00    -0.305 C  
HETATM    5  C   UNL     1     -11.149   7.689  72.727  1.00  0.00    -0.383 C  
HETATM    6  H   UNL     1      -7.484   9.273  71.146  1.00  0.00     0.000 HD 
HETATM    7  O   UNL     1     -10.104   7.575  73.698  1.00  0.00    -0.327 OA 
HETATM    8  O   UNL     1      -8.422   9.428  71.134  1.00  0.00    -0.303 OA 
HETATM    9  C   UNL     1      -8.881   8.037  73.092  1.00  0.00    -0.254 C  
HETATM   10  C   UNL     1      -9.147   8.305  71.615  1.00  0.00    -0.185 C  
ENDROOT
BRANCH   4  11
HETATM   11  O   UNL     1     -10.400   5.461  72.158  1.00  0.00    -0.199 OA 
HETATM   12  O   UNL     1     -11.762   4.266  73.507  1.00  0.00    -0.204 OA 
HETATM   13  N   UNL     1     -10.630   4.375  73.032  1.00  0.00    -0.185 N  
HETATM   14  O   UNL     1      -9.652   3.644  73.149  1.00  0.00    -0.110 OA 
ENDBRANCH   4  11
TORSDOF 1
ENDMDL
MODEL       87
REMARK 921   NORMALIZED FREE ENERGY PREDICTED BY IDOCK:   -3.19 KCAL/MOL
REMARK 922        TOTAL FREE ENERGY PREDICTED BY IDOCK:   -3.56 KCAL/MOL
REMARK 923 INTER-LIGAND FREE ENERGY PREDICTED BY IDOCK:   -3.42 KCAL/MOL
REMARK 924 INTRA-LIGAND FREE ENERGY PREDICTED BY IDOCK:   -0.14 KCAL/MOL
REMARK 927      BINDING AFFINITY PREDICTED BY RF-SCORE:    0.00 PKD
ROOT
HETATM    1  C   UNL     1     -10.805  11.594  67.388  1.00  0.00    -0.250 C  
HETATM    2  O   UNL     1     -11.189  10.738  68.465  1.00  0.00    -0.239 OA 
HETATM    3  C   UNL     1     -11.907  11.512  69.442  1.00  0.00    -0.350 C  
HETATM    4  C   UNL     1     -12.085  12.935  68.912  1.00  0.00    -0.142 C  
HETATM    5  C   UNL     1     -11.690  12.814  67.443  1.00  0.00    -0.366 C  
HETATM    6  H   UNL     1      -7.552  11.742  67.032  1.00  0.00     0.000 HD 
HETATM    7  O   UNL     1     -10.937  13.932  66.965  1.00  0.00    -0.289 OA 
HETATM    8  O   UNL     1      -8.423  11.379  66.922  1.00  0.00    -0.145 OA 
HETATM    9  C   UNL     1      -9.548  13.551  66.927  1.00  0.00    -0.258 C  
HETATM   10  C   UNL     1      -9.410  12.174  67.565  1.00  0.00    -0.181 C  
ENDROOT
BRANCH   4  11
HETATM   11  O   UNL     1     -11.188  13.822  69.583  1.00  0.00    -0.213 OA 
HETATM   12  O   UNL     1     -13.040  14.522  70.672  1.00  0.00    -0.357 OA 
HETATM   13  N   UNL     1     -11.834  14.698  70.485  1.00  0.00    -0.288 N  
HETATM   14  O   UNL     1     -11.062  15.495  71.008  1.00  0.00    -0.344 OA 
ENDBRANCH   4  11
TORSDOF 1
ENDMDL
MODEL       88
REMARK 921   NORMALIZED FREE ENERGY PREDICTED BY IDOCK:   -3.15 KCAL/MOL
REMARK 922        TOTAL FREE ENERGY PREDICTED BY IDOCK:   -3.53 KCAL/MOL
REMARK 923 INTER-LIGAND FREE ENERGY PREDICTED BY IDOCK:   -3.33 KCAL/MOL
REMARK 924 INTRA-LIGAND FREE ENERGY PREDICTED BY IDOCK:   -0.20 KCAL/MOL
REMARK 927      BINDING AFFINITY PREDICTED BY RF-SCORE:    0.00 PKD
ROOT
HETATM    1  C   UNL     1      -9.613  14.932  68.523  1.00  0.00    -0.215 C  
HETATM    2  O   UNL     1      -8.824  13.849  68.027  1.00  0.00    -0.167 OA 
HETATM    3  C   UNL     1      -7.582  14.371  67.523  1.00  0.00    -0.193 C  
HETATM    4  C   UNL     1      -7.525  15.872  67.805  1.00  0.00    -0.140 C  
HETATM    5  C   UNL     1      -8.681  16.090  68.777  1.00  0.00    -0.223 C  
HETATM    6  H   UNL     1     -12.454  15.222  66.919  1.00  0.00     0.000 HD 
HETATM    7  O   UNL     1      -9.402  17.303  68.536  1.00  0.00    -0.262 OA 
HETATM    8  O   UNL     1     -11.854  14.876  67.569  1.00  0.00    -0.350 OA 
HETATM    9  C   UNL     1     -10.616  16.968  67.836  1.00  0.00    -0.365 C  
HETATM   10  C   UNL     1     -10.573  15.486  67.482  1.00  0.00    -0.297 C  
ENDROOT
BRANCH   4  11
HETATM   11  O   UNL     1      -7.759  16.605  66.601  1.00  0.00    -0.222 OA 
HETATM   12  O   UNL     1      -5.844  17.677  67.138  1.00  0.00    -0.125 OA 
HETATM   13  N   UNL     1      -6.804  17.620  66.366  1.00  0.00    -0.234 N  
HETATM   14  O   UNL     1      -7.051  18.281  65.363  1.00  0.00    -0.537 OA 
ENDBRANCH   4  11
TORSDOF 1
ENDMDL
MODEL       89
REMARK 921   NORMALIZED FREE ENERGY PREDICTED BY IDOCK:   -3.11 KCAL/MOL
REMARK 922        TOTAL FREE ENERGY PREDICTED BY IDOCK:   -3.48 KCAL/MOL
REMARK 923 INTER-LIGAND FREE ENERGY PREDICTED BY IDOCK:   -3.31 KCAL/MOL
REMARK 924 INTRA-LIGAND FREE ENERGY PREDICTED BY IDOCK:   -0.18 KCAL/MOL
REMARK 927      BINDING AFFINITY PREDICTED BY RF-SCORE:    0.00 PKD
ROOT
HETATM    1  C   UNL     1     -11.928  10.644  69.707  1.00  0.00    -0.291 C  
HETATM    2  O   UNL     1     -12.214  11.586  70.742  1.00  0.00    -0.374 OA 
HETATM    3  C   UNL     1     -12.115  12.915  70.203  1.00  0.00    -0.302 C  
HETATM    4  C   UNL     1     -11.849  12.822  68.701  1.00  0.00    -0.304 C  
HETATM    5  C   UNL     1     -12.117  11.352  68.388  1.00  0.00    -0.048 C  
HETATM    6  H   UNL     1      -9.312   8.801  70.404  1.00  0.00     0.000 HD 
HETATM    7  O   UNL     1     -11.193  10.796  67.448  1.00  0.00    -0.321 OA 
HETATM    8  O   UNL     1     -10.227   9.057  70.428  1.00  0.00    -0.187 OA 
HETATM    9  C   UNL     1     -10.224  10.021  68.180  1.00  0.00    -0.175 C  
HETATM   10  C   UNL     1     -10.464  10.235  69.670  1.00  0.00    -0.253 C  
ENDROOT
BRANCH   4  11
HETATM   11  O   UNL     1     -10.481  13.134  68.426  1.00  0.00    -0.243 OA 
HETATM   12  O   UNL     1     -11.331  14.395  66.755  1.00  0.00    -0.329 OA 
HETATM   13  N   UNL     1     -10.311  13.957  67.290  1.00  0.00    -0.255 N  
HETATM   14  O   UNL     1      -9.131  14.167  67.029  1.00  0.00    -0.223 OA 
ENDBRANCH   4  11
TORSDOF 1
ENDMDL
MODEL       90
REMARK 921   NORMALIZED FREE ENERGY PREDICTED BY IDOCK:   -3.10 KCAL/MOL
REMARK 922        TOTAL FREE ENERGY PREDICTED BY IDOCK:   -3.47 KCAL/MOL
REMARK 923 INTER-LIGAND FREE ENERGY PREDICTED BY IDOCK:   -3.28 KCAL/MOL
REMARK 924 INTRA-LIGAND FREE ENERGY PREDICTED BY IDOCK:   -0.20 KCAL/MOL
REMARK 927      BINDING AFFINITY PREDICTED BY RF-SCORE:    0.00 PKD
ROOT
HETATM    1  C   UNL     1     -11.504   9.029  70.327  1.00  0.00    -0.124 C  
HETATM    2  O   UNL     1     -10.690   9.989  69.652  1.00  0.00    -0.220 OA 
HETATM    3  C   UNL     1      -9.316   9.774  70.018  1.00  0.00    -0.235 C  
HETATM    4  C   UNL     1      -9.228   8.533  70.905  1.00  0.00    -0.175 C  
HETATM    5  C   UNL     1     -10.605   7.894  70.751  1.00  0.00    -0.214 C  
HETATM    6  H   UNL     1     -13.683  10.444  72.322  1.00  0.00     0.000 HD 
HETATM    7  O   UNL     1     -11.118   7.352  71.972  1.00  0.00    -0.230 OA 
HETATM    8  O   UNL     1     -13.341  10.121  71.496  1.00  0.00    -0.370 OA 
HETATM    9  C   UNL     1     -12.081   8.283  72.503  1.00  0.00    -0.337 C  
HETATM   10  C   UNL     1     -12.051   9.545  71.649  1.00  0.00    -0.398 C  
ENDROOT
BRANCH   4  11
HETATM   11  O   UNL     1      -9.022   8.918  72.267  1.00  0.00    -0.388 OA 
HETATM   12  O   UNL     1      -7.232   7.544  72.156  1.00  0.00    -0.065 OA 
HETATM   13  N   UNL     1      -7.931   8.260  72.877  1.00  0.00    -0.158 N  
HETATM   14  O   UNL     1      -7.802   8.552  74.061  1.00  0.00    -0.364 OA 
ENDBRANCH   4  11
TORSDOF 1
ENDMDL
MODEL       91
REMARK 921   NORMALIZED FREE ENERGY PREDICTED BY IDOCK:   -3.08 KCAL/MOL
REMARK 922        TOTAL FREE ENERGY PREDICTED BY IDOCK:   -3.45 KCAL/MOL
REMARK 923 INTER-LIGAND FREE ENERGY PREDICTED BY IDOCK:   -3.29 KCAL/MOL
REMARK 924 INTRA-LIGAND FREE ENERGY PREDICTED BY IDOCK:   -0.16 KCAL/MOL
REMARK 927      BINDING AFFINITY PREDICTED BY RF-SCORE:    0.00 PKD
ROOT
HETATM    1  C   UNL     1     -10.412  10.173  68.192  1.00  0.00    -0.206 C  
HETATM    2  O   UNL     1     -10.583   8.901  67.566  1.00  0.00    -0.271 OA 
HETATM    3  C   UNL     1     -10.098   8.978  66.215  1.00  0.00    -0.241 C  
HETATM    4  C   UNL     1      -9.483  10.358  65.988  1.00  0.00    -0.185 C  
HETATM    5  C   UNL     1      -9.379  10.932  67.398  1.00  0.00    -0.155 C  
HETATM    6  H   UNL     1     -13.265  11.472  69.143  1.00  0.00     0.000 HD 
HETATM    7  O   UNL     1      -9.698  12.325  67.467  1.00  0.00    -0.185 OA 
HETATM    8  O   UNL     1     -12.494  10.921  69.212  1.00  0.00    -0.392 OA 
HETATM    9  C   UNL     1     -11.040  12.450  67.976  1.00  0.00    -0.245 C  
HETATM   10  C   UNL     1     -11.646  11.055  68.080  1.00  0.00    -0.272 C  
ENDROOT
BRANCH   4  11
HETATM   11  O   UNL     1     -10.364  11.163  65.200  1.00  0.00    -0.269 OA 
HETATM   12  O   UNL     1      -8.821  10.876  63.574  1.00  0.00    -0.168 OA 
HETATM   13  N   UNL     1      -9.866  11.440  63.907  1.00  0.00    -0.276 N  
HETATM   14  O   UNL     1     -10.602  12.181  63.264  1.00  0.00    -0.428 OA 
ENDBRANCH   4  11
TORSDOF 1
ENDMDL
MODEL       92
REMARK 921   NORMALIZED FREE ENERGY PREDICTED BY IDOCK:   -3.04 KCAL/MOL
REMARK 922        TOTAL FREE ENERGY PREDICTED BY IDOCK:   -3.40 KCAL/MOL
REMARK 923 INTER-LIGAND FREE ENERGY PREDICTED BY IDOCK:   -3.28 KCAL/MOL
REMARK 924 INTRA-LIGAND FREE ENERGY PREDICTED BY IDOCK:   -0.12 KCAL/MOL
REMARK 927      BINDING AFFINITY PREDICTED BY RF-SCORE:    0.00 PKD
ROOT
HETATM    1  C   UNL     1     -11.634  14.454  64.658  1.00  0.00    -0.409 C  
HETATM    2  O   UNL     1     -11.577  15.868  64.856  1.00  0.00    -0.189 OA 
HETATM    3  C   UNL     1     -10.301  16.207  65.426  1.00  0.00    -0.330 C  
HETATM    4  C   UNL     1      -9.444  14.944  65.506  1.00  0.00    -0.009 C  
HETATM    5  C   UNL     1     -10.216  13.941  64.654  1.00  0.00    -0.247 C  
HETATM    6  H   UNL     1     -14.049  13.065  66.381  1.00  0.00     0.000 HD 
HETATM    7  O   UNL     1     -10.219  12.619  65.200  1.00  0.00    -0.287 OA 
HETATM    8  O   UNL     1     -13.657  13.524  65.647  1.00  0.00    -0.284 OA 
HETATM    9  C   UNL     1     -11.491  12.405  65.842  1.00  0.00    -0.374 C  
HETATM   10  C   UNL     1     -12.262  13.720  65.832  1.00  0.00    -0.466 C  
ENDROOT
BRANCH   4  11
HETATM   11  O   UNL     1      -9.378  14.483  66.858  1.00  0.00    -0.223 OA 
HETATM   12  O   UNL     1      -7.309  15.391  66.838  1.00  0.00    -0.152 OA 
HETATM   13  N   UNL     1      -8.129  14.725  67.474  1.00  0.00    -0.167 N  
HETATM   14  O   UNL     1      -8.065  14.270  68.611  1.00  0.00    -0.142 OA 
ENDBRANCH   4  11
TORSDOF 1
ENDMDL
MODEL       93
REMARK 921   NORMALIZED FREE ENERGY PREDICTED BY IDOCK:   -3.03 KCAL/MOL
REMARK 922        TOTAL FREE ENERGY PREDICTED BY IDOCK:   -3.40 KCAL/MOL
REMARK 923 INTER-LIGAND FREE ENERGY PREDICTED BY IDOCK:   -3.20 KCAL/MOL
REMARK 924 INTRA-LIGAND FREE ENERGY PREDICTED BY IDOCK:   -0.20 KCAL/MOL
REMARK 927      BINDING AFFINITY PREDICTED BY RF-SCORE:    0.00 PKD
ROOT
HETATM    1  C   UNL     1     -10.147  13.971  66.955  1.00  0.00    -0.255 C  
HETATM    2  O   UNL     1      -8.747  13.691  66.959  1.00  0.00    -0.220 OA 
HETATM    3  C   UNL     1      -8.554  12.284  67.187  1.00  0.00    -0.187 C  
HETATM    4  C   UNL     1      -9.918  11.598  67.232  1.00  0.00    -0.191 C  
HETATM    5  C   UNL     1     -10.867  12.670  66.702  1.00  0.00    -0.258 C  
HETATM    6  H   UNL     1     -10.992  16.066  69.328  1.00  0.00     0.000 HD 
HETATM    7  O   UNL     1     -12.118  12.711  67.395  1.00  0.00    -0.432 OA 
HETATM    8  O   UNL     1     -10.667  15.803  68.474  1.00  0.00    -0.251 OA 
HETATM    9  C   UNL     1     -12.078  13.812  68.324  1.00  0.00    -0.279 C  
HETATM   10  C   UNL     1     -10.668  14.391  68.321  1.00  0.00    -0.242 C  
ENDROOT
BRANCH   4  11
HETATM   11  O   UNL     1     -10.259  11.274  68.581  1.00  0.00    -0.191 OA 
HETATM   12  O   UNL     1     -10.545   9.182  67.777  1.00  0.00    -0.248 OA 
HETATM   13  N   UNL     1     -10.652   9.927  68.753  1.00  0.00    -0.214 N  
HETATM   14  O   UNL     1     -11.000   9.677  69.902  1.00  0.00    -0.234 OA 
ENDBRANCH   4  11
TORSDOF 1
ENDMDL
MODEL       94
REMARK 921   NORMALIZED FREE ENERGY PREDICTED BY IDOCK:   -2.98 KCAL/MOL
REMARK 922        TOTAL FREE ENERGY PREDICTED BY IDOCK:   -3.34 KCAL/MOL
REMARK 923 INTER-LIGAND FREE ENERGY PREDICTED BY IDOCK:   -3.20 KCAL/MOL
REMARK 924 INTRA-LIGAND FREE ENERGY PREDICTED BY IDOCK:   -0.14 KCAL/MOL
REMARK 927      BINDING AFFINITY PREDICTED BY RF-SCORE:    0.00 PKD
ROOT
HETATM    1  C   UNL     1     -11.965   6.617  71.596  1.00  0.00    -0.347 C  
HETATM    2  O   UNL     1     -11.903   6.483  70.175  1.00  0.00    -0.416 OA 
HETATM    3  C   UNL     1     -10.736   5.718  69.829  1.00  0.00    -0.348 C  
HETATM    4  C   UNL     1     -10.059   5.242  71.114  1.00  0.00    -0.217 C  
HETATM    5  C   UNL     1     -11.102   5.532  72.189  1.00  0.00    -0.210 C  
HETATM    6  H   UNL     1     -11.829   9.749  72.547  1.00  0.00     0.000 HD 
HETATM    7  O   UNL     1     -10.537   6.027  73.407  1.00  0.00    -0.231 OA 
HETATM    8  O   UNL     1     -12.241   8.952  72.234  1.00  0.00    -0.367 OA 
HETATM    9  C   UNL     1     -10.730   7.455  73.439  1.00  0.00    -0.357 C  
HETATM   10  C   UNL     1     -11.305   7.892  72.097  1.00  0.00    -0.313 C  
ENDROOT
BRANCH   4  11
HETATM   11  O   UNL     1      -8.881   6.013  71.361  1.00  0.00    -0.135 OA 
HETATM   12  O   UNL     1      -7.973   4.033  71.961  1.00  0.00    -0.080 OA 
HETATM   13  N   UNL     1      -7.812   5.253  71.889  1.00  0.00    -0.109 N  
HETATM   14  O   UNL     1      -6.829   5.937  72.153  1.00  0.00    -0.069 OA 
ENDBRANCH   4  11
TORSDOF 1
ENDMDL
MODEL       95
REMARK 921   NORMALIZED FREE ENERGY PREDICTED BY IDOCK:   -2.97 KCAL/MOL
REMARK 922        TOTAL FREE ENERGY PREDICTED BY IDOCK:   -3.33 KCAL/MOL
REMARK 923 INTER-LIGAND FREE ENERGY PREDICTED BY IDOCK:   -3.13 KCAL/MOL
REMARK 924 INTRA-LIGAND FREE ENERGY PREDICTED BY IDOCK:   -0.20 KCAL/MOL
REMARK 927      BINDING AFFINITY PREDICTED BY RF-SCORE:    0.00 PKD
ROOT
HETATM    1  C   UNL     1     -12.118  13.469  67.144  1.00  0.00    -0.340 C  
HETATM    2  O   UNL     1     -11.508  13.884  65.920  1.00  0.00    -0.313 OA 
HETATM    3  C   UNL     1     -10.550  12.890  65.518  1.00  0.00    -0.279 C  
HETATM    4  C   UNL     1     -10.619  11.713  66.490  1.00  0.00    -0.253 C  
HETATM    5  C   UNL     1     -11.898  11.983  67.277  1.00  0.00    -0.187 C  
HETATM    6  H   UNL     1     -11.572  15.596  69.575  1.00  0.00     0.000 HD 
HETATM    7  O   UNL     1     -11.782  11.673  68.669  1.00  0.00    -0.284 OA 
HETATM    8  O   UNL     1     -12.010  15.246  68.808  1.00  0.00    -0.321 OA 
HETATM    9  C   UNL     1     -11.588  12.907  69.386  1.00  0.00    -0.302 C  
HETATM   10  C   UNL     1     -11.416  14.031  68.371  1.00  0.00    -0.306 C  
ENDROOT
BRANCH   4  11
HETATM   11  O   UNL     1      -9.493  11.739  67.371  1.00  0.00    -0.170 OA 
HETATM   12  O   UNL     1      -9.186   9.607  66.689  1.00  0.00    -0.144 OA 
HETATM   13  N   UNL     1      -8.815  10.502  67.451  1.00  0.00    -0.132 N  
HETATM   14  O   UNL     1      -7.890  10.520  68.256  1.00  0.00    -0.104 OA 
ENDBRANCH   4  11
TORSDOF 1
ENDMDL
MODEL       96
REMARK 921   NORMALIZED FREE ENERGY PREDICTED BY IDOCK:   -2.96 KCAL/MOL
REMARK 922        TOTAL FREE ENERGY PREDICTED BY IDOCK:   -3.32 KCAL/MOL
REMARK 923 INTER-LIGAND FREE ENERGY PREDICTED BY IDOCK:   -3.13 KCAL/MOL
REMARK 924 INTRA-LIGAND FREE ENERGY PREDICTED BY IDOCK:   -0.19 KCAL/MOL
REMARK 927      BINDING AFFINITY PREDICTED BY RF-SCORE:    0.00 PKD
ROOT
HETATM    1  C   UNL     1      -9.549   8.898  71.447  1.00  0.00    -0.289 C  
HETATM    2  O   UNL     1      -8.287   8.266  71.225  1.00  0.00    -0.110 OA 
HETATM    3  C   UNL     1      -8.125   8.033  69.815  1.00  0.00    -0.115 C  
HETATM    4  C   UNL     1      -9.312   8.646  69.073  1.00  0.00    -0.146 C  
HETATM    5  C   UNL     1      -9.986   9.506  70.138  1.00  0.00    -0.241 C  
HETATM    6  H   UNL     1     -11.518   7.090  73.341  1.00  0.00     0.000 HD 
HETATM    7  O   UNL     1     -11.415   9.461  70.080  1.00  0.00    -0.230 OA 
HETATM    8  O   UNL     1     -10.823   7.710  73.150  1.00  0.00    -0.382 OA 
HETATM    9  C   UNL     1     -11.875   8.572  71.117  1.00  0.00    -0.284 C  
HETATM   10  C   UNL     1     -10.660   7.905  71.752  1.00  0.00    -0.226 C  
ENDROOT
BRANCH   4  11
HETATM   11  O   UNL     1     -10.205   7.616  68.644  1.00  0.00    -0.190 OA 
HETATM   12  O   UNL     1      -9.827   8.447  66.578  1.00  0.00    -0.242 OA 
HETATM   13  N   UNL     1     -10.468   7.642  67.256  1.00  0.00    -0.301 N  
HETATM   14  O   UNL     1     -11.283   6.793  66.911  1.00  0.00    -0.375 OA 
ENDBRANCH   4  11
TORSDOF 1
ENDMDL
MODEL       97
REMARK 921   NORMALIZED FREE ENERGY PREDICTED BY IDOCK:   -2.95 KCAL/MOL
REMARK 922        TOTAL FREE ENERGY PREDICTED BY IDOCK:   -3.31 KCAL/MOL
REMARK 923 INTER-LIGAND FREE ENERGY PREDICTED BY IDOCK:   -3.19 KCAL/MOL
REMARK 924 INTRA-LIGAND FREE ENERGY PREDICTED BY IDOCK:   -0.12 KCAL/MOL
REMARK 927      BINDING AFFINITY PREDICTED BY RF-SCORE:    0.00 PKD
ROOT
HETATM    1  C   UNL     1     -10.078   6.926  71.911  1.00  0.00    -0.183 C  
HETATM    2  O   UNL     1     -11.464   7.143  72.185  1.00  0.00    -0.255 OA 
HETATM    3  C   UNL     1     -12.216   6.925  70.979  1.00  0.00    -0.377 C  
HETATM    4  C   UNL     1     -11.268   6.438  69.885  1.00  0.00    -0.420 C  
HETATM    5  C   UNL     1      -9.991   6.102  70.650  1.00  0.00    -0.188 C  
HETATM    6  H   UNL     1      -8.282   9.614  72.434  1.00  0.00     0.000 HD 
HETATM    7  O   UNL     1      -8.799   6.476  69.955  1.00  0.00    -0.141 OA 
HETATM    8  O   UNL     1      -8.741   8.816  72.668  1.00  0.00    -0.408 OA 
HETATM    9  C   UNL     1      -8.313   7.704  70.532  1.00  0.00    -0.126 C  
HETATM   10  C   UNL     1      -9.345   8.204  71.536  1.00  0.00    -0.160 C  
ENDROOT
BRANCH   4  11
HETATM   11  O   UNL     1     -11.011   7.492  68.954  1.00  0.00    -0.091 OA 
HETATM   12  O   UNL     1     -11.102   5.853  67.403  1.00  0.00    -0.247 OA 
HETATM   13  N   UNL     1     -10.874   7.044  67.621  1.00  0.00    -0.251 N  
HETATM   14  O   UNL     1     -10.594   7.949  66.843  1.00  0.00    -0.341 OA 
ENDBRANCH   4  11
TORSDOF 1
ENDMDL
MODEL       98
REMARK 921   NORMALIZED FREE ENERGY PREDICTED BY IDOCK:   -2.91 KCAL/MOL
REMARK 922        TOTAL FREE ENERGY PREDICTED BY IDOCK:   -3.27 KCAL/MOL
REMARK 923 INTER-LIGAND FREE ENERGY PREDICTED BY IDOCK:   -3.09 KCAL/MOL
REMARK 924 INTRA-LIGAND FREE ENERGY PREDICTED BY IDOCK:   -0.18 KCAL/MOL
REMARK 927      BINDING AFFINITY PREDICTED BY RF-SCORE:    0.00 PKD
ROOT
HETATM    1  C   UNL     1     -10.067   5.262  69.697  1.00  0.00    -0.257 C  
HETATM    2  O   UNL     1      -9.980   5.086  71.112  1.00  0.00    -0.186 OA 
HETATM    3  C   UNL     1     -10.752   6.113  71.758  1.00  0.00    -0.242 C  
HETATM    4  C   UNL     1     -11.464   6.942  70.689  1.00  0.00    -0.336 C  
HETATM    5  C   UNL     1     -11.283   6.111  69.422  1.00  0.00    -0.396 C  
HETATM    6  H   UNL     1      -7.138   5.817  68.340  1.00  0.00     0.000 HD 
HETATM    7  O   UNL     1     -11.020   6.902  68.260  1.00  0.00    -0.202 OA 
HETATM    8  O   UNL     1      -7.849   5.293  68.691  1.00  0.00    -0.085 OA 
HETATM    9  C   UNL     1      -9.606   6.841  67.989  1.00  0.00    -0.117 C  
HETATM   10  C   UNL     1      -8.929   6.101  69.137  1.00  0.00    -0.126 C  
ENDROOT
BRANCH   4  11
HETATM   11  O   UNL     1     -10.815   8.206  70.537  1.00  0.00    -0.233 OA 
HETATM   12  O   UNL     1     -12.774   9.056  71.274  1.00  0.00    -0.316 OA 
HETATM   13  N   UNL     1     -11.654   9.306  70.825  1.00  0.00    -0.281 N  
HETATM   14  O   UNL     1     -11.104  10.385  70.632  1.00  0.00    -0.313 OA 
ENDBRANCH   4  11
TORSDOF 1
ENDMDL
MODEL       99
REMARK 921   NORMALIZED FREE ENERGY PREDICTED BY IDOCK:   -2.91 KCAL/MOL
REMARK 922        TOTAL FREE ENERGY PREDICTED BY IDOCK:   -3.26 KCAL/MOL
REMARK 923 INTER-LIGAND FREE ENERGY PREDICTED BY IDOCK:   -3.07 KCAL/MOL
REMARK 924 INTRA-LIGAND FREE ENERGY PREDICTED BY IDOCK:   -0.20 KCAL/MOL
REMARK 927      BINDING AFFINITY PREDICTED BY RF-SCORE:    0.00 PKD
ROOT
HETATM    1  C   UNL     1      -9.133  15.892  68.471  1.00  0.00    -0.200 C  
HETATM    2  O   UNL     1      -8.192  15.062  69.154  1.00  0.00    -0.178 OA 
HETATM    3  C   UNL     1      -8.171  13.768  68.528  1.00  0.00    -0.124 C  
HETATM    4  C   UNL     1      -9.082  13.797  67.302  1.00  0.00    -0.232 C  
HETATM    5  C   UNL     1      -9.366  15.284  67.111  1.00  0.00    -0.216 C  
HETATM    6  H   UNL     1     -11.556  16.886  70.439  1.00  0.00     0.000 HD 
HETATM    7  O   UNL     1     -10.716  15.558  66.725  1.00  0.00    -0.303 OA 
HETATM    8  O   UNL     1     -10.692  16.907  70.045  1.00  0.00    -0.214 OA 
HETATM    9  C   UNL     1     -11.430  16.009  67.893  1.00  0.00    -0.140 C  
HETATM   10  C   UNL     1     -10.516  15.857  69.103  1.00  0.00    -0.235 C  
ENDROOT
BRANCH   4  11
HETATM   11  O   UNL     1     -10.300  13.103  67.580  1.00  0.00    -0.222 OA 
HETATM   12  O   UNL     1      -9.804  11.929  65.715  1.00  0.00    -0.230 OA 
HETATM   13  N   UNL     1     -10.634  12.139  66.602  1.00  0.00    -0.230 N  
HETATM   14  O   UNL     1     -11.710  11.594  66.821  1.00  0.00    -0.541 OA 
ENDBRANCH   4  11
TORSDOF 1
ENDMDL
MODEL      100
REMARK 921   NORMALIZED FREE ENERGY PREDICTED BY IDOCK:   -2.90 KCAL/MOL
REMARK 922        TOTAL FREE ENERGY PREDICTED BY IDOCK:   -3.26 KCAL/MOL
REMARK 923 INTER-LIGAND FREE ENERGY PREDICTED BY IDOCK:   -3.07 KCAL/MOL
REMARK 924 INTRA-LIGAND FREE ENERGY PREDICTED BY IDOCK:   -0.19 KCAL/MOL
REMARK 927      BINDING AFFINITY PREDICTED BY RF-SCORE:    0.00 PKD
ROOT
HETATM    1  C   UNL     1     -10.682  11.353  69.160  1.00  0.00    -0.189 C  
HETATM    2  O   UNL     1     -11.517  11.025  70.272  1.00  0.00    -0.301 OA 
HETATM    3  C   UNL     1     -11.073   9.779  70.836  1.00  0.00    -0.357 C  
HETATM    4  C   UNL     1      -9.810   9.327  70.105  1.00  0.00    -0.215 C  
HETATM    5  C   UNL     1      -9.406  10.562  69.305  1.00  0.00    -0.160 C  
HETATM    6  H   UNL     1     -12.373  11.544  66.361  1.00  0.00     0.000 HD 
HETATM    7  O   UNL     1      -8.920  10.254  67.996  1.00  0.00    -0.130 OA 
HETATM    8  O   UNL     1     -12.023  11.853  67.189  1.00  0.00    -0.611 OA 
HETATM    9  C   UNL     1      -9.978  10.518  67.054  1.00  0.00    -0.201 C  
HETATM   10  C   UNL     1     -11.243  10.858  67.836  1.00  0.00    -0.321 C  
ENDROOT
BRANCH   4  11
HETATM   11  O   UNL     1     -10.118   8.252  69.214  1.00  0.00    -0.189 OA 
HETATM   12  O   UNL     1      -8.319   7.252  70.144  1.00  0.00    -0.132 OA 
HETATM   13  N   UNL     1      -9.191   7.188  69.275  1.00  0.00    -0.141 N  
HETATM   14  O   UNL     1      -9.432   6.301  68.463  1.00  0.00    -0.124 OA 
ENDBRANCH   4  11
TORSDOF 1
ENDMDL
MODEL      101
REMARK 921   NORMALIZED FREE ENERGY PREDICTED BY IDOCK:   -2.89 KCAL/MOL
REMARK 922        TOTAL FREE ENERGY PREDICTED BY IDOCK:   -3.25 KCAL/MOL
REMARK 923 INTER-LIGAND FREE ENERGY PREDICTED BY IDOCK:   -3.05 KCAL/MOL
REMARK 924 INTRA-LIGAND FREE ENERGY PREDICTED BY IDOCK:   -0.20 KCAL/MOL
REMARK 927      BINDING AFFINITY PREDICTED BY RF-SCORE:    0.00 PKD
ROOT
HETATM    1  C   UNL     1     -10.412   8.557  69.987  1.00  0.00    -0.223 C  
HETATM    2  O   UNL     1     -11.630   9.152  70.440  1.00  0.00    -0.242 OA 
HETATM    3  C   UNL     1     -11.925   8.660  71.758  1.00  0.00    -0.336 C  
HETATM    4  C   UNL     1     -10.773   7.771  72.225  1.00  0.00    -0.269 C  
HETATM    5  C   UNL     1      -9.676   8.053  71.203  1.00  0.00    -0.160 C  
HETATM    6  H   UNL     1     -10.847   6.770  67.276  1.00  0.00     0.000 HD 
HETATM    7  O   UNL     1      -8.939   6.886  70.826  1.00  0.00    -0.149 OA 
HETATM    8  O   UNL     1     -10.704   7.561  67.783  1.00  0.00    -0.220 OA 
HETATM    9  C   UNL     1      -9.427   6.445  69.545  1.00  0.00    -0.145 C  
HETATM   10  C   UNL     1     -10.641   7.291  69.176  1.00  0.00    -0.208 C  
ENDROOT
BRANCH   4  11
HETATM   11  O   UNL     1     -11.157   6.396  72.157  1.00  0.00    -0.238 OA 
HETATM   12  O   UNL     1     -10.475   6.323  74.309  1.00  0.00    -0.305 OA 
HETATM   13  N   UNL     1     -10.886   5.677  73.343  1.00  0.00    -0.274 N  
HETATM   14  O   UNL     1     -11.163   4.486  73.250  1.00  0.00    -0.281 OA 
ENDBRANCH   4  11
TORSDOF 1
ENDMDL
MODEL      102
REMARK 921   NORMALIZED FREE ENERGY PREDICTED BY IDOCK:   -2.88 KCAL/MOL
REMARK 922        TOTAL FREE ENERGY PREDICTED BY IDOCK:   -3.24 KCAL/MOL
REMARK 923 INTER-LIGAND FREE ENERGY PREDICTED BY IDOCK:   -3.06 KCAL/MOL
REMARK 924 INTRA-LIGAND FREE ENERGY PREDICTED BY IDOCK:   -0.18 KCAL/MOL
REMARK 927      BINDING AFFINITY PREDICTED BY RF-SCORE:    0.00 PKD
ROOT
HETATM    1  C   UNL     1      -9.885   7.557  67.510  1.00  0.00    -0.162 C  
HETATM    2  O   UNL     1     -10.461   8.791  67.077  1.00  0.00    -0.283 OA 
HETATM    3  C   UNL     1     -10.752   9.599  68.231  1.00  0.00    -0.217 C  
HETATM    4  C   UNL     1     -10.237   8.883  69.479  1.00  0.00    -0.204 C  
HETATM    5  C   UNL     1      -9.363   7.769  68.909  1.00  0.00    -0.146 C  
HETATM    6  H   UNL     1     -11.699   4.975  66.635  1.00  0.00     0.000 HD 
HETATM    7  O   UNL     1      -9.484   6.534  69.621  1.00  0.00    -0.145 OA 
HETATM    8  O   UNL     1     -11.054   5.663  66.521  1.00  0.00    -0.194 OA 
HETATM    9  C   UNL     1     -10.345   5.664  68.861  1.00  0.00    -0.225 C  
HETATM   10  C   UNL     1     -10.918   6.456  67.692  1.00  0.00    -0.349 C  
ENDROOT
BRANCH   4  11
HETATM   11  O   UNL     1     -11.330   8.317  70.205  1.00  0.00    -0.234 OA 
HETATM   12  O   UNL     1     -10.306   9.205  72.013  1.00  0.00    -0.307 OA 
HETATM   13  N   UNL     1     -11.230   8.500  71.603  1.00  0.00    -0.271 N  
HETATM   14  O   UNL     1     -12.142   7.957  72.219  1.00  0.00    -0.321 OA 
ENDBRANCH   4  11
TORSDOF 1
ENDMDL
MODEL      103
REMARK 921   NORMALIZED FREE ENERGY PREDICTED BY IDOCK:   -2.87 KCAL/MOL
REMARK 922        TOTAL FREE ENERGY PREDICTED BY IDOCK:   -3.23 KCAL/MOL
REMARK 923 INTER-LIGAND FREE ENERGY PREDICTED BY IDOCK:   -3.03 KCAL/MOL
REMARK 924 INTRA-LIGAND FREE ENERGY PREDICTED BY IDOCK:   -0.20 KCAL/MOL
REMARK 927      BINDING AFFINITY PREDICTED BY RF-SCORE:    0.00 PKD
ROOT
HETATM    1  C   UNL     1     -11.225   7.805  72.088  1.00  0.00    -0.297 C  
HETATM    2  O   UNL     1     -11.108   7.716  73.509  1.00  0.00    -0.315 OA 
HETATM    3  C   UNL     1     -10.112   6.731  73.833  1.00  0.00    -0.346 C  
HETATM    4  C   UNL     1      -9.475   6.226  72.538  1.00  0.00    -0.142 C  
HETATM    5  C   UNL     1      -9.966   7.224  71.494  1.00  0.00    -0.182 C  
HETATM    6  H   UNL     1     -14.233   7.029  71.048  1.00  0.00     0.000 HD 
HETATM    7  O   UNL     1     -10.303   6.616  70.244  1.00  0.00    -0.195 OA 
HETATM    8  O   UNL     1     -13.552   7.592  71.397  1.00  0.00    -0.362 OA 
HETATM    9  C   UNL     1     -11.737   6.494  70.179  1.00  0.00    -0.353 C  
HETATM   10  C   UNL     1     -12.315   6.904  71.529  1.00  0.00    -0.376 C  
ENDROOT
BRANCH   4  11
HETATM   11  O   UNL     1      -9.965   4.920  72.228  1.00  0.00    -0.166 OA 
HETATM   12  O   UNL     1      -7.778   4.366  72.104  1.00  0.00    -0.081 OA 
HETATM   13  N   UNL     1      -8.941   3.989  71.942  1.00  0.00    -0.115 N  
HETATM   14  O   UNL     1      -9.376   2.889  71.618  1.00  0.00    -0.105 OA 
ENDBRANCH   4  11
TORSDOF 1
ENDMDL
MODEL      104
REMARK 921   NORMALIZED FREE ENERGY PREDICTED BY IDOCK:   -2.87 KCAL/MOL
REMARK 922        TOTAL FREE ENERGY PREDICTED BY IDOCK:   -3.23 KCAL/MOL
REMARK 923 INTER-LIGAND FREE ENERGY PREDICTED BY IDOCK:   -3.38 KCAL/MOL
REMARK 924 INTRA-LIGAND FREE ENERGY PREDICTED BY IDOCK:    0.15 KCAL/MOL
REMARK 927      BINDING AFFINITY PREDICTED BY RF-SCORE:    0.00 PKD
ROOT
HETATM    1  C   UNL     1      -8.937  18.411  67.775  1.00  0.00    -0.281 C  
HETATM    2  O   UNL     1      -9.259  18.866  66.460  1.00  0.00    -0.314 OA 
HETATM    3  C   UNL     1     -10.204  17.956  65.871  1.00  0.00    -0.224 C  
HETATM    4  C   UNL     1     -10.593  16.906  66.910  1.00  0.00    -0.214 C  
HETATM    5  C   UNL     1     -10.037  17.477  68.212  1.00  0.00    -0.346 C  
HETATM    6  H   UNL     1      -5.751  17.718  68.094  1.00  0.00     0.000 HD 
HETATM    7  O   UNL     1      -9.465  16.483  69.067  1.00  0.00    -0.254 OA 
HETATM    8  O   UNL     1      -6.523  18.272  68.075  1.00  0.00    -0.188 OA 
HETATM    9  C   UNL     1      -8.032  16.546  68.927  1.00  0.00    -0.239 C  
HETATM   10  C   UNL     1      -7.702  17.525  67.806  1.00  0.00    -0.205 C  
ENDROOT
BRANCH   4  11
HETATM   11  O   UNL     1      -9.952  15.663  66.614  1.00  0.00    -0.243 OA 
HETATM   12  O   UNL     1     -11.644  15.390  65.142  1.00  0.00    -0.252 OA 
HETATM   13  N   UNL     1     -10.655  14.879  65.672  1.00  0.00    -0.321 N  
HETATM   14  O   UNL     1     -10.127  13.790  65.472  1.00  0.00    -0.302 OA 
ENDBRANCH   4  11
TORSDOF 1
ENDMDL
MODEL      105
REMARK 921   NORMALIZED FREE ENERGY PREDICTED BY IDOCK:   -2.86 KCAL/MOL
REMARK 922        TOTAL FREE ENERGY PREDICTED BY IDOCK:   -3.22 KCAL/MOL
REMARK 923 INTER-LIGAND FREE ENERGY PREDICTED BY IDOCK:   -3.02 KCAL/MOL
REMARK 924 INTRA-LIGAND FREE ENERGY PREDICTED BY IDOCK:   -0.20 KCAL/MOL
REMARK 927      BINDING AFFINITY PREDICTED BY RF-SCORE:    0.00 PKD
ROOT
HETATM    1  C   UNL     1     -11.436   7.469  70.823  1.00  0.00    -0.284 C  
HETATM    2  O   UNL     1     -12.088   8.680  71.211  1.00  0.00    -0.290 OA 
HETATM    3  C   UNL     1     -11.243   9.793  70.872  1.00  0.00    -0.359 C  
HETATM    4  C   UNL     1     -10.014   9.273  70.127  1.00  0.00    -0.215 C  
HETATM    5  C   UNL     1     -10.386   7.829  69.802  1.00  0.00    -0.221 C  
HETATM    6  H   UNL     1     -10.862   5.504  73.381  1.00  0.00     0.000 HD 
HETATM    7  O   UNL     1      -9.293   6.917  69.945  1.00  0.00    -0.151 OA 
HETATM    8  O   UNL     1     -11.371   5.890  72.677  1.00  0.00    -0.281 OA 
HETATM    9  C   UNL     1      -9.452   6.225  71.199  1.00  0.00    -0.170 C  
HETATM   10  C   UNL     1     -10.621   6.853  71.949  1.00  0.00    -0.211 C  
ENDROOT
BRANCH   4  11
HETATM   11  O   UNL     1      -8.873   9.297  70.988  1.00  0.00    -0.218 OA 
HETATM   12  O   UNL     1      -7.929  10.526  69.345  1.00  0.00    -0.153 OA 
HETATM   13  N   UNL     1      -7.759   9.960  70.426  1.00  0.00    -0.147 N  
HETATM   14  O   UNL     1      -6.769   9.920  71.149  1.00  0.00    -0.322 OA 
ENDBRANCH   4  11
TORSDOF 1
ENDMDL
MODEL      106
REMARK 921   NORMALIZED FREE ENERGY PREDICTED BY IDOCK:   -2.86 KCAL/MOL
REMARK 922        TOTAL FREE ENERGY PREDICTED BY IDOCK:   -3.22 KCAL/MOL
REMARK 923 INTER-LIGAND FREE ENERGY PREDICTED BY IDOCK:   -3.05 KCAL/MOL
REMARK 924 INTRA-LIGAND FREE ENERGY PREDICTED BY IDOCK:   -0.17 KCAL/MOL
REMARK 927      BINDING AFFINITY PREDICTED BY RF-SCORE:    0.00 PKD
ROOT
HETATM    1  C   UNL     1     -11.517  10.869  67.910  1.00  0.00    -0.266 C  
HETATM    2  O   UNL     1     -11.942  12.029  67.194  1.00  0.00    -0.601 OA 
HETATM    3  C   UNL     1     -10.782  12.749  66.744  1.00  0.00    -0.260 C  
HETATM    4  C   UNL     1      -9.531  11.949  67.105  1.00  0.00    -0.178 C  
HETATM    5  C   UNL     1     -10.091  10.588  67.509  1.00  0.00    -0.189 C  
HETATM    6  H   UNL     1     -12.541  10.897  71.022  1.00  0.00     0.000 HD 
HETATM    7  O   UNL     1      -9.418  10.010  68.631  1.00  0.00    -0.147 OA 
HETATM    8  O   UNL     1     -12.608  10.748  70.085  1.00  0.00    -0.327 OA 
HETATM    9  C   UNL     1     -10.238  10.215  69.798  1.00  0.00    -0.247 C  
HETATM   10  C   UNL     1     -11.411  11.108  69.408  1.00  0.00    -0.298 C  
ENDROOT
BRANCH   4  11
HETATM   11  O   UNL     1      -8.870  12.551  68.221  1.00  0.00    -0.186 OA 
HETATM   12  O   UNL     1      -6.988  12.180  67.029  1.00  0.00    -0.137 OA 
HETATM   13  N   UNL     1      -7.463  12.566  68.098  1.00  0.00    -0.106 N  
HETATM   14  O   UNL     1      -6.905  13.029  69.088  1.00  0.00    -0.104 OA 
ENDBRANCH   4  11
TORSDOF 1
ENDMDL
MODEL      107
REMARK 921   NORMALIZED FREE ENERGY PREDICTED BY IDOCK:   -2.86 KCAL/MOL
REMARK 922        TOTAL FREE ENERGY PREDICTED BY IDOCK:   -3.21 KCAL/MOL
REMARK 923 INTER-LIGAND FREE ENERGY PREDICTED BY IDOCK:   -3.02 KCAL/MOL
REMARK 924 INTRA-LIGAND FREE ENERGY PREDICTED BY IDOCK:   -0.20 KCAL/MOL
REMARK 927      BINDING AFFINITY PREDICTED BY RF-SCORE:    0.00 PKD
ROOT
HETATM    1  C   UNL     1     -11.173   7.876  70.680  1.00  0.00    -0.263 C  
HETATM    2  O   UNL     1     -11.878   7.393  71.825  1.00  0.00    -0.273 OA 
HETATM    3  C   UNL     1     -11.032   7.518  72.981  1.00  0.00    -0.390 C  
HETATM    4  C   UNL     1      -9.737   8.220  72.572  1.00  0.00    -0.298 C  
HETATM    5  C   UNL     1     -10.053   8.755  71.178  1.00  0.00    -0.247 C  
HETATM    6  H   UNL     1     -10.766   5.549  68.411  1.00  0.00     0.000 HD 
HETATM    7  O   UNL     1      -8.957   8.639  70.266  1.00  0.00    -0.141 OA 
HETATM    8  O   UNL     1     -11.225   6.237  68.879  1.00  0.00    -0.370 OA 
HETATM    9  C   UNL     1      -9.201   7.500  69.418  1.00  0.00    -0.149 C  
HETATM   10  C   UNL     1     -10.438   6.774  69.933  1.00  0.00    -0.211 C  
ENDROOT
BRANCH   4  11
HETATM   11  O   UNL     1      -8.669   7.273  72.497  1.00  0.00    -0.120 OA 
HETATM   12  O   UNL     1      -7.559   8.747  73.799  1.00  0.00    -0.402 OA 
HETATM   13  N   UNL     1      -7.494   7.698  73.156  1.00  0.00    -0.092 N  
HETATM   14  O   UNL     1      -6.567   6.904  73.032  1.00  0.00    -0.062 OA 
ENDBRANCH   4  11
TORSDOF 1
ENDMDL
MODEL      108
REMARK 921   NORMALIZED FREE ENERGY PREDICTED BY IDOCK:   -2.86 KCAL/MOL
REMARK 922        TOTAL FREE ENERGY PREDICTED BY IDOCK:   -3.21 KCAL/MOL
REMARK 923 INTER-LIGAND FREE ENERGY PREDICTED BY IDOCK:   -3.16 KCAL/MOL
REMARK 924 INTRA-LIGAND FREE ENERGY PREDICTED BY IDOCK:   -0.05 KCAL/MOL
REMARK 927      BINDING AFFINITY PREDICTED BY RF-SCORE:    0.00 PKD
ROOT
HETATM    1  C   UNL     1     -11.676  12.004  66.170  1.00  0.00    -0.241 C  
HETATM    2  O   UNL     1     -10.757  11.695  65.121  1.00  0.00    -0.282 OA 
HETATM    3  C   UNL     1      -9.482  11.367  65.700  1.00  0.00    -0.230 C  
HETATM    4  C   UNL     1      -9.617  11.364  67.223  1.00  0.00    -0.174 C  
HETATM    5  C   UNL     1     -11.126  11.408  67.442  1.00  0.00    -0.289 C  
HETATM    6  H   UNL     1     -12.805  15.071  65.959  1.00  0.00     0.000 HD 
HETATM    7  O   UNL     1     -11.517  12.247  68.532  1.00  0.00    -0.253 OA 
HETATM    8  O   UNL     1     -12.769  14.142  65.762  1.00  0.00    -0.508 OA 
HETATM    9  C   UNL     1     -11.991  13.494  67.988  1.00  0.00    -0.337 C  
HETATM   10  C   UNL     1     -11.734  13.490  66.485  1.00  0.00    -0.371 C  
ENDROOT
BRANCH   4  11
HETATM   11  O   UNL     1      -9.014  12.540  67.770  1.00  0.00    -0.167 OA 
HETATM   12  O   UNL     1      -7.198  11.222  68.035  1.00  0.00    -0.075 OA 
HETATM   13  N   UNL     1      -7.701  12.328  68.246  1.00  0.00    -0.135 N  
HETATM   14  O   UNL     1      -7.218  13.327  68.768  1.00  0.00    -0.102 OA 
ENDBRANCH   4  11
TORSDOF 1
ENDMDL
MODEL      109
REMARK 921   NORMALIZED FREE ENERGY PREDICTED BY IDOCK:   -2.85 KCAL/MOL
REMARK 922        TOTAL FREE ENERGY PREDICTED BY IDOCK:   -3.20 KCAL/MOL
REMARK 923 INTER-LIGAND FREE ENERGY PREDICTED BY IDOCK:   -3.15 KCAL/MOL
REMARK 924 INTRA-LIGAND FREE ENERGY PREDICTED BY IDOCK:   -0.05 KCAL/MOL
REMARK 927      BINDING AFFINITY PREDICTED BY RF-SCORE:    0.00 PKD
ROOT
HETATM    1  C   UNL     1     -10.254  14.332  67.927  1.00  0.00    -0.237 C  
HETATM    2  O   UNL     1      -9.159  13.814  68.684  1.00  0.00    -0.163 OA 
HETATM    3  C   UNL     1      -8.448  12.858  67.879  1.00  0.00    -0.181 C  
HETATM    4  C   UNL     1      -9.062  12.834  66.480  1.00  0.00    -0.147 C  
HETATM    5  C   UNL     1      -9.962  14.066  66.471  1.00  0.00    -0.284 C  
HETATM    6  H   UNL     1     -13.141  13.687  69.332  1.00  0.00     0.000 HD 
HETATM    7  O   UNL     1     -11.206  13.854  65.798  1.00  0.00    -0.299 OA 
HETATM    8  O   UNL     1     -12.333  14.164  69.185  1.00  0.00    -0.301 OA 
HETATM    9  C   UNL     1     -12.223  13.646  66.798  1.00  0.00    -0.369 C  
HETATM   10  C   UNL     1     -11.548  13.568  68.162  1.00  0.00    -0.333 C  
ENDROOT
BRANCH   4  11
HETATM   11  O   UNL     1      -9.853  11.655  66.313  1.00  0.00    -0.207 OA 
HETATM   12  O   UNL     1      -7.986  10.798  65.373  1.00  0.00    -0.126 OA 
HETATM   13  N   UNL     1      -9.178  10.618  65.630  1.00  0.00    -0.187 N  
HETATM   14  O   UNL     1      -9.887   9.636  65.439  1.00  0.00    -0.315 OA 
ENDBRANCH   4  11
TORSDOF 1
ENDMDL
MODEL      110
REMARK 921   NORMALIZED FREE ENERGY PREDICTED BY IDOCK:   -2.84 KCAL/MOL
REMARK 922        TOTAL FREE ENERGY PREDICTED BY IDOCK:   -3.20 KCAL/MOL
REMARK 923 INTER-LIGAND FREE ENERGY PREDICTED BY IDOCK:   -3.01 KCAL/MOL
REMARK 924 INTRA-LIGAND FREE ENERGY PREDICTED BY IDOCK:   -0.19 KCAL/MOL
REMARK 927      BINDING AFFINITY PREDICTED BY RF-SCORE:    0.00 PKD
ROOT
HETATM    1  C   UNL     1     -10.734  14.885  67.334  1.00  0.00    -0.292 C  
HETATM    2  O   UNL     1     -11.602  13.754  67.239  1.00  0.00    -0.322 OA 
HETATM    3  C   UNL     1     -10.881  12.578  67.646  1.00  0.00    -0.225 C  
HETATM    4  C   UNL     1      -9.493  12.992  68.131  1.00  0.00    -0.218 C  
HETATM    5  C   UNL     1      -9.603  14.509  68.258  1.00  0.00    -0.212 C  
HETATM    6  H   UNL     1     -10.284  16.341  64.435  1.00  0.00     0.000 HD 
HETATM    7  O   UNL     1      -8.427  15.200  67.827  1.00  0.00    -0.141 OA 
HETATM    8  O   UNL     1     -10.730  16.149  65.252  1.00  0.00    -0.409 OA 
HETATM    9  C   UNL     1      -8.675  15.722  66.507  1.00  0.00    -0.319 C  
HETATM   10  C   UNL     1     -10.021  15.192  66.026  1.00  0.00    -0.311 C  
ENDROOT
BRANCH   4  11
HETATM   11  O   UNL     1      -8.511  12.659  67.147  1.00  0.00    -0.184 OA 
HETATM   12  O   UNL     1      -7.416  11.704  68.877  1.00  0.00    -0.116 OA 
HETATM   13  N   UNL     1      -7.377  12.007  67.683  1.00  0.00    -0.111 N  
HETATM   14  O   UNL     1      -6.517  11.782  66.839  1.00  0.00    -0.145 OA 
ENDBRANCH   4  11
TORSDOF 1
ENDMDL
MODEL      111
REMARK 921   NORMALIZED FREE ENERGY PREDICTED BY IDOCK:   -2.83 KCAL/MOL
REMARK 922        TOTAL FREE ENERGY PREDICTED BY IDOCK:   -3.19 KCAL/MOL
REMARK 923 INTER-LIGAND FREE ENERGY PREDICTED BY IDOCK:   -3.00 KCAL/MOL
REMARK 924 INTRA-LIGAND FREE ENERGY PREDICTED BY IDOCK:   -0.19 KCAL/MOL
REMARK 927      BINDING AFFINITY PREDICTED BY RF-SCORE:    0.00 PKD
ROOT
HETATM    1  C   UNL     1     -10.919   9.526  71.050  1.00  0.00    -0.353 C  
HETATM    2  O   UNL     1     -11.306   8.159  71.198  1.00  0.00    -0.259 OA 
HETATM    3  C   UNL     1     -10.746   7.396  70.115  1.00  0.00    -0.242 C  
HETATM    4  C   UNL     1      -9.858   8.312  69.273  1.00  0.00    -0.186 C  
HETATM    5  C   UNL     1      -9.716   9.558  70.142  1.00  0.00    -0.246 C  
HETATM    6  H   UNL     1     -13.503  11.507  70.690  1.00  0.00     0.000 HD 
HETATM    7  O   UNL     1      -9.755  10.777  69.393  1.00  0.00    -0.173 OA 
HETATM    8  O   UNL     1     -12.861  10.992  71.166  1.00  0.00    -0.377 OA 
HETATM    9  C   UNL     1     -11.070  11.347  69.539  1.00  0.00    -0.211 C  
HETATM   10  C   UNL     1     -11.946  10.350  70.289  1.00  0.00    -0.302 C  
ENDROOT
BRANCH   4  11
HETATM   11  O   UNL     1     -10.519   8.645  68.051  1.00  0.00    -0.223 OA 
HETATM   12  O   UNL     1      -8.547   8.105  67.090  1.00  0.00    -0.121 OA 
HETATM   13  N   UNL     1      -9.680   8.558  66.917  1.00  0.00    -0.200 N  
HETATM   14  O   UNL     1     -10.242   8.906  65.883  1.00  0.00    -0.106 OA 
ENDBRANCH   4  11
TORSDOF 1
ENDMDL
MODEL      112
REMARK 921   NORMALIZED FREE ENERGY PREDICTED BY IDOCK:   -2.83 KCAL/MOL
REMARK 922        TOTAL FREE ENERGY PREDICTED BY IDOCK:   -3.19 KCAL/MOL
REMARK 923 INTER-LIGAND FREE ENERGY PREDICTED BY IDOCK:   -4.15 KCAL/MOL
REMARK 924 INTRA-LIGAND FREE ENERGY PREDICTED BY IDOCK:    0.96 KCAL/MOL
REMARK 927      BINDING AFFINITY PREDICTED BY RF-SCORE:    0.00 PKD
ROOT
HETATM    1  C   UNL     1     -10.257  13.352  67.910  1.00  0.00    -0.241 C  
HETATM    2  O   UNL     1     -10.267  12.192  67.077  1.00  0.00    -0.206 OA 
HETATM    3  C   UNL     1     -10.248  12.607  65.700  1.00  0.00    -0.273 C  
HETATM    4  C   UNL     1     -10.115  14.128  65.644  1.00  0.00    -0.328 C  
HETATM    5  C   UNL     1      -9.748  14.502  67.077  1.00  0.00    -0.245 C  
HETATM    6  H   UNL     1     -12.929  13.538  69.796  1.00  0.00     0.000 HD 
HETATM    7  O   UNL     1     -10.386  15.698  67.531  1.00  0.00    -0.265 OA 
HETATM    8  O   UNL     1     -12.056  13.254  69.549  1.00  0.00    -0.303 OA 
HETATM    9  C   UNL     1     -11.497  15.321  68.368  1.00  0.00    -0.345 C  
HETATM   10  C   UNL     1     -11.654  13.806  68.303  1.00  0.00    -0.338 C  
ENDROOT
BRANCH   4  11
HETATM   11  O   UNL     1     -11.371  14.717  65.296  1.00  0.00    -0.330 OA 
HETATM   12  O   UNL     1     -11.366  13.209  63.614  1.00  0.00    -0.383 OA 
HETATM   13  N   UNL     1     -11.939  14.175  64.121  1.00  0.00    -0.428 N  
HETATM   14  O   UNL     1     -12.985  14.730  63.801  1.00  0.00    -0.462 OA 
ENDBRANCH   4  11
TORSDOF 1
ENDMDL
MODEL      113
REMARK 921   NORMALIZED FREE ENERGY PREDICTED BY IDOCK:   -2.81 KCAL/MOL
REMARK 922        TOTAL FREE ENERGY PREDICTED BY IDOCK:   -3.17 KCAL/MOL
REMARK 923 INTER-LIGAND FREE ENERGY PREDICTED BY IDOCK:   -2.97 KCAL/MOL
REMARK 924 INTRA-LIGAND FREE ENERGY PREDICTED BY IDOCK:   -0.19 KCAL/MOL
REMARK 927      BINDING AFFINITY PREDICTED BY RF-SCORE:    0.00 PKD
ROOT
HETATM    1  C   UNL     1     -11.469   6.235  71.097  1.00  0.00    -0.299 C  
HETATM    2  O   UNL     1     -11.310   5.871  69.724  1.00  0.00    -0.371 OA 
HETATM    3  C   UNL     1     -10.012   6.298  69.277  1.00  0.00    -0.155 C  
HETATM    4  C   UNL     1      -9.247   6.881  70.464  1.00  0.00    -0.156 C  
HETATM    5  C   UNL     1     -10.091   6.465  71.665  1.00  0.00    -0.186 C  
HETATM    6  H   UNL     1     -13.971   8.301  71.544  1.00  0.00     0.000 HD 
HETATM    7  O   UNL     1     -10.187   7.480  72.668  1.00  0.00    -0.206 OA 
HETATM    8  O   UNL     1     -13.550   7.457  71.432  1.00  0.00    -0.379 OA 
HETATM    9  C   UNL     1     -11.469   8.123  72.531  1.00  0.00    -0.404 C  
HETATM   10  C   UNL     1     -12.143   7.586  71.274  1.00  0.00    -0.323 C  
ENDROOT
BRANCH   4  11
HETATM   11  O   UNL     1      -9.209   8.307  70.369  1.00  0.00    -0.148 OA 
HETATM   12  O   UNL     1      -6.967   8.037  70.448  1.00  0.00    -0.041 OA 
HETATM   13  N   UNL     1      -7.902   8.840  70.436  1.00  0.00    -0.087 N  
HETATM   14  O   UNL     1      -7.888  10.066  70.415  1.00  0.00    -0.216 OA 
ENDBRANCH   4  11
TORSDOF 1
ENDMDL
MODEL      114
REMARK 921   NORMALIZED FREE ENERGY PREDICTED BY IDOCK:   -2.79 KCAL/MOL
REMARK 922        TOTAL FREE ENERGY PREDICTED BY IDOCK:   -3.14 KCAL/MOL
REMARK 923 INTER-LIGAND FREE ENERGY PREDICTED BY IDOCK:   -2.94 KCAL/MOL
REMARK 924 INTRA-LIGAND FREE ENERGY PREDICTED BY IDOCK:   -0.19 KCAL/MOL
REMARK 927      BINDING AFFINITY PREDICTED BY RF-SCORE:    0.00 PKD
ROOT
HETATM    1  C   UNL     1      -7.988  19.362  68.966  1.00  0.00    -0.266 C  
HETATM    2  O   UNL     1      -9.212  19.540  69.681  1.00  0.00     0.021 OA 
HETATM    3  C   UNL     1     -10.093  18.447  69.374  1.00  0.00     0.129 C  
HETATM    4  C   UNL     1      -9.353  17.448  68.485  1.00  0.00    -0.281 C  
HETATM    5  C   UNL     1      -7.900  17.908  68.576  1.00  0.00    -0.298 C  
HETATM    6  H   UNL     1      -7.404  21.824  66.886  1.00  0.00     0.000 HD 
HETATM    7  O   UNL     1      -7.201  17.822  67.331  1.00  0.00    -0.182 OA 
HETATM    8  O   UNL     1      -7.410  21.377  67.724  1.00  0.00    -0.269 OA 
HETATM    9  C   UNL     1      -7.136  19.144  66.764  1.00  0.00    -0.207 C  
HETATM   10  C   UNL     1      -7.979  20.078  67.625  1.00  0.00    -0.303 C  
ENDROOT
BRANCH   4  11
HETATM   11  O   UNL     1      -9.812  17.558  67.136  1.00  0.00    -0.278 OA 
HETATM   12  O   UNL     1     -10.324  15.369  67.360  1.00  0.00    -0.253 OA 
HETATM   13  N   UNL     1     -10.266  16.334  66.595  1.00  0.00    -0.276 N  
HETATM   14  O   UNL     1     -10.600  16.430  65.419  1.00  0.00    -0.480 OA 
ENDBRANCH   4  11
TORSDOF 1
ENDMDL
MODEL      115
REMARK 921   NORMALIZED FREE ENERGY PREDICTED BY IDOCK:   -2.77 KCAL/MOL
REMARK 922        TOTAL FREE ENERGY PREDICTED BY IDOCK:   -3.12 KCAL/MOL
REMARK 923 INTER-LIGAND FREE ENERGY PREDICTED BY IDOCK:   -2.92 KCAL/MOL
REMARK 924 INTRA-LIGAND FREE ENERGY PREDICTED BY IDOCK:   -0.20 KCAL/MOL
REMARK 927      BINDING AFFINITY PREDICTED BY RF-SCORE:    0.00 PKD
ROOT
HETATM    1  C   UNL     1      -9.233   9.871  67.805  1.00  0.00    -0.130 C  
HETATM    2  O   UNL     1      -9.275  10.895  68.799  1.00  0.00    -0.179 OA 
HETATM    3  C   UNL     1     -10.084  11.981  68.316  1.00  0.00    -0.201 C  
HETATM    4  C   UNL     1     -10.686  11.588  66.968  1.00  0.00    -0.259 C  
HETATM    5  C   UNL     1     -10.406  10.090  66.882  1.00  0.00    -0.234 C  
HETATM    6  H   UNL     1      -6.187   9.305  66.743  1.00  0.00     0.000 HD 
HETATM    7  O   UNL     1     -10.029   9.658  65.572  1.00  0.00    -0.311 OA 
HETATM    8  O   UNL     1      -6.934   9.224  67.324  1.00  0.00    -0.079 OA 
HETATM    9  C   UNL     1      -8.598   9.492  65.552  1.00  0.00    -0.146 C  
HETATM   10  C   UNL     1      -8.037  10.000  66.875  1.00  0.00    -0.117 C  
ENDROOT
BRANCH   4  11
HETATM   11  O   UNL     1     -10.006  12.268  65.911  1.00  0.00    -0.246 OA 
HETATM   12  O   UNL     1     -12.078  12.918  65.288  1.00  0.00    -0.397 OA 
HETATM   13  N   UNL     1     -10.878  12.914  65.006  1.00  0.00    -0.289 N  
HETATM   14  O   UNL     1     -10.285  13.443  64.071  1.00  0.00    -0.336 OA 
ENDBRANCH   4  11
TORSDOF 1
ENDMDL
MODEL      116
REMARK 921   NORMALIZED FREE ENERGY PREDICTED BY IDOCK:   -2.77 KCAL/MOL
REMARK 922        TOTAL FREE ENERGY PREDICTED BY IDOCK:   -3.12 KCAL/MOL
REMARK 923 INTER-LIGAND FREE ENERGY PREDICTED BY IDOCK:   -3.07 KCAL/MOL
REMARK 924 INTRA-LIGAND FREE ENERGY PREDICTED BY IDOCK:   -0.05 KCAL/MOL
REMARK 927      BINDING AFFINITY PREDICTED BY RF-SCORE:    0.00 PKD
ROOT
HETATM    1  C   UNL     1     -10.644  11.520  67.797  1.00  0.00    -0.192 C  
HETATM    2  O   UNL     1     -11.531  11.671  68.906  1.00  0.00    -0.234 OA 
HETATM    3  C   UNL     1     -11.863  13.063  69.051  1.00  0.00    -0.316 C  
HETATM    4  C   UNL     1     -11.231  13.845  67.901  1.00  0.00    -0.278 C  
HETATM    5  C   UNL     1     -10.785  12.750  66.935  1.00  0.00    -0.253 C  
HETATM    6  H   UNL     1      -7.751  10.272  68.693  1.00  0.00     0.000 HD 
HETATM    7  O   UNL     1      -9.519  13.015  66.325  1.00  0.00    -0.253 OA 
HETATM    8  O   UNL     1      -8.666  10.250  68.438  1.00  0.00    -0.122 OA 
HETATM    9  C   UNL     1      -8.523  12.226  67.004  1.00  0.00    -0.181 C  
HETATM   10  C   UNL     1      -9.179  11.555  68.205  1.00  0.00    -0.186 C  
ENDROOT
BRANCH   4  11
HETATM   11  O   UNL     1     -10.092  14.570  68.370  1.00  0.00    -0.227 OA 
HETATM   12  O   UNL     1     -11.547  16.283  68.597  1.00  0.00    -0.355 OA 
HETATM   13  N   UNL     1     -10.369  15.924  68.663  1.00  0.00    -0.222 N  
HETATM   14  O   UNL     1      -9.372  16.550  69.005  1.00  0.00    -0.253 OA 
ENDBRANCH   4  11
TORSDOF 1
ENDMDL
MODEL      117
REMARK 921   NORMALIZED FREE ENERGY PREDICTED BY IDOCK:   -2.76 KCAL/MOL
REMARK 922        TOTAL FREE ENERGY PREDICTED BY IDOCK:   -3.11 KCAL/MOL
REMARK 923 INTER-LIGAND FREE ENERGY PREDICTED BY IDOCK:   -3.17 KCAL/MOL
REMARK 924 INTRA-LIGAND FREE ENERGY PREDICTED BY IDOCK:    0.07 KCAL/MOL
REMARK 927      BINDING AFFINITY PREDICTED BY RF-SCORE:    0.00 PKD
ROOT
HETATM    1  C   UNL     1      -8.283  18.597  66.390  1.00  0.00    -0.277 C  
HETATM    2  O   UNL     1      -8.862  17.476  65.719  1.00  0.00    -0.514 OA 
HETATM    3  C   UNL     1      -9.169  16.460  66.689  1.00  0.00    -0.253 C  
HETATM    4  C   UNL     1      -8.864  17.001  68.086  1.00  0.00    -0.227 C  
HETATM    5  C   UNL     1      -8.660  18.494  67.847  1.00  0.00    -0.287 C  
HETATM    6  H   UNL     1      -5.237  19.214  65.356  1.00  0.00     0.000 HD 
HETATM    7  O   UNL     1      -7.595  19.051  68.623  1.00  0.00    -0.312 OA 
HETATM    8  O   UNL     1      -6.186  19.248  65.335  1.00  0.00    -0.216 OA 
HETATM    9  C   UNL     1      -6.445  19.193  67.766  1.00  0.00    -0.214 C  
HETATM   10  C   UNL     1      -6.763  18.542  66.425  1.00  0.00    -0.207 C  
ENDROOT
BRANCH   4  11
HETATM   11  O   UNL     1      -7.655  16.420  68.581  1.00  0.00    -0.174 OA 
HETATM   12  O   UNL     1      -9.005  14.758  69.301  1.00  0.00    -0.134 OA 
HETATM   13  N   UNL     1      -7.861  15.216  69.293  1.00  0.00    -0.195 N  
HETATM   14  O   UNL     1      -6.825  14.761  69.765  1.00  0.00    -0.164 OA 
ENDBRANCH   4  11
TORSDOF 1
ENDMDL
MODEL      118
REMARK 921   NORMALIZED FREE ENERGY PREDICTED BY IDOCK:   -2.73 KCAL/MOL
REMARK 922        TOTAL FREE ENERGY PREDICTED BY IDOCK:   -3.08 KCAL/MOL
REMARK 923 INTER-LIGAND FREE ENERGY PREDICTED BY IDOCK:   -2.98 KCAL/MOL
REMARK 924 INTRA-LIGAND FREE ENERGY PREDICTED BY IDOCK:   -0.10 KCAL/MOL
REMARK 927      BINDING AFFINITY PREDICTED BY RF-SCORE:    0.00 PKD
ROOT
HETATM    1  C   UNL     1     -11.222   6.889  72.113  1.00  0.00    -0.258 C  
HETATM    2  O   UNL     1     -10.556   5.737  71.593  1.00  0.00    -0.229 OA 
HETATM    3  C   UNL     1      -9.394   6.163  70.860  1.00  0.00    -0.158 C  
HETATM    4  C   UNL     1      -9.246   7.677  71.002  1.00  0.00    -0.148 C  
HETATM    5  C   UNL     1     -10.226   8.022  72.120  1.00  0.00    -0.244 C  
HETATM    6  H   UNL     1     -14.271   7.178  70.951  1.00  0.00     0.000 HD 
HETATM    7  O   UNL     1     -10.938   9.242  71.892  1.00  0.00    -0.363 OA 
HETATM    8  O   UNL     1     -13.587   6.857  71.527  1.00  0.00    -0.301 OA 
HETATM    9  C   UNL     1     -12.257   8.907  71.420  1.00  0.00    -0.318 C  
HETATM   10  C   UNL     1     -12.318   7.402  71.191  1.00  0.00    -0.314 C  
ENDROOT
BRANCH   4  11
HETATM   11  O   UNL     1      -9.645   8.324  69.791  1.00  0.00    -0.169 OA 
HETATM   12  O   UNL     1      -7.937   9.734  70.237  1.00  0.00    -0.170 OA 
HETATM   13  N   UNL     1      -8.895   9.486  69.502  1.00  0.00    -0.165 N  
HETATM   14  O   UNL     1      -9.287  10.064  68.494  1.00  0.00    -0.139 OA 
ENDBRANCH   4  11
TORSDOF 1
ENDMDL
MODEL      119
REMARK 921   NORMALIZED FREE ENERGY PREDICTED BY IDOCK:   -2.61 KCAL/MOL
REMARK 922        TOTAL FREE ENERGY PREDICTED BY IDOCK:   -2.95 KCAL/MOL
REMARK 923 INTER-LIGAND FREE ENERGY PREDICTED BY IDOCK:   -2.75 KCAL/MOL
REMARK 924 INTRA-LIGAND FREE ENERGY PREDICTED BY IDOCK:   -0.19 KCAL/MOL
REMARK 927      BINDING AFFINITY PREDICTED BY RF-SCORE:    0.00 PKD
ROOT
HETATM    1  C   UNL     1      -9.323   9.567  66.773  1.00  0.00    -0.153 C  
HETATM    2  O   UNL     1      -8.406   8.515  67.079  1.00  0.00    -0.109 OA 
HETATM    3  C   UNL     1      -8.909   7.773  68.204  1.00  0.00    -0.125 C  
HETATM    4  C   UNL     1     -10.285   8.319  68.582  1.00  0.00    -0.204 C  
HETATM    5  C   UNL     1     -10.648   9.207  67.396  1.00  0.00    -0.244 C  
HETATM    6  H   UNL     1      -7.943  12.525  67.056  1.00  0.00     0.000 HD 
HETATM    7  O   UNL     1     -11.306  10.419  67.776  1.00  0.00    -0.353 OA 
HETATM    8  O   UNL     1      -8.166  11.706  66.628  1.00  0.00    -0.170 OA 
HETATM    9  C   UNL     1     -10.338  11.485  67.730  1.00  0.00    -0.182 C  
HETATM   10  C   UNL     1      -8.966  10.877  67.459  1.00  0.00    -0.136 C  
ENDROOT
BRANCH   4  11
HETATM   11  O   UNL     1     -10.189   9.111  69.768  1.00  0.00    -0.191 OA 
HETATM   12  O   UNL     1     -11.708   7.659  70.600  1.00  0.00    -0.273 OA 
HETATM   13  N   UNL     1     -11.067   8.694  70.794  1.00  0.00    -0.250 N  
HETATM   14  O   UNL     1     -11.019   9.418  71.783  1.00  0.00    -0.363 OA 
ENDBRANCH   4  11
TORSDOF 1
ENDMDL
MODEL      120
REMARK 921   NORMALIZED FREE ENERGY PREDICTED BY IDOCK:   -2.60 KCAL/MOL
REMARK 922        TOTAL FREE ENERGY PREDICTED BY IDOCK:   -2.94 KCAL/MOL
REMARK 923 INTER-LIGAND FREE ENERGY PREDICTED BY IDOCK:   -2.79 KCAL/MOL
REMARK 924 INTRA-LIGAND FREE ENERGY PREDICTED BY IDOCK:   -0.16 KCAL/MOL
REMARK 927      BINDING AFFINITY PREDICTED BY RF-SCORE:    0.00 PKD
ROOT
HETATM    1  C   UNL     1     -10.553   9.973  69.830  1.00  0.00    -0.282 C  
HETATM    2  O   UNL     1     -11.505   9.268  70.629  1.00  0.00    -0.266 OA 
HETATM    3  C   UNL     1     -11.402   7.862  70.344  1.00  0.00    -0.194 C  
HETATM    4  C   UNL     1     -10.240   7.637  69.377  1.00  0.00    -0.206 C  
HETATM    5  C   UNL     1      -9.510   8.977  69.388  1.00  0.00    -0.159 C  
HETATM    6  H   UNL     1     -11.986  12.105  67.798  1.00  0.00     0.000 HD 
HETATM    7  O   UNL     1      -9.035   9.373  68.098  1.00  0.00    -0.128 OA 
HETATM    8  O   UNL     1     -11.622  11.797  68.620  1.00  0.00    -0.258 OA 
HETATM    9  C   UNL     1      -9.945  10.358  67.571  1.00  0.00    -0.181 C  
HETATM   10  C   UNL     1     -11.137  10.465  68.515  1.00  0.00    -0.266 C  
ENDROOT
BRANCH   4  11
HETATM   11  O   UNL     1     -10.740   7.368  68.065  1.00  0.00    -0.194 OA 
HETATM   12  O   UNL     1     -10.037   5.259  68.465  1.00  0.00    -0.169 OA 
HETATM   13  N   UNL     1     -10.515   6.040  67.639  1.00  0.00    -0.207 N  
HETATM   14  O   UNL     1     -10.893   5.839  66.490  1.00  0.00    -0.276 OA 
ENDBRANCH   4  11
TORSDOF 1
ENDMDL
MODEL      121
REMARK 921   NORMALIZED FREE ENERGY PREDICTED BY IDOCK:   -2.59 KCAL/MOL
REMARK 922        TOTAL FREE ENERGY PREDICTED BY IDOCK:   -2.93 KCAL/MOL
REMARK 923 INTER-LIGAND FREE ENERGY PREDICTED BY IDOCK:   -2.74 KCAL/MOL
REMARK 924 INTRA-LIGAND FREE ENERGY PREDICTED BY IDOCK:   -0.19 KCAL/MOL
REMARK 927      BINDING AFFINITY PREDICTED BY RF-SCORE:    0.00 PKD
ROOT
HETATM    1  C   UNL     1      -9.542  14.521  67.514  1.00  0.00    -0.210 C  
HETATM    2  O   UNL     1      -9.745  15.254  66.305  1.00  0.00    -0.259 OA 
HETATM    3  C   UNL     1     -10.209  14.353  65.286  1.00  0.00    -0.389 C  
HETATM    4  C   UNL     1     -10.417  12.971  65.904  1.00  0.00    -0.281 C  
HETATM    5  C   UNL     1     -10.334  13.242  67.404  1.00  0.00    -0.243 C  
HETATM    6  H   UNL     1      -6.426  14.631  68.515  1.00  0.00     0.000 HD 
HETATM    7  O   UNL     1      -9.636  12.223  68.126  1.00  0.00    -0.203 OA 
HETATM    8  O   UNL     1      -7.319  14.940  68.417  1.00  0.00    -0.105 OA 
HETATM    9  C   UNL     1      -8.305  12.702  68.399  1.00  0.00    -0.125 C  
HETATM   10  C   UNL     1      -8.113  14.027  67.671  1.00  0.00    -0.174 C  
ENDROOT
BRANCH   4  11
HETATM   11  O   UNL     1      -9.358  12.094  65.511  1.00  0.00    -0.131 OA 
HETATM   12  O   UNL     1     -11.014  10.850  64.610  1.00  0.00    -0.195 OA 
HETATM   13  N   UNL     1      -9.810  10.924  64.862  1.00  0.00    -0.260 N  
HETATM   14  O   UNL     1      -8.898  10.153  64.584  1.00  0.00    -0.166 OA 
ENDBRANCH   4  11
TORSDOF 1
ENDMDL
MODEL      122
REMARK 921   NORMALIZED FREE ENERGY PREDICTED BY IDOCK:   -2.57 KCAL/MOL
REMARK 922        TOTAL FREE ENERGY PREDICTED BY IDOCK:   -2.91 KCAL/MOL
REMARK 923 INTER-LIGAND FREE ENERGY PREDICTED BY IDOCK:   -2.72 KCAL/MOL
REMARK 924 INTRA-LIGAND FREE ENERGY PREDICTED BY IDOCK:   -0.20 KCAL/MOL
REMARK 927      BINDING AFFINITY PREDICTED BY RF-SCORE:    0.00 PKD
ROOT
HETATM    1  C   UNL     1     -11.489   6.295  70.454  1.00  0.00    -0.344 C  
HETATM    2  O   UNL     1     -11.646   7.665  70.829  1.00  0.00    -0.287 OA 
HETATM    3  C   UNL     1     -10.889   8.485  69.923  1.00  0.00    -0.205 C  
HETATM    4  C   UNL     1     -10.289   7.596  68.834  1.00  0.00    -0.212 C  
HETATM    5  C   UNL     1     -11.021   6.270  69.021  1.00  0.00    -0.372 C  
HETATM    6  H   UNL     1     -10.107   4.517  72.832  1.00  0.00     0.000 HD 
HETATM    7  O   UNL     1     -10.177   5.129  68.847  1.00  0.00    -0.189 OA 
HETATM    8  O   UNL     1     -10.815   4.947  72.368  1.00  0.00    -0.202 OA 
HETATM    9  C   UNL     1      -9.828   4.629  70.153  1.00  0.00    -0.236 C  
HETATM   10  C   UNL     1     -10.355   5.607  71.197  1.00  0.00    -0.232 C  
ENDROOT
BRANCH   4  11
HETATM   11  O   UNL     1      -8.890   7.415  69.066  1.00  0.00    -0.133 OA 
HETATM   12  O   UNL     1      -8.659   8.207  66.964  1.00  0.00    -0.120 OA 
HETATM   13  N   UNL     1      -8.090   7.721  67.943  1.00  0.00    -0.124 N  
HETATM   14  O   UNL     1      -6.898   7.503  68.136  1.00  0.00    -0.059 OA 
ENDBRANCH   4  11
TORSDOF 1
ENDMDL
MODEL      123
REMARK 921   NORMALIZED FREE ENERGY PREDICTED BY IDOCK:   -2.57 KCAL/MOL
REMARK 922        TOTAL FREE ENERGY PREDICTED BY IDOCK:   -2.91 KCAL/MOL
REMARK 923 INTER-LIGAND FREE ENERGY PREDICTED BY IDOCK:   -2.72 KCAL/MOL
REMARK 924 INTRA-LIGAND FREE ENERGY PREDICTED BY IDOCK:   -0.19 KCAL/MOL
REMARK 927      BINDING AFFINITY PREDICTED BY RF-SCORE:    0.00 PKD
ROOT
HETATM    1  C   UNL     1     -10.857   7.412  68.947  1.00  0.00    -0.060 C  
HETATM    2  O   UNL     1      -9.619   7.004  68.362  1.00  0.00    -0.136 OA 
HETATM    3  C   UNL     1      -9.120   5.861  69.078  1.00  0.00    -0.121 C  
HETATM    4  C   UNL     1     -10.152   5.444  70.126  1.00  0.00    -0.252 C  
HETATM    5  C   UNL     1     -11.392   6.242  69.733  1.00  0.00    -0.436 C  
HETATM    6  H   UNL     1     -10.713  10.463  70.131  1.00  0.00     0.000 HD 
HETATM    7  O   UNL     1     -12.116   6.753  70.857  1.00  0.00    -0.377 OA 
HETATM    8  O   UNL     1     -10.823   9.792  69.468  1.00  0.00    -0.226 OA 
HETATM    9  C   UNL     1     -11.788   8.148  71.000  1.00  0.00    -0.260 C  
HETATM   10  C   UNL     1     -10.680   8.486  70.009  1.00  0.00    -0.232 C  
ENDROOT
BRANCH   4  11
HETATM   11  O   UNL     1      -9.714   5.839  71.428  1.00  0.00    -0.163 OA 
HETATM   12  O   UNL     1     -10.263   3.728  72.016  1.00  0.00    -0.165 OA 
HETATM   13  N   UNL     1      -9.882   4.834  72.406  1.00  0.00    -0.155 N  
HETATM   14  O   UNL     1      -9.560   5.206  73.529  1.00  0.00    -0.135 OA 
ENDBRANCH   4  11
TORSDOF 1
ENDMDL
MODEL      124
REMARK 921   NORMALIZED FREE ENERGY PREDICTED BY IDOCK:   -2.57 KCAL/MOL
REMARK 922        TOTAL FREE ENERGY PREDICTED BY IDOCK:   -2.91 KCAL/MOL
REMARK 923 INTER-LIGAND FREE ENERGY PREDICTED BY IDOCK:   -2.71 KCAL/MOL
REMARK 924 INTRA-LIGAND FREE ENERGY PREDICTED BY IDOCK:   -0.19 KCAL/MOL
REMARK 927      BINDING AFFINITY PREDICTED BY RF-SCORE:    0.00 PKD
ROOT
HETATM    1  C   UNL     1      -8.679   9.941  68.684  1.00  0.00    -0.124 C  
HETATM    2  O   UNL     1      -9.754  10.783  68.266  1.00  0.00    -0.155 OA 
HETATM    3  C   UNL     1     -10.884  10.559  69.126  1.00  0.00    -0.237 C  
HETATM    4  C   UNL     1     -10.478   9.585  70.232  1.00  0.00    -0.268 C  
HETATM    5  C   UNL     1      -8.958   9.527  70.107  1.00  0.00    -0.236 C  
HETATM    6  H   UNL     1      -7.774   7.840  66.340  1.00  0.00     0.000 HD 
HETATM    7  O   UNL     1      -8.424   8.214  70.302  1.00  0.00    -0.122 OA 
HETATM    8  O   UNL     1      -7.795   8.668  66.804  1.00  0.00    -0.092 OA 
HETATM    9  C   UNL     1      -8.124   7.658  69.007  1.00  0.00    -0.126 C  
HETATM   10  C   UNL     1      -8.646   8.615  67.941  1.00  0.00    -0.137 C  
ENDROOT
BRANCH   4  11
HETATM   11  O   UNL     1     -11.035   8.294  69.976  1.00  0.00    -0.247 OA 
HETATM   12  O   UNL     1     -12.002   8.548  72.002  1.00  0.00    -0.313 OA 
HETATM   13  N   UNL     1     -11.805   7.792  71.049  1.00  0.00    -0.288 N  
HETATM   14  O   UNL     1     -12.227   6.659  70.841  1.00  0.00    -0.368 OA 
ENDBRANCH   4  11
TORSDOF 1
ENDMDL
MODEL      125
REMARK 921   NORMALIZED FREE ENERGY PREDICTED BY IDOCK:   -2.54 KCAL/MOL
REMARK 922        TOTAL FREE ENERGY PREDICTED BY IDOCK:   -2.88 KCAL/MOL
REMARK 923 INTER-LIGAND FREE ENERGY PREDICTED BY IDOCK:   -2.70 KCAL/MOL
REMARK 924 INTRA-LIGAND FREE ENERGY PREDICTED BY IDOCK:   -0.18 KCAL/MOL
REMARK 927      BINDING AFFINITY PREDICTED BY RF-SCORE:    0.00 PKD
ROOT
HETATM    1  C   UNL     1     -11.287  10.892  68.830  1.00  0.00    -0.292 C  
HETATM    2  O   UNL     1     -10.888  12.264  68.816  1.00  0.00    -0.226 OA 
HETATM    3  C   UNL     1      -9.904  12.453  67.785  1.00  0.00    -0.203 C  
HETATM    4  C   UNL     1      -9.734  11.142  67.018  1.00  0.00    -0.186 C  
HETATM    5  C   UNL     1     -10.915  10.301  67.493  1.00  0.00    -0.280 C  
HETATM    6  H   UNL     1     -10.620   9.442  71.690  1.00  0.00     0.000 HD 
HETATM    7  O   UNL     1     -10.587   8.923  67.691  1.00  0.00    -0.258 OA 
HETATM    8  O   UNL     1     -11.123   9.966  71.077  1.00  0.00    -0.337 OA 
HETATM    9  C   UNL     1     -10.413   8.705  69.105  1.00  0.00    -0.211 C  
HETATM   10  C   UNL     1     -10.483  10.054  69.811  1.00  0.00    -0.256 C  
ENDROOT
BRANCH   4  11
HETATM   11  O   UNL     1      -8.508  10.511  67.394  1.00  0.00    -0.122 OA 
HETATM   12  O   UNL     1      -8.217  10.240  65.170  1.00  0.00    -0.153 OA 
HETATM   13  N   UNL     1      -7.783   9.992  66.297  1.00  0.00    -0.102 N  
HETATM   14  O   UNL     1      -6.765   9.400  66.638  1.00  0.00    -0.070 OA 
ENDBRANCH   4  11
TORSDOF 1
ENDMDL
MODEL      126
REMARK 921   NORMALIZED FREE ENERGY PREDICTED BY IDOCK:   -2.47 KCAL/MOL
REMARK 922        TOTAL FREE ENERGY PREDICTED BY IDOCK:   -2.81 KCAL/MOL
REMARK 923 INTER-LIGAND FREE ENERGY PREDICTED BY IDOCK:   -2.62 KCAL/MOL
REMARK 924 INTRA-LIGAND FREE ENERGY PREDICTED BY IDOCK:   -0.19 KCAL/MOL
REMARK 927      BINDING AFFINITY PREDICTED BY RF-SCORE:    0.00 PKD
ROOT
HETATM    1  C   UNL     1     -10.359   5.912  71.194  1.00  0.00    -0.221 C  
HETATM    2  O   UNL     1     -10.209   4.673  70.499  1.00  0.00    -0.223 OA 
HETATM    3  C   UNL     1      -9.666   4.934  69.194  1.00  0.00    -0.182 C  
HETATM    4  C   UNL     1      -9.352   6.425  69.077  1.00  0.00    -0.127 C  
HETATM    5  C   UNL     1      -9.466   6.921  70.515  1.00  0.00    -0.169 C  
HETATM    6  H   UNL     1     -13.481   6.512  71.982  1.00  0.00     0.000 HD 
HETATM    7  O   UNL     1     -10.084   8.207  70.623  1.00  0.00    -0.192 OA 
HETATM    8  O   UNL     1     -12.615   6.135  72.085  1.00  0.00    -0.214 OA 
HETATM    9  C   UNL     1     -11.451   8.011  71.034  1.00  0.00    -0.279 C  
HETATM   10  C   UNL     1     -11.745   6.515  71.028  1.00  0.00    -0.343 C  
ENDROOT
BRANCH   4  11
HETATM   11  O   UNL     1     -10.333   7.070  68.262  1.00  0.00    -0.177 OA 
HETATM   12  O   UNL     1      -8.588   7.533  66.905  1.00  0.00    -0.119 OA 
HETATM   13  N   UNL     1      -9.789   7.704  67.123  1.00  0.00    -0.183 N  
HETATM   14  O   UNL     1     -10.633   8.305  66.466  1.00  0.00    -0.193 OA 
ENDBRANCH   4  11
TORSDOF 1
ENDMDL
MODEL      127
REMARK 921   NORMALIZED FREE ENERGY PREDICTED BY IDOCK:   -2.46 KCAL/MOL
REMARK 922        TOTAL FREE ENERGY PREDICTED BY IDOCK:   -2.79 KCAL/MOL
REMARK 923 INTER-LIGAND FREE ENERGY PREDICTED BY IDOCK:   -2.59 KCAL/MOL
REMARK 924 INTRA-LIGAND FREE ENERGY PREDICTED BY IDOCK:   -0.20 KCAL/MOL
REMARK 927      BINDING AFFINITY PREDICTED BY RF-SCORE:    0.00 PKD
ROOT
HETATM    1  C   UNL     1      -9.079  10.065  69.348  1.00  0.00    -0.215 C  
HETATM    2  O   UNL     1      -7.917  10.869  69.137  1.00  0.00    -0.147 OA 
HETATM    3  C   UNL     1      -8.162  11.762  68.037  1.00  0.00    -0.152 C  
HETATM    4  C   UNL     1      -9.610  11.594  67.577  1.00  0.00    -0.171 C  
HETATM    5  C   UNL     1     -10.241  10.772  68.697  1.00  0.00    -0.185 C  
HETATM    6  H   UNL     1      -8.459   6.873  68.952  1.00  0.00     0.000 HD 
HETATM    7  O   UNL     1     -11.157   9.780  68.223  1.00  0.00    -0.203 OA 
HETATM    8  O   UNL     1      -8.494   7.701  69.417  1.00  0.00    -0.130 OA 
HETATM    9  C   UNL     1     -10.485   8.505  68.247  1.00  0.00    -0.171 C  
HETATM   10  C   UNL     1      -9.022   8.740  68.604  1.00  0.00    -0.138 C  
ENDROOT
BRANCH   4  11
HETATM   11  O   UNL     1      -9.652  10.858  66.352  1.00  0.00    -0.187 OA 
HETATM   12  O   UNL     1     -10.836  12.622  65.584  1.00  0.00    -0.266 OA 
HETATM   13  N   UNL     1     -10.411  11.491  65.342  1.00  0.00    -0.262 N  
HETATM   14  O   UNL     1     -10.489  10.821  64.318  1.00  0.00    -0.367 OA 
ENDBRANCH   4  11
TORSDOF 1
ENDMDL
MODEL      128
REMARK 921   NORMALIZED FREE ENERGY PREDICTED BY IDOCK:   -2.45 KCAL/MOL
REMARK 922        TOTAL FREE ENERGY PREDICTED BY IDOCK:   -2.78 KCAL/MOL
REMARK 923 INTER-LIGAND FREE ENERGY PREDICTED BY IDOCK:   -2.59 KCAL/MOL
REMARK 924 INTRA-LIGAND FREE ENERGY PREDICTED BY IDOCK:   -0.19 KCAL/MOL
REMARK 927      BINDING AFFINITY PREDICTED BY RF-SCORE:    0.00 PKD
ROOT
HETATM    1  C   UNL     1     -10.287   5.638  72.488  1.00  0.00    -0.201 C  
HETATM    2  O   UNL     1     -10.886   6.438  73.508  1.00  0.00    -0.260 OA 
HETATM    3  C   UNL     1     -10.955   7.799  73.052  1.00  0.00    -0.381 C  
HETATM    4  C   UNL     1     -10.462   7.863  71.607  1.00  0.00    -0.209 C  
HETATM    5  C   UNL     1     -10.409   6.396  71.190  1.00  0.00    -0.205 C  
HETATM    6  H   UNL     1      -7.506   4.232  73.497  1.00  0.00     0.000 HD 
HETATM    7  O   UNL     1      -9.273   6.080  70.380  1.00  0.00    -0.153 OA 
HETATM    8  O   UNL     1      -8.446   4.322  73.390  1.00  0.00    -0.093 OA 
HETATM    9  C   UNL     1      -8.295   5.434  71.217  1.00  0.00    -0.125 C  
HETATM   10  C   UNL     1      -8.783   5.494  72.660  1.00  0.00    -0.123 C  
ENDROOT
BRANCH   4  11
HETATM   11  O   UNL     1      -9.150   8.428  71.562  1.00  0.00    -0.159 OA 
HETATM   12  O   UNL     1     -10.002   9.729  69.924  1.00  0.00    -0.217 OA 
HETATM   13  N   UNL     1      -8.992   9.403  70.551  1.00  0.00    -0.252 N  
HETATM   14  O   UNL     1      -7.847   9.835  70.483  1.00  0.00    -0.214 OA 
ENDBRANCH   4  11
TORSDOF 1
ENDMDL
MODEL      129
REMARK 921   NORMALIZED FREE ENERGY PREDICTED BY IDOCK:   -2.45 KCAL/MOL
REMARK 922        TOTAL FREE ENERGY PREDICTED BY IDOCK:   -2.78 KCAL/MOL
REMARK 923 INTER-LIGAND FREE ENERGY PREDICTED BY IDOCK:   -2.58 KCAL/MOL
REMARK 924 INTRA-LIGAND FREE ENERGY PREDICTED BY IDOCK:   -0.20 KCAL/MOL
REMARK 927      BINDING AFFINITY PREDICTED BY RF-SCORE:    0.00 PKD
ROOT
HETATM    1  C   UNL     1      -8.860   5.012  72.858  1.00  0.00    -0.117 C  
HETATM    2  O   UNL     1      -9.207   5.392  74.190  1.00  0.00    -0.121 OA 
HETATM    3  C   UNL     1     -10.504   6.013  74.175  1.00  0.00    -0.234 C  
HETATM    4  C   UNL     1     -11.072   5.936  72.758  1.00  0.00    -0.281 C  
HETATM    5  C   UNL     1     -10.137   4.954  72.058  1.00  0.00    -0.196 C  
HETATM    6  H   UNL     1      -6.146   6.519  71.812  1.00  0.00     0.000 HD 
HETATM    7  O   UNL     1      -9.836   5.323  70.709  1.00  0.00    -0.173 OA 
HETATM    8  O   UNL     1      -6.653   5.855  72.265  1.00  0.00    -0.056 OA 
HETATM    9  C   UNL     1      -8.525   5.921  70.693  1.00  0.00    -0.129 C  
HETATM   10  C   UNL     1      -8.050   6.076  72.133  1.00  0.00    -0.107 C  
ENDROOT
BRANCH   4  11
HETATM   11  O   UNL     1     -10.991   7.216  72.128  1.00  0.00    -0.228 OA 
HETATM   12  O   UNL     1     -13.215   6.963  71.817  1.00  0.00    -0.348 OA 
HETATM   13  N   UNL     1     -12.221   7.655  71.587  1.00  0.00    -0.305 N  
HETATM   14  O   UNL     1     -12.124   8.725  70.996  1.00  0.00    -0.289 OA 
ENDBRANCH   4  11
TORSDOF 1
ENDMDL
MODEL      130
REMARK 921   NORMALIZED FREE ENERGY PREDICTED BY IDOCK:   -2.44 KCAL/MOL
REMARK 922        TOTAL FREE ENERGY PREDICTED BY IDOCK:   -2.77 KCAL/MOL
REMARK 923 INTER-LIGAND FREE ENERGY PREDICTED BY IDOCK:   -2.59 KCAL/MOL
REMARK 924 INTRA-LIGAND FREE ENERGY PREDICTED BY IDOCK:   -0.18 KCAL/MOL
REMARK 927      BINDING AFFINITY PREDICTED BY RF-SCORE:    0.00 PKD
ROOT
HETATM    1  C   UNL     1     -10.001  10.226  65.167  1.00  0.00    -0.325 C  
HETATM    2  O   UNL     1      -8.730   9.967  64.568  1.00  0.00    -0.165 OA 
HETATM    3  C   UNL     1      -7.897   9.284  65.520  1.00  0.00    -0.099 C  
HETATM    4  C   UNL     1      -8.717   8.993  66.776  1.00  0.00    -0.123 C  
HETATM    5  C   UNL     1     -10.149   9.284  66.336  1.00  0.00    -0.267 C  
HETATM    6  H   UNL     1     -10.653  13.431  65.343  1.00  0.00     0.000 HD 
HETATM    7  O   UNL     1     -10.928   9.939  67.341  1.00  0.00    -0.269 OA 
HETATM    8  O   UNL     1     -10.605  12.574  64.935  1.00  0.00    -0.282 OA 
HETATM    9  C   UNL     1     -10.995  11.340  67.010  1.00  0.00    -0.294 C  
HETATM   10  C   UNL     1     -10.077  11.597  65.820  1.00  0.00    -0.240 C  
ENDROOT
BRANCH   4  11
HETATM   11  O   UNL     1      -8.341   9.888  67.825  1.00  0.00    -0.114 OA 
HETATM   12  O   UNL     1      -8.303   8.028  69.106  1.00  0.00    -0.128 OA 
HETATM   13  N   UNL     1      -8.204   9.256  69.081  1.00  0.00    -0.107 N  
HETATM   14  O   UNL     1      -7.941  10.045  69.983  1.00  0.00    -0.175 OA 
ENDBRANCH   4  11
TORSDOF 1
ENDMDL
MODEL      131
REMARK 921   NORMALIZED FREE ENERGY PREDICTED BY IDOCK:   -2.42 KCAL/MOL
REMARK 922        TOTAL FREE ENERGY PREDICTED BY IDOCK:   -2.75 KCAL/MOL
REMARK 923 INTER-LIGAND FREE ENERGY PREDICTED BY IDOCK:   -2.87 KCAL/MOL
REMARK 924 INTRA-LIGAND FREE ENERGY PREDICTED BY IDOCK:    0.12 KCAL/MOL
REMARK 927      BINDING AFFINITY PREDICTED BY RF-SCORE:    0.00 PKD
ROOT
HETATM    1  C   UNL     1     -10.467   8.432  68.389  1.00  0.00    -0.164 C  
HETATM    2  O   UNL     1     -10.898   7.141  68.825  1.00  0.00    -0.196 OA 
HETATM    3  C   UNL     1     -11.141   7.186  70.242  1.00  0.00    -0.274 C  
HETATM    4  C   UNL     1     -10.953   8.621  70.731  1.00  0.00    -0.245 C  
HETATM    5  C   UNL     1     -10.894   9.428  69.438  1.00  0.00    -0.189 C  
HETATM    6  H   UNL     1      -7.459   8.356  67.095  1.00  0.00     0.000 HD 
HETATM    7  O   UNL     1      -9.928  10.482  69.471  1.00  0.00    -0.217 OA 
HETATM    8  O   UNL     1      -8.405   8.266  67.103  1.00  0.00    -0.120 OA 
HETATM    9  C   UNL     1      -8.763  10.042  68.747  1.00  0.00    -0.136 C  
HETATM   10  C   UNL     1      -8.953   8.575  68.377  1.00  0.00    -0.139 C  
ENDROOT
BRANCH   4  11
HETATM   11  O   UNL     1      -9.714   8.741  71.434  1.00  0.00    -0.226 OA 
HETATM   12  O   UNL     1     -10.887   7.955  73.197  1.00  0.00    -0.375 OA 
HETATM   13  N   UNL     1      -9.811   8.409  72.804  1.00  0.00    -0.259 N  
HETATM   14  O   UNL     1      -8.756   8.574  73.408  1.00  0.00    -0.331 OA 
ENDBRANCH   4  11
TORSDOF 1
ENDMDL
MODEL      132
REMARK 921   NORMALIZED FREE ENERGY PREDICTED BY IDOCK:   -2.41 KCAL/MOL
REMARK 922        TOTAL FREE ENERGY PREDICTED BY IDOCK:   -2.74 KCAL/MOL
REMARK 923 INTER-LIGAND FREE ENERGY PREDICTED BY IDOCK:   -2.57 KCAL/MOL
REMARK 924 INTRA-LIGAND FREE ENERGY PREDICTED BY IDOCK:   -0.18 KCAL/MOL
REMARK 927      BINDING AFFINITY PREDICTED BY RF-SCORE:    0.00 PKD
ROOT
HETATM    1  C   UNL     1      -8.093  16.512  68.523  1.00  0.00    -0.218 C  
HETATM    2  O   UNL     1      -7.424  16.006  69.679  1.00  0.00    -0.179 OA 
HETATM    3  C   UNL     1      -6.755  14.782  69.331  1.00  0.00    -0.149 C  
HETATM    4  C   UNL     1      -6.919  14.537  67.832  1.00  0.00    -0.162 C  
HETATM    5  C   UNL     1      -7.459  15.868  67.316  1.00  0.00    -0.210 C  
HETATM    6  H   UNL     1     -11.333  16.714  68.963  1.00  0.00     0.000 HD 
HETATM    7  O   UNL     1      -8.465  15.719  66.310  1.00  0.00    -0.298 OA 
HETATM    8  O   UNL     1     -10.428  16.999  69.019  1.00  0.00    -0.318 OA 
HETATM    9  C   UNL     1      -9.749  15.927  66.929  1.00  0.00    -0.230 C  
HETATM   10  C   UNL     1      -9.541  16.056  68.434  1.00  0.00    -0.206 C  
ENDROOT
BRANCH   4  11
HETATM   11  O   UNL     1      -7.882  13.504  67.607  1.00  0.00    -0.147 OA 
HETATM   12  O   UNL     1      -6.118  12.329  66.824  1.00  0.00    -0.222 OA 
HETATM   13  N   UNL     1      -7.339  12.356  66.986  1.00  0.00    -0.072 N  
HETATM   14  O   UNL     1      -8.186  11.503  66.744  1.00  0.00    -0.158 OA 
ENDBRANCH   4  11
TORSDOF 1
ENDMDL
MODEL      133
REMARK 921   NORMALIZED FREE ENERGY PREDICTED BY IDOCK:   -2.39 KCAL/MOL
REMARK 922        TOTAL FREE ENERGY PREDICTED BY IDOCK:   -2.72 KCAL/MOL
REMARK 923 INTER-LIGAND FREE ENERGY PREDICTED BY IDOCK:   -2.53 KCAL/MOL
REMARK 924 INTRA-LIGAND FREE ENERGY PREDICTED BY IDOCK:   -0.19 KCAL/MOL
REMARK 927      BINDING AFFINITY PREDICTED BY RF-SCORE:    0.00 PKD
ROOT
HETATM    1  C   UNL     1     -10.913  11.751  66.570  1.00  0.00    -0.295 C  
HETATM    2  O   UNL     1     -10.064  11.021  65.682  1.00  0.00    -0.235 OA 
HETATM    3  C   UNL     1      -9.839   9.709  66.226  1.00  0.00    -0.256 C  
HETATM    4  C   UNL     1     -10.679   9.548  67.493  1.00  0.00    -0.245 C  
HETATM    5  C   UNL     1     -11.622  10.746  67.443  1.00  0.00     0.160 C  
HETATM    6  H   UNL     1      -9.456  14.442  67.736  1.00  0.00     0.000 HD 
HETATM    7  O   UNL     1     -11.844  11.346  68.723  1.00  0.00    -0.310 OA 
HETATM    8  O   UNL     1      -9.941  13.918  67.109  1.00  0.00    -0.233 OA 
HETATM    9  C   UNL     1     -11.031  12.533  68.805  1.00  0.00    -0.253 C  
HETATM   10  C   UNL     1     -10.136  12.589  67.572  1.00  0.00    -0.207 C  
ENDROOT
BRANCH   4  11
HETATM   11  O   UNL     1      -9.842   9.638  68.649  1.00  0.00    -0.154 OA 
HETATM   12  O   UNL     1     -10.930   7.773  69.314  1.00  0.00    -0.136 OA 
HETATM   13  N   UNL     1     -10.114   8.645  69.617  1.00  0.00    -0.196 N  
HETATM   14  O   UNL     1      -9.432   8.771  70.629  1.00  0.00    -0.170 OA 
ENDBRANCH   4  11
TORSDOF 1
ENDMDL
MODEL      134
REMARK 921   NORMALIZED FREE ENERGY PREDICTED BY IDOCK:   -2.38 KCAL/MOL
REMARK 922        TOTAL FREE ENERGY PREDICTED BY IDOCK:   -2.70 KCAL/MOL
REMARK 923 INTER-LIGAND FREE ENERGY PREDICTED BY IDOCK:   -2.53 KCAL/MOL
REMARK 924 INTRA-LIGAND FREE ENERGY PREDICTED BY IDOCK:   -0.17 KCAL/MOL
REMARK 927      BINDING AFFINITY PREDICTED BY RF-SCORE:    0.00 PKD
ROOT
HETATM    1  C   UNL     1     -10.352   8.427  69.840  1.00  0.00    -0.210 C  
HETATM    2  O   UNL     1     -10.424   9.234  68.663  1.00  0.00    -0.207 OA 
HETATM    3  C   UNL     1     -10.508   8.374  67.514  1.00  0.00    -0.257 C  
HETATM    4  C   UNL     1     -10.600   6.923  67.986  1.00  0.00    -0.222 C  
HETATM    5  C   UNL     1     -10.874   7.058  69.481  1.00  0.00    -0.238 C  
HETATM    6  H   UNL     1      -7.573   8.917  71.503  1.00  0.00     0.000 HD 
HETATM    7  O   UNL     1     -10.176   6.093  70.274  1.00  0.00    -0.184 OA 
HETATM    8  O   UNL     1      -8.466   9.093  71.231  1.00  0.00    -0.286 OA 
HETATM    9  C   UNL     1      -9.032   6.742  70.861  1.00  0.00    -0.150 C  
HETATM   10  C   UNL     1      -8.922   8.145  70.275  1.00  0.00    -0.146 C  
ENDROOT
BRANCH   4  11
HETATM   11  O   UNL     1      -9.349   6.262  67.781  1.00  0.00    -0.116 OA 
HETATM   12  O   UNL     1     -10.490   5.046  66.256  1.00  0.00    -0.276 OA 
HETATM   13  N   UNL     1      -9.421   5.199  66.852  1.00  0.00    -0.131 N  
HETATM   14  O   UNL     1      -8.358   4.602  66.731  1.00  0.00    -0.106 OA 
ENDBRANCH   4  11
TORSDOF 1
ENDMDL
MODEL      135
REMARK 921   NORMALIZED FREE ENERGY PREDICTED BY IDOCK:   -2.37 KCAL/MOL
REMARK 922        TOTAL FREE ENERGY PREDICTED BY IDOCK:   -2.70 KCAL/MOL
REMARK 923 INTER-LIGAND FREE ENERGY PREDICTED BY IDOCK:   -2.55 KCAL/MOL
REMARK 924 INTRA-LIGAND FREE ENERGY PREDICTED BY IDOCK:   -0.15 KCAL/MOL
REMARK 927      BINDING AFFINITY PREDICTED BY RF-SCORE:    0.00 PKD
ROOT
HETATM    1  C   UNL     1     -10.838   8.315  71.228  1.00  0.00    -0.237 C  
HETATM    2  O   UNL     1      -9.986   9.462  71.204  1.00  0.00    -0.289 OA 
HETATM    3  C   UNL     1      -8.937   9.243  70.245  1.00  0.00    -0.229 C  
HETATM    4  C   UNL     1      -9.187   7.915  69.532  1.00  0.00    -0.152 C  
HETATM    5  C   UNL     1     -10.614   7.561  69.941  1.00  0.00    -0.237 C  
HETATM    6  H   UNL     1     -10.893   6.881  74.172  1.00  0.00     0.000 HD 
HETATM    7  O   UNL     1     -10.799   6.167  70.204  1.00  0.00    -0.268 OA 
HETATM    8  O   UNL     1     -11.143   7.512  73.507  1.00  0.00    -0.312 OA 
HETATM    9  C   UNL     1     -10.799   5.979  71.633  1.00  0.00    -0.260 C  
HETATM   10  C   UNL     1     -10.437   7.305  72.292  1.00  0.00    -0.214 C  
ENDROOT
BRANCH   4  11
HETATM   11  O   UNL     1      -8.283   6.920  70.019  1.00  0.00    -0.129 OA 
HETATM   12  O   UNL     1      -7.265   7.178  68.019  1.00  0.00    -0.086 OA 
HETATM   13  N   UNL     1      -7.302   6.542  69.075  1.00  0.00    -0.091 N  
HETATM   14  O   UNL     1      -6.571   5.646  69.483  1.00  0.00    -0.046 OA 
ENDBRANCH   4  11
TORSDOF 1
ENDMDL
MODEL      136
REMARK 921   NORMALIZED FREE ENERGY PREDICTED BY IDOCK:   -2.37 KCAL/MOL
REMARK 922        TOTAL FREE ENERGY PREDICTED BY IDOCK:   -2.69 KCAL/MOL
REMARK 923 INTER-LIGAND FREE ENERGY PREDICTED BY IDOCK:   -2.63 KCAL/MOL
REMARK 924 INTRA-LIGAND FREE ENERGY PREDICTED BY IDOCK:   -0.06 KCAL/MOL
REMARK 927      BINDING AFFINITY PREDICTED BY RF-SCORE:    0.00 PKD
ROOT
HETATM    1  C   UNL     1      -8.456   8.949  70.428  1.00  0.00    -0.166 C  
HETATM    2  O   UNL     1      -9.264   9.022  71.604  1.00  0.00    -0.288 OA 
HETATM    3  C   UNL     1     -10.570   9.502  71.242  1.00  0.00    -0.288 C  
HETATM    4  C   UNL     1     -10.640   9.652  69.723  1.00  0.00    -0.242 C  
HETATM    5  C   UNL     1      -9.387   8.925  69.241  1.00  0.00    -0.149 C  
HETATM    6  H   UNL     1      -5.827  10.893  70.616  1.00  0.00     0.000 HD 
HETATM    7  O   UNL     1      -8.736   9.583  68.151  1.00  0.00    -0.120 OA 
HETATM    8  O   UNL     1      -6.339  10.106  70.761  1.00  0.00    -0.188 OA 
HETATM    9  C   UNL     1      -7.600  10.298  68.675  1.00  0.00    -0.089 C  
HETATM   10  C   UNL     1      -7.638  10.210  70.196  1.00  0.00    -0.104 C  
ENDROOT
BRANCH   4  11
HETATM   11  O   UNL     1     -10.567  11.033  69.363  1.00  0.00    -0.223 OA 
HETATM   12  O   UNL     1     -12.822  10.913  69.301  1.00  0.00    -0.173 OA 
HETATM   13  N   UNL     1     -11.828  11.610  69.090  1.00  0.00    -0.316 N  
HETATM   14  O   UNL     1     -11.747  12.777  68.723  1.00  0.00    -0.286 OA 
ENDBRANCH   4  11
TORSDOF 1
ENDMDL
MODEL      137
REMARK 921   NORMALIZED FREE ENERGY PREDICTED BY IDOCK:   -2.32 KCAL/MOL
REMARK 922        TOTAL FREE ENERGY PREDICTED BY IDOCK:   -2.65 KCAL/MOL
REMARK 923 INTER-LIGAND FREE ENERGY PREDICTED BY IDOCK:   -2.46 KCAL/MOL
REMARK 924 INTRA-LIGAND FREE ENERGY PREDICTED BY IDOCK:   -0.19 KCAL/MOL
REMARK 927      BINDING AFFINITY PREDICTED BY RF-SCORE:    0.00 PKD
ROOT
HETATM    1  C   UNL     1      -8.220  10.791  66.484  1.00  0.00    -0.148 C  
HETATM    2  O   UNL     1      -9.026  10.872  65.306  1.00  0.00    -0.194 OA 
HETATM    3  C   UNL     1     -10.190  11.665  65.593  1.00  0.00    -0.243 C  
HETATM    4  C   UNL     1     -10.078  12.214  67.014  1.00  0.00    -0.204 C  
HETATM    5  C   UNL     1      -8.626  11.928  67.387  1.00  0.00    -0.164 C  
HETATM    6  H   UNL     1      -7.861   7.705  67.522  1.00  0.00     0.000 HD 
HETATM    7  O   UNL     1      -8.464  11.501  68.743  1.00  0.00    -0.137 OA 
HETATM    8  O   UNL     1      -7.670   8.474  66.997  1.00  0.00    -0.091 OA 
HETATM    9  C   UNL     1      -8.297  10.070  68.742  1.00  0.00    -0.121 C  
HETATM   10  C   UNL     1      -8.526   9.561  67.323  1.00  0.00    -0.128 C  
ENDROOT
BRANCH   4  11
HETATM   11  O   UNL     1     -10.953  11.495  67.887  1.00  0.00    -0.205 OA 
HETATM   12  O   UNL     1     -11.600  13.548  68.575  1.00  0.00    -0.287 OA 
HETATM   13  N   UNL     1     -11.698  12.331  68.750  1.00  0.00    -0.324 N  
HETATM   14  O   UNL     1     -12.398  11.701  69.534  1.00  0.00    -0.211 OA 
ENDBRANCH   4  11
TORSDOF 1
ENDMDL
MODEL      138
REMARK 921   NORMALIZED FREE ENERGY PREDICTED BY IDOCK:   -2.30 KCAL/MOL
REMARK 922        TOTAL FREE ENERGY PREDICTED BY IDOCK:   -2.63 KCAL/MOL
REMARK 923 INTER-LIGAND FREE ENERGY PREDICTED BY IDOCK:   -3.32 KCAL/MOL
REMARK 924 INTRA-LIGAND FREE ENERGY PREDICTED BY IDOCK:    0.69 KCAL/MOL
REMARK 927      BINDING AFFINITY PREDICTED BY RF-SCORE:    0.00 PKD
ROOT
HETATM    1  C   UNL     1      -9.722   9.206  71.925  1.00  0.00    -0.005 C  
HETATM    2  O   UNL     1      -9.644   9.418  70.515  1.00  0.00    -0.239 OA 
HETATM    3  C   UNL     1     -10.480   8.454  69.852  1.00  0.00    -0.222 C  
HETATM    4  C   UNL     1     -11.224   7.636  70.907  1.00  0.00    -0.268 C  
HETATM    5  C   UNL     1     -10.980   8.418  72.194  1.00  0.00    -0.341 C  
HETATM    6  H   UNL     1      -6.811   8.452  73.223  1.00  0.00     0.000 HD 
HETATM    7  O   UNL     1     -10.746   7.580  73.330  1.00  0.00    -0.375 OA 
HETATM    8  O   UNL     1      -7.496   9.024  72.897  1.00  0.00    -0.313 OA 
HETATM    9  C   UNL     1      -9.328   7.555  73.581  1.00  0.00    -0.277 C  
HETATM   10  C   UNL     1      -8.626   8.290  72.445  1.00  0.00    -0.206 C  
ENDROOT
BRANCH   4  11
HETATM   11  O   UNL     1     -10.644   6.334  71.014  1.00  0.00    -0.220 OA 
HETATM   12  O   UNL     1     -11.165   6.158  68.823  1.00  0.00    -0.367 OA 
HETATM   13  N   UNL     1     -10.726   5.582  69.820  1.00  0.00    -0.324 N  
HETATM   14  O   UNL     1     -10.281   4.446  69.943  1.00  0.00    -0.163 OA 
ENDBRANCH   4  11
TORSDOF 1
ENDMDL
MODEL      139
REMARK 921   NORMALIZED FREE ENERGY PREDICTED BY IDOCK:   -2.28 KCAL/MOL
REMARK 922        TOTAL FREE ENERGY PREDICTED BY IDOCK:   -2.60 KCAL/MOL
REMARK 923 INTER-LIGAND FREE ENERGY PREDICTED BY IDOCK:   -2.40 KCAL/MOL
REMARK 924 INTRA-LIGAND FREE ENERGY PREDICTED BY IDOCK:   -0.19 KCAL/MOL
REMARK 927      BINDING AFFINITY PREDICTED BY RF-SCORE:    0.00 PKD
ROOT
HETATM    1  C   UNL     1      -7.774   9.139  70.484  1.00  0.00    -0.134 C  
HETATM    2  O   UNL     1      -9.000   9.246  71.210  1.00  0.00    -0.285 OA 
HETATM    3  C   UNL     1     -10.079   8.805  70.368  1.00  0.00    -0.192 C  
HETATM    4  C   UNL     1      -9.500   8.284  69.053  1.00  0.00    -0.155 C  
HETATM    5  C   UNL     1      -8.006   8.178  69.345  1.00  0.00    -0.114 C  
HETATM    6  H   UNL     1      -6.299  12.041  70.120  1.00  0.00     0.000 HD 
HETATM    7  O   UNL     1      -7.185   8.582  68.246  1.00  0.00    -0.083 OA 
HETATM    8  O   UNL     1      -6.535  11.235  70.565  1.00  0.00    -0.289 OA 
HETATM    9  C   UNL     1      -6.707   9.915  68.514  1.00  0.00    -0.055 C  
HETATM   10  C   UNL     1      -7.396  10.429  69.773  1.00  0.00    -0.154 C  
ENDROOT
BRANCH   4  11
HETATM   11  O   UNL     1      -9.724   9.235  68.009  1.00  0.00    -0.144 OA 
HETATM   12  O   UNL     1     -10.499   7.457  66.851  1.00  0.00    -0.302 OA 
HETATM   13  N   UNL     1     -10.215   8.656  66.818  1.00  0.00    -0.290 N  
HETATM   14  O   UNL     1     -10.344   9.473  65.912  1.00  0.00    -0.206 OA 
ENDBRANCH   4  11
TORSDOF 1
ENDMDL
MODEL      140
REMARK 921   NORMALIZED FREE ENERGY PREDICTED BY IDOCK:   -2.26 KCAL/MOL
REMARK 922        TOTAL FREE ENERGY PREDICTED BY IDOCK:   -2.58 KCAL/MOL
REMARK 923 INTER-LIGAND FREE ENERGY PREDICTED BY IDOCK:   -2.40 KCAL/MOL
REMARK 924 INTRA-LIGAND FREE ENERGY PREDICTED BY IDOCK:   -0.18 KCAL/MOL
REMARK 927      BINDING AFFINITY PREDICTED BY RF-SCORE:    0.00 PKD
ROOT
HETATM    1  C   UNL     1     -10.499   5.099  68.872  1.00  0.00    -0.061 C  
HETATM    2  O   UNL     1      -9.788   5.004  70.108  1.00  0.00    -0.191 OA 
HETATM    3  C   UNL     1      -9.598   6.327  70.639  1.00  0.00    -0.172 C  
HETATM    4  C   UNL     1     -10.322   7.329  69.740  1.00  0.00    -0.220 C  
HETATM    5  C   UNL     1     -11.186   6.441  68.848  1.00  0.00    -0.307 C  
HETATM    6  H   UNL     1      -8.763   3.918  66.358  1.00  0.00     0.000 HD 
HETATM    7  O   UNL     1     -11.244   6.888  67.491  1.00  0.00    -0.245 OA 
HETATM    8  O   UNL     1      -9.339   3.877  67.112  1.00  0.00    -0.163 OA 
HETATM    9  C   UNL     1     -10.351   6.067  66.713  1.00  0.00    -0.238 C  
HETATM   10  C   UNL     1      -9.576   5.164  67.665  1.00  0.00    -0.140 C  
ENDROOT
BRANCH   4  11
HETATM   11  O   UNL     1      -9.375   8.043  68.941  1.00  0.00    -0.150 OA 
HETATM   12  O   UNL     1     -10.066   9.844  70.117  1.00  0.00    -0.250 OA 
HETATM   13  N   UNL     1      -9.366   9.434  69.188  1.00  0.00    -0.155 N  
HETATM   14  O   UNL     1      -8.594  10.042  68.454  1.00  0.00    -0.110 OA 
ENDBRANCH   4  11
TORSDOF 1
ENDMDL
MODEL      141
REMARK 921   NORMALIZED FREE ENERGY PREDICTED BY IDOCK:   -2.26 KCAL/MOL
REMARK 922        TOTAL FREE ENERGY PREDICTED BY IDOCK:   -2.58 KCAL/MOL
REMARK 923 INTER-LIGAND FREE ENERGY PREDICTED BY IDOCK:   -2.43 KCAL/MOL
REMARK 924 INTRA-LIGAND FREE ENERGY PREDICTED BY IDOCK:   -0.14 KCAL/MOL
REMARK 927      BINDING AFFINITY PREDICTED BY RF-SCORE:    0.00 PKD
ROOT
HETATM    1  C   UNL     1     -10.755   6.954  67.122  1.00  0.00    -0.366 C  
HETATM    2  O   UNL     1     -11.031   6.564  68.469  1.00  0.00    -0.278 OA 
HETATM    3  C   UNL     1     -10.659   7.639  69.350  1.00  0.00    -0.215 C  
HETATM    4  C   UNL     1     -10.211   8.834  68.510  1.00  0.00    -0.195 C  
HETATM    5  C   UNL     1     -10.655   8.458  67.099  1.00  0.00    -0.256 C  
HETATM    6  H   UNL     1      -8.567   4.980  65.691  1.00  0.00     0.000 HD 
HETATM    7  O   UNL     1      -9.709   8.826  66.091  1.00  0.00    -0.258 OA 
HETATM    8  O   UNL     1      -9.427   5.256  65.986  1.00  0.00    -0.155 OA 
HETATM    9  C   UNL     1      -8.976   7.644  65.715  1.00  0.00    -0.053 C  
HETATM   10  C   UNL     1      -9.378   6.511  66.651  1.00  0.00    -0.158 C  
ENDROOT
BRANCH   4  11
HETATM   11  O   UNL     1      -8.787   8.957  68.553  1.00  0.00    -0.133 OA 
HETATM   12  O   UNL     1      -9.200  11.172  68.711  1.00  0.00    -0.180 OA 
HETATM   13  N   UNL     1      -8.340  10.297  68.598  1.00  0.00    -0.115 N  
HETATM   14  O   UNL     1      -7.118  10.390  68.573  1.00  0.00    -0.071 OA 
ENDBRANCH   4  11
TORSDOF 1
ENDMDL
MODEL      142
REMARK 921   NORMALIZED FREE ENERGY PREDICTED BY IDOCK:   -2.25 KCAL/MOL
REMARK 922        TOTAL FREE ENERGY PREDICTED BY IDOCK:   -2.57 KCAL/MOL
REMARK 923 INTER-LIGAND FREE ENERGY PREDICTED BY IDOCK:   -2.39 KCAL/MOL
REMARK 924 INTRA-LIGAND FREE ENERGY PREDICTED BY IDOCK:   -0.18 KCAL/MOL
REMARK 927      BINDING AFFINITY PREDICTED BY RF-SCORE:    0.00 PKD
ROOT
HETATM    1  C   UNL     1     -10.709  10.152  66.936  1.00  0.00    -0.161 C  
HETATM    2  O   UNL     1     -11.305  10.251  68.230  1.00  0.00    -0.266 OA 
HETATM    3  C   UNL     1     -11.003  11.543  68.784  1.00  0.00    -0.222 C  
HETATM    4  C   UNL     1     -10.251  12.367  67.739  1.00  0.00    -0.211 C  
HETATM    5  C   UNL     1     -10.430  11.555  66.459  1.00  0.00    -0.244 C  
HETATM    6  H   UNL     1      -8.516   7.724  66.770  1.00  0.00     0.000 HD 
HETATM    7  O   UNL     1      -9.257  11.523  65.640  1.00  0.00    -0.218 OA 
HETATM    8  O   UNL     1      -9.381   8.118  66.749  1.00  0.00    -0.159 OA 
HETATM    9  C   UNL     1      -8.605  10.255  65.845  1.00  0.00    -0.152 C  
HETATM   10  C   UNL     1      -9.326   9.521  66.971  1.00  0.00    -0.148 C  
ENDROOT
BRANCH   4  11
HETATM   11  O   UNL     1      -8.864  12.439  68.077  1.00  0.00    -0.173 OA 
HETATM   12  O   UNL     1      -9.250  14.656  68.271  1.00  0.00    -0.185 OA 
HETATM   13  N   UNL     1      -8.405  13.759  68.286  1.00  0.00    -0.156 N  
HETATM   14  O   UNL     1      -7.201  13.811  68.515  1.00  0.00    -0.094 OA 
ENDBRANCH   4  11
TORSDOF 1
ENDMDL
MODEL      143
REMARK 921   NORMALIZED FREE ENERGY PREDICTED BY IDOCK:   -2.22 KCAL/MOL
REMARK 922        TOTAL FREE ENERGY PREDICTED BY IDOCK:   -2.54 KCAL/MOL
REMARK 923 INTER-LIGAND FREE ENERGY PREDICTED BY IDOCK:   -2.35 KCAL/MOL
REMARK 924 INTRA-LIGAND FREE ENERGY PREDICTED BY IDOCK:   -0.19 KCAL/MOL
REMARK 927      BINDING AFFINITY PREDICTED BY RF-SCORE:    0.00 PKD
ROOT
HETATM    1  C   UNL     1     -10.394   6.309  70.793  1.00  0.00    -0.206 C  
HETATM    2  O   UNL     1     -11.467   6.268  69.850  1.00  0.00    -0.422 OA 
HETATM    3  C   UNL     1     -10.923   6.356  68.522  1.00  0.00    -0.319 C  
HETATM    4  C   UNL     1      -9.397   6.350  68.610  1.00  0.00    -0.124 C  
HETATM    5  C   UNL     1      -9.131   5.939  70.056  1.00  0.00    -0.144 C  
HETATM    6  H   UNL     1     -10.617   8.884  72.805  1.00  0.00     0.000 HD 
HETATM    7  O   UNL     1      -8.042   6.647  70.654  1.00  0.00    -0.109 OA 
HETATM    8  O   UNL     1     -10.801   8.006  72.493  1.00  0.00    -0.295 OA 
HETATM    9  C   UNL     1      -8.591   7.678  71.498  1.00  0.00    -0.116 C  
HETATM   10  C   UNL     1     -10.100   7.715  71.291  1.00  0.00    -0.186 C  
ENDROOT
BRANCH   4  11
HETATM   11  O   UNL     1      -8.888   7.665  68.379  1.00  0.00    -0.130 OA 
HETATM   12  O   UNL     1      -7.759   6.695  66.680  1.00  0.00    -0.098 OA 
HETATM   13  N   UNL     1      -7.942   7.726  67.331  1.00  0.00    -0.117 N  
HETATM   14  O   UNL     1      -7.468   8.847  67.184  1.00  0.00    -0.083 OA 
ENDBRANCH   4  11
TORSDOF 1
ENDMDL
MODEL      144
REMARK 921   NORMALIZED FREE ENERGY PREDICTED BY IDOCK:   -2.21 KCAL/MOL
REMARK 922        TOTAL FREE ENERGY PREDICTED BY IDOCK:   -2.52 KCAL/MOL
REMARK 923 INTER-LIGAND FREE ENERGY PREDICTED BY IDOCK:   -2.33 KCAL/MOL
REMARK 924 INTRA-LIGAND FREE ENERGY PREDICTED BY IDOCK:   -0.19 KCAL/MOL
REMARK 927      BINDING AFFINITY PREDICTED BY RF-SCORE:    0.00 PKD
ROOT
HETATM    1  C   UNL     1      -8.057   8.126  72.257  1.00  0.00    -0.139 C  
HETATM    2  O   UNL     1      -9.093   8.980  72.746  1.00  0.00    -0.159 OA 
HETATM    3  C   UNL     1     -10.304   8.704  72.021  1.00  0.00    -0.346 C  
HETATM    4  C   UNL     1     -10.059   7.527  71.077  1.00  0.00    -0.186 C  
HETATM    5  C   UNL     1      -8.720   6.970  71.552  1.00  0.00    -0.121 C  
HETATM    6  H   UNL     1      -5.561   9.821  70.983  1.00  0.00     0.000 HD 
HETATM    7  O   UNL     1      -7.868   6.553  70.481  1.00  0.00    -0.102 OA 
HETATM    8  O   UNL     1      -6.077   9.418  71.671  1.00  0.00    -0.151 OA 
HETATM    9  C   UNL     1      -6.880   7.580  70.272  1.00  0.00    -0.047 C  
HETATM   10  C   UNL     1      -7.232   8.772  71.155  1.00  0.00    -0.093 C  
ENDROOT
BRANCH   4  11
HETATM   11  O   UNL     1      -9.938   7.996  69.732  1.00  0.00    -0.185 OA 
HETATM   12  O   UNL     1     -11.458   6.391  69.266  1.00  0.00    -0.381 OA 
HETATM   13  N   UNL     1     -10.706   7.252  68.807  1.00  0.00    -0.178 N  
HETATM   14  O   UNL     1     -10.546   7.625  67.650  1.00  0.00    -0.241 OA 
ENDBRANCH   4  11
TORSDOF 1
ENDMDL
MODEL      145
REMARK 921   NORMALIZED FREE ENERGY PREDICTED BY IDOCK:   -2.17 KCAL/MOL
REMARK 922        TOTAL FREE ENERGY PREDICTED BY IDOCK:   -2.49 KCAL/MOL
REMARK 923 INTER-LIGAND FREE ENERGY PREDICTED BY IDOCK:   -2.31 KCAL/MOL
REMARK 924 INTRA-LIGAND FREE ENERGY PREDICTED BY IDOCK:   -0.17 KCAL/MOL
REMARK 927      BINDING AFFINITY PREDICTED BY RF-SCORE:    0.00 PKD
ROOT
HETATM    1  C   UNL     1      -9.356  11.590  68.420  1.00  0.00    -0.194 C  
HETATM    2  O   UNL     1      -7.961  11.853  68.577  1.00  0.00    -0.144 OA 
HETATM    3  C   UNL     1      -7.297  11.608  67.325  1.00  0.00    -0.136 C  
HETATM    4  C   UNL     1      -8.345  11.264  66.268  1.00  0.00    -0.142 C  
HETATM    5  C   UNL     1      -9.661  11.639  66.943  1.00  0.00    -0.186 C  
HETATM    6  H   UNL     1     -10.389   9.188  70.393  1.00  0.00     0.000 HD 
HETATM    7  O   UNL     1     -10.719  10.714  66.675  1.00  0.00    -0.239 OA 
HETATM    8  O   UNL     1     -10.152  10.077  70.155  1.00  0.00    -0.255 OA 
HETATM    9  C   UNL     1     -10.866   9.860  67.826  1.00  0.00    -0.264 C  
HETATM   10  C   UNL     1      -9.734  10.167  68.800  1.00  0.00    -0.172 C  
ENDROOT
BRANCH   4  11
HETATM   11  O   UNL     1      -8.323   9.861  65.995  1.00  0.00    -0.119 OA 
HETATM   12  O   UNL     1      -8.446  10.499  63.832  1.00  0.00    -0.168 OA 
HETATM   13  N   UNL     1      -8.451   9.553  64.622  1.00  0.00    -0.154 N  
HETATM   14  O   UNL     1      -8.492   8.347  64.408  1.00  0.00    -0.139 OA 
ENDBRANCH   4  11
TORSDOF 1
ENDMDL
MODEL      146
REMARK 921   NORMALIZED FREE ENERGY PREDICTED BY IDOCK:   -2.17 KCAL/MOL
REMARK 922        TOTAL FREE ENERGY PREDICTED BY IDOCK:   -2.48 KCAL/MOL
REMARK 923 INTER-LIGAND FREE ENERGY PREDICTED BY IDOCK:   -2.36 KCAL/MOL
REMARK 924 INTRA-LIGAND FREE ENERGY PREDICTED BY IDOCK:   -0.13 KCAL/MOL
REMARK 927      BINDING AFFINITY PREDICTED BY RF-SCORE:    0.00 PKD
ROOT
HETATM    1  C   UNL     1     -10.043  11.236  67.814  1.00  0.00    -0.179 C  
HETATM    2  O   UNL     1     -10.859  10.107  67.496  1.00  0.00    -0.281 OA 
HETATM    3  C   UNL     1     -10.146   9.261  66.577  1.00  0.00    -0.273 C  
HETATM    4  C   UNL     1      -8.742   9.828  66.370  1.00  0.00    -0.131 C  
HETATM    5  C   UNL     1      -8.619  10.873  67.475  1.00  0.00    -0.127 C  
HETATM    6  H   UNL     1     -11.443  14.060  66.922  1.00  0.00     0.000 HD 
HETATM    7  O   UNL     1      -7.943  12.062  67.058  1.00  0.00    -0.163 OA 
HETATM    8  O   UNL     1     -11.273  13.312  67.484  1.00  0.00    -0.262 OA 
HETATM    9  C   UNL     1      -8.937  13.073  66.802  1.00  0.00    -0.175 C  
HETATM   10  C   UNL     1     -10.315  12.431  66.914  1.00  0.00    -0.224 C  
ENDROOT
BRANCH   4  11
HETATM   11  O   UNL     1      -8.655  10.463  65.092  1.00  0.00    -0.169 OA 
HETATM   12  O   UNL     1      -7.534   8.598  64.484  1.00  0.00    -0.099 OA 
HETATM   13  N   UNL     1      -7.909   9.723  64.147  1.00  0.00    -0.128 N  
HETATM   14  O   UNL     1      -7.790  10.306  63.075  1.00  0.00    -0.147 OA 
ENDBRANCH   4  11
TORSDOF 1
ENDMDL
MODEL      147
REMARK 921   NORMALIZED FREE ENERGY PREDICTED BY IDOCK:   -2.17 KCAL/MOL
REMARK 922        TOTAL FREE ENERGY PREDICTED BY IDOCK:   -2.48 KCAL/MOL
REMARK 923 INTER-LIGAND FREE ENERGY PREDICTED BY IDOCK:   -2.31 KCAL/MOL
REMARK 924 INTRA-LIGAND FREE ENERGY PREDICTED BY IDOCK:   -0.17 KCAL/MOL
REMARK 927      BINDING AFFINITY PREDICTED BY RF-SCORE:    0.00 PKD
ROOT
HETATM    1  C   UNL     1     -10.539   6.699  69.117  1.00  0.00    -0.244 C  
HETATM    2  O   UNL     1     -11.703   6.522  69.928  1.00  0.00    -0.406 OA 
HETATM    3  C   UNL     1     -11.294   6.341  71.294  1.00  0.00    -0.297 C  
HETATM    4  C   UNL     1      -9.779   6.514  71.386  1.00  0.00    -0.172 C  
HETATM    5  C   UNL     1      -9.412   7.112  70.030  1.00  0.00    -0.164 C  
HETATM    6  H   UNL     1     -10.252   4.359  66.843  1.00  0.00     0.000 HD 
HETATM    7  O   UNL     1      -8.192   6.592  69.494  1.00  0.00    -0.122 OA 
HETATM    8  O   UNL     1     -10.568   5.173  67.219  1.00  0.00    -0.178 OA 
HETATM    9  C   UNL     1      -8.527   5.612  68.492  1.00  0.00    -0.105 C  
HETATM   10  C   UNL     1     -10.035   5.396  68.517  1.00  0.00    -0.164 C  
ENDROOT
BRANCH   4  11
HETATM   11  O   UNL     1      -9.149   5.241  71.540  1.00  0.00    -0.142 OA 
HETATM   12  O   UNL     1      -8.639   5.987  73.611  1.00  0.00    -0.125 OA 
HETATM   13  N   UNL     1      -8.495   5.084  72.783  1.00  0.00    -0.115 N  
HETATM   14  O   UNL     1      -7.908   4.012  72.879  1.00  0.00    -0.077 OA 
ENDBRANCH   4  11
TORSDOF 1
ENDMDL
MODEL      148
REMARK 921   NORMALIZED FREE ENERGY PREDICTED BY IDOCK:   -2.16 KCAL/MOL
REMARK 922        TOTAL FREE ENERGY PREDICTED BY IDOCK:   -2.48 KCAL/MOL
REMARK 923 INTER-LIGAND FREE ENERGY PREDICTED BY IDOCK:   -2.31 KCAL/MOL
REMARK 924 INTRA-LIGAND FREE ENERGY PREDICTED BY IDOCK:   -0.17 KCAL/MOL
REMARK 927      BINDING AFFINITY PREDICTED BY RF-SCORE:    0.00 PKD
ROOT
HETATM    1  C   UNL     1      -7.401   9.871  67.917  1.00  0.00    -0.088 C  
HETATM    2  O   UNL     1      -6.952   9.822  69.273  1.00  0.00    -0.052 OA 
HETATM    3  C   UNL     1      -8.096   9.725  70.139  1.00  0.00    -0.182 C  
HETATM    4  C   UNL     1      -9.356   9.601  69.283  1.00  0.00    -0.180 C  
HETATM    5  C   UNL     1      -8.806   9.322  67.887  1.00  0.00    -0.124 C  
HETATM    6  H   UNL     1      -6.521  12.652  66.427  1.00  0.00     0.000 HD 
HETATM    7  O   UNL     1      -9.525   9.996  66.850  1.00  0.00    -0.158 OA 
HETATM    8  O   UNL     1      -6.411  11.764  66.746  1.00  0.00    -0.144 OA 
HETATM    9  C   UNL     1      -8.760  11.151  66.455  1.00  0.00    -0.177 C  
HETATM   10  C   UNL     1      -7.578  11.292  67.406  1.00  0.00    -0.120 C  
ENDROOT
BRANCH   4  11
HETATM   11  O   UNL     1     -10.072  10.838  69.283  1.00  0.00    -0.218 OA 
HETATM   12  O   UNL     1     -11.620   9.693  70.464  1.00  0.00    -0.264 OA 
HETATM   13  N   UNL     1     -11.338  10.755  69.906  1.00  0.00    -0.288 N  
HETATM   14  O   UNL     1     -11.967  11.806  69.845  1.00  0.00    -0.312 OA 
ENDBRANCH   4  11
TORSDOF 1
ENDMDL
MODEL      149
REMARK 921   NORMALIZED FREE ENERGY PREDICTED BY IDOCK:   -2.14 KCAL/MOL
REMARK 922        TOTAL FREE ENERGY PREDICTED BY IDOCK:   -2.45 KCAL/MOL
REMARK 923 INTER-LIGAND FREE ENERGY PREDICTED BY IDOCK:   -2.33 KCAL/MOL
REMARK 924 INTRA-LIGAND FREE ENERGY PREDICTED BY IDOCK:   -0.12 KCAL/MOL
REMARK 927      BINDING AFFINITY PREDICTED BY RF-SCORE:    0.00 PKD
ROOT
HETATM    1  C   UNL     1      -8.510   6.386  72.951  1.00  0.00    -0.117 C  
HETATM    2  O   UNL     1      -9.617   5.802  73.641  1.00  0.00    -0.138 OA 
HETATM    3  C   UNL     1     -10.837   6.251  73.028  1.00  0.00    -0.259 C  
HETATM    4  C   UNL     1     -10.494   7.096  71.802  1.00  0.00    -0.197 C  
HETATM    5  C   UNL     1      -9.005   6.828  71.596  1.00  0.00    -0.136 C  
HETATM    6  H   UNL     1      -6.696   8.282  74.912  1.00  0.00     0.000 HD 
HETATM    7  O   UNL     1      -8.268   7.991  71.210  1.00  0.00    -0.098 OA 
HETATM    8  O   UNL     1      -6.990   7.469  74.516  1.00  0.00    -0.102 OA 
HETATM    9  C   UNL     1      -7.581   8.490  72.374  1.00  0.00    -0.036 C  
HETATM   10  C   UNL     1      -8.041   7.686  73.585  1.00  0.00    -0.157 C  
ENDROOT
BRANCH   4  11
HETATM   11  O   UNL     1     -10.701   8.481  72.088  1.00  0.00    -0.311 OA 
HETATM   12  O   UNL     1     -12.587   8.227  70.871  1.00  0.00    -0.124 OA 
HETATM   13  N   UNL     1     -11.853   9.016  71.469  1.00  0.00    -0.320 N  
HETATM   14  O   UNL     1     -11.986  10.218  71.672  1.00  0.00    -0.332 OA 
ENDBRANCH   4  11
TORSDOF 1
ENDMDL
MODEL      150
REMARK 921   NORMALIZED FREE ENERGY PREDICTED BY IDOCK:   -2.14 KCAL/MOL
REMARK 922        TOTAL FREE ENERGY PREDICTED BY IDOCK:   -2.45 KCAL/MOL
REMARK 923 INTER-LIGAND FREE ENERGY PREDICTED BY IDOCK:   -2.45 KCAL/MOL
REMARK 924 INTRA-LIGAND FREE ENERGY PREDICTED BY IDOCK:   -0.00 KCAL/MOL
REMARK 927      BINDING AFFINITY PREDICTED BY RF-SCORE:    0.00 PKD
ROOT
HETATM    1  C   UNL     1      -8.680   9.173  67.672  1.00  0.00    -0.120 C  
HETATM    2  O   UNL     1      -9.082   8.543  68.890  1.00  0.00    -0.145 OA 
HETATM    3  C   UNL     1     -10.378   9.040  69.265  1.00  0.00    -0.219 C  
HETATM    4  C   UNL     1     -10.888   9.973  68.166  1.00  0.00    -0.255 C  
HETATM    5  C   UNL     1      -9.923   9.715  67.012  1.00  0.00    -0.206 C  
HETATM    6  H   UNL     1      -5.927  10.912  68.034  1.00  0.00     0.000 HD 
HETATM    7  O   UNL     1      -9.566  10.902  66.297  1.00  0.00    -0.188 OA 
HETATM    8  O   UNL     1      -6.451  10.132  67.890  1.00  0.00    -0.061 OA 
HETATM    9  C   UNL     1      -8.257  11.311  66.737  1.00  0.00    -0.158 C  
HETATM   10  C   UNL     1      -7.842  10.421  67.903  1.00  0.00    -0.101 C  
ENDROOT
BRANCH   4  11
HETATM   11  O   UNL     1     -10.782  11.333  68.591  1.00  0.00    -0.185 OA 
HETATM   12  O   UNL     1     -12.893  11.036  69.341  1.00  0.00    -0.190 OA 
HETATM   13  N   UNL     1     -11.971  11.836  69.167  1.00  0.00    -0.313 N  
HETATM   14  O   UNL     1     -11.887  13.021  69.472  1.00  0.00    -0.305 OA 
ENDBRANCH   4  11
TORSDOF 1
ENDMDL
MODEL      151
REMARK 921   NORMALIZED FREE ENERGY PREDICTED BY IDOCK:   -2.04 KCAL/MOL
REMARK 922        TOTAL FREE ENERGY PREDICTED BY IDOCK:   -2.34 KCAL/MOL
REMARK 923 INTER-LIGAND FREE ENERGY PREDICTED BY IDOCK:   -2.17 KCAL/MOL
REMARK 924 INTRA-LIGAND FREE ENERGY PREDICTED BY IDOCK:   -0.18 KCAL/MOL
REMARK 927      BINDING AFFINITY PREDICTED BY RF-SCORE:    0.00 PKD
ROOT
HETATM    1  C   UNL     1      -8.455   4.517  66.562  1.00  0.00    -0.109 C  
HETATM    2  O   UNL     1      -9.102   5.376  65.622  1.00  0.00    -0.159 OA 
HETATM    3  C   UNL     1      -9.720   6.463  66.334  1.00  0.00    -0.089 C  
HETATM    4  C   UNL     1      -9.362   6.351  67.815  1.00  0.00    -0.117 C  
HETATM    5  C   UNL     1      -8.249   5.308  67.830  1.00  0.00    -0.099 C  
HETATM    6  H   UNL     1      -9.691   1.483  66.513  1.00  0.00     0.000 HD 
HETATM    7  O   UNL     1      -8.333   4.406  68.937  1.00  0.00    -0.079 OA 
HETATM    8  O   UNL     1      -9.138   2.202  66.229  1.00  0.00    -0.121 OA 
HETATM    9  C   UNL     1      -8.902   3.170  68.462  1.00  0.00    -0.119 C  
HETATM   10  C   UNL     1      -9.341   3.367  67.016  1.00  0.00    -0.184 C  
ENDROOT
BRANCH   4  11
HETATM   11  O   UNL     1     -10.486   5.871  68.556  1.00  0.00    -0.192 OA 
HETATM   12  O   UNL     1     -10.447   7.912  69.523  1.00  0.00    -0.221 OA 
HETATM   13  N   UNL     1     -10.962   6.792  69.516  1.00  0.00    -0.269 N  
HETATM   14  O   UNL     1     -11.887   6.345  70.185  1.00  0.00    -0.409 OA 
ENDBRANCH   4  11
TORSDOF 1
ENDMDL
MODEL      152
REMARK 921   NORMALIZED FREE ENERGY PREDICTED BY IDOCK:   -2.01 KCAL/MOL
REMARK 922        TOTAL FREE ENERGY PREDICTED BY IDOCK:   -2.32 KCAL/MOL
REMARK 923 INTER-LIGAND FREE ENERGY PREDICTED BY IDOCK:   -2.14 KCAL/MOL
REMARK 924 INTRA-LIGAND FREE ENERGY PREDICTED BY IDOCK:   -0.18 KCAL/MOL
REMARK 927      BINDING AFFINITY PREDICTED BY RF-SCORE:    0.00 PKD
ROOT
HETATM    1  C   UNL     1     -10.193  11.961  67.058  1.00  0.00    -0.210 C  
HETATM    2  O   UNL     1      -9.716  12.675  68.200  1.00  0.00    -0.210 OA 
HETATM    3  C   UNL     1      -8.286  12.792  68.111  1.00  0.00    -0.167 C  
HETATM    4  C   UNL     1      -7.822  12.205  66.778  1.00  0.00     0.004 C  
HETATM    5  C   UNL     1      -9.123  12.037  65.998  1.00  0.00    -0.092 C  
HETATM    6  H   UNL     1     -11.710   9.179  67.889  1.00  0.00     0.000 HD 
HETATM    7  O   UNL     1      -9.170  10.832  65.229  1.00  0.00    -0.188 OA 
HETATM    8  O   UNL     1     -11.630  10.113  67.733  1.00  0.00    -0.239 OA 
HETATM    9  C   UNL     1      -9.977   9.878  65.946  1.00  0.00    -0.277 C  
HETATM   10  C   UNL     1     -10.320  10.466  67.309  1.00  0.00    -0.228 C  
ENDROOT
BRANCH   4  11
HETATM   11  O   UNL     1      -7.216  10.928  66.990  1.00  0.00    -0.101 OA 
HETATM   12  O   UNL     1      -5.328  11.949  66.284  1.00  0.00    -0.308 OA 
HETATM   13  N   UNL     1      -5.853  10.885  66.621  1.00  0.00    -0.082 N  
HETATM   14  O   UNL     1      -5.361   9.769  66.750  1.00  0.00    -0.044 OA 
ENDBRANCH   4  11
TORSDOF 1
ENDMDL
MODEL      153
REMARK 921   NORMALIZED FREE ENERGY PREDICTED BY IDOCK:   -1.99 KCAL/MOL
REMARK 922        TOTAL FREE ENERGY PREDICTED BY IDOCK:   -2.30 KCAL/MOL
REMARK 923 INTER-LIGAND FREE ENERGY PREDICTED BY IDOCK:   -2.11 KCAL/MOL
REMARK 924 INTRA-LIGAND FREE ENERGY PREDICTED BY IDOCK:   -0.19 KCAL/MOL
REMARK 927      BINDING AFFINITY PREDICTED BY RF-SCORE:    0.00 PKD
ROOT
HETATM    1  C   UNL     1      -7.355  11.491  69.110  1.00  0.00    -0.057 C  
HETATM    2  O   UNL     1      -6.287  11.678  68.181  1.00  0.00    -0.049 OA 
HETATM    3  C   UNL     1      -6.699  11.190  66.893  1.00  0.00    -0.128 C  
HETATM    4  C   UNL     1      -8.162  10.756  66.974  1.00  0.00    -0.126 C  
HETATM    5  C   UNL     1      -8.624  11.325  68.312  1.00  0.00    -0.153 C  
HETATM    6  H   UNL     1      -6.509   9.514  71.581  1.00  0.00     0.000 HD 
HETATM    7  O   UNL     1      -9.492  10.445  69.032  1.00  0.00    -0.178 OA 
HETATM    8  O   UNL     1      -6.572  10.335  71.106  1.00  0.00    -0.332 OA 
HETATM    9  C   UNL     1      -8.717   9.799  70.061  1.00  0.00    -0.209 C  
HETATM   10  C   UNL     1      -7.253  10.178  69.869  1.00  0.00    -0.154 C  
ENDROOT
BRANCH   4  11
HETATM   11  O   UNL     1      -8.248   9.329  66.999  1.00  0.00    -0.114 OA 
HETATM   12  O   UNL     1      -9.429   9.583  65.089  1.00  0.00    -0.266 OA 
HETATM   13  N   UNL     1      -9.026   8.794  65.947  1.00  0.00    -0.184 N  
HETATM   14  O   UNL     1      -9.143   7.576  66.015  1.00  0.00    -0.162 OA 
ENDBRANCH   4  11
TORSDOF 1
ENDMDL
MODEL      154
REMARK 921   NORMALIZED FREE ENERGY PREDICTED BY IDOCK:   -1.99 KCAL/MOL
REMARK 922        TOTAL FREE ENERGY PREDICTED BY IDOCK:   -2.29 KCAL/MOL
REMARK 923 INTER-LIGAND FREE ENERGY PREDICTED BY IDOCK:   -2.11 KCAL/MOL
REMARK 924 INTRA-LIGAND FREE ENERGY PREDICTED BY IDOCK:   -0.19 KCAL/MOL
REMARK 927      BINDING AFFINITY PREDICTED BY RF-SCORE:    0.00 PKD
ROOT
HETATM    1  C   UNL     1      -9.014  10.105  69.221  1.00  0.00    -0.183 C  
HETATM    2  O   UNL     1      -8.366   9.600  70.390  1.00  0.00    -0.186 OA 
HETATM    3  C   UNL     1      -8.003   8.227  70.165  1.00  0.00    -0.106 C  
HETATM    4  C   UNL     1      -8.346   7.854  68.723  1.00  0.00    -0.128 C  
HETATM    5  C   UNL     1      -8.638   9.203  68.072  1.00  0.00    -0.125 C  
HETATM    6  H   UNL     1     -12.087  11.062  69.829  1.00  0.00     0.000 HD 
HETATM    7  O   UNL     1      -9.737   9.165  67.157  1.00  0.00    -0.161 OA 
HETATM    8  O   UNL     1     -11.141  11.146  69.791  1.00  0.00    -0.251 OA 
HETATM    9  C   UNL     1     -10.889   9.719  67.821  1.00  0.00    -0.246 C  
HETATM   10  C   UNL     1     -10.527   9.970  69.281  1.00  0.00    -0.225 C  
ENDROOT
BRANCH   4  11
HETATM   11  O   UNL     1      -9.520   7.039  68.695  1.00  0.00    -0.137 OA 
HETATM   12  O   UNL     1      -8.160   5.492  67.767  1.00  0.00    -0.100 OA 
HETATM   13  N   UNL     1      -9.316   5.781  68.085  1.00  0.00    -0.109 N  
HETATM   14  O   UNL     1     -10.343   5.116  68.012  1.00  0.00    -0.148 OA 
ENDBRANCH   4  11
TORSDOF 1
ENDMDL
MODEL      155
REMARK 921   NORMALIZED FREE ENERGY PREDICTED BY IDOCK:   -1.98 KCAL/MOL
REMARK 922        TOTAL FREE ENERGY PREDICTED BY IDOCK:   -2.28 KCAL/MOL
REMARK 923 INTER-LIGAND FREE ENERGY PREDICTED BY IDOCK:   -2.09 KCAL/MOL
REMARK 924 INTRA-LIGAND FREE ENERGY PREDICTED BY IDOCK:   -0.19 KCAL/MOL
REMARK 927      BINDING AFFINITY PREDICTED BY RF-SCORE:    0.00 PKD
ROOT
HETATM    1  C   UNL     1      -8.644   9.449  67.266  1.00  0.00    -0.128 C  
HETATM    2  O   UNL     1      -7.295   9.094  66.956  1.00  0.00    -0.089 OA 
HETATM    3  C   UNL     1      -7.284   7.785  66.360  1.00  0.00    -0.075 C  
HETATM    4  C   UNL     1      -8.725   7.310  66.182  1.00  0.00    -0.155 C  
HETATM    5  C   UNL     1      -9.544   8.572  66.432  1.00  0.00    -0.245 C  
HETATM    6  H   UNL     1      -9.082   9.947  70.474  1.00  0.00     0.000 HD 
HETATM    7  O   UNL     1     -10.744   8.331  67.174  1.00  0.00    -0.302 OA 
HETATM    8  O   UNL     1      -8.837  10.173  69.584  1.00  0.00    -0.195 OA 
HETATM    9  C   UNL     1     -10.510   8.727  68.539  1.00  0.00    -0.175 C  
HETATM   10  C   UNL     1      -9.036   9.087  68.690  1.00  0.00    -0.137 C  
ENDROOT
BRANCH   4  11
HETATM   11  O   UNL     1      -9.041   6.324  67.167  1.00  0.00    -0.117 OA 
HETATM   12  O   UNL     1      -9.530   5.017  65.391  1.00  0.00    -0.154 OA 
HETATM   13  N   UNL     1      -9.538   5.120  66.619  1.00  0.00    -0.142 N  
HETATM   14  O   UNL     1      -9.862   4.306  67.477  1.00  0.00    -0.175 OA 
ENDBRANCH   4  11
TORSDOF 1
ENDMDL
MODEL      156
REMARK 921   NORMALIZED FREE ENERGY PREDICTED BY IDOCK:   -1.98 KCAL/MOL
REMARK 922        TOTAL FREE ENERGY PREDICTED BY IDOCK:   -2.28 KCAL/MOL
REMARK 923 INTER-LIGAND FREE ENERGY PREDICTED BY IDOCK:   -2.09 KCAL/MOL
REMARK 924 INTRA-LIGAND FREE ENERGY PREDICTED BY IDOCK:   -0.19 KCAL/MOL
REMARK 927      BINDING AFFINITY PREDICTED BY RF-SCORE:    0.00 PKD
ROOT
HETATM    1  C   UNL     1      -9.792   9.855  67.729  1.00  0.00    -0.155 C  
HETATM    2  O   UNL     1      -8.462   9.652  67.247  1.00  0.00    -0.129 OA 
HETATM    3  C   UNL     1      -7.881   8.534  67.940  1.00  0.00    -0.103 C  
HETATM    4  C   UNL     1      -8.939   7.913  68.851  1.00  0.00    -0.141 C  
HETATM    5  C   UNL     1     -10.234   8.571  68.385  1.00  0.00    -0.203 C  
HETATM    6  H   UNL     1     -10.170  12.805  69.102  1.00  0.00     0.000 HD 
HETATM    7  O   UNL     1     -11.120   8.902  69.459  1.00  0.00    -0.146 OA 
HETATM    8  O   UNL     1     -10.127  12.175  68.392  1.00  0.00    -0.206 OA 
HETATM    9  C   UNL     1     -10.998  10.314  69.718  1.00  0.00    -0.289 C  
HETATM   10  C   UNL     1      -9.859  10.863  68.866  1.00  0.00    -0.192 C  
ENDROOT
BRANCH   4  11
HETATM   11  O   UNL     1      -8.680   8.265  70.212  1.00  0.00    -0.134 OA 
HETATM   12  O   UNL     1      -9.012   6.068  70.617  1.00  0.00    -0.143 OA 
HETATM   13  N   UNL     1      -8.812   7.181  71.108  1.00  0.00    -0.143 N  
HETATM   14  O   UNL     1      -8.647   7.509  72.278  1.00  0.00    -0.110 OA 
ENDBRANCH   4  11
TORSDOF 1
ENDMDL
MODEL      157
REMARK 921   NORMALIZED FREE ENERGY PREDICTED BY IDOCK:   -1.85 KCAL/MOL
REMARK 922        TOTAL FREE ENERGY PREDICTED BY IDOCK:   -2.14 KCAL/MOL
REMARK 923 INTER-LIGAND FREE ENERGY PREDICTED BY IDOCK:   -1.96 KCAL/MOL
REMARK 924 INTRA-LIGAND FREE ENERGY PREDICTED BY IDOCK:   -0.18 KCAL/MOL
REMARK 927      BINDING AFFINITY PREDICTED BY RF-SCORE:    0.00 PKD
ROOT
HETATM    1  C   UNL     1      -9.897  11.418  67.378  1.00  0.00    -0.182 C  
HETATM    2  O   UNL     1      -8.580  11.973  67.367  1.00  0.00    -0.156 OA 
HETATM    3  C   UNL     1      -7.626  10.903  67.260  1.00  0.00    -0.104 C  
HETATM    4  C   UNL     1      -8.377   9.584  67.088  1.00  0.00    -0.131 C  
HETATM    5  C   UNL     1      -9.807  10.030  66.795  1.00  0.00    -0.198 C  
HETATM    6  H   UNL     1     -11.503  12.107  70.149  1.00  0.00     0.000 HD 
HETATM    7  O   UNL     1     -10.796   9.215  67.430  1.00  0.00    -0.243 OA 
HETATM    8  O   UNL     1     -11.176  12.265  69.270  1.00  0.00    -0.246 OA 
HETATM    9  C   UNL     1     -11.271   9.917  68.595  1.00  0.00    -0.068 C  
HETATM   10  C   UNL     1     -10.418  11.166  68.784  1.00  0.00    -0.203 C  
ENDROOT
BRANCH   4  11
HETATM   11  O   UNL     1      -8.343   8.839  68.307  1.00  0.00    -0.123 OA 
HETATM   12  O   UNL     1      -7.211   7.311  67.088  1.00  0.00    -0.087 OA 
HETATM   13  N   UNL     1      -7.733   7.571  68.174  1.00  0.00    -0.117 N  
HETATM   14  O   UNL     1      -7.764   6.918  69.211  1.00  0.00    -0.101 OA 
ENDBRANCH   4  11
TORSDOF 1
ENDMDL
MODEL      158
REMARK 921   NORMALIZED FREE ENERGY PREDICTED BY IDOCK:   -1.82 KCAL/MOL
REMARK 922        TOTAL FREE ENERGY PREDICTED BY IDOCK:   -2.12 KCAL/MOL
REMARK 923 INTER-LIGAND FREE ENERGY PREDICTED BY IDOCK:   -1.99 KCAL/MOL
REMARK 924 INTRA-LIGAND FREE ENERGY PREDICTED BY IDOCK:   -0.13 KCAL/MOL
REMARK 927      BINDING AFFINITY PREDICTED BY RF-SCORE:    0.00 PKD
ROOT
HETATM    1  C   UNL     1      -7.222  11.169  67.309  1.00  0.00    -0.113 C  
HETATM    2  O   UNL     1      -8.228  11.099  66.297  1.00  0.00    -0.168 OA 
HETATM    3  C   UNL     1      -9.521  11.095  66.925  1.00  0.00    -0.185 C  
HETATM    4  C   UNL     1      -9.340  11.277  68.431  1.00  0.00    -0.181 C  
HETATM    5  C   UNL     1      -7.878  11.694  68.561  1.00  0.00    -0.140 C  
HETATM    6  H   UNL     1      -5.248   8.555  67.268  1.00  0.00     0.000 HD 
HETATM    7  O   UNL     1      -7.220  11.108  69.688  1.00  0.00    -0.110 OA 
HETATM    8  O   UNL     1      -5.563   9.411  67.002  1.00  0.00    -0.040 OA 
HETATM    9  C   UNL     1      -6.419  10.008  69.214  1.00  0.00    -0.049 C  
HETATM   10  C   UNL     1      -6.718   9.799  67.734  1.00  0.00    -0.069 C  
ENDROOT
BRANCH   4  11
HETATM   11  O   UNL     1      -9.550  10.033  69.103  1.00  0.00    -0.186 OA 
HETATM   12  O   UNL     1     -11.549  10.922  69.665  1.00  0.00    -0.264 OA 
HETATM   13  N   UNL     1     -10.775   9.973  69.805  1.00  0.00    -0.251 N  
HETATM   14  O   UNL     1     -10.916   8.925  70.426  1.00  0.00    -0.235 OA 
ENDBRANCH   4  11
TORSDOF 1
ENDMDL
MODEL      159
REMARK 921   NORMALIZED FREE ENERGY PREDICTED BY IDOCK:   -1.81 KCAL/MOL
REMARK 922        TOTAL FREE ENERGY PREDICTED BY IDOCK:   -2.11 KCAL/MOL
REMARK 923 INTER-LIGAND FREE ENERGY PREDICTED BY IDOCK:   -1.95 KCAL/MOL
REMARK 924 INTRA-LIGAND FREE ENERGY PREDICTED BY IDOCK:   -0.16 KCAL/MOL
REMARK 927      BINDING AFFINITY PREDICTED BY RF-SCORE:    0.00 PKD
ROOT
HETATM    1  C   UNL     1      -8.168   6.177  70.068  1.00  0.00    -0.124 C  
HETATM    2  O   UNL     1      -9.048   5.422  70.903  1.00  0.00    -0.135 OA 
HETATM    3  C   UNL     1      -9.697   4.416  70.106  1.00  0.00    -0.218 C  
HETATM    4  C   UNL     1      -9.122   4.458  68.691  1.00  0.00    -0.124 C  
HETATM    5  C   UNL     1      -7.891   5.347  68.839  1.00  0.00    -0.083 C  
HETATM    6  H   UNL     1      -8.988   9.346  69.955  1.00  0.00     0.000 HD 
HETATM    7  O   UNL     1      -7.699   6.237  67.735  1.00  0.00    -0.099 OA 
HETATM    8  O   UNL     1      -8.580   8.565  70.311  1.00  0.00    -0.126 OA 
HETATM    9  C   UNL     1      -8.161   7.543  68.130  1.00  0.00    -0.124 C  
HETATM   10  C   UNL     1      -8.822   7.426  69.498  1.00  0.00    -0.137 C  
ENDROOT
BRANCH   4  11
HETATM   11  O   UNL     1     -10.058   5.071  67.801  1.00  0.00    -0.159 OA 
HETATM   12  O   UNL     1      -9.473   3.408  66.388  1.00  0.00    -0.177 OA 
HETATM   13  N   UNL     1     -10.121   4.446  66.535  1.00  0.00    -0.229 N  
HETATM   14  O   UNL     1     -10.881   5.018  65.761  1.00  0.00    -0.211 OA 
ENDBRANCH   4  11
TORSDOF 1
ENDMDL
MODEL      160
REMARK 921   NORMALIZED FREE ENERGY PREDICTED BY IDOCK:   -1.69 KCAL/MOL
REMARK 922        TOTAL FREE ENERGY PREDICTED BY IDOCK:   -1.98 KCAL/MOL
REMARK 923 INTER-LIGAND FREE ENERGY PREDICTED BY IDOCK:   -1.79 KCAL/MOL
REMARK 924 INTRA-LIGAND FREE ENERGY PREDICTED BY IDOCK:   -0.19 KCAL/MOL
REMARK 927      BINDING AFFINITY PREDICTED BY RF-SCORE:    0.00 PKD
ROOT
HETATM    1  C   UNL     1      -9.057   7.879  68.894  1.00  0.00    -0.141 C  
HETATM    2  O   UNL     1      -7.805   7.460  69.440  1.00  0.00    -0.116 OA 
HETATM    3  C   UNL     1      -7.009   6.883  68.391  1.00  0.00    -0.080 C  
HETATM    4  C   UNL     1      -7.755   7.032  67.065  1.00  0.00    -0.107 C  
HETATM    5  C   UNL     1      -8.878   8.008  67.402  1.00  0.00    -0.131 C  
HETATM    6  H   UNL     1     -11.587   6.324  70.277  1.00  0.00     0.000 HD 
HETATM    7  O   UNL     1     -10.121   7.680  66.774  1.00  0.00    -0.243 OA 
HETATM    8  O   UNL     1     -10.911   6.987  70.199  1.00  0.00    -0.237 OA 
HETATM    9  C   UNL     1     -10.961   7.041  67.755  1.00  0.00    -0.164 C  
HETATM   10  C   UNL     1     -10.138   6.817  69.019  1.00  0.00    -0.164 C  
ENDROOT
BRANCH   4  11
HETATM   11  O   UNL     1      -8.308   5.774  66.671  1.00  0.00    -0.109 OA 
HETATM   12  O   UNL     1      -7.384   6.243  64.663  1.00  0.00    -0.064 OA 
HETATM   13  N   UNL     1      -8.099   5.472  65.306  1.00  0.00    -0.115 N  
HETATM   14  O   UNL     1      -8.630   4.420  64.967  1.00  0.00    -0.120 OA 
ENDBRANCH   4  11
TORSDOF 1
ENDMDL
MODEL      161
REMARK 921   NORMALIZED FREE ENERGY PREDICTED BY IDOCK:   -1.66 KCAL/MOL
REMARK 922        TOTAL FREE ENERGY PREDICTED BY IDOCK:   -1.95 KCAL/MOL
REMARK 923 INTER-LIGAND FREE ENERGY PREDICTED BY IDOCK:   -1.78 KCAL/MOL
REMARK 924 INTRA-LIGAND FREE ENERGY PREDICTED BY IDOCK:   -0.17 KCAL/MOL
REMARK 927      BINDING AFFINITY PREDICTED BY RF-SCORE:    0.00 PKD
ROOT
HETATM    1  C   UNL     1      -9.571   6.352  71.276  1.00  0.00    -0.170 C  
HETATM    2  O   UNL     1     -10.392   6.463  72.440  1.00  0.00    -0.186 OA 
HETATM    3  C   UNL     1      -9.734   7.316  73.394  1.00  0.00    -0.251 C  
HETATM    4  C   UNL     1      -8.457   7.870  72.764  1.00  0.00    -0.159 C  
HETATM    5  C   UNL     1      -8.611   7.515  71.288  1.00  0.00    -0.121 C  
HETATM    6  H   UNL     1      -8.647   3.260  70.710  1.00  0.00     0.000 HD 
HETATM    7  O   UNL     1      -7.389   7.091  70.677  1.00  0.00    -0.074 OA 
HETATM    8  O   UNL     1      -9.225   4.014  70.683  1.00  0.00    -0.102 OA 
HETATM    9  C   UNL     1      -7.413   5.653  70.584  1.00  0.00    -0.085 C  
HETATM   10  C   UNL     1      -8.647   5.145  71.321  1.00  0.00    -0.127 C  
ENDROOT
BRANCH   4  11
HETATM   11  O   UNL     1      -7.315   7.203  73.305  1.00  0.00    -0.073 OA 
HETATM   12  O   UNL     1      -6.423   9.276  73.406  1.00  0.00    -0.314 OA 
HETATM   13  N   UNL     1      -6.228   8.069  73.562  1.00  0.00    -0.077 N  
HETATM   14  O   UNL     1      -5.234   7.476  73.968  1.00  0.00    -0.045 OA 
ENDBRANCH   4  11
TORSDOF 1
ENDMDL
MODEL      162
REMARK 921   NORMALIZED FREE ENERGY PREDICTED BY IDOCK:   -1.53 KCAL/MOL
REMARK 922        TOTAL FREE ENERGY PREDICTED BY IDOCK:   -1.80 KCAL/MOL
REMARK 923 INTER-LIGAND FREE ENERGY PREDICTED BY IDOCK:   -3.93 KCAL/MOL
REMARK 924 INTRA-LIGAND FREE ENERGY PREDICTED BY IDOCK:    2.13 KCAL/MOL
REMARK 927      BINDING AFFINITY PREDICTED BY RF-SCORE:    0.00 PKD
ROOT
HETATM    1  C   UNL     1     -12.040  13.855  67.274  1.00  0.00    -0.368 C  
HETATM    2  O   UNL     1     -11.293  14.984  66.818  1.00  0.00    -0.341 OA 
HETATM    3  C   UNL     1     -10.169  14.521  66.052  1.00  0.00    -0.315 C  
HETATM    4  C   UNL     1     -10.253  13.001  65.919  1.00  0.00    -0.292 C  
HETATM    5  C   UNL     1     -11.666  12.684  66.399  1.00  0.00    -0.405 C  
HETATM    6  H   UNL     1     -12.160  13.694  70.543  1.00  0.00     0.000 HD 
HETATM    7  O   UNL     1     -11.743  11.494  67.190  1.00  0.00    -0.567 OA 
HETATM    8  O   UNL     1     -12.421  13.982  69.677  1.00  0.00    -0.311 OA 
HETATM    9  C   UNL     1     -11.820  11.884  68.575  1.00  0.00    -0.297 C  
HETATM   10  C   UNL     1     -11.621  13.393  68.661  1.00  0.00    -0.327 C  
ENDROOT
BRANCH   4  11
HETATM   11  O   UNL     1      -9.297  12.381  66.783  1.00  0.00    -0.209 OA 
HETATM   12  O   UNL     1      -8.433  14.460  66.963  1.00  0.00    -0.213 OA 
HETATM   13  N   UNL     1      -8.301  13.268  67.249  1.00  0.00    -0.187 N  
HETATM   14  O   UNL     1      -7.454  12.711  67.939  1.00  0.00    -0.099 OA 
ENDBRANCH   4  11
TORSDOF 1
ENDMDL
MODEL      163
REMARK 921   NORMALIZED FREE ENERGY PREDICTED BY IDOCK:   -1.52 KCAL/MOL
REMARK 922        TOTAL FREE ENERGY PREDICTED BY IDOCK:   -1.80 KCAL/MOL
REMARK 923 INTER-LIGAND FREE ENERGY PREDICTED BY IDOCK:   -1.63 KCAL/MOL
REMARK 924 INTRA-LIGAND FREE ENERGY PREDICTED BY IDOCK:   -0.17 KCAL/MOL
REMARK 927      BINDING AFFINITY PREDICTED BY RF-SCORE:    0.00 PKD
ROOT
HETATM    1  C   UNL     1      -5.644  10.304  69.178  1.00  0.00    -0.037 C  
HETATM    2  O   UNL     1      -6.287   9.030  69.113  1.00  0.00    -0.042 OA 
HETATM    3  C   UNL     1      -7.192   9.022  67.996  1.00  0.00    -0.080 C  
HETATM    4  C   UNL     1      -7.047  10.338  67.232  1.00  0.00    -0.088 C  
HETATM    5  C   UNL     1      -5.778  10.947  67.821  1.00  0.00    -0.042 C  
HETATM    6  H   UNL     1      -6.286  11.867  71.985  1.00  0.00     0.000 HD 
HETATM    7  O   UNL     1      -5.863  12.364  68.005  1.00  0.00    -0.057 OA 
HETATM    8  O   UNL     1      -5.836  11.256  71.413  1.00  0.00    -0.353 OA 
HETATM    9  C   UNL     1      -6.119  12.617  69.400  1.00  0.00    -0.107 C  
HETATM   10  C   UNL     1      -6.364  11.281  70.094  1.00  0.00    -0.120 C  
ENDROOT
BRANCH   4  11
HETATM   11  O   UNL     1      -8.164  11.187  67.505  1.00  0.00    -0.115 OA 
HETATM   12  O   UNL     1      -8.679  10.845  65.332  1.00  0.00    -0.188 OA 
HETATM   13  N   UNL     1      -8.960  11.451  66.367  1.00  0.00    -0.187 N  
HETATM   14  O   UNL     1      -9.878  12.229  66.601  1.00  0.00    -0.211 OA 
ENDBRANCH   4  11
TORSDOF 1
ENDMDL
MODEL      164
REMARK 921   NORMALIZED FREE ENERGY PREDICTED BY IDOCK:   -1.14 KCAL/MOL
REMARK 922        TOTAL FREE ENERGY PREDICTED BY IDOCK:   -1.39 KCAL/MOL
REMARK 923 INTER-LIGAND FREE ENERGY PREDICTED BY IDOCK:   -1.20 KCAL/MOL
REMARK 924 INTRA-LIGAND FREE ENERGY PREDICTED BY IDOCK:   -0.20 KCAL/MOL
REMARK 927      BINDING AFFINITY PREDICTED BY RF-SCORE:    0.00 PKD
ROOT
HETATM    1  C   UNL     1      -7.281  11.241  69.083  1.00  0.00    -0.115 C  
HETATM    2  O   UNL     1      -7.219  12.577  68.580  1.00  0.00    -0.099 OA 
HETATM    3  C   UNL     1      -7.361  12.543  67.149  1.00  0.00    -0.063 C  
HETATM    4  C   UNL     1      -7.635  11.105  66.713  1.00  0.00    -0.146 C  
HETATM    5  C   UNL     1      -7.944  10.392  68.027  1.00  0.00    -0.105 C  
HETATM    6  H   UNL     1      -4.525  10.373  70.624  1.00  0.00     0.000 HD 
HETATM    7  O   UNL     1      -7.390   9.076  68.101  1.00  0.00    -0.081 OA 
HETATM    8  O   UNL     1      -5.382  10.774  70.534  1.00  0.00    -0.068 OA 
HETATM    9  C   UNL     1      -6.200   9.138  68.910  1.00  0.00    -0.044 C  
HETATM   10  C   UNL     1      -5.910  10.601  69.226  1.00  0.00    -0.041 C  
ENDROOT
BRANCH   4  11
HETATM   11  O   UNL     1      -6.462  10.541  66.121  1.00  0.00    -0.104 OA 
HETATM   12  O   UNL     1      -7.816  10.121  64.362  1.00  0.00    -0.143 OA 
HETATM   13  N   UNL     1      -6.694   9.968  64.850  1.00  0.00    -0.121 N  
HETATM   14  O   UNL     1      -5.695   9.435  64.380  1.00  0.00    -0.067 OA 
ENDBRANCH   4  11
TORSDOF 1
ENDMDL
MODEL      165
REMARK 921   NORMALIZED FREE ENERGY PREDICTED BY IDOCK:    0.57 KCAL/MOL
REMARK 922        TOTAL FREE ENERGY PREDICTED BY IDOCK:    0.42 KCAL/MOL
REMARK 923 INTER-LIGAND FREE ENERGY PREDICTED BY IDOCK:    0.61 KCAL/MOL
REMARK 924 INTRA-LIGAND FREE ENERGY PREDICTED BY IDOCK:   -0.20 KCAL/MOL
REMARK 927      BINDING AFFINITY PREDICTED BY RF-SCORE:    0.00 PKD
ROOT
HETATM    1  C   UNL     1      -7.816  19.270  69.614  1.00  0.00     0.273 C  
HETATM    2  O   UNL     1      -7.947  20.692  69.549  1.00  0.00     0.954 OA 
HETATM    3  C   UNL     1      -7.991  21.093  68.169  1.00  0.00     0.728 C  
HETATM    4  C   UNL     1      -7.991  19.844  67.290  1.00  0.00    -0.302 C  
HETATM    5  C   UNL     1      -8.259  18.716  68.282  1.00  0.00    -0.323 C  
HETATM    6  H   UNL     1      -5.056  18.353  71.119  1.00  0.00     0.000 HD 
HETATM    7  O   UNL     1      -7.497  17.535  68.016  1.00  0.00    -0.202 OA 
HETATM    8  O   UNL     1      -5.960  18.638  71.059  1.00  0.00     0.057 OA 
HETATM    9  C   UNL     1      -6.388  17.503  68.935  1.00  0.00    -0.211 C  
HETATM   10  C   UNL     1      -6.368  18.816  69.710  1.00  0.00    -0.174 C  
ENDROOT
BRANCH   4  11
HETATM   11  O   UNL     1      -6.705  19.667  66.691  1.00  0.00    -0.190 OA 
HETATM   12  O   UNL     1      -7.851  19.680  64.744  1.00  0.00     0.468 OA 
HETATM   13  N   UNL     1      -6.755  19.522  65.286  1.00  0.00    -0.277 N  
HETATM   14  O   UNL     1      -5.653  19.310  64.791  1.00  0.00    -0.186 OA 
ENDBRANCH   4  11
TORSDOF 1
ENDMDL
MODEL      166
REMARK 921   NORMALIZED FREE ENERGY PREDICTED BY IDOCK:    1.43 KCAL/MOL
REMARK 922        TOTAL FREE ENERGY PREDICTED BY IDOCK:    1.33 KCAL/MOL
REMARK 923 INTER-LIGAND FREE ENERGY PREDICTED BY IDOCK:    0.09 KCAL/MOL
REMARK 924 INTRA-LIGAND FREE ENERGY PREDICTED BY IDOCK:    1.24 KCAL/MOL
REMARK 927      BINDING AFFINITY PREDICTED BY RF-SCORE:    0.00 PKD
ROOT
HETATM    1  C   UNL     1      -7.122  12.488  67.843  1.00  0.00    -0.111 C  
HETATM    2  O   UNL     1      -5.833  13.013  67.518  1.00  0.00    -0.203 OA 
HETATM    3  C   UNL     1      -5.433  13.935  68.545  1.00  0.00    -0.095 C  
HETATM    4  C   UNL     1      -6.485  13.928  69.654  1.00  0.00    -0.108 C  
HETATM    5  C   UNL     1      -7.339  12.708  69.319  1.00  0.00     0.232 C  
HETATM    6  H   UNL     1      -9.360  13.213  65.564  1.00  0.00     0.000 HD 
HETATM    7  O   UNL     1      -8.737  12.919  69.537  1.00  0.00     1.070 OA 
HETATM    8  O   UNL     1      -8.651  12.721  65.961  1.00  0.00     0.327 OA 
HETATM    9  C   UNL     1      -9.355  13.169  68.260  1.00  0.00    -0.201 C  
HETATM   10  C   UNL     1      -8.256  13.276  67.208  1.00  0.00    -0.158 C  
ENDROOT
BRANCH   4  11
HETATM   11  O   UNL     1      -7.282  15.112  69.581  1.00  0.00    -0.187 OA 
HETATM   12  O   UNL     1      -5.321  16.144  69.139  1.00  0.00    -0.109 OA 
HETATM   13  N   UNL     1      -6.526  16.285  69.357  1.00  0.00    -0.187 N  
HETATM   14  O   UNL     1      -7.214  17.300  69.357  1.00  0.00    -0.176 OA 
ENDBRANCH   4  11
TORSDOF 1
ENDMDL
MODEL      167
REMARK 921   NORMALIZED FREE ENERGY PREDICTED BY IDOCK:    4.90 KCAL/MOL
REMARK 922        TOTAL FREE ENERGY PREDICTED BY IDOCK:    5.00 KCAL/MOL
REMARK 923 INTER-LIGAND FREE ENERGY PREDICTED BY IDOCK:    5.16 KCAL/MOL
REMARK 924 INTRA-LIGAND FREE ENERGY PREDICTED BY IDOCK:   -0.15 KCAL/MOL
REMARK 927      BINDING AFFINITY PREDICTED BY RF-SCORE:    0.00 PKD
ROOT
HETATM    1  C   UNL     1      -9.678  17.565  67.660  1.00  0.00    -0.275 C  
HETATM    2  O   UNL     1      -9.092  16.822  66.590  1.00  0.00    -0.222 OA 
HETATM    3  C   UNL     1      -9.176  15.419  66.896  1.00  0.00    -0.233 C  
HETATM    4  C   UNL     1      -9.957  15.243  68.198  1.00  0.00    -0.221 C  
HETATM    5  C   UNL     1     -10.568  16.622  68.430  1.00  0.00    -0.343 C  
HETATM    6  H   UNL     1      -7.523  19.578  69.088  1.00  0.00     0.000 HD 
HETATM    7  O   UNL     1     -10.559  17.021  69.804  1.00  0.00    -0.237 OA 
HETATM    8  O   UNL     1      -8.160  19.305  68.437  1.00  0.00    -0.317 OA 
HETATM    9  C   UNL     1      -9.469  17.945  69.992  1.00  0.00     1.578 C  
HETATM   10  C   UNL     1      -8.659  18.001  68.701  1.00  0.00    -0.264 C  
ENDROOT
BRANCH   4  11
HETATM   11  O   UNL     1      -9.062  14.924  69.266  1.00  0.00    -0.176 OA 
HETATM   12  O   UNL     1      -9.971  12.860  69.121  1.00  0.00     0.157 OA 
HETATM   13  N   UNL     1      -9.203  13.600  69.740  1.00  0.00     1.484 N  
HETATM   14  O   UNL     1      -8.473  13.358  70.696  1.00  0.00     4.225 OA 
ENDBRANCH   4  11
TORSDOF 1
ENDMDL
