MODEL        1
REMARK 921   NORMALIZED FREE ENERGY PREDICTED BY IDOCK:   -6.51 KCAL/MOL
REMARK 922        TOTAL FREE ENERGY PREDICTED BY IDOCK:   -8.72 KCAL/MOL
REMARK 923 INTER-LIGAND FREE ENERGY PREDICTED BY IDOCK:   -8.03 KCAL/MOL
REMARK 924 INTRA-LIGAND FREE ENERGY PREDICTED BY IDOCK:   -0.69 KCAL/MOL
REMARK 927      BINDING AFFINITY PREDICTED BY RF-SCORE:    0.00 PKD
ROOT
HETATM    1  C   UNL     1     -12.525  13.253  70.732  1.00  0.00    -0.403 C  
HETATM    2  C   UNL     1     -12.062  12.298  69.657  1.00  0.00    -0.277 C  
HETATM    3  C   UNL     1     -11.670  12.741  68.441  1.00  0.00    -0.380 C  
ENDROOT
BRANCH   2   4
HETATM    4  C   UNL     1     -12.034  10.860  69.918  1.00  0.00    -0.430 C  
HETATM    5  C   UNL     1     -11.441  10.239  70.950  1.00  0.00    -0.425 C  
BRANCH   5   6
HETATM    6  C   UNL     1     -11.443   8.789  71.151  1.00  0.00    -0.344 C  
HETATM    7  C   UNL     1      -8.957   8.604  71.605  1.00  0.00    -0.305 C  
HETATM    8  C   UNL     1     -12.511   8.163  71.688  1.00  0.00    -0.349 C  
HETATM    9  C   UNL     1     -12.557   6.684  71.941  1.00  0.00    -0.303 C  
HETATM   10  C   UNL     1     -13.784   8.848  72.139  1.00  0.00    -0.527 C  
HETATM   11  C   UNL     1      -9.815   8.368  69.266  1.00  0.00    -0.186 C  
HETATM   12  C   UNL     1     -10.140   8.072  70.754  1.00  0.00    -0.207 C  
HETATM   13  C   UNL     1     -10.161   6.524  70.904  1.00  0.00    -0.210 C  
HETATM   14  C   UNL     1     -11.345   5.848  71.577  1.00  0.00    -0.256 C  
ENDBRANCH   5   6
ENDBRANCH   2   4
BRANCH   3  15
HETATM   15  C   UNL     1     -11.584  14.137  68.052  1.00  0.00    -0.368 C  
HETATM   16  C   UNL     1     -10.428  14.793  67.858  1.00  0.00    -0.246 C  
BRANCH  16  17
HETATM   17  C   UNL     1     -10.285  16.211  67.530  1.00  0.00    -0.267 C  
HETATM   18  C   UNL     1     -10.837  16.211  64.983  1.00  0.00    -0.363 C  
HETATM   19  O   UNL     1     -11.388  16.915  64.150  1.00  0.00    -1.208 OA 
HETATM   20  C   UNL     1     -10.466  16.752  66.307  1.00  0.00    -0.264 C  
HETATM   21  C   UNL     1      -9.952  17.206  68.629  1.00  0.00    -0.313 C  
HETATM   22  O   UNL     1     -10.468  14.945  64.739  1.00  0.00    -0.398 OA 
ENDBRANCH  16  17
ENDBRANCH   3  15
TORSDOF 4
ENDMDL
MODEL        2
REMARK 921   NORMALIZED FREE ENERGY PREDICTED BY IDOCK:   -6.41 KCAL/MOL
REMARK 922        TOTAL FREE ENERGY PREDICTED BY IDOCK:   -8.60 KCAL/MOL
REMARK 923 INTER-LIGAND FREE ENERGY PREDICTED BY IDOCK:   -7.96 KCAL/MOL
REMARK 924 INTRA-LIGAND FREE ENERGY PREDICTED BY IDOCK:   -0.64 KCAL/MOL
REMARK 927      BINDING AFFINITY PREDICTED BY RF-SCORE:    0.00 PKD
ROOT
HETATM    1  C   UNL     1     -11.435  12.044  66.420  1.00  0.00    -0.417 C  
HETATM    2  C   UNL     1     -11.638  12.147  67.914  1.00  0.00    -0.413 C  
HETATM    3  C   UNL     1     -11.703  13.347  68.535  1.00  0.00    -0.392 C  
ENDROOT
BRANCH   2   4
HETATM    4  C   UNL     1     -11.767  10.935  68.721  1.00  0.00    -0.355 C  
HETATM    5  C   UNL     1     -11.152  10.672  69.884  1.00  0.00    -0.364 C  
BRANCH   5   6
HETATM    6  C   UNL     1     -11.318   9.430  70.642  1.00  0.00    -0.352 C  
HETATM    7  C   UNL     1      -8.858   8.820  70.649  1.00  0.00    -0.212 C  
HETATM    8  C   UNL     1     -12.283   9.310  71.576  1.00  0.00    -0.439 C  
HETATM    9  C   UNL     1     -12.481   8.071  72.401  1.00  0.00    -0.256 C  
HETATM   10  C   UNL     1     -13.270  10.396  71.951  1.00  0.00    -0.535 C  
HETATM   11  C   UNL     1     -10.339   7.995  68.807  1.00  0.00    -0.223 C  
HETATM   12  C   UNL     1     -10.293   8.327  70.323  1.00  0.00    -0.211 C  
HETATM   13  C   UNL     1     -10.505   6.984  71.078  1.00  0.00    -0.231 C  
HETATM   14  C   UNL     1     -11.552   6.894  72.177  1.00  0.00    -0.322 C  
ENDBRANCH   5   6
ENDBRANCH   2   4
BRANCH   3  15
HETATM   15  C   UNL     1     -11.653  14.633  67.867  1.00  0.00    -0.373 C  
HETATM   16  C   UNL     1     -10.563  15.417  67.822  1.00  0.00    -0.274 C  
BRANCH  16  17
HETATM   17  C   UNL     1     -10.479  16.746  67.220  1.00  0.00    -0.310 C  
HETATM   18  C   UNL     1     -10.899  16.204  64.706  1.00  0.00    -0.262 C  
HETATM   19  O   UNL     1     -11.443  16.691  63.726  1.00  0.00    -1.015 OA 
HETATM   20  C   UNL     1     -10.626  17.020  65.907  1.00  0.00    -0.221 C  
HETATM   21  C   UNL     1     -10.255  17.959  68.106  1.00  0.00    -0.386 C  
HETATM   22  O   UNL     1     -10.452  14.940  64.738  1.00  0.00    -0.398 OA 
ENDBRANCH  16  17
ENDBRANCH   3  15
TORSDOF 4
ENDMDL
MODEL        3
REMARK 921   NORMALIZED FREE ENERGY PREDICTED BY IDOCK:   -6.40 KCAL/MOL
REMARK 922        TOTAL FREE ENERGY PREDICTED BY IDOCK:   -8.59 KCAL/MOL
REMARK 923 INTER-LIGAND FREE ENERGY PREDICTED BY IDOCK:   -7.90 KCAL/MOL
REMARK 924 INTRA-LIGAND FREE ENERGY PREDICTED BY IDOCK:   -0.69 KCAL/MOL
REMARK 927      BINDING AFFINITY PREDICTED BY RF-SCORE:    0.00 PKD
ROOT
HETATM    1  C   UNL     1     -12.237  12.991  70.645  1.00  0.00    -0.390 C  
HETATM    2  C   UNL     1     -11.778  12.048  69.557  1.00  0.00    -0.408 C  
HETATM    3  C   UNL     1     -11.382  12.506  68.348  1.00  0.00    -0.333 C  
ENDROOT
BRANCH   2   4
HETATM    4  C   UNL     1     -11.758  10.607  69.798  1.00  0.00    -0.385 C  
HETATM    5  C   UNL     1     -10.684   9.849  70.072  1.00  0.00    -0.338 C  
BRANCH   5   6
HETATM    6  C   UNL     1     -10.730   8.403  70.296  1.00  0.00    -0.240 C  
HETATM    7  C   UNL     1     -12.267   8.520  72.307  1.00  0.00    -0.454 C  
HETATM    8  C   UNL     1     -10.651   7.536  69.266  1.00  0.00    -0.215 C  
HETATM    9  C   UNL     1     -10.721   6.047  69.435  1.00  0.00    -0.403 C  
HETATM   10  C   UNL     1     -10.519   7.929  67.808  1.00  0.00    -0.278 C  
HETATM   11  C   UNL     1      -9.786   8.578  72.634  1.00  0.00    -0.281 C  
HETATM   12  C   UNL     1     -10.921   7.975  71.762  1.00  0.00    -0.305 C  
HETATM   13  C   UNL     1     -10.905   6.440  72.014  1.00  0.00    -0.277 C  
HETATM   14  C   UNL     1     -10.887   5.483  70.833  1.00  0.00    -0.246 C  
ENDBRANCH   5   6
ENDBRANCH   2   4
BRANCH   3  15
HETATM   15  C   UNL     1     -11.288  13.906  67.979  1.00  0.00    -0.317 C  
HETATM   16  C   UNL     1     -10.129  14.567  67.824  1.00  0.00    -0.225 C  
BRANCH  16  17
HETATM   17  C   UNL     1      -9.980  15.989  67.518  1.00  0.00    -0.240 C  
HETATM   18  C   UNL     1     -10.731  16.063  65.023  1.00  0.00    -0.378 C  
HETATM   19  O   UNL     1     -11.329  16.798  64.252  1.00  0.00    -1.170 OA 
HETATM   20  C   UNL     1     -10.245  16.563  66.326  1.00  0.00    -0.343 C  
HETATM   21  C   UNL     1      -9.538  16.950  68.608  1.00  0.00    -0.265 C  
HETATM   22  O   UNL     1     -10.412  14.796  64.722  1.00  0.00    -0.406 OA 
ENDBRANCH  16  17
ENDBRANCH   3  15
TORSDOF 4
ENDMDL
MODEL        4
REMARK 921   NORMALIZED FREE ENERGY PREDICTED BY IDOCK:   -6.35 KCAL/MOL
REMARK 922        TOTAL FREE ENERGY PREDICTED BY IDOCK:   -8.53 KCAL/MOL
REMARK 923 INTER-LIGAND FREE ENERGY PREDICTED BY IDOCK:   -7.83 KCAL/MOL
REMARK 924 INTRA-LIGAND FREE ENERGY PREDICTED BY IDOCK:   -0.70 KCAL/MOL
REMARK 927      BINDING AFFINITY PREDICTED BY RF-SCORE:    0.00 PKD
ROOT
HETATM    1  C   UNL     1     -11.691  12.199  68.269  1.00  0.00    -0.401 C  
HETATM    2  C   UNL     1     -10.618  11.145  68.415  1.00  0.00    -0.223 C  
HETATM    3  C   UNL     1      -9.833  10.789  67.373  1.00  0.00    -0.204 C  
ENDROOT
BRANCH   2   4
HETATM    4  C   UNL     1     -10.412  10.484  69.702  1.00  0.00    -0.257 C  
HETATM    5  C   UNL     1     -10.185   9.178  69.911  1.00  0.00    -0.222 C  
BRANCH   5   6
HETATM    6  C   UNL     1      -9.993   8.574  71.231  1.00  0.00    -0.284 C  
HETATM    7  C   UNL     1     -11.865   6.882  70.997  1.00  0.00    -0.411 C  
HETATM    8  C   UNL     1      -8.768   8.498  71.790  1.00  0.00    -0.266 C  
HETATM    9  C   UNL     1      -8.510   7.867  73.127  1.00  0.00    -0.242 C  
HETATM   10  C   UNL     1      -7.488   8.997  71.149  1.00  0.00    -0.119 C  
HETATM   11  C   UNL     1     -12.337   9.127  71.997  1.00  0.00    -0.448 C  
HETATM   12  C   UNL     1     -11.268   8.008  71.882  1.00  0.00    -0.335 C  
HETATM   13  C   UNL     1     -11.082   7.425  73.312  1.00  0.00    -0.303 C  
HETATM   14  C   UNL     1      -9.682   7.284  73.892  1.00  0.00    -0.323 C  
ENDBRANCH   5   6
ENDBRANCH   2   4
BRANCH   3  15
HETATM   15  C   UNL     1      -9.876  11.394  66.055  1.00  0.00    -0.256 C  
HETATM   16  C   UNL     1     -10.259  10.747  64.942  1.00  0.00    -0.388 C  
BRANCH  16  17
HETATM   17  C   UNL     1     -10.259  11.289  63.584  1.00  0.00    -0.446 C  
HETATM   18  C   UNL     1     -12.251  12.965  63.694  1.00  0.00    -0.499 C  
HETATM   19  O   UNL     1     -12.575  14.058  63.252  1.00  0.00    -0.801 OA 
HETATM   20  C   UNL     1     -11.118  12.217  63.113  1.00  0.00    -0.257 C  
HETATM   21  C   UNL     1      -9.195  10.840  62.597  1.00  0.00    -0.349 C  
HETATM   22  O   UNL     1     -12.930  12.344  64.670  1.00  0.00    -0.793 OA 
ENDBRANCH  16  17
ENDBRANCH   3  15
TORSDOF 4
ENDMDL
MODEL        5
REMARK 921   NORMALIZED FREE ENERGY PREDICTED BY IDOCK:   -6.23 KCAL/MOL
REMARK 922        TOTAL FREE ENERGY PREDICTED BY IDOCK:   -8.38 KCAL/MOL
REMARK 923 INTER-LIGAND FREE ENERGY PREDICTED BY IDOCK:   -7.77 KCAL/MOL
REMARK 924 INTRA-LIGAND FREE ENERGY PREDICTED BY IDOCK:   -0.61 KCAL/MOL
REMARK 927      BINDING AFFINITY PREDICTED BY RF-SCORE:    0.00 PKD
ROOT
HETATM    1  C   UNL     1     -14.370   8.604  72.299  1.00  0.00    -0.486 C  
HETATM    2  C   UNL     1     -13.027   8.602  71.607  1.00  0.00    -0.377 C  
HETATM    3  C   UNL     1     -12.415   9.754  71.253  1.00  0.00    -0.461 C  
ENDROOT
BRANCH   2   4
HETATM    4  C   UNL     1     -12.362   7.336  71.304  1.00  0.00    -0.401 C  
HETATM    5  C   UNL     1     -11.042   7.094  71.318  1.00  0.00    -0.275 C  
BRANCH   5   6
HETATM    6  C   UNL     1     -10.437   5.801  70.996  1.00  0.00    -0.307 C  
HETATM    7  C   UNL     1     -11.172   4.651  73.130  1.00  0.00    -0.367 C  
HETATM    8  C   UNL     1     -10.350   5.373  69.720  1.00  0.00    -0.375 C  
HETATM    9  C   UNL     1      -9.764   4.046  69.334  1.00  0.00    -0.205 C  
HETATM   10  C   UNL     1     -10.852   6.136  68.511  1.00  0.00    -0.389 C  
HETATM   11  C   UNL     1      -8.954   5.808  73.043  1.00  0.00    -0.122 C  
HETATM   12  C   UNL     1      -9.968   4.978  72.209  1.00  0.00    -0.233 C  
HETATM   13  C   UNL     1      -9.265   3.633  71.868  1.00  0.00    -0.176 C  
HETATM   14  C   UNL     1      -9.243   3.137  70.431  1.00  0.00    -0.215 C  
ENDBRANCH   5   6
ENDBRANCH   2   4
BRANCH   3  15
HETATM   15  C   UNL     1     -12.917  11.085  71.539  1.00  0.00    -0.553 C  
HETATM   16  C   UNL     1     -12.478  12.201  70.933  1.00  0.00    -0.374 C  
BRANCH  16  17
HETATM   17  C   UNL     1     -12.903  13.568  71.228  1.00  0.00    -0.420 C  
HETATM   18  C   UNL     1     -11.680  14.906  69.356  1.00  0.00    -0.319 C  
HETATM   19  O   UNL     1     -11.860  15.878  68.637  1.00  0.00    -0.388 OA 
HETATM   20  C   UNL     1     -12.537  14.667  70.536  1.00  0.00    -0.409 C  
HETATM   21  C   UNL     1     -13.872  13.823  72.369  1.00  0.00    -0.681 C  
HETATM   22  O   UNL     1     -10.669  14.044  69.177  1.00  0.00    -0.236 OA 
ENDBRANCH  16  17
ENDBRANCH   3  15
TORSDOF 4
ENDMDL
MODEL        6
REMARK 921   NORMALIZED FREE ENERGY PREDICTED BY IDOCK:   -6.17 KCAL/MOL
REMARK 922        TOTAL FREE ENERGY PREDICTED BY IDOCK:   -8.31 KCAL/MOL
REMARK 923 INTER-LIGAND FREE ENERGY PREDICTED BY IDOCK:   -7.66 KCAL/MOL
REMARK 924 INTRA-LIGAND FREE ENERGY PREDICTED BY IDOCK:   -0.66 KCAL/MOL
REMARK 927      BINDING AFFINITY PREDICTED BY RF-SCORE:    0.00 PKD
ROOT
HETATM    1  C   UNL     1     -13.529  10.734  71.952  1.00  0.00    -0.327 C  
HETATM    2  C   UNL     1     -12.422  10.225  71.059  1.00  0.00    -0.484 C  
HETATM    3  C   UNL     1     -11.903  10.990  70.072  1.00  0.00    -0.435 C  
ENDROOT
BRANCH   2   4
HETATM    4  C   UNL     1     -11.890   8.877  71.249  1.00  0.00    -0.371 C  
HETATM    5  C   UNL     1     -10.651   8.450  70.958  1.00  0.00    -0.258 C  
BRANCH   5   6
HETATM    6  C   UNL     1     -10.181   7.079  71.167  1.00  0.00    -0.208 C  
HETATM    7  C   UNL     1     -10.389   7.133  73.691  1.00  0.00    -0.411 C  
HETATM    8  C   UNL     1     -10.427   6.114  70.258  1.00  0.00    -0.288 C  
HETATM    9  C   UNL     1      -9.993   4.688  70.432  1.00  0.00    -0.300 C  
HETATM   10  C   UNL     1     -11.196   6.311  68.967  1.00  0.00    -0.415 C  
HETATM   11  C   UNL     1      -8.234   7.799  72.608  1.00  0.00    -0.171 C  
HETATM   12  C   UNL     1      -9.445   6.836  72.497  1.00  0.00    -0.151 C  
HETATM   13  C   UNL     1      -8.886   5.397  72.694  1.00  0.00    -0.123 C  
HETATM   14  C   UNL     1      -9.238   4.308  71.691  1.00  0.00    -0.186 C  
ENDBRANCH   5   6
ENDBRANCH   2   4
BRANCH   3  15
HETATM   15  C   UNL     1     -12.282  12.364  69.799  1.00  0.00    -0.198 C  
HETATM   16  C   UNL     1     -11.821  13.422  70.486  1.00  0.00    -0.236 C  
BRANCH  16  17
HETATM   17  C   UNL     1     -12.218  14.816  70.295  1.00  0.00    -0.394 C  
HETATM   18  C   UNL     1     -13.553  15.279  72.484  1.00  0.00    -0.510 C  
HETATM   19  O   UNL     1     -13.754  16.186  73.278  1.00  0.00    -0.568 OA 
HETATM   20  C   UNL     1     -12.946  15.547  71.164  1.00  0.00    -0.560 C  
HETATM   21  C   UNL     1     -11.759  15.564  69.055  1.00  0.00    -0.392 C  
HETATM   22  O   UNL     1     -13.927  14.012  72.715  1.00  0.00    -0.669 OA 
ENDBRANCH  16  17
ENDBRANCH   3  15
TORSDOF 4
ENDMDL
MODEL        7
REMARK 921   NORMALIZED FREE ENERGY PREDICTED BY IDOCK:   -6.15 KCAL/MOL
REMARK 922        TOTAL FREE ENERGY PREDICTED BY IDOCK:   -8.28 KCAL/MOL
REMARK 923 INTER-LIGAND FREE ENERGY PREDICTED BY IDOCK:   -7.68 KCAL/MOL
REMARK 924 INTRA-LIGAND FREE ENERGY PREDICTED BY IDOCK:   -0.60 KCAL/MOL
REMARK 927      BINDING AFFINITY PREDICTED BY RF-SCORE:    0.00 PKD
ROOT
HETATM    1  C   UNL     1     -12.873  13.020  71.687  1.00  0.00    -0.376 C  
HETATM    2  C   UNL     1     -12.258  12.698  70.345  1.00  0.00    -0.368 C  
HETATM    3  C   UNL     1     -11.906  11.435  70.015  1.00  0.00    -0.440 C  
ENDROOT
BRANCH   2   4
HETATM    4  C   UNL     1     -12.028  13.764  69.371  1.00  0.00    -0.397 C  
HETATM    5  C   UNL     1     -11.009  13.857  68.502  1.00  0.00    -0.277 C  
BRANCH   5   6
HETATM    6  C   UNL     1     -10.831  14.958  67.555  1.00  0.00    -0.292 C  
HETATM    7  C   UNL     1     -12.417  14.033  65.809  1.00  0.00    -0.523 C  
HETATM    8  C   UNL     1     -10.590  16.214  67.984  1.00  0.00    -0.304 C  
HETATM    9  C   UNL     1     -10.427  17.385  67.059  1.00  0.00    -0.284 C  
HETATM   10  C   UNL     1     -10.486  16.630  69.438  1.00  0.00    -0.320 C  
HETATM   11  C   UNL     1      -9.986  13.446  65.715  1.00  0.00    -0.264 C  
HETATM   12  C   UNL     1     -10.988  14.576  66.072  1.00  0.00    -0.324 C  
HETATM   13  C   UNL     1     -10.736  15.729  65.058  1.00  0.00    -0.443 C  
HETATM   14  C   UNL     1     -10.537  17.149  65.565  1.00  0.00    -0.160 C  
ENDBRANCH   5   6
ENDBRANCH   2   4
BRANCH   3  15
HETATM   15  C   UNL     1     -12.126  10.266  70.846  1.00  0.00    -0.468 C  
HETATM   16  C   UNL     1     -11.154   9.422  71.228  1.00  0.00    -0.446 C  
BRANCH  16  17
HETATM   17  C   UNL     1     -11.330   8.198  72.009  1.00  0.00    -0.378 C  
HETATM   18  C   UNL     1      -9.074   8.083  73.309  1.00  0.00    -0.282 C  
HETATM   19  O   UNL     1      -8.646   7.745  74.402  1.00  0.00    -0.226 OA 
HETATM   20  C   UNL     1     -10.425   7.681  72.865  1.00  0.00    -0.394 C  
HETATM   21  C   UNL     1     -12.640   7.434  71.921  1.00  0.00    -0.322 C  
HETATM   22  O   UNL     1      -8.341   8.768  72.419  1.00  0.00    -0.387 OA 
ENDBRANCH  16  17
ENDBRANCH   3  15
TORSDOF 4
ENDMDL
MODEL        8
REMARK 921   NORMALIZED FREE ENERGY PREDICTED BY IDOCK:   -6.12 KCAL/MOL
REMARK 922        TOTAL FREE ENERGY PREDICTED BY IDOCK:   -8.24 KCAL/MOL
REMARK 923 INTER-LIGAND FREE ENERGY PREDICTED BY IDOCK:   -7.62 KCAL/MOL
REMARK 924 INTRA-LIGAND FREE ENERGY PREDICTED BY IDOCK:   -0.62 KCAL/MOL
REMARK 927      BINDING AFFINITY PREDICTED BY RF-SCORE:    0.00 PKD
ROOT
HETATM    1  C   UNL     1     -11.972  14.077  67.210  1.00  0.00    -0.448 C  
HETATM    2  C   UNL     1     -11.338  15.266  67.895  1.00  0.00    -0.339 C  
HETATM    3  C   UNL     1     -11.646  15.592  69.170  1.00  0.00    -0.374 C  
ENDROOT
BRANCH   2   4
HETATM    4  C   UNL     1     -10.371  16.094  67.177  1.00  0.00    -0.291 C  
HETATM    5  C   UNL     1      -9.598  17.062  67.693  1.00  0.00    -0.249 C  
BRANCH   5   6
HETATM    6  C   UNL     1      -8.652  17.864  66.916  1.00  0.00    -0.259 C  
HETATM    7  C   UNL     1      -9.336  20.088  67.920  1.00  0.00    -0.438 C  
HETATM    8  C   UNL     1      -7.452  17.366  66.552  1.00  0.00    -0.315 C  
HETATM    9  C   UNL     1      -6.433  18.152  65.779  1.00  0.00    -0.311 C  
HETATM   10  C   UNL     1      -6.948  15.978  66.892  1.00  0.00    -0.139 C  
HETATM   11  C   UNL     1     -10.468  19.259  65.848  1.00  0.00    -0.534 C  
HETATM   12  C   UNL     1      -9.113  19.299  66.603  1.00  0.00    -0.374 C  
HETATM   13  C   UNL     1      -8.140  20.133  65.722  1.00  0.00    -0.081 C  
HETATM   14  C   UNL     1      -6.765  19.578  65.385  1.00  0.00    -0.309 C  
ENDBRANCH   5   6
ENDBRANCH   2   4
BRANCH   3  15
HETATM   15  C   UNL     1     -12.537  14.835  70.030  1.00  0.00    -0.268 C  
HETATM   16  C   UNL     1     -12.173  13.734  70.708  1.00  0.00    -0.437 C  
BRANCH  16  17
HETATM   17  C   UNL     1     -13.045  12.900  71.534  1.00  0.00    -0.390 C  
HETATM   18  C   UNL     1     -12.101  10.520  71.044  1.00  0.00    -0.387 C  
HETATM   19  O   UNL     1     -11.909   9.458  71.618  1.00  0.00    -0.351 OA 
HETATM   20  C   UNL     1     -12.972  11.556  71.637  1.00  0.00    -0.499 C  
HETATM   21  C   UNL     1     -14.105  13.553  72.403  1.00  0.00    -0.563 C  
HETATM   22  O   UNL     1     -11.607  10.791  69.827  1.00  0.00    -0.263 OA 
ENDBRANCH  16  17
ENDBRANCH   3  15
TORSDOF 4
ENDMDL
MODEL        9
REMARK 921   NORMALIZED FREE ENERGY PREDICTED BY IDOCK:   -6.11 KCAL/MOL
REMARK 922        TOTAL FREE ENERGY PREDICTED BY IDOCK:   -8.23 KCAL/MOL
REMARK 923 INTER-LIGAND FREE ENERGY PREDICTED BY IDOCK:   -7.57 KCAL/MOL
REMARK 924 INTRA-LIGAND FREE ENERGY PREDICTED BY IDOCK:   -0.66 KCAL/MOL
REMARK 927      BINDING AFFINITY PREDICTED BY RF-SCORE:    0.00 PKD
ROOT
HETATM    1  C   UNL     1      -9.563   8.667  66.240  1.00  0.00    -0.322 C  
HETATM    2  C   UNL     1     -10.037   9.412  67.466  1.00  0.00    -0.268 C  
HETATM    3  C   UNL     1     -10.545  10.663  67.378  1.00  0.00    -0.304 C  
ENDROOT
BRANCH   2   4
HETATM    4  C   UNL     1      -9.950   8.785  68.783  1.00  0.00    -0.197 C  
HETATM    5  C   UNL     1     -10.255   9.344  69.965  1.00  0.00    -0.262 C  
BRANCH   5   6
HETATM    6  C   UNL     1     -10.138   8.662  71.254  1.00  0.00    -0.312 C  
HETATM    7  C   UNL     1     -11.948   6.952  70.789  1.00  0.00    -0.424 C  
HETATM    8  C   UNL     1      -8.951   8.575  71.890  1.00  0.00    -0.301 C  
HETATM    9  C   UNL     1      -8.768   7.865  73.200  1.00  0.00    -0.278 C  
HETATM   10  C   UNL     1      -7.644   9.138  71.371  1.00  0.00    -0.012 C  
HETATM   11  C   UNL     1     -12.540   9.119  71.891  1.00  0.00    -0.463 C  
HETATM   12  C   UNL     1     -11.439   8.031  71.780  1.00  0.00    -0.324 C  
HETATM   13  C   UNL     1     -11.335   7.362  73.181  1.00  0.00    -0.209 C  
HETATM   14  C   UNL     1      -9.975   7.212  73.845  1.00  0.00    -0.360 C  
ENDBRANCH   5   6
ENDBRANCH   2   4
BRANCH   3  15
HETATM   15  C   UNL     1     -10.752  11.392  66.141  1.00  0.00    -0.320 C  
HETATM   16  C   UNL     1     -11.780  12.227  65.923  1.00  0.00    -0.451 C  
BRANCH  16  17
HETATM   17  C   UNL     1     -12.070  12.935  64.676  1.00  0.00    -0.474 C  
HETATM   18  C   UNL     1     -11.250  15.342  65.244  1.00  0.00    -0.310 C  
HETATM   19  O   UNL     1     -10.708  16.294  64.701  1.00  0.00    -0.670 OA 
HETATM   20  C   UNL     1     -11.829  14.242  64.446  1.00  0.00    -0.444 C  
HETATM   21  C   UNL     1     -12.647  12.171  63.497  1.00  0.00    -0.621 C  
HETATM   22  O   UNL     1     -11.422  15.261  66.571  1.00  0.00    -0.242 OA 
ENDBRANCH  16  17
ENDBRANCH   3  15
TORSDOF 4
ENDMDL
MODEL       10
REMARK 921   NORMALIZED FREE ENERGY PREDICTED BY IDOCK:   -6.10 KCAL/MOL
REMARK 922        TOTAL FREE ENERGY PREDICTED BY IDOCK:   -8.22 KCAL/MOL
REMARK 923 INTER-LIGAND FREE ENERGY PREDICTED BY IDOCK:   -7.62 KCAL/MOL
REMARK 924 INTRA-LIGAND FREE ENERGY PREDICTED BY IDOCK:   -0.60 KCAL/MOL
REMARK 927      BINDING AFFINITY PREDICTED BY RF-SCORE:    0.00 PKD
ROOT
HETATM    1  C   UNL     1     -14.318   8.612  72.455  1.00  0.00    -0.429 C  
HETATM    2  C   UNL     1     -13.044   8.614  71.642  1.00  0.00    -0.381 C  
HETATM    3  C   UNL     1     -12.465   9.769  71.242  1.00  0.00    -0.461 C  
ENDROOT
BRANCH   2   4
HETATM    4  C   UNL     1     -12.412   7.351  71.269  1.00  0.00    -0.381 C  
HETATM    5  C   UNL     1     -11.113   7.032  71.385  1.00  0.00    -0.274 C  
BRANCH   5   6
HETATM    6  C   UNL     1     -10.540   5.747  70.983  1.00  0.00    -0.318 C  
HETATM    7  C   UNL     1      -8.782   6.734  69.448  1.00  0.00    -0.136 C  
HETATM    8  C   UNL     1     -10.514   4.701  71.834  1.00  0.00    -0.172 C  
HETATM    9  C   UNL     1      -9.915   3.369  71.485  1.00  0.00    -0.161 C  
HETATM   10  C   UNL     1     -11.043   4.722  73.254  1.00  0.00    -0.411 C  
HETATM   11  C   UNL     1     -11.028   6.117  68.532  1.00  0.00    -0.404 C  
HETATM   12  C   UNL     1      -9.943   5.711  69.565  1.00  0.00    -0.263 C  
HETATM   13  C   UNL     1      -9.392   4.330  69.110  1.00  0.00    -0.229 C  
HETATM   14  C   UNL     1      -9.307   3.186  70.108  1.00  0.00    -0.238 C  
ENDBRANCH   5   6
ENDBRANCH   2   4
BRANCH   3  15
HETATM   15  C   UNL     1     -12.936  11.098  71.584  1.00  0.00    -0.548 C  
HETATM   16  C   UNL     1     -12.492  12.225  71.005  1.00  0.00    -0.361 C  
BRANCH  16  17
HETATM   17  C   UNL     1     -12.885  13.590  71.355  1.00  0.00    -0.440 C  
HETATM   18  C   UNL     1     -11.765  14.959  69.442  1.00  0.00    -0.319 C  
HETATM   19  O   UNL     1     -11.978  15.948  68.757  1.00  0.00    -0.368 OA 
HETATM   20  C   UNL     1     -12.551  14.700  70.666  1.00  0.00    -0.419 C  
HETATM   21  C   UNL     1     -13.781  13.827  72.558  1.00  0.00    -0.667 C  
HETATM   22  O   UNL     1     -10.775  14.093  69.183  1.00  0.00    -0.240 OA 
ENDBRANCH  16  17
ENDBRANCH   3  15
TORSDOF 4
ENDMDL
MODEL       11
REMARK 921   NORMALIZED FREE ENERGY PREDICTED BY IDOCK:   -6.07 KCAL/MOL
REMARK 922        TOTAL FREE ENERGY PREDICTED BY IDOCK:   -8.18 KCAL/MOL
REMARK 923 INTER-LIGAND FREE ENERGY PREDICTED BY IDOCK:   -7.58 KCAL/MOL
REMARK 924 INTRA-LIGAND FREE ENERGY PREDICTED BY IDOCK:   -0.61 KCAL/MOL
REMARK 927      BINDING AFFINITY PREDICTED BY RF-SCORE:    0.00 PKD
ROOT
HETATM    1  C   UNL     1      -7.763   7.720  66.497  1.00  0.00    -0.097 C  
HETATM    2  C   UNL     1      -8.940   8.201  67.314  1.00  0.00    -0.149 C  
HETATM    3  C   UNL     1      -9.817   9.105  66.823  1.00  0.00    -0.291 C  
ENDROOT
BRANCH   2   4
HETATM    4  C   UNL     1      -9.149   7.690  68.668  1.00  0.00    -0.135 C  
HETATM    5  C   UNL     1     -10.311   7.293  69.210  1.00  0.00    -0.208 C  
BRANCH   5   6
HETATM    6  C   UNL     1     -10.455   6.797  70.580  1.00  0.00    -0.238 C  
HETATM    7  C   UNL     1     -12.267   8.439  71.243  1.00  0.00    -0.305 C  
HETATM    8  C   UNL     1     -10.262   5.494  70.872  1.00  0.00    -0.293 C  
HETATM    9  C   UNL     1     -10.422   4.927  72.252  1.00  0.00    -0.267 C  
HETATM   10  C   UNL     1      -9.896   4.423  69.864  1.00  0.00    -0.290 C  
HETATM   11  C   UNL     1      -9.863   9.025  71.616  1.00  0.00    -0.366 C  
HETATM   12  C   UNL     1     -10.880   7.852  71.616  1.00  0.00    -0.275 C  
HETATM   13  C   UNL     1     -10.971   7.345  73.084  1.00  0.00    -0.408 C  
HETATM   14  C   UNL     1     -10.820   5.860  73.378  1.00  0.00    -0.275 C  
ENDBRANCH   5   6
ENDBRANCH   2   4
BRANCH   3  15
HETATM   15  C   UNL     1      -9.780   9.657  65.481  1.00  0.00    -0.372 C  
HETATM   16  C   UNL     1     -10.368  10.810  65.126  1.00  0.00    -0.341 C  
BRANCH  16  17
HETATM   17  C   UNL     1     -10.415  11.376  63.778  1.00  0.00    -0.456 C  
HETATM   18  C   UNL     1     -12.310  13.148  64.027  1.00  0.00    -0.352 C  
HETATM   19  O   UNL     1     -12.602  14.263  63.621  1.00  0.00    -0.831 OA 
HETATM   20  C   UNL     1     -11.251  12.354  63.371  1.00  0.00    -0.492 C  
HETATM   21  C   UNL     1      -9.433  10.892  62.725  1.00  0.00    -0.359 C  
HETATM   22  O   UNL     1     -12.964  12.543  65.029  1.00  0.00    -0.779 OA 
ENDBRANCH  16  17
ENDBRANCH   3  15
TORSDOF 4
ENDMDL
MODEL       12
REMARK 921   NORMALIZED FREE ENERGY PREDICTED BY IDOCK:   -6.07 KCAL/MOL
REMARK 922        TOTAL FREE ENERGY PREDICTED BY IDOCK:   -8.18 KCAL/MOL
REMARK 923 INTER-LIGAND FREE ENERGY PREDICTED BY IDOCK:   -7.56 KCAL/MOL
REMARK 924 INTRA-LIGAND FREE ENERGY PREDICTED BY IDOCK:   -0.62 KCAL/MOL
REMARK 927      BINDING AFFINITY PREDICTED BY RF-SCORE:    0.00 PKD
ROOT
HETATM    1  C   UNL     1     -12.953  11.091  71.514  1.00  0.00    -0.553 C  
HETATM    2  C   UNL     1     -11.997  10.351  70.608  1.00  0.00    -0.448 C  
HETATM    3  C   UNL     1     -11.421  10.957  69.545  1.00  0.00    -0.372 C  
ENDROOT
BRANCH   2   4
HETATM    4  C   UNL     1     -11.680   8.948  70.868  1.00  0.00    -0.312 C  
HETATM    5  C   UNL     1     -10.485   8.352  70.731  1.00  0.00    -0.230 C  
BRANCH   5   6
HETATM    6  C   UNL     1     -10.234   6.936  71.001  1.00  0.00    -0.213 C  
HETATM    7  C   UNL     1      -8.668   6.589  69.039  1.00  0.00    -0.128 C  
HETATM    8  C   UNL     1     -10.224   6.459  72.263  1.00  0.00    -0.205 C  
HETATM    9  C   UNL     1      -9.946   5.023  72.599  1.00  0.00    -0.209 C  
HETATM   10  C   UNL     1     -10.453   7.293  73.508  1.00  0.00    -0.421 C  
HETATM   11  C   UNL     1     -11.122   6.188  68.756  1.00  0.00    -0.398 C  
HETATM   12  C   UNL     1      -9.943   6.075  69.759  1.00  0.00    -0.223 C  
HETATM   13  C   UNL     1      -9.740   4.557  70.034  1.00  0.00    -0.283 C  
HETATM   14  C   UNL     1      -9.661   4.055  71.468  1.00  0.00    -0.246 C  
ENDBRANCH   5   6
ENDBRANCH   2   4
BRANCH   3  15
HETATM   15  C   UNL     1     -11.588  12.355  69.194  1.00  0.00    -0.369 C  
HETATM   16  C   UNL     1     -11.641  12.812  67.932  1.00  0.00    -0.400 C  
BRANCH  16  17
HETATM   17  C   UNL     1     -11.743  14.212  67.524  1.00  0.00    -0.418 C  
HETATM   18  C   UNL     1     -11.927  13.985  64.935  1.00  0.00    -0.404 C  
HETATM   19  O   UNL     1     -12.488  14.521  63.990  1.00  0.00    -0.778 OA 
HETATM   20  C   UNL     1     -11.859  14.649  66.253  1.00  0.00    -0.299 C  
HETATM   21  C   UNL     1     -11.772  15.302  68.582  1.00  0.00    -0.367 C  
HETATM   22  O   UNL     1     -11.280  12.815  64.830  1.00  0.00    -0.289 OA 
ENDBRANCH  16  17
ENDBRANCH   3  15
TORSDOF 4
ENDMDL
MODEL       13
REMARK 921   NORMALIZED FREE ENERGY PREDICTED BY IDOCK:   -6.03 KCAL/MOL
REMARK 922        TOTAL FREE ENERGY PREDICTED BY IDOCK:   -8.14 KCAL/MOL
REMARK 923 INTER-LIGAND FREE ENERGY PREDICTED BY IDOCK:   -7.66 KCAL/MOL
REMARK 924 INTRA-LIGAND FREE ENERGY PREDICTED BY IDOCK:   -0.48 KCAL/MOL
REMARK 927      BINDING AFFINITY PREDICTED BY RF-SCORE:    0.00 PKD
ROOT
HETATM    1  C   UNL     1     -11.231  11.195  67.424  1.00  0.00    -0.363 C  
HETATM    2  C   UNL     1     -11.618  12.216  68.469  1.00  0.00    -0.366 C  
HETATM    3  C   UNL     1     -12.129  11.842  69.663  1.00  0.00    -0.323 C  
ENDROOT
BRANCH   2   4
HETATM    4  C   UNL     1     -11.446  13.641  68.198  1.00  0.00    -0.348 C  
HETATM    5  C   UNL     1     -10.379  14.234  67.640  1.00  0.00    -0.248 C  
BRANCH   5   6
HETATM    6  C   UNL     1     -10.265  15.674  67.403  1.00  0.00    -0.264 C  
HETATM    7  C   UNL     1      -8.371  16.042  69.045  1.00  0.00    -0.243 C  
HETATM    8  C   UNL     1     -10.527  16.202  66.189  1.00  0.00    -0.334 C  
HETATM    9  C   UNL     1     -10.401  17.666  65.882  1.00  0.00    -0.261 C  
HETATM   10  C   UNL     1     -10.945  15.407  64.968  1.00  0.00    -0.450 C  
HETATM   11  C   UNL     1     -10.743  16.268  69.812  1.00  0.00    -0.345 C  
HETATM   12  C   UNL     1      -9.788  16.501  68.610  1.00  0.00    -0.250 C  
HETATM   13  C   UNL     1      -9.729  18.038  68.382  1.00  0.00    -0.348 C  
HETATM   14  C   UNL     1      -9.958  18.603  66.989  1.00  0.00    -0.368 C  
ENDBRANCH   5   6
ENDBRANCH   2   4
BRANCH   3  15
HETATM   15  C   UNL     1     -12.302  10.469  70.102  1.00  0.00    -0.339 C  
HETATM   16  C   UNL     1     -12.719  10.119  71.329  1.00  0.00    -0.509 C  
BRANCH  16  17
HETATM   17  C   UNL     1     -12.848   8.755  71.841  1.00  0.00    -0.423 C  
HETATM   18  C   UNL     1     -10.418   8.274  72.649  1.00  0.00    -0.303 C  
HETATM   19  O   UNL     1      -9.834   7.680  73.545  1.00  0.00    -0.298 OA 
HETATM   20  C   UNL     1     -11.850   8.027  72.383  1.00  0.00    -0.429 C  
HETATM   21  C   UNL     1     -14.205   8.073  71.828  1.00  0.00    -0.550 C  
HETATM   22  O   UNL     1      -9.800   9.120  71.813  1.00  0.00    -0.299 OA 
ENDBRANCH  16  17
ENDBRANCH   3  15
TORSDOF 4
ENDMDL
MODEL       14
REMARK 921   NORMALIZED FREE ENERGY PREDICTED BY IDOCK:   -6.00 KCAL/MOL
REMARK 922        TOTAL FREE ENERGY PREDICTED BY IDOCK:   -8.10 KCAL/MOL
REMARK 923 INTER-LIGAND FREE ENERGY PREDICTED BY IDOCK:   -7.40 KCAL/MOL
REMARK 924 INTRA-LIGAND FREE ENERGY PREDICTED BY IDOCK:   -0.70 KCAL/MOL
REMARK 927      BINDING AFFINITY PREDICTED BY RF-SCORE:    0.00 PKD
ROOT
HETATM    1  C   UNL     1     -12.593  12.575  70.843  1.00  0.00    -0.331 C  
HETATM    2  C   UNL     1     -12.031  11.365  70.133  1.00  0.00    -0.460 C  
HETATM    3  C   UNL     1     -11.757  11.389  68.809  1.00  0.00    -0.404 C  
ENDROOT
BRANCH   2   4
HETATM    4  C   UNL     1     -11.775  10.133  70.876  1.00  0.00    -0.468 C  
HETATM    5  C   UNL     1     -11.354   8.961  70.375  1.00  0.00    -0.229 C  
BRANCH   5   6
HETATM    6  C   UNL     1     -11.124   7.757  71.176  1.00  0.00    -0.269 C  
HETATM    7  C   UNL     1      -8.969   8.576  72.228  1.00  0.00    -0.299 C  
HETATM    8  C   UNL     1     -12.155   7.039  71.665  1.00  0.00    -0.384 C  
HETATM    9  C   UNL     1     -11.977   5.814  72.514  1.00  0.00    -0.157 C  
HETATM   10  C   UNL     1     -13.620   7.376  71.467  1.00  0.00    -0.454 C  
HETATM   11  C   UNL     1      -8.893   7.274  70.092  1.00  0.00    -0.145 C  
HETATM   12  C   UNL     1      -9.645   7.422  71.441  1.00  0.00    -0.167 C  
HETATM   13  C   UNL     1      -9.393   6.109  72.236  1.00  0.00    -0.149 C  
HETATM   14  C   UNL     1     -10.569   5.355  72.839  1.00  0.00    -0.270 C  
ENDBRANCH   5   6
ENDBRANCH   2   4
BRANCH   3  15
HETATM   15  C   UNL     1     -11.898  12.551  67.951  1.00  0.00    -0.383 C  
HETATM   16  C   UNL     1     -10.886  13.108  67.266  1.00  0.00    -0.270 C  
BRANCH  16  17
HETATM   17  C   UNL     1     -10.960  14.313  66.441  1.00  0.00    -0.311 C  
HETATM   18  C   UNL     1     -11.891  13.353  64.205  1.00  0.00    -0.442 C  
HETATM   19  O   UNL     1     -12.641  13.673  63.294  1.00  0.00    -0.816 OA 
HETATM   20  C   UNL     1     -11.388  14.359  65.163  1.00  0.00    -0.359 C  
HETATM   21  C   UNL     1     -10.581  15.657  67.040  1.00  0.00    -0.311 C  
HETATM   22  O   UNL     1     -11.419  12.107  64.356  1.00  0.00    -0.324 OA 
ENDBRANCH  16  17
ENDBRANCH   3  15
TORSDOF 4
ENDMDL
MODEL       15
REMARK 921   NORMALIZED FREE ENERGY PREDICTED BY IDOCK:   -5.95 KCAL/MOL
REMARK 922        TOTAL FREE ENERGY PREDICTED BY IDOCK:   -8.04 KCAL/MOL
REMARK 923 INTER-LIGAND FREE ENERGY PREDICTED BY IDOCK:   -7.52 KCAL/MOL
REMARK 924 INTRA-LIGAND FREE ENERGY PREDICTED BY IDOCK:   -0.52 KCAL/MOL
REMARK 927      BINDING AFFINITY PREDICTED BY RF-SCORE:    0.00 PKD
ROOT
HETATM    1  C   UNL     1     -12.136  12.847  70.683  1.00  0.00    -0.321 C  
HETATM    2  C   UNL     1     -11.915  11.914  69.515  1.00  0.00    -0.355 C  
HETATM    3  C   UNL     1     -11.782  12.383  68.254  1.00  0.00    -0.398 C  
ENDROOT
BRANCH   2   4
HETATM    4  C   UNL     1     -11.845  10.471  69.734  1.00  0.00    -0.329 C  
HETATM    5  C   UNL     1     -10.754   9.693  69.644  1.00  0.00    -0.260 C  
BRANCH   5   6
HETATM    6  C   UNL     1     -10.752   8.247  69.869  1.00  0.00    -0.234 C  
HETATM    7  C   UNL     1      -8.560   7.819  68.671  1.00  0.00    -0.129 C  
HETATM    8  C   UNL     1     -11.293   7.715  70.984  1.00  0.00    -0.289 C  
HETATM    9  C   UNL     1     -11.294   6.243  71.279  1.00  0.00    -0.356 C  
HETATM   10  C   UNL     1     -11.936   8.511  72.102  1.00  0.00    -0.451 C  
HETATM   11  C   UNL     1     -10.713   7.705  67.401  1.00  0.00    -0.318 C  
HETATM   12  C   UNL     1     -10.054   7.416  68.776  1.00  0.00    -0.184 C  
HETATM   13  C   UNL     1     -10.106   5.875  68.978  1.00  0.00    -0.237 C  
HETATM   14  C   UNL     1     -10.656   5.302  70.275  1.00  0.00    -0.288 C  
ENDBRANCH   5   6
ENDBRANCH   2   4
BRANCH   3  15
HETATM   15  C   UNL     1     -11.768  13.786  67.885  1.00  0.00    -0.395 C  
HETATM   16  C   UNL     1     -10.655  14.471  67.576  1.00  0.00    -0.262 C  
BRANCH  16  17
HETATM   17  C   UNL     1     -10.578  15.898  67.261  1.00  0.00    -0.314 C  
HETATM   18  C   UNL     1     -11.124  15.897  64.713  1.00  0.00    -0.384 C  
HETATM   19  O   UNL     1     -11.706  16.582  63.885  1.00  0.00    -1.148 OA 
HETATM   20  C   UNL     1     -10.782  16.441  66.043  1.00  0.00    -0.194 C  
HETATM   21  C   UNL     1     -10.294  16.896  68.370  1.00  0.00    -0.338 C  
HETATM   22  O   UNL     1     -10.696  14.652  64.458  1.00  0.00    -0.334 OA 
ENDBRANCH  16  17
ENDBRANCH   3  15
TORSDOF 4
ENDMDL
MODEL       16
REMARK 921   NORMALIZED FREE ENERGY PREDICTED BY IDOCK:   -5.94 KCAL/MOL
REMARK 922        TOTAL FREE ENERGY PREDICTED BY IDOCK:   -8.02 KCAL/MOL
REMARK 923 INTER-LIGAND FREE ENERGY PREDICTED BY IDOCK:   -7.83 KCAL/MOL
REMARK 924 INTRA-LIGAND FREE ENERGY PREDICTED BY IDOCK:   -0.20 KCAL/MOL
REMARK 927      BINDING AFFINITY PREDICTED BY RF-SCORE:    0.00 PKD
ROOT
HETATM    1  C   UNL     1     -13.280  10.789  71.896  1.00  0.00    -0.524 C  
HETATM    2  C   UNL     1     -12.397  10.158  70.844  1.00  0.00    -0.461 C  
HETATM    3  C   UNL     1     -11.990  10.852  69.757  1.00  0.00    -0.423 C  
ENDROOT
BRANCH   2   4
HETATM    4  C   UNL     1     -11.968   8.769  70.986  1.00  0.00    -0.291 C  
HETATM    5  C   UNL     1     -10.726   8.330  71.247  1.00  0.00    -0.276 C  
BRANCH   5   6
HETATM    6  C   UNL     1     -10.358   6.919  71.370  1.00  0.00    -0.219 C  
HETATM    7  C   UNL     1      -8.943   6.853  69.270  1.00  0.00    -0.137 C  
HETATM    8  C   UNL     1     -10.210   6.342  72.581  1.00  0.00    -0.203 C  
HETATM    9  C   UNL     1      -9.808   4.908  72.766  1.00  0.00    -0.192 C  
HETATM   10  C   UNL     1     -10.389   7.050  73.909  1.00  0.00    -0.386 C  
HETATM   11  C   UNL     1     -11.380   6.296  69.145  1.00  0.00    -0.358 C  
HETATM   12  C   UNL     1     -10.115   6.188  70.038  1.00  0.00    -0.228 C  
HETATM   13  C   UNL     1      -9.788   4.672  70.161  1.00  0.00    -0.306 C  
HETATM   14  C   UNL     1      -9.556   4.060  71.534  1.00  0.00    -0.237 C  
ENDBRANCH   5   6
ENDBRANCH   2   4
BRANCH   3  15
HETATM   15  C   UNL     1     -12.281  12.251  69.506  1.00  0.00    -0.153 C  
HETATM   16  C   UNL     1     -12.034  13.239  70.381  1.00  0.00    -0.350 C  
BRANCH  16  17
HETATM   17  C   UNL     1     -12.366  14.653  70.205  1.00  0.00    -0.406 C  
HETATM   18  C   UNL     1     -13.710  15.144  72.383  1.00  0.00    -0.496 C  
HETATM   19  O   UNL     1     -13.882  16.048  73.187  1.00  0.00    -0.576 OA 
HETATM   20  C   UNL     1     -13.073  15.403  71.075  1.00  0.00    -0.565 C  
HETATM   21  C   UNL     1     -11.857  15.396  68.982  1.00  0.00    -0.357 C  
HETATM   22  O   UNL     1     -14.143  13.892  72.590  1.00  0.00    -0.679 OA 
ENDBRANCH  16  17
ENDBRANCH   3  15
TORSDOF 4
ENDMDL
MODEL       17
REMARK 921   NORMALIZED FREE ENERGY PREDICTED BY IDOCK:   -5.94 KCAL/MOL
REMARK 922        TOTAL FREE ENERGY PREDICTED BY IDOCK:   -8.02 KCAL/MOL
REMARK 923 INTER-LIGAND FREE ENERGY PREDICTED BY IDOCK:   -7.33 KCAL/MOL
REMARK 924 INTRA-LIGAND FREE ENERGY PREDICTED BY IDOCK:   -0.69 KCAL/MOL
REMARK 927      BINDING AFFINITY PREDICTED BY RF-SCORE:    0.00 PKD
ROOT
HETATM    1  C   UNL     1     -11.559  14.839  67.398  1.00  0.00    -0.377 C  
HETATM    2  C   UNL     1     -11.051  15.930  68.313  1.00  0.00    -0.345 C  
HETATM    3  C   UNL     1     -11.528  16.074  69.570  1.00  0.00    -0.326 C  
ENDROOT
BRANCH   2   4
HETATM    4  C   UNL     1     -10.027  16.860  67.844  1.00  0.00    -0.274 C  
HETATM    5  C   UNL     1      -9.244  17.647  68.600  1.00  0.00    -0.266 C  
BRANCH   5   6
HETATM    6  C   UNL     1      -8.238  18.566  68.066  1.00  0.00    -0.286 C  
HETATM    7  C   UNL     1      -6.666  16.756  67.247  1.00  0.00    -0.209 C  
HETATM    8  C   UNL     1      -8.592  19.760  67.549  1.00  0.00    -0.377 C  
HETATM    9  C   UNL     1      -7.606  20.730  66.964  1.00  0.00    -0.298 C  
HETATM   10  C   UNL     1     -10.013  20.278  67.449  1.00  0.00    -0.567 C  
HETATM   11  C   UNL     1      -6.405  17.676  69.560  1.00  0.00    -0.223 C  
HETATM   12  C   UNL     1      -6.790  18.044  68.103  1.00  0.00    -0.210 C  
HETATM   13  C   UNL     1      -5.710  19.043  67.598  1.00  0.00    -0.181 C  
HETATM   14  C   UNL     1      -6.138  20.352  66.953  1.00  0.00    -0.221 C  
ENDBRANCH   5   6
ENDBRANCH   2   4
BRANCH   3  15
HETATM   15  C   UNL     1     -12.497  15.195  70.198  1.00  0.00    -0.361 C  
HETATM   16  C   UNL     1     -12.173  14.176  71.010  1.00  0.00    -0.432 C  
BRANCH  16  17
HETATM   17  C   UNL     1     -13.104  13.224  71.615  1.00  0.00    -0.453 C  
HETATM   18  C   UNL     1     -12.053  10.948  70.903  1.00  0.00    -0.349 C  
HETATM   19  O   UNL     1     -11.894   9.818  71.341  1.00  0.00    -0.361 OA 
HETATM   20  C   UNL     1     -13.007  11.881  71.538  1.00  0.00    -0.427 C  
HETATM   21  C   UNL     1     -14.266  13.736  72.449  1.00  0.00    -0.501 C  
HETATM   22  O   UNL     1     -11.443  11.393  69.795  1.00  0.00    -0.280 OA 
ENDBRANCH  16  17
ENDBRANCH   3  15
TORSDOF 4
ENDMDL
MODEL       18
REMARK 921   NORMALIZED FREE ENERGY PREDICTED BY IDOCK:   -5.93 KCAL/MOL
REMARK 922        TOTAL FREE ENERGY PREDICTED BY IDOCK:   -8.01 KCAL/MOL
REMARK 923 INTER-LIGAND FREE ENERGY PREDICTED BY IDOCK:   -7.28 KCAL/MOL
REMARK 924 INTRA-LIGAND FREE ENERGY PREDICTED BY IDOCK:   -0.73 KCAL/MOL
REMARK 927      BINDING AFFINITY PREDICTED BY RF-SCORE:    0.00 PKD
ROOT
HETATM    1  C   UNL     1     -11.523  11.478  68.413  1.00  0.00    -0.364 C  
HETATM    2  C   UNL     1     -10.685  10.231  68.246  1.00  0.00    -0.276 C  
HETATM    3  C   UNL     1      -9.972  10.007  67.120  1.00  0.00    -0.251 C  
ENDROOT
BRANCH   2   4
HETATM    4  C   UNL     1     -10.636   9.234  69.314  1.00  0.00    -0.234 C  
HETATM    5  C   UNL     1     -11.024   7.951  69.238  1.00  0.00     0.009 C  
BRANCH   5   6
HETATM    6  C   UNL     1     -10.956   7.002  70.350  1.00  0.00    -0.301 C  
HETATM    7  C   UNL     1      -8.436   6.744  70.295  1.00  0.00    -0.135 C  
HETATM    8  C   UNL     1     -11.839   7.060  71.369  1.00  0.00    -0.359 C  
HETATM    9  C   UNL     1     -11.799   6.130  72.547  1.00  0.00    -0.222 C  
HETATM   10  C   UNL     1     -12.958   8.074  71.493  1.00  0.00    -0.326 C  
HETATM   11  C   UNL     1      -9.874   5.198  68.950  1.00  0.00    -0.241 C  
HETATM   12  C   UNL     1      -9.794   5.995  70.280  1.00  0.00    -0.221 C  
HETATM   13  C   UNL     1      -9.756   4.943  71.425  1.00  0.00    -0.237 C  
HETATM   14  C   UNL     1     -10.715   5.071  72.598  1.00  0.00    -0.279 C  
ENDBRANCH   5   6
ENDBRANCH   2   4
BRANCH   3  15
HETATM   15  C   UNL     1      -9.871  10.927  66.002  1.00  0.00    -0.280 C  
HETATM   16  C   UNL     1     -10.460  10.731  64.812  1.00  0.00    -0.335 C  
BRANCH  16  17
HETATM   17  C   UNL     1     -10.338  11.592  63.635  1.00  0.00    -0.467 C  
HETATM   18  C   UNL     1     -12.263  13.300  64.041  1.00  0.00    -0.410 C  
HETATM   19  O   UNL     1     -12.509  14.485  63.868  1.00  0.00    -0.814 OA 
HETATM   20  C   UNL     1     -11.122  12.655  63.361  1.00  0.00    -0.354 C  
HETATM   21  C   UNL     1      -9.225  11.339  62.633  1.00  0.00    -0.330 C  
HETATM   22  O   UNL     1     -13.036  12.497  64.787  1.00  0.00    -0.853 OA 
ENDBRANCH  16  17
ENDBRANCH   3  15
TORSDOF 4
ENDMDL
MODEL       19
REMARK 921   NORMALIZED FREE ENERGY PREDICTED BY IDOCK:   -5.92 KCAL/MOL
REMARK 922        TOTAL FREE ENERGY PREDICTED BY IDOCK:   -8.00 KCAL/MOL
REMARK 923 INTER-LIGAND FREE ENERGY PREDICTED BY IDOCK:   -7.30 KCAL/MOL
REMARK 924 INTRA-LIGAND FREE ENERGY PREDICTED BY IDOCK:   -0.70 KCAL/MOL
REMARK 927      BINDING AFFINITY PREDICTED BY RF-SCORE:    0.00 PKD
ROOT
HETATM    1  C   UNL     1     -13.183  10.729  71.812  1.00  0.00    -0.523 C  
HETATM    2  C   UNL     1     -12.020  10.412  70.900  1.00  0.00    -0.478 C  
HETATM    3  C   UNL     1     -11.594  11.295  69.969  1.00  0.00    -0.404 C  
ENDROOT
BRANCH   2   4
HETATM    4  C   UNL     1     -11.331   9.128  71.011  1.00  0.00    -0.377 C  
HETATM    5  C   UNL     1     -10.869   8.555  72.134  1.00  0.00    -0.427 C  
BRANCH   5   6
HETATM    6  C   UNL     1     -10.178   7.265  72.177  1.00  0.00    -0.216 C  
HETATM    7  C   UNL     1      -8.190   8.100  73.508  1.00  0.00    -0.276 C  
HETATM    8  C   UNL     1     -10.869   6.107  72.210  1.00  0.00    -0.284 C  
HETATM    9  C   UNL     1     -10.213   4.759  72.282  1.00  0.00    -0.252 C  
HETATM   10  C   UNL     1     -12.380   5.996  72.216  1.00  0.00    -0.042 C  
HETATM   11  C   UNL     1      -8.121   8.151  71.007  1.00  0.00    -0.103 C  
HETATM   12  C   UNL     1      -8.642   7.348  72.229  1.00  0.00    -0.135 C  
HETATM   13  C   UNL     1      -7.901   5.980  72.208  1.00  0.00    -0.102 C  
HETATM   14  C   UNL     1      -8.699   4.689  72.319  1.00  0.00    -0.126 C  
ENDBRANCH   5   6
ENDBRANCH   2   4
BRANCH   3  15
HETATM   15  C   UNL     1     -12.134  12.629  69.778  1.00  0.00    -0.301 C  
HETATM   16  C   UNL     1     -11.691  13.718  70.426  1.00  0.00    -0.242 C  
BRANCH  16  17
HETATM   17  C   UNL     1     -12.240  15.070  70.320  1.00  0.00    -0.390 C  
HETATM   18  C   UNL     1     -13.372  15.354  72.650  1.00  0.00    -0.504 C  
HETATM   19  O   UNL     1     -13.574  16.220  73.488  1.00  0.00    -0.642 OA 
HETATM   20  C   UNL     1     -12.938  15.707  71.282  1.00  0.00    -0.556 C  
HETATM   21  C   UNL     1     -11.992  15.884  69.062  1.00  0.00    -0.243 C  
HETATM   22  O   UNL     1     -13.594  14.051  72.880  1.00  0.00    -0.676 OA 
ENDBRANCH  16  17
ENDBRANCH   3  15
TORSDOF 4
ENDMDL
MODEL       20
REMARK 921   NORMALIZED FREE ENERGY PREDICTED BY IDOCK:   -5.91 KCAL/MOL
REMARK 922        TOTAL FREE ENERGY PREDICTED BY IDOCK:   -7.99 KCAL/MOL
REMARK 923 INTER-LIGAND FREE ENERGY PREDICTED BY IDOCK:   -7.46 KCAL/MOL
REMARK 924 INTRA-LIGAND FREE ENERGY PREDICTED BY IDOCK:   -0.52 KCAL/MOL
REMARK 927      BINDING AFFINITY PREDICTED BY RF-SCORE:    0.00 PKD
ROOT
HETATM    1  C   UNL     1     -12.820  11.239  71.331  1.00  0.00    -0.515 C  
HETATM    2  C   UNL     1     -11.799  10.491  70.505  1.00  0.00    -0.442 C  
HETATM    3  C   UNL     1     -11.195  11.067  69.440  1.00  0.00    -0.332 C  
ENDROOT
BRANCH   2   4
HETATM    4  C   UNL     1     -11.446   9.115  70.848  1.00  0.00    -0.357 C  
HETATM    5  C   UNL     1     -10.342   8.449  70.476  1.00  0.00    -0.220 C  
BRANCH   5   6
HETATM    6  C   UNL     1     -10.050   7.063  70.848  1.00  0.00    -0.204 C  
HETATM    7  C   UNL     1     -10.566   7.360  73.311  1.00  0.00    -0.442 C  
HETATM    8  C   UNL     1     -10.283   6.049  69.990  1.00  0.00    -0.264 C  
HETATM    9  C   UNL     1     -10.029   4.609  70.328  1.00  0.00    -0.309 C  
HETATM   10  C   UNL     1     -10.858   6.204  68.596  1.00  0.00    -0.403 C  
HETATM   11  C   UNL     1      -8.233   7.718  72.478  1.00  0.00    -0.165 C  
HETATM   12  C   UNL     1      -9.517   6.869  72.279  1.00  0.00    -0.151 C  
HETATM   13  C   UNL     1      -9.144   5.407  72.657  1.00  0.00    -0.139 C  
HETATM   14  C   UNL     1      -9.482   4.272  71.701  1.00  0.00    -0.211 C  
ENDBRANCH   5   6
ENDBRANCH   2   4
BRANCH   3  15
HETATM   15  C   UNL     1     -11.394  12.439  69.013  1.00  0.00    -0.336 C  
HETATM   16  C   UNL     1     -11.406  12.833  67.729  1.00  0.00    -0.342 C  
BRANCH  16  17
HETATM   17  C   UNL     1     -11.536  14.208  67.248  1.00  0.00    -0.399 C  
HETATM   18  C   UNL     1     -11.965  13.828  64.706  1.00  0.00    -0.404 C  
HETATM   19  O   UNL     1     -12.610  14.313  63.788  1.00  0.00    -0.821 OA 
HETATM   20  C   UNL     1     -11.769  14.569  65.969  1.00  0.00    -0.347 C  
HETATM   21  C   UNL     1     -11.458  15.359  68.236  1.00  0.00    -0.362 C  
HETATM   22  O   UNL     1     -11.339  12.646  64.613  1.00  0.00    -0.298 OA 
ENDBRANCH  16  17
ENDBRANCH   3  15
TORSDOF 4
ENDMDL
MODEL       21
REMARK 921   NORMALIZED FREE ENERGY PREDICTED BY IDOCK:   -5.89 KCAL/MOL
REMARK 922        TOTAL FREE ENERGY PREDICTED BY IDOCK:   -7.96 KCAL/MOL
REMARK 923 INTER-LIGAND FREE ENERGY PREDICTED BY IDOCK:   -7.34 KCAL/MOL
REMARK 924 INTRA-LIGAND FREE ENERGY PREDICTED BY IDOCK:   -0.62 KCAL/MOL
REMARK 927      BINDING AFFINITY PREDICTED BY RF-SCORE:    0.00 PKD
ROOT
HETATM    1  C   UNL     1     -13.052  12.074  71.691  1.00  0.00    -0.422 C  
HETATM    2  C   UNL     1     -12.126  11.947  70.503  1.00  0.00    -0.422 C  
HETATM    3  C   UNL     1     -11.473  10.793  70.238  1.00  0.00    -0.406 C  
ENDROOT
BRANCH   2   4
HETATM    4  C   UNL     1     -11.917  13.087  69.613  1.00  0.00    -0.367 C  
HETATM    5  C   UNL     1     -10.933  13.239  68.713  1.00  0.00    -0.294 C  
BRANCH   5   6
HETATM    6  C   UNL     1     -10.774  14.413  67.854  1.00  0.00    -0.246 C  
HETATM    7  C   UNL     1     -12.409  13.638  66.081  1.00  0.00    -0.476 C  
HETATM    8  C   UNL     1     -10.515  15.629  68.378  1.00  0.00    -0.242 C  
HETATM    9  C   UNL     1     -10.370  16.870  67.548  1.00  0.00    -0.318 C  
HETATM   10  C   UNL     1     -10.371  15.924  69.858  1.00  0.00    -0.282 C  
HETATM   11  C   UNL     1      -9.984  13.054  65.876  1.00  0.00    -0.270 C  
HETATM   12  C   UNL     1     -10.971  14.154  66.350  1.00  0.00    -0.311 C  
HETATM   13  C   UNL     1     -10.739  15.384  65.427  1.00  0.00    -0.416 C  
HETATM   14  C   UNL     1     -10.520  16.758  66.043  1.00  0.00    -0.300 C  
ENDBRANCH   5   6
ENDBRANCH   2   4
BRANCH   3  15
HETATM   15  C   UNL     1     -11.624   9.561  70.990  1.00  0.00    -0.419 C  
HETATM   16  C   UNL     1     -10.619   8.706  71.242  1.00  0.00    -0.308 C  
BRANCH  16  17
HETATM   17  C   UNL     1     -10.728   7.424  71.936  1.00  0.00    -0.247 C  
HETATM   18  C   UNL     1     -10.674   5.748  69.941  1.00  0.00    -0.342 C  
HETATM   19  O   UNL     1     -10.247   4.635  69.671  1.00  0.00    -0.221 OA 
HETATM   20  C   UNL     1     -10.748   6.213  71.342  1.00  0.00    -0.308 C  
HETATM   21  C   UNL     1     -10.780   7.394  73.454  1.00  0.00    -0.407 C  
HETATM   22  O   UNL     1     -11.164   6.585  69.015  1.00  0.00    -0.312 OA 
ENDBRANCH  16  17
ENDBRANCH   3  15
TORSDOF 4
ENDMDL
MODEL       22
REMARK 921   NORMALIZED FREE ENERGY PREDICTED BY IDOCK:   -5.89 KCAL/MOL
REMARK 922        TOTAL FREE ENERGY PREDICTED BY IDOCK:   -7.96 KCAL/MOL
REMARK 923 INTER-LIGAND FREE ENERGY PREDICTED BY IDOCK:   -7.32 KCAL/MOL
REMARK 924 INTRA-LIGAND FREE ENERGY PREDICTED BY IDOCK:   -0.64 KCAL/MOL
REMARK 927      BINDING AFFINITY PREDICTED BY RF-SCORE:    0.00 PKD
ROOT
HETATM    1  C   UNL     1     -11.578  12.130  66.222  1.00  0.00    -0.424 C  
HETATM    2  C   UNL     1     -11.727  12.420  67.697  1.00  0.00    -0.412 C  
HETATM    3  C   UNL     1     -11.729  13.687  68.170  1.00  0.00    -0.392 C  
ENDROOT
BRANCH   2   4
HETATM    4  C   UNL     1     -11.868  11.320  68.649  1.00  0.00    -0.369 C  
HETATM    5  C   UNL     1     -10.967  10.920  69.560  1.00  0.00    -0.306 C  
BRANCH   5   6
HETATM    6  C   UNL     1     -11.168   9.801  70.482  1.00  0.00    -0.381 C  
HETATM    7  C   UNL     1      -8.723   9.146  70.603  1.00  0.00    -0.272 C  
HETATM    8  C   UNL     1     -12.144   9.833  71.413  1.00  0.00    -0.486 C  
HETATM    9  C   UNL     1     -12.376   8.727  72.401  1.00  0.00    -0.414 C  
HETATM   10  C   UNL     1     -13.109  10.982  71.620  1.00  0.00    -0.543 C  
HETATM   11  C   UNL     1     -10.206   8.102  68.878  1.00  0.00    -0.221 C  
HETATM   12  C   UNL     1     -10.165   8.643  70.332  1.00  0.00    -0.218 C  
HETATM   13  C   UNL     1     -10.414   7.423  71.265  1.00  0.00    -0.221 C  
HETATM   14  C   UNL     1     -11.473   7.511  72.354  1.00  0.00    -0.362 C  
ENDBRANCH   5   6
ENDBRANCH   2   4
BRANCH   3  15
HETATM   15  C   UNL     1     -11.660  14.881  67.349  1.00  0.00    -0.347 C  
HETATM   16  C   UNL     1     -10.539  15.595  67.153  1.00  0.00    -0.308 C  
BRANCH  16  17
HETATM   17  C   UNL     1     -10.428  16.838  66.390  1.00  0.00    -0.269 C  
HETATM   18  C   UNL     1      -9.633  18.504  68.229  1.00  0.00    -0.343 C  
HETATM   19  O   UNL     1      -8.899  19.475  68.352  1.00  0.00    -0.336 OA 
HETATM   20  C   UNL     1     -10.045  18.030  66.892  1.00  0.00    -0.350 C  
HETATM   21  C   UNL     1     -10.711  16.830  64.898  1.00  0.00    -0.037 C  
HETATM   22  O   UNL     1     -10.166  17.857  69.274  1.00  0.00    -0.305 OA 
ENDBRANCH  16  17
ENDBRANCH   3  15
TORSDOF 4
ENDMDL
MODEL       23
REMARK 921   NORMALIZED FREE ENERGY PREDICTED BY IDOCK:   -5.87 KCAL/MOL
REMARK 922        TOTAL FREE ENERGY PREDICTED BY IDOCK:   -7.93 KCAL/MOL
REMARK 923 INTER-LIGAND FREE ENERGY PREDICTED BY IDOCK:   -7.46 KCAL/MOL
REMARK 924 INTRA-LIGAND FREE ENERGY PREDICTED BY IDOCK:   -0.47 KCAL/MOL
REMARK 927      BINDING AFFINITY PREDICTED BY RF-SCORE:    0.00 PKD
ROOT
HETATM    1  C   UNL     1     -12.727  15.391  70.901  1.00  0.00    -0.520 C  
HETATM    2  C   UNL     1     -11.793  14.525  70.088  1.00  0.00    -0.371 C  
HETATM    3  C   UNL     1     -11.127  15.017  69.018  1.00  0.00    -0.270 C  
ENDROOT
BRANCH   2   4
HETATM    4  C   UNL     1     -11.595  13.123  70.449  1.00  0.00     0.018 C  
HETATM    5  C   UNL     1     -11.768  12.053  69.656  1.00  0.00    -0.405 C  
BRANCH   5   6
HETATM    6  C   UNL     1     -11.559  10.668  70.082  1.00  0.00    -0.414 C  
HETATM    7  C   UNL     1      -9.108  10.586  69.447  1.00  0.00    -0.123 C  
HETATM    8  C   UNL     1     -12.243  10.151  71.123  1.00  0.00    -0.490 C  
HETATM    9  C   UNL     1     -12.049   8.747  71.620  1.00  0.00    -0.401 C  
HETATM   10  C   UNL     1     -13.262  10.903  71.955  1.00  0.00    -0.508 C  
HETATM   11  C   UNL     1     -10.847   9.903  67.782  1.00  0.00    -0.321 C  
HETATM   12  C   UNL     1     -10.488   9.895  69.292  1.00  0.00    -0.240 C  
HETATM   13  C   UNL     1     -10.309   8.404  69.697  1.00  0.00    -0.218 C  
HETATM   14  C   UNL     1     -11.037   7.863  70.919  1.00  0.00    -0.268 C  
ENDBRANCH   5   6
ENDBRANCH   2   4
BRANCH   3  15
HETATM   15  C   UNL     1     -11.172  16.397  68.573  1.00  0.00    -0.334 C  
HETATM   16  C   UNL     1     -10.192  17.289  68.791  1.00  0.00    -0.353 C  
BRANCH  16  17
HETATM   17  C   UNL     1     -10.215  18.704  68.422  1.00  0.00    -0.415 C  
HETATM   18  C   UNL     1     -10.458  18.561  65.832  1.00  0.00    -0.347 C  
HETATM   19  O   UNL     1     -11.002  19.155  64.913  1.00  0.00    -0.317 OA 
HETATM   20  C   UNL     1     -10.326  19.182  67.166  1.00  0.00    -0.511 C  
HETATM   21  C   UNL     1     -10.157  19.764  69.509  1.00  0.00    -0.104 C  
HETATM   22  O   UNL     1      -9.887  17.356  65.684  1.00  0.00    -0.544 OA 
ENDBRANCH  16  17
ENDBRANCH   3  15
TORSDOF 4
ENDMDL
MODEL       24
REMARK 921   NORMALIZED FREE ENERGY PREDICTED BY IDOCK:   -5.85 KCAL/MOL
REMARK 922        TOTAL FREE ENERGY PREDICTED BY IDOCK:   -7.91 KCAL/MOL
REMARK 923 INTER-LIGAND FREE ENERGY PREDICTED BY IDOCK:   -7.26 KCAL/MOL
REMARK 924 INTRA-LIGAND FREE ENERGY PREDICTED BY IDOCK:   -0.65 KCAL/MOL
REMARK 927      BINDING AFFINITY PREDICTED BY RF-SCORE:    0.00 PKD
ROOT
HETATM    1  C   UNL     1      -9.758  10.801  68.396  1.00  0.00    -0.179 C  
HETATM    2  C   UNL     1     -10.740  10.191  69.370  1.00  0.00    -0.266 C  
HETATM    3  C   UNL     1     -11.720  10.929  69.939  1.00  0.00    -0.418 C  
ENDROOT
BRANCH   2   4
HETATM    4  C   UNL     1     -10.640   8.775  69.719  1.00  0.00    -0.227 C  
HETATM    5  C   UNL     1      -9.929   8.240  70.724  1.00  0.00    -0.217 C  
BRANCH   5   6
HETATM    6  C   UNL     1      -9.864   6.807  71.017  1.00  0.00    -0.192 C  
HETATM    7  C   UNL     1     -12.276   6.606  71.767  1.00  0.00    -0.400 C  
HETATM    8  C   UNL     1      -9.066   5.987  70.305  1.00  0.00    -0.159 C  
HETATM    9  C   UNL     1      -8.981   4.507  70.544  1.00  0.00    -0.155 C  
HETATM   10  C   UNL     1      -8.179   6.420  69.155  1.00  0.00    -0.111 C  
HETATM   11  C   UNL     1     -10.492   7.117  73.446  1.00  0.00    -0.410 C  
HETATM   12  C   UNL     1     -10.797   6.328  72.144  1.00  0.00    -0.281 C  
HETATM   13  C   UNL     1     -10.685   4.819  72.504  1.00  0.00    -0.240 C  
HETATM   14  C   UNL     1      -9.834   3.900  71.641  1.00  0.00    -0.247 C  
ENDBRANCH   5   6
ENDBRANCH   2   4
BRANCH   3  15
HETATM   15  C   UNL     1     -11.984  12.326  69.648  1.00  0.00    -0.347 C  
HETATM   16  C   UNL     1     -12.054  13.288  70.582  1.00  0.00    -0.361 C  
BRANCH  16  17
HETATM   17  C   UNL     1     -12.381  14.695  70.350  1.00  0.00    -0.399 C  
HETATM   18  C   UNL     1     -13.718  15.279  72.509  1.00  0.00    -0.526 C  
HETATM   19  O   UNL     1     -13.884  16.215  73.278  1.00  0.00    -0.559 OA 
HETATM   20  C   UNL     1     -13.083  15.482  71.191  1.00  0.00    -0.573 C  
HETATM   21  C   UNL     1     -11.871  15.387  69.097  1.00  0.00    -0.357 C  
HETATM   22  O   UNL     1     -14.156  14.038  72.767  1.00  0.00    -0.636 OA 
ENDBRANCH  16  17
ENDBRANCH   3  15
TORSDOF 4
ENDMDL
MODEL       25
REMARK 921   NORMALIZED FREE ENERGY PREDICTED BY IDOCK:   -5.85 KCAL/MOL
REMARK 922        TOTAL FREE ENERGY PREDICTED BY IDOCK:   -7.91 KCAL/MOL
REMARK 923 INTER-LIGAND FREE ENERGY PREDICTED BY IDOCK:   -7.46 KCAL/MOL
REMARK 924 INTRA-LIGAND FREE ENERGY PREDICTED BY IDOCK:   -0.44 KCAL/MOL
REMARK 927      BINDING AFFINITY PREDICTED BY RF-SCORE:    0.00 PKD
ROOT
HETATM    1  C   UNL     1     -12.724  12.997  71.428  1.00  0.00    -0.375 C  
HETATM    2  C   UNL     1     -12.150  12.546  70.105  1.00  0.00    -0.368 C  
HETATM    3  C   UNL     1     -11.694  11.286  69.927  1.00  0.00    -0.430 C  
ENDROOT
BRANCH   2   4
HETATM    4  C   UNL     1     -12.075  13.480  68.983  1.00  0.00    -0.330 C  
HETATM    5  C   UNL     1     -11.345  13.342  67.865  1.00  0.00    -0.322 C  
BRANCH   5   6
HETATM    6  C   UNL     1     -11.308  14.321  66.778  1.00  0.00    -0.357 C  
HETATM    7  C   UNL     1      -9.039  15.273  67.387  1.00  0.00    -0.201 C  
HETATM    8  C   UNL     1     -11.893  14.064  65.590  1.00  0.00    -0.384 C  
HETATM    9  C   UNL     1     -11.862  15.019  64.433  1.00  0.00    -0.349 C  
HETATM   10  C   UNL     1     -12.624  12.784  65.241  1.00  0.00    -0.460 C  
HETATM   11  C   UNL     1     -11.113  16.291  68.349  1.00  0.00    -0.362 C  
HETATM   12  C   UNL     1     -10.523  15.610  67.085  1.00  0.00    -0.303 C  
HETATM   13  C   UNL     1     -10.536  16.681  65.957  1.00  0.00    -0.238 C  
HETATM   14  C   UNL     1     -11.139  16.341  64.603  1.00  0.00    -0.259 C  
ENDBRANCH   5   6
ENDBRANCH   2   4
BRANCH   3  15
HETATM   15  C   UNL     1     -11.755  10.231  70.922  1.00  0.00    -0.472 C  
HETATM   16  C   UNL     1     -11.287   8.987  70.729  1.00  0.00    -0.329 C  
BRANCH  16  17
HETATM   17  C   UNL     1     -11.382   7.872  71.670  1.00  0.00    -0.299 C  
HETATM   18  C   UNL     1      -9.186   8.165  73.042  1.00  0.00    -0.273 C  
HETATM   19  O   UNL     1      -8.776   8.026  74.186  1.00  0.00    -0.258 OA 
HETATM   20  C   UNL     1     -10.471   7.572  72.619  1.00  0.00    -0.322 C  
HETATM   21  C   UNL     1     -12.609   6.976  71.652  1.00  0.00    -0.419 C  
HETATM   22  O   UNL     1      -8.482   8.789  72.087  1.00  0.00    -0.351 OA 
ENDBRANCH  16  17
ENDBRANCH   3  15
TORSDOF 4
ENDMDL
MODEL       26
REMARK 921   NORMALIZED FREE ENERGY PREDICTED BY IDOCK:   -5.84 KCAL/MOL
REMARK 922        TOTAL FREE ENERGY PREDICTED BY IDOCK:   -7.90 KCAL/MOL
REMARK 923 INTER-LIGAND FREE ENERGY PREDICTED BY IDOCK:   -7.31 KCAL/MOL
REMARK 924 INTRA-LIGAND FREE ENERGY PREDICTED BY IDOCK:   -0.59 KCAL/MOL
REMARK 927      BINDING AFFINITY PREDICTED BY RF-SCORE:    0.00 PKD
ROOT
HETATM    1  C   UNL     1     -13.087  10.505  71.810  1.00  0.00    -0.570 C  
HETATM    2  C   UNL     1     -11.853  10.202  70.993  1.00  0.00    -0.475 C  
HETATM    3  C   UNL     1     -11.421  11.047  70.029  1.00  0.00    -0.398 C  
ENDROOT
BRANCH   2   4
HETATM    4  C   UNL     1     -11.099   8.974  71.234  1.00  0.00    -0.382 C  
HETATM    5  C   UNL     1     -11.108   8.226  72.349  1.00  0.00    -0.447 C  
BRANCH   5   6
HETATM    6  C   UNL     1     -10.321   7.006  72.530  1.00  0.00    -0.230 C  
HETATM    7  C   UNL     1     -11.124   5.882  70.406  1.00  0.00    -0.353 C  
HETATM    8  C   UNL     1      -9.117   7.038  73.138  1.00  0.00    -0.161 C  
HETATM    9  C   UNL     1      -8.256   5.823  73.327  1.00  0.00    -0.117 C  
HETATM   10  C   UNL     1      -8.451   8.287  73.680  1.00  0.00    -0.266 C  
HETATM   11  C   UNL     1     -12.357   5.509  72.552  1.00  0.00     0.232 C  
HETATM   12  C   UNL     1     -10.948   5.730  71.940  1.00  0.00    -0.318 C  
HETATM   13  C   UNL     1     -10.147   4.420  72.187  1.00  0.00    -0.262 C  
HETATM   14  C   UNL     1      -8.761   4.490  72.810  1.00  0.00    -0.115 C  
ENDBRANCH   5   6
ENDBRANCH   2   4
BRANCH   3  15
HETATM   15  C   UNL     1     -12.024  12.329  69.715  1.00  0.00    -0.365 C  
HETATM   16  C   UNL     1     -11.702  13.481  70.325  1.00  0.00    -0.244 C  
BRANCH  16  17
HETATM   17  C   UNL     1     -12.323  14.784  70.093  1.00  0.00    -0.381 C  
HETATM   18  C   UNL     1     -13.775  15.057  72.240  1.00  0.00    -0.468 C  
HETATM   19  O   UNL     1     -14.147  15.932  73.008  1.00  0.00    -0.518 OA 
HETATM   20  C   UNL     1     -13.186  15.398  70.928  1.00  0.00    -0.512 C  
HETATM   21  C   UNL     1     -11.964  15.575  68.847  1.00  0.00    -0.306 C  
HETATM   22  O   UNL     1     -13.937  13.749  72.491  1.00  0.00    -0.655 OA 
ENDBRANCH  16  17
ENDBRANCH   3  15
TORSDOF 4
ENDMDL
MODEL       27
REMARK 921   NORMALIZED FREE ENERGY PREDICTED BY IDOCK:   -5.83 KCAL/MOL
REMARK 922        TOTAL FREE ENERGY PREDICTED BY IDOCK:   -7.88 KCAL/MOL
REMARK 923 INTER-LIGAND FREE ENERGY PREDICTED BY IDOCK:   -7.30 KCAL/MOL
REMARK 924 INTRA-LIGAND FREE ENERGY PREDICTED BY IDOCK:   -0.58 KCAL/MOL
REMARK 927      BINDING AFFINITY PREDICTED BY RF-SCORE:    0.00 PKD
ROOT
HETATM    1  C   UNL     1     -12.672  12.556  71.161  1.00  0.00    -0.340 C  
HETATM    2  C   UNL     1     -11.988  12.214  69.858  1.00  0.00    -0.380 C  
HETATM    3  C   UNL     1     -11.330  11.044  69.694  1.00  0.00    -0.363 C  
ENDROOT
BRANCH   2   4
HETATM    4  C   UNL     1     -12.023  13.157  68.743  1.00  0.00    -0.316 C  
HETATM    5  C   UNL     1     -11.138  13.254  67.738  1.00  0.00    -0.289 C  
BRANCH   5   6
HETATM    6  C   UNL     1     -11.227  14.229  66.651  1.00  0.00    -0.337 C  
HETATM    7  C   UNL     1      -8.993  15.326  67.127  1.00  0.00    -0.227 C  
HETATM    8  C   UNL     1     -11.862  13.931  65.499  1.00  0.00    -0.372 C  
HETATM    9  C   UNL     1     -11.960  14.882  64.342  1.00  0.00    -0.408 C  
HETATM   10  C   UNL     1     -12.528  12.605  65.192  1.00  0.00    -0.531 C  
HETATM   11  C   UNL     1     -11.068  16.213  68.208  1.00  0.00    -0.348 C  
HETATM   12  C   UNL     1     -10.510  15.567  66.912  1.00  0.00    -0.301 C  
HETATM   13  C   UNL     1     -10.657  16.630  65.787  1.00  0.00    -0.278 C  
HETATM   14  C   UNL     1     -11.314  16.248  64.470  1.00  0.00    -0.209 C  
ENDBRANCH   5   6
ENDBRANCH   2   4
BRANCH   3  15
HETATM   15  C   UNL     1     -11.258   9.984  70.682  1.00  0.00    -0.425 C  
HETATM   16  C   UNL     1     -11.013   8.697  70.388  1.00  0.00    -0.256 C  
BRANCH  16  17
HETATM   17  C   UNL     1     -10.994   7.583  71.335  1.00  0.00    -0.254 C  
HETATM   18  C   UNL     1     -10.610   5.556  69.743  1.00  0.00    -0.318 C  
HETATM   19  O   UNL     1     -10.028   4.482  69.727  1.00  0.00    -0.223 OA 
HETATM   20  C   UNL     1     -10.823   6.285  71.011  1.00  0.00    -0.326 C  
HETATM   21  C   UNL     1     -11.126   7.860  72.823  1.00  0.00    -0.462 C  
HETATM   22  O   UNL     1     -11.153   6.107  68.648  1.00  0.00    -0.339 OA 
ENDBRANCH  16  17
ENDBRANCH   3  15
TORSDOF 4
ENDMDL
MODEL       28
REMARK 921   NORMALIZED FREE ENERGY PREDICTED BY IDOCK:   -5.81 KCAL/MOL
REMARK 922        TOTAL FREE ENERGY PREDICTED BY IDOCK:   -7.86 KCAL/MOL
REMARK 923 INTER-LIGAND FREE ENERGY PREDICTED BY IDOCK:   -7.20 KCAL/MOL
REMARK 924 INTRA-LIGAND FREE ENERGY PREDICTED BY IDOCK:   -0.66 KCAL/MOL
REMARK 927      BINDING AFFINITY PREDICTED BY RF-SCORE:    0.00 PKD
ROOT
HETATM    1  C   UNL     1     -12.271  11.189  70.782  1.00  0.00    -0.484 C  
HETATM    2  C   UNL     1     -11.340  10.493  69.816  1.00  0.00    -0.367 C  
HETATM    3  C   UNL     1     -10.465   9.551  70.235  1.00  0.00    -0.319 C  
ENDROOT
BRANCH   2   4
HETATM    4  C   UNL     1     -11.370  10.834  68.396  1.00  0.00    -0.367 C  
HETATM    5  C   UNL     1     -10.406  11.451  67.693  1.00  0.00    -0.209 C  
BRANCH   5   6
HETATM    6  C   UNL     1     -10.502  11.773  66.269  1.00  0.00    -0.281 C  
HETATM    7  C   UNL     1      -9.742  14.178  66.513  1.00  0.00    -0.307 C  
HETATM    8  C   UNL     1     -10.261  10.838  65.327  1.00  0.00    -0.351 C  
HETATM    9  C   UNL     1     -10.317  11.120  63.853  1.00  0.00    -0.441 C  
HETATM   10  C   UNL     1      -9.869   9.402  65.608  1.00  0.00    -0.294 C  
HETATM   11  C   UNL     1     -12.180  13.626  66.639  1.00  0.00    -0.437 C  
HETATM   12  C   UNL     1     -10.843  13.240  65.951  1.00  0.00    -0.289 C  
HETATM   13  C   UNL     1     -11.010  13.572  64.441  1.00  0.00    -0.399 C  
HETATM   14  C   UNL     1     -10.663  12.523  63.396  1.00  0.00    -0.321 C  
ENDBRANCH   5   6
ENDBRANCH   2   4
BRANCH   3  15
HETATM   15  C   UNL     1     -10.358   9.061  71.597  1.00  0.00    -0.420 C  
HETATM   16  C   UNL     1      -9.656   7.973  71.953  1.00  0.00    -0.242 C  
BRANCH  16  17
HETATM   17  C   UNL     1      -9.569   7.402  73.296  1.00  0.00    -0.281 C  
HETATM   18  C   UNL     1     -11.326   5.482  73.157  1.00  0.00    -0.225 C  
HETATM   19  O   UNL     1     -11.499   4.346  73.573  1.00  0.00    -0.288 OA 
HETATM   20  C   UNL     1     -10.294   6.358  73.749  1.00  0.00    -0.326 C  
HETATM   21  C   UNL     1      -8.562   7.962  74.286  1.00  0.00    -0.247 C  
HETATM   22  O   UNL     1     -12.091   6.034  72.204  1.00  0.00    -0.304 OA 
ENDBRANCH  16  17
ENDBRANCH   3  15
TORSDOF 4
ENDMDL
MODEL       29
REMARK 921   NORMALIZED FREE ENERGY PREDICTED BY IDOCK:   -5.80 KCAL/MOL
REMARK 922        TOTAL FREE ENERGY PREDICTED BY IDOCK:   -7.85 KCAL/MOL
REMARK 923 INTER-LIGAND FREE ENERGY PREDICTED BY IDOCK:   -7.25 KCAL/MOL
REMARK 924 INTRA-LIGAND FREE ENERGY PREDICTED BY IDOCK:   -0.61 KCAL/MOL
REMARK 927      BINDING AFFINITY PREDICTED BY RF-SCORE:    0.00 PKD
ROOT
HETATM    1  C   UNL     1     -13.144  11.184  71.786  1.00  0.00    -0.536 C  
HETATM    2  C   UNL     1     -12.073  10.385  71.081  1.00  0.00    -0.487 C  
HETATM    3  C   UNL     1     -11.602  10.753  69.868  1.00  0.00    -0.410 C  
ENDROOT
BRANCH   2   4
HETATM    4  C   UNL     1     -11.525   9.183  71.707  1.00  0.00    -0.452 C  
HETATM    5  C   UNL     1     -10.520   8.421  71.248  1.00  0.00    -0.273 C  
BRANCH   5   6
HETATM    6  C   UNL     1     -10.021   7.220  71.921  1.00  0.00    -0.184 C  
HETATM    7  C   UNL     1     -10.679   5.616  70.074  1.00  0.00    -0.390 C  
HETATM    8  C   UNL     1      -8.945   7.275  72.733  1.00  0.00    -0.166 C  
HETATM    9  C   UNL     1      -8.375   6.072  73.427  1.00  0.00    -0.117 C  
HETATM   10  C   UNL     1      -8.145   8.526  73.033  1.00  0.00    -0.083 C  
HETATM   11  C   UNL     1     -12.284   6.096  71.933  1.00  0.00    -0.156 C  
HETATM   12  C   UNL     1     -10.780   5.922  71.591  1.00  0.00    -0.308 C  
HETATM   13  C   UNL     1     -10.296   4.657  72.354  1.00  0.00    -0.262 C  
HETATM   14  C   UNL     1      -9.038   4.726  73.207  1.00  0.00    -0.117 C  
ENDBRANCH   5   6
ENDBRANCH   2   4
BRANCH   3  15
HETATM   15  C   UNL     1     -12.000  11.949  69.149  1.00  0.00    -0.336 C  
HETATM   16  C   UNL     1     -11.140  12.877  68.700  1.00  0.00    -0.307 C  
BRANCH  16  17
HETATM   17  C   UNL     1     -11.493  14.128  68.029  1.00  0.00    -0.342 C  
HETATM   18  C   UNL     1     -12.264  13.264  65.694  1.00  0.00    -0.462 C  
HETATM   19  O   UNL     1     -13.091  13.522  64.832  1.00  0.00    -0.718 OA 
HETATM   20  C   UNL     1     -11.958  14.233  66.766  1.00  0.00    -0.462 C  
HETATM   21  C   UNL     1     -11.389  15.441  68.785  1.00  0.00    -0.328 C  
HETATM   22  O   UNL     1     -11.535  12.138  65.691  1.00  0.00    -0.347 OA 
ENDBRANCH  16  17
ENDBRANCH   3  15
TORSDOF 4
ENDMDL
MODEL       30
REMARK 921   NORMALIZED FREE ENERGY PREDICTED BY IDOCK:   -5.71 KCAL/MOL
REMARK 922        TOTAL FREE ENERGY PREDICTED BY IDOCK:   -7.74 KCAL/MOL
REMARK 923 INTER-LIGAND FREE ENERGY PREDICTED BY IDOCK:   -7.11 KCAL/MOL
REMARK 924 INTRA-LIGAND FREE ENERGY PREDICTED BY IDOCK:   -0.63 KCAL/MOL
REMARK 927      BINDING AFFINITY PREDICTED BY RF-SCORE:    0.00 PKD
ROOT
HETATM    1  C   UNL     1      -9.563   8.671  66.244  1.00  0.00    -0.322 C  
HETATM    2  C   UNL     1     -10.036   9.440  67.456  1.00  0.00    -0.250 C  
HETATM    3  C   UNL     1     -10.538  10.691  67.345  1.00  0.00    -0.304 C  
ENDROOT
BRANCH   2   4
HETATM    4  C   UNL     1      -9.953   8.836  68.784  1.00  0.00    -0.197 C  
HETATM    5  C   UNL     1     -10.673   7.802  69.246  1.00  0.00    -0.156 C  
BRANCH   5   6
HETATM    6  C   UNL     1     -10.548   7.247  70.595  1.00  0.00    -0.240 C  
HETATM    7  C   UNL     1      -8.181   6.395  70.287  1.00  0.00    -0.125 C  
HETATM    8  C   UNL     1     -11.175   7.818  71.643  1.00  0.00    -0.286 C  
HETATM    9  C   UNL     1     -11.060   7.308  73.050  1.00  0.00    -0.361 C  
HETATM   10  C   UNL     1     -12.045   9.056  71.566  1.00  0.00    -0.410 C  
HETATM   11  C   UNL     1     -10.119   4.901  69.759  1.00  0.00    -0.319 C  
HETATM   12  C   UNL     1      -9.625   6.020  70.714  1.00  0.00    -0.197 C  
HETATM   13  C   UNL     1      -9.540   5.387  72.132  1.00  0.00    -0.181 C  
HETATM   14  C   UNL     1     -10.196   6.089  73.311  1.00  0.00    -0.218 C  
ENDBRANCH   5   6
ENDBRANCH   2   4
BRANCH   3  15
HETATM   15  C   UNL     1     -10.740  11.399  66.095  1.00  0.00    -0.320 C  
HETATM   16  C   UNL     1     -11.764  12.236  65.861  1.00  0.00    -0.451 C  
BRANCH  16  17
HETATM   17  C   UNL     1     -12.049  12.922  64.602  1.00  0.00    -0.474 C  
HETATM   18  C   UNL     1     -11.215  15.335  65.126  1.00  0.00    -0.370 C  
HETATM   19  O   UNL     1     -10.668  16.273  64.567  1.00  0.00    -0.619 OA 
HETATM   20  C   UNL     1     -11.800  14.223  64.348  1.00  0.00    -0.444 C  
HETATM   21  C   UNL     1     -12.629  12.140  63.436  1.00  0.00    -0.584 C  
HETATM   22  O   UNL     1     -11.389  15.279  66.455  1.00  0.00    -0.284 OA 
ENDBRANCH  16  17
ENDBRANCH   3  15
TORSDOF 4
ENDMDL
MODEL       31
REMARK 921   NORMALIZED FREE ENERGY PREDICTED BY IDOCK:   -5.70 KCAL/MOL
REMARK 922        TOTAL FREE ENERGY PREDICTED BY IDOCK:   -7.73 KCAL/MOL
REMARK 923 INTER-LIGAND FREE ENERGY PREDICTED BY IDOCK:   -7.19 KCAL/MOL
REMARK 924 INTRA-LIGAND FREE ENERGY PREDICTED BY IDOCK:   -0.54 KCAL/MOL
REMARK 927      BINDING AFFINITY PREDICTED BY RF-SCORE:    0.00 PKD
ROOT
HETATM    1  C   UNL     1     -11.130  11.218  67.223  1.00  0.00    -0.367 C  
HETATM    2  C   UNL     1     -11.409  12.265  68.276  1.00  0.00    -0.339 C  
HETATM    3  C   UNL     1     -11.923  11.932  69.482  1.00  0.00    -0.355 C  
ENDROOT
BRANCH   2   4
HETATM    4  C   UNL     1     -11.127  13.672  68.002  1.00  0.00    -0.285 C  
HETATM    5  C   UNL     1     -10.099  14.396  68.474  1.00  0.00    -0.244 C  
BRANCH   5   6
HETATM    6  C   UNL     1      -9.876  15.810  68.167  1.00  0.00    -0.209 C  
HETATM    7  C   UNL     1     -10.064  15.544  65.654  1.00  0.00    -0.406 C  
HETATM    8  C   UNL     1     -10.292  16.779  69.008  1.00  0.00    -0.326 C  
HETATM    9  C   UNL     1     -10.114  18.243  68.731  1.00  0.00    -0.393 C  
HETATM   10  C   UNL     1     -11.017  16.540  70.317  1.00  0.00    -0.178 C  
HETATM   11  C   UNL     1      -7.829  15.343  66.761  1.00  0.00    -0.105 C  
HETATM   12  C   UNL     1      -9.191  16.085  66.816  1.00  0.00    -0.264 C  
HETATM   13  C   UNL     1      -8.893  17.581  66.514  1.00  0.00    -0.291 C  
HETATM   14  C   UNL     1      -9.433  18.659  67.441  1.00  0.00    -0.315 C  
ENDBRANCH   5   6
ENDBRANCH   2   4
BRANCH   3  15
HETATM   15  C   UNL     1     -12.198  10.578  69.924  1.00  0.00    -0.289 C  
HETATM   16  C   UNL     1     -12.626  10.262  71.157  1.00  0.00    -0.501 C  
BRANCH  16  17
HETATM   17  C   UNL     1     -12.856   8.912  71.672  1.00  0.00    -0.401 C  
HETATM   18  C   UNL     1     -10.485   8.284  72.554  1.00  0.00    -0.336 C  
HETATM   19  O   UNL     1      -9.967   7.661  73.469  1.00  0.00    -0.315 OA 
HETATM   20  C   UNL     1     -11.922   8.126  72.247  1.00  0.00    -0.434 C  
HETATM   21  C   UNL     1     -14.253   8.318  71.623  1.00  0.00    -0.530 C  
HETATM   22  O   UNL     1      -9.791   9.084  71.732  1.00  0.00    -0.310 OA 
ENDBRANCH  16  17
ENDBRANCH   3  15
TORSDOF 4
ENDMDL
MODEL       32
REMARK 921   NORMALIZED FREE ENERGY PREDICTED BY IDOCK:   -5.68 KCAL/MOL
REMARK 922        TOTAL FREE ENERGY PREDICTED BY IDOCK:   -7.70 KCAL/MOL
REMARK 923 INTER-LIGAND FREE ENERGY PREDICTED BY IDOCK:   -7.17 KCAL/MOL
REMARK 924 INTRA-LIGAND FREE ENERGY PREDICTED BY IDOCK:   -0.53 KCAL/MOL
REMARK 927      BINDING AFFINITY PREDICTED BY RF-SCORE:    0.00 PKD
ROOT
HETATM    1  C   UNL     1      -9.192   8.474  66.066  1.00  0.00    -0.262 C  
HETATM    2  C   UNL     1      -9.873   9.093  67.265  1.00  0.00    -0.244 C  
HETATM    3  C   UNL     1     -10.535  10.269  67.172  1.00  0.00    -0.311 C  
ENDROOT
BRANCH   2   4
HETATM    4  C   UNL     1      -9.823   8.422  68.562  1.00  0.00    -0.186 C  
HETATM    5  C   UNL     1     -10.763   7.627  69.097  1.00  0.00    -0.153 C  
BRANCH   5   6
HETATM    6  C   UNL     1     -10.655   6.988  70.409  1.00  0.00    -0.244 C  
HETATM    7  C   UNL     1     -12.586   8.253  71.454  1.00  0.00    -0.295 C  
HETATM    8  C   UNL     1     -10.238   5.711  70.529  1.00  0.00    -0.297 C  
HETATM    9  C   UNL     1     -10.135   4.998  71.846  1.00  0.00    -0.257 C  
HETATM   10  C   UNL     1      -9.855   4.810  69.373  1.00  0.00    -0.282 C  
HETATM   11  C   UNL     1     -10.265   9.175  71.615  1.00  0.00    -0.372 C  
HETATM   12  C   UNL     1     -11.092   7.861  71.599  1.00  0.00    -0.285 C  
HETATM   13  C   UNL     1     -10.917   7.211  73.001  1.00  0.00    -0.357 C  
HETATM   14  C   UNL     1     -10.515   5.748  73.108  1.00  0.00    -0.251 C  
ENDBRANCH   5   6
ENDBRANCH   2   4
BRANCH   3  15
HETATM   15  C   UNL     1     -10.724  11.021  65.946  1.00  0.00    -0.226 C  
HETATM   16  C   UNL     1     -11.573  12.054  65.821  1.00  0.00    -0.353 C  
BRANCH  16  17
HETATM   17  C   UNL     1     -11.849  12.803  64.596  1.00  0.00    -0.428 C  
HETATM   18  C   UNL     1     -11.104  15.205  65.278  1.00  0.00    -0.383 C  
HETATM   19  O   UNL     1     -10.572  16.190  64.787  1.00  0.00    -0.630 OA 
HETATM   20  C   UNL     1     -11.635  14.124  64.423  1.00  0.00    -0.377 C  
HETATM   21  C   UNL     1     -12.377  12.073  63.373  1.00  0.00    -0.635 C  
HETATM   22  O   UNL     1     -11.307  15.068  66.596  1.00  0.00    -0.344 OA 
ENDBRANCH  16  17
ENDBRANCH   3  15
TORSDOF 4
ENDMDL
MODEL       33
REMARK 921   NORMALIZED FREE ENERGY PREDICTED BY IDOCK:   -5.63 KCAL/MOL
REMARK 922        TOTAL FREE ENERGY PREDICTED BY IDOCK:   -7.63 KCAL/MOL
REMARK 923 INTER-LIGAND FREE ENERGY PREDICTED BY IDOCK:   -6.92 KCAL/MOL
REMARK 924 INTRA-LIGAND FREE ENERGY PREDICTED BY IDOCK:   -0.71 KCAL/MOL
REMARK 927      BINDING AFFINITY PREDICTED BY RF-SCORE:    0.00 PKD
ROOT
HETATM    1  C   UNL     1     -11.917  12.955  69.779  1.00  0.00    -0.365 C  
HETATM    2  C   UNL     1     -11.461  11.573  69.374  1.00  0.00    -0.376 C  
HETATM    3  C   UNL     1     -11.433  11.191  68.077  1.00  0.00    -0.366 C  
ENDROOT
BRANCH   2   4
HETATM    4  C   UNL     1     -11.042  10.613  70.394  1.00  0.00    -0.253 C  
HETATM    5  C   UNL     1     -10.889   9.288  70.240  1.00  0.00    -0.286 C  
BRANCH   5   6
HETATM    6  C   UNL     1     -10.472   8.377  71.307  1.00  0.00    -0.273 C  
HETATM    7  C   UNL     1      -8.005   8.934  71.150  1.00  0.00    -0.181 C  
HETATM    8  C   UNL     1     -11.277   8.122  72.358  1.00  0.00    -0.452 C  
HETATM    9  C   UNL     1     -10.891   7.219  73.493  1.00  0.00    -0.290 C  
HETATM   10  C   UNL     1     -12.652   8.725  72.566  1.00  0.00    -0.375 C  
HETATM   11  C   UNL     1      -8.943   7.052  69.793  1.00  0.00    -0.141 C  
HETATM   12  C   UNL     1      -9.056   7.793  71.152  1.00  0.00    -0.152 C  
HETATM   13  C   UNL     1      -8.633   6.774  72.248  1.00  0.00    -0.121 C  
HETATM   14  C   UNL     1      -9.527   6.557  73.460  1.00  0.00    -0.161 C  
ENDBRANCH   5   6
ENDBRANCH   2   4
BRANCH   3  15
HETATM   15  C   UNL     1     -11.759  12.046  66.951  1.00  0.00    -0.342 C  
HETATM   16  C   UNL     1     -10.855  12.514  66.076  1.00  0.00    -0.309 C  
BRANCH  16  17
HETATM   17  C   UNL     1     -11.119  13.428  64.965  1.00  0.00    -0.332 C  
HETATM   18  C   UNL     1     -10.397  15.712  65.991  1.00  0.00    -0.335 C  
HETATM   19  O   UNL     1      -9.865  16.759  65.652  1.00  0.00    -0.544 OA 
HETATM   20  C   UNL     1     -10.911  14.761  64.984  1.00  0.00    -0.440 C  
HETATM   21  C   UNL     1     -11.627  12.877  63.644  1.00  0.00    -0.547 C  
HETATM   22  O   UNL     1     -10.616  15.389  67.274  1.00  0.00    -0.281 OA 
ENDBRANCH  16  17
ENDBRANCH   3  15
TORSDOF 4
ENDMDL
MODEL       34
REMARK 921   NORMALIZED FREE ENERGY PREDICTED BY IDOCK:   -5.59 KCAL/MOL
REMARK 922        TOTAL FREE ENERGY PREDICTED BY IDOCK:   -7.58 KCAL/MOL
REMARK 923 INTER-LIGAND FREE ENERGY PREDICTED BY IDOCK:   -6.91 KCAL/MOL
REMARK 924 INTRA-LIGAND FREE ENERGY PREDICTED BY IDOCK:   -0.68 KCAL/MOL
REMARK 927      BINDING AFFINITY PREDICTED BY RF-SCORE:    0.00 PKD
ROOT
HETATM    1  C   UNL     1     -10.934  10.862  67.663  1.00  0.00    -0.350 C  
HETATM    2  C   UNL     1     -11.019  12.008  68.644  1.00  0.00    -0.281 C  
HETATM    3  C   UNL     1     -11.775  11.925  69.762  1.00  0.00    -0.403 C  
ENDROOT
BRANCH   2   4
HETATM    4  C   UNL     1     -10.277  13.242  68.394  1.00  0.00    -0.249 C  
HETATM    5  C   UNL     1      -9.746  13.642  67.227  1.00  0.00    -0.243 C  
BRANCH   5   6
HETATM    6  C   UNL     1      -9.005  14.890  67.043  1.00  0.00    -0.256 C  
HETATM    7  C   UNL     1     -10.901  16.407  67.768  1.00  0.00    -0.306 C  
HETATM    8  C   UNL     1      -7.673  14.945  67.249  1.00  0.00    -0.227 C  
HETATM    9  C   UNL     1      -6.868  16.203  67.102  1.00  0.00    -0.240 C  
HETATM   10  C   UNL     1      -6.812  13.777  67.685  1.00  0.00    -0.187 C  
HETATM   11  C   UNL     1     -10.648  15.800  65.353  1.00  0.00    -0.441 C  
HETATM   12  C   UNL     1      -9.862  16.109  66.655  1.00  0.00    -0.262 C  
HETATM   13  C   UNL     1      -9.071  17.422  66.395  1.00  0.00    -0.274 C  
HETATM   14  C   UNL     1      -7.582  17.479  66.702  1.00  0.00    -0.286 C  
ENDBRANCH   5   6
ENDBRANCH   2   4
BRANCH   3  15
HETATM   15  C   UNL     1     -12.518  10.750  70.179  1.00  0.00    -0.357 C  
HETATM   16  C   UNL     1     -12.182   9.980  71.227  1.00  0.00    -0.498 C  
BRANCH  16  17
HETATM   17  C   UNL     1     -12.855   8.753  71.649  1.00  0.00    -0.392 C  
HETATM   18  C   UNL     1     -11.222   6.931  70.753  1.00  0.00    -0.294 C  
HETATM   19  O   UNL     1     -10.792   5.831  71.066  1.00  0.00    -0.260 OA 
HETATM   20  C   UNL     1     -12.410   7.500  71.423  1.00  0.00    -0.374 C  
HETATM   21  C   UNL     1     -14.141   8.841  72.453  1.00  0.00    -0.485 C  
HETATM   22  O   UNL     1     -10.706   7.657  69.750  1.00  0.00    -0.243 OA 
ENDBRANCH  16  17
ENDBRANCH   3  15
TORSDOF 4
ENDMDL
MODEL       35
REMARK 921   NORMALIZED FREE ENERGY PREDICTED BY IDOCK:   -5.59 KCAL/MOL
REMARK 922        TOTAL FREE ENERGY PREDICTED BY IDOCK:   -7.58 KCAL/MOL
REMARK 923 INTER-LIGAND FREE ENERGY PREDICTED BY IDOCK:   -6.94 KCAL/MOL
REMARK 924 INTRA-LIGAND FREE ENERGY PREDICTED BY IDOCK:   -0.64 KCAL/MOL
REMARK 927      BINDING AFFINITY PREDICTED BY RF-SCORE:    0.00 PKD
ROOT
HETATM    1  C   UNL     1     -10.303   8.831  66.732  1.00  0.00    -0.328 C  
HETATM    2  C   UNL     1     -10.610  10.105  67.484  1.00  0.00    -0.327 C  
HETATM    3  C   UNL     1     -10.894  10.092  68.806  1.00  0.00    -0.259 C  
ENDROOT
BRANCH   2   4
HETATM    4  C   UNL     1     -10.609  11.387  66.782  1.00  0.00    -0.298 C  
HETATM    5  C   UNL     1     -11.526  12.362  66.881  1.00  0.00    -0.423 C  
BRANCH   5   6
HETATM    6  C   UNL     1     -11.471  13.625  66.143  1.00  0.00    -0.342 C  
HETATM    7  C   UNL     1      -9.285  14.405  67.161  1.00  0.00    -0.230 C  
HETATM    8  C   UNL     1     -11.976  13.724  64.896  1.00  0.00    -0.412 C  
HETATM    9  C   UNL     1     -11.922  14.985  64.084  1.00  0.00    -0.221 C  
HETATM   10  C   UNL     1     -12.628  12.591  64.130  1.00  0.00    -0.474 C  
HETATM   11  C   UNL     1     -11.454  15.032  68.242  1.00  0.00    -0.349 C  
HETATM   12  C   UNL     1     -10.764  14.780  66.875  1.00  0.00    -0.308 C  
HETATM   13  C   UNL     1     -10.760  16.141  66.122  1.00  0.00    -0.222 C  
HETATM   14  C   UNL     1     -11.269  16.212  64.691  1.00  0.00    -0.307 C  
ENDBRANCH   5   6
ENDBRANCH   2   4
BRANCH   3  15
HETATM   15  C   UNL     1     -10.874   8.912  69.649  1.00  0.00    -0.186 C  
HETATM   16  C   UNL     1     -11.374   8.870  70.895  1.00  0.00    -0.336 C  
BRANCH  16  17
HETATM   17  C   UNL     1     -11.323   7.729  71.808  1.00  0.00    -0.302 C  
HETATM   18  C   UNL     1      -9.112   8.201  73.104  1.00  0.00    -0.265 C  
HETATM   19  O   UNL     1      -8.645   8.076  74.227  1.00  0.00    -0.247 OA 
HETATM   20  C   UNL     1     -10.350   7.496  72.714  1.00  0.00    -0.331 C  
HETATM   21  C   UNL     1     -12.457   6.718  71.811  1.00  0.00    -0.394 C  
HETATM   22  O   UNL     1      -8.511   8.914  72.140  1.00  0.00    -0.382 OA 
ENDBRANCH  16  17
ENDBRANCH   3  15
TORSDOF 4
ENDMDL
MODEL       36
REMARK 921   NORMALIZED FREE ENERGY PREDICTED BY IDOCK:   -5.55 KCAL/MOL
REMARK 922        TOTAL FREE ENERGY PREDICTED BY IDOCK:   -7.54 KCAL/MOL
REMARK 923 INTER-LIGAND FREE ENERGY PREDICTED BY IDOCK:   -6.99 KCAL/MOL
REMARK 924 INTRA-LIGAND FREE ENERGY PREDICTED BY IDOCK:   -0.55 KCAL/MOL
REMARK 927      BINDING AFFINITY PREDICTED BY RF-SCORE:    0.00 PKD
ROOT
HETATM    1  C   UNL     1      -8.525  10.658  68.851  1.00  0.00    -0.154 C  
HETATM    2  C   UNL     1      -9.842  10.309  69.506  1.00  0.00    -0.244 C  
HETATM    3  C   UNL     1     -10.922  11.114  69.389  1.00  0.00    -0.298 C  
ENDROOT
BRANCH   2   4
HETATM    4  C   UNL     1      -9.967   9.081  70.289  1.00  0.00    -0.229 C  
HETATM    5  C   UNL     1     -10.548   8.947  71.491  1.00  0.00    -0.399 C  
BRANCH   5   6
HETATM    6  C   UNL     1     -10.634   7.686  72.229  1.00  0.00    -0.298 C  
HETATM    7  C   UNL     1     -11.445   6.309  70.262  1.00  0.00    -0.428 C  
HETATM    8  C   UNL     1      -9.782   7.410  73.237  1.00  0.00    -0.300 C  
HETATM    9  C   UNL     1      -9.807   6.123  74.009  1.00  0.00    -0.231 C  
HETATM   10  C   UNL     1      -8.669   8.325  73.709  1.00  0.00    -0.221 C  
HETATM   11  C   UNL     1     -13.105   7.409  71.778  1.00  0.00    -0.363 C  
HETATM   12  C   UNL     1     -11.719   6.712  71.735  1.00  0.00    -0.363 C  
HETATM   13  C   UNL     1     -11.858   5.399  72.557  1.00  0.00    -0.110 C  
HETATM   14  C   UNL     1     -10.842   5.077  73.642  1.00  0.00    -0.369 C  
ENDBRANCH   5   6
ENDBRANCH   2   4
BRANCH   3  15
HETATM   15  C   UNL     1     -10.972  12.330  68.599  1.00  0.00    -0.276 C  
HETATM   16  C   UNL     1     -11.589  12.429  67.410  1.00  0.00    -0.433 C  
BRANCH  16  17
HETATM   17  C   UNL     1     -11.615  13.608  66.545  1.00  0.00    -0.392 C  
HETATM   18  C   UNL     1     -11.796  12.516  64.186  1.00  0.00    -0.411 C  
HETATM   19  O   UNL     1     -12.323  12.722  63.103  1.00  0.00    -0.580 OA 
HETATM   20  C   UNL     1     -11.701  13.587  65.199  1.00  0.00    -0.341 C  
HETATM   21  C   UNL     1     -11.592  14.994  67.166  1.00  0.00    -0.271 C  
HETATM   22  O   UNL     1     -11.212  11.352  64.503  1.00  0.00    -0.283 OA 
ENDBRANCH  16  17
ENDBRANCH   3  15
TORSDOF 4
ENDMDL
MODEL       37
REMARK 921   NORMALIZED FREE ENERGY PREDICTED BY IDOCK:   -5.54 KCAL/MOL
REMARK 922        TOTAL FREE ENERGY PREDICTED BY IDOCK:   -7.53 KCAL/MOL
REMARK 923 INTER-LIGAND FREE ENERGY PREDICTED BY IDOCK:   -6.96 KCAL/MOL
REMARK 924 INTRA-LIGAND FREE ENERGY PREDICTED BY IDOCK:   -0.57 KCAL/MOL
REMARK 927      BINDING AFFINITY PREDICTED BY RF-SCORE:    0.00 PKD
ROOT
HETATM    1  C   UNL     1     -11.863  14.220  67.064  1.00  0.00    -0.455 C  
HETATM    2  C   UNL     1     -10.787  14.109  68.119  1.00  0.00    -0.258 C  
HETATM    3  C   UNL     1      -9.892  15.102  68.321  1.00  0.00    -0.223 C  
ENDROOT
BRANCH   2   4
HETATM    4  C   UNL     1     -10.694  12.907  68.945  1.00  0.00    -0.195 C  
HETATM    5  C   UNL     1     -11.434  11.792  68.834  1.00  0.00    -0.357 C  
BRANCH   5   6
HETATM    6  C   UNL     1     -11.297  10.621  69.702  1.00  0.00    -0.360 C  
HETATM    7  C   UNL     1      -8.846  10.227  69.190  1.00  0.00    -0.182 C  
HETATM    8  C   UNL     1     -12.014  10.510  70.839  1.00  0.00    -0.481 C  
HETATM    9  C   UNL     1     -11.893   9.346  71.779  1.00  0.00    -0.452 C  
HETATM   10  C   UNL     1     -13.003  11.540  71.347  1.00  0.00    -0.450 C  
HETATM   11  C   UNL     1     -10.602   9.102  67.806  1.00  0.00    -0.289 C  
HETATM   12  C   UNL     1     -10.257   9.584  69.240  1.00  0.00    -0.212 C  
HETATM   13  C   UNL     1     -10.154   8.308  70.123  1.00  0.00    -0.191 C  
HETATM   14  C   UNL     1     -10.918   8.236  71.437  1.00  0.00    -0.301 C  
ENDBRANCH   5   6
ENDBRANCH   2   4
BRANCH   3  15
HETATM   15  C   UNL     1      -9.892  16.376  67.626  1.00  0.00    -0.243 C  
HETATM   16  C   UNL     1      -9.371  17.507  68.128  1.00  0.00    -0.276 C  
BRANCH  16  17
HETATM   17  C   UNL     1      -9.402  18.827  67.499  1.00  0.00    -0.315 C  
HETATM   18  C   UNL     1      -7.236  18.761  66.051  1.00  0.00    -0.261 C  
HETATM   19  O   UNL     1      -6.825  19.160  64.972  1.00  0.00    -0.466 OA 
HETATM   20  C   UNL     1      -8.480  19.302  66.637  1.00  0.00    -0.329 C  
HETATM   21  C   UNL     1     -10.570  19.759  67.769  1.00  0.00    -0.501 C  
HETATM   22  O   UNL     1      -6.567  17.876  66.805  1.00  0.00    -0.162 OA 
ENDBRANCH  16  17
ENDBRANCH   3  15
TORSDOF 4
ENDMDL
MODEL       38
REMARK 921   NORMALIZED FREE ENERGY PREDICTED BY IDOCK:   -5.50 KCAL/MOL
REMARK 922        TOTAL FREE ENERGY PREDICTED BY IDOCK:   -7.48 KCAL/MOL
REMARK 923 INTER-LIGAND FREE ENERGY PREDICTED BY IDOCK:   -6.79 KCAL/MOL
REMARK 924 INTRA-LIGAND FREE ENERGY PREDICTED BY IDOCK:   -0.69 KCAL/MOL
REMARK 927      BINDING AFFINITY PREDICTED BY RF-SCORE:    0.00 PKD
ROOT
HETATM    1  C   UNL     1     -10.062  10.866  68.475  1.00  0.00    -0.193 C  
HETATM    2  C   UNL     1     -10.753  10.222  69.655  1.00  0.00    -0.299 C  
HETATM    3  C   UNL     1     -11.731  10.862  70.335  1.00  0.00    -0.444 C  
ENDROOT
BRANCH   2   4
HETATM    4  C   UNL     1     -10.365   8.881  70.088  1.00  0.00    -0.228 C  
HETATM    5  C   UNL     1     -10.932   7.720  69.723  1.00  0.00    -0.162 C  
BRANCH   5   6
HETATM    6  C   UNL     1     -10.500   6.405  70.199  1.00  0.00    -0.269 C  
HETATM    7  C   UNL     1      -8.245   6.458  69.044  1.00  0.00    -0.115 C  
HETATM    8  C   UNL     1     -10.890   5.939  71.403  1.00  0.00    -0.332 C  
HETATM    9  C   UNL     1     -10.456   4.612  71.953  1.00  0.00    -0.172 C  
HETATM   10  C   UNL     1     -11.778   6.686  72.378  1.00  0.00    -0.260 C  
HETATM   11  C   UNL     1     -10.223   5.476  67.866  1.00  0.00    -0.231 C  
HETATM   12  C   UNL     1      -9.551   5.647  69.254  1.00  0.00    -0.181 C  
HETATM   13  C   UNL     1      -9.141   4.223  69.726  1.00  0.00    -0.181 C  
HETATM   14  C   UNL     1      -9.533   3.747  71.117  1.00  0.00    -0.236 C  
ENDBRANCH   5   6
ENDBRANCH   2   4
BRANCH   3  15
HETATM   15  C   UNL     1     -12.267  12.166  69.991  1.00  0.00    -0.270 C  
HETATM   16  C   UNL     1     -11.814  13.323  70.502  1.00  0.00    -0.215 C  
BRANCH  16  17
HETATM   17  C   UNL     1     -12.358  14.655  70.239  1.00  0.00    -0.406 C  
HETATM   18  C   UNL     1     -13.691  15.111  72.432  1.00  0.00    -0.496 C  
HETATM   19  O   UNL     1     -13.969  16.040  73.177  1.00  0.00    -0.526 OA 
HETATM   20  C   UNL     1     -13.141  15.359  71.083  1.00  0.00    -0.565 C  
HETATM   21  C   UNL     1     -12.006  15.368  68.946  1.00  0.00    -0.298 C  
HETATM   22  O   UNL     1     -13.926  13.829  72.746  1.00  0.00    -0.714 OA 
ENDBRANCH  16  17
ENDBRANCH   3  15
TORSDOF 4
ENDMDL
MODEL       39
REMARK 921   NORMALIZED FREE ENERGY PREDICTED BY IDOCK:   -5.48 KCAL/MOL
REMARK 922        TOTAL FREE ENERGY PREDICTED BY IDOCK:   -7.45 KCAL/MOL
REMARK 923 INTER-LIGAND FREE ENERGY PREDICTED BY IDOCK:   -6.79 KCAL/MOL
REMARK 924 INTRA-LIGAND FREE ENERGY PREDICTED BY IDOCK:   -0.66 KCAL/MOL
REMARK 927      BINDING AFFINITY PREDICTED BY RF-SCORE:    0.00 PKD
ROOT
HETATM    1  C   UNL     1     -11.326  15.622  68.221  1.00  0.00    -0.357 C  
HETATM    2  C   UNL     1      -9.997  15.866  67.544  1.00  0.00    -0.238 C  
HETATM    3  C   UNL     1      -9.531  15.032  66.586  1.00  0.00    -0.288 C  
ENDROOT
BRANCH   2   4
HETATM    4  C   UNL     1      -9.183  17.019  67.922  1.00  0.00    -0.239 C  
HETATM    5  C   UNL     1      -8.049  17.433  67.336  1.00  0.00    -0.213 C  
BRANCH   5   6
HETATM    6  C   UNL     1      -7.274  18.597  67.769  1.00  0.00    -0.239 C  
HETATM    7  C   UNL     1      -9.060  20.302  67.201  1.00  0.00    -0.499 C  
HETATM    8  C   UNL     1      -6.398  18.508  68.791  1.00  0.00    -0.232 C  
HETATM    9  C   UNL     1      -5.598  19.674  69.294  1.00  0.00    -0.237 C  
HETATM   10  C   UNL     1      -6.123  17.252  69.593  1.00  0.00    -0.244 C  
HETATM   11  C   UNL     1      -7.341  19.687  65.490  1.00  0.00    -0.191 C  
HETATM   12  C   UNL     1      -7.573  19.902  67.009  1.00  0.00    -0.302 C  
HETATM   13  C   UNL     1      -6.706  21.125  67.421  1.00  0.00    -0.429 C  
HETATM   14  C   UNL     1      -5.779  21.022  68.622  1.00  0.00    -0.360 C  
ENDBRANCH   5   6
ENDBRANCH   2   4
BRANCH   3  15
HETATM   15  C   UNL     1     -10.247  13.884  66.062  1.00  0.00    -0.317 C  
HETATM   16  C   UNL     1     -10.251  13.528  64.767  1.00  0.00    -0.355 C  
BRANCH  16  17
HETATM   17  C   UNL     1     -11.005  12.422  64.178  1.00  0.00    -0.416 C  
HETATM   18  C   UNL     1      -9.701  10.360  65.093  1.00  0.00    -0.291 C  
HETATM   19  O   UNL     1      -9.914   9.220  65.480  1.00  0.00    -0.228 OA 
HETATM   20  C   UNL     1     -10.730  11.112  64.346  1.00  0.00    -0.388 C  
HETATM   21  C   UNL     1     -12.236  12.717  63.337  1.00  0.00    -0.610 C  
HETATM   22  O   UNL     1      -8.519  10.974  65.249  1.00  0.00    -0.120 OA 
ENDBRANCH  16  17
ENDBRANCH   3  15
TORSDOF 4
ENDMDL
MODEL       40
REMARK 921   NORMALIZED FREE ENERGY PREDICTED BY IDOCK:   -5.46 KCAL/MOL
REMARK 922        TOTAL FREE ENERGY PREDICTED BY IDOCK:   -7.42 KCAL/MOL
REMARK 923 INTER-LIGAND FREE ENERGY PREDICTED BY IDOCK:   -6.78 KCAL/MOL
REMARK 924 INTRA-LIGAND FREE ENERGY PREDICTED BY IDOCK:   -0.64 KCAL/MOL
REMARK 927      BINDING AFFINITY PREDICTED BY RF-SCORE:    0.00 PKD
ROOT
HETATM    1  C   UNL     1     -12.729  10.074  71.712  1.00  0.00    -0.526 C  
HETATM    2  C   UNL     1     -11.485   9.700  70.940  1.00  0.00    -0.427 C  
HETATM    3  C   UNL     1     -11.085  10.410  69.860  1.00  0.00    -0.367 C  
ENDROOT
BRANCH   2   4
HETATM    4  C   UNL     1     -10.686   8.548  71.353  1.00  0.00    -0.317 C  
HETATM    5  C   UNL     1     -10.297   8.242  72.601  1.00  0.00    -0.374 C  
BRANCH   5   6
HETATM    6  C   UNL     1      -9.488   7.072  72.948  1.00  0.00    -0.171 C  
HETATM    7  C   UNL     1      -7.944   8.308  74.533  1.00  0.00    -0.276 C  
HETATM    8  C   UNL     1     -10.031   5.839  72.992  1.00  0.00    -0.190 C  
HETATM    9  C   UNL     1      -9.256   4.610  73.368  1.00  0.00    -0.118 C  
HETATM   10  C   UNL     1     -11.485   5.519  72.708  1.00  0.00    -0.339 C  
HETATM   11  C   UNL     1      -7.342   8.112  72.112  1.00  0.00    -0.117 C  
HETATM   12  C   UNL     1      -8.019   7.374  73.297  1.00  0.00    -0.129 C  
HETATM   13  C   UNL     1      -7.139   6.128  73.603  1.00  0.00    -0.084 C  
HETATM   14  C   UNL     1      -7.788   4.757  73.717  1.00  0.00    -0.098 C  
ENDBRANCH   5   6
ENDBRANCH   2   4
BRANCH   3  15
HETATM   15  C   UNL     1     -11.735  11.609  69.366  1.00  0.00    -0.405 C  
HETATM   16  C   UNL     1     -11.077  12.694  68.927  1.00  0.00    -0.307 C  
BRANCH  16  17
HETATM   17  C   UNL     1     -11.681  13.949  68.480  1.00  0.00    -0.390 C  
HETATM   18  C   UNL     1     -12.313  13.372  66.019  1.00  0.00    -0.413 C  
HETATM   19  O   UNL     1     -13.192  13.610  65.203  1.00  0.00    -0.739 OA 
HETATM   20  C   UNL     1     -12.182  14.180  67.249  1.00  0.00    -0.314 C  
HETATM   21  C   UNL     1     -11.823  15.103  69.457  1.00  0.00    -0.358 C  
HETATM   22  O   UNL     1     -11.378  12.431  65.830  1.00  0.00    -0.320 OA 
ENDBRANCH  16  17
ENDBRANCH   3  15
TORSDOF 4
ENDMDL
MODEL       41
REMARK 921   NORMALIZED FREE ENERGY PREDICTED BY IDOCK:   -5.45 KCAL/MOL
REMARK 922        TOTAL FREE ENERGY PREDICTED BY IDOCK:   -7.42 KCAL/MOL
REMARK 923 INTER-LIGAND FREE ENERGY PREDICTED BY IDOCK:   -6.82 KCAL/MOL
REMARK 924 INTRA-LIGAND FREE ENERGY PREDICTED BY IDOCK:   -0.60 KCAL/MOL
REMARK 927      BINDING AFFINITY PREDICTED BY RF-SCORE:    0.00 PKD
ROOT
HETATM    1  C   UNL     1      -7.544   8.543  67.140  1.00  0.00    -0.096 C  
HETATM    2  C   UNL     1      -8.952   8.628  67.683  1.00  0.00    -0.141 C  
HETATM    3  C   UNL     1      -9.940   9.235  66.987  1.00  0.00    -0.286 C  
ENDROOT
BRANCH   2   4
HETATM    4  C   UNL     1      -9.269   8.052  68.988  1.00  0.00    -0.148 C  
HETATM    5  C   UNL     1      -9.025   8.596  70.191  1.00  0.00    -0.157 C  
BRANCH   5   6
HETATM    6  C   UNL     1      -9.362   7.961  71.466  1.00  0.00    -0.179 C  
HETATM    7  C   UNL     1      -7.038   8.159  72.456  1.00  0.00    -0.116 C  
HETATM    8  C   UNL     1     -10.590   8.094  72.006  1.00  0.00    -0.334 C  
HETATM    9  C   UNL     1     -10.982   7.489  73.323  1.00  0.00    -0.362 C  
HETATM   10  C   UNL     1     -11.727   8.889  71.395  1.00  0.00    -0.385 C  
HETATM   11  C   UNL     1      -7.670   6.108  71.170  1.00  0.00    -0.106 C  
HETATM   12  C   UNL     1      -8.209   7.194  72.139  1.00  0.00    -0.103 C  
HETATM   13  C   UNL     1      -8.580   6.463  73.461  1.00  0.00    -0.128 C  
HETATM   14  C   UNL     1      -9.948   6.686  74.088  1.00  0.00    -0.361 C  
ENDBRANCH   5   6
ENDBRANCH   2   4
BRANCH   3  15
HETATM   15  C   UNL     1      -9.797   9.798  65.657  1.00  0.00    -0.371 C  
HETATM   16  C   UNL     1     -10.380  10.939  65.258  1.00  0.00    -0.334 C  
BRANCH  16  17
HETATM   17  C   UNL     1     -10.321  11.516  63.915  1.00  0.00    -0.422 C  
HETATM   18  C   UNL     1     -12.303  13.206  63.989  1.00  0.00    -0.352 C  
HETATM   19  O   UNL     1     -12.601  14.312  63.562  1.00  0.00    -0.814 OA 
HETATM   20  C   UNL     1     -11.154  12.462  63.434  1.00  0.00    -0.465 C  
HETATM   21  C   UNL     1      -9.223  11.081  62.959  1.00  0.00    -0.337 C  
HETATM   22  O   UNL     1     -13.025  12.566  64.921  1.00  0.00    -0.821 OA 
ENDBRANCH  16  17
ENDBRANCH   3  15
TORSDOF 4
ENDMDL
MODEL       42
REMARK 921   NORMALIZED FREE ENERGY PREDICTED BY IDOCK:   -5.43 KCAL/MOL
REMARK 922        TOTAL FREE ENERGY PREDICTED BY IDOCK:   -7.39 KCAL/MOL
REMARK 923 INTER-LIGAND FREE ENERGY PREDICTED BY IDOCK:   -6.65 KCAL/MOL
REMARK 924 INTRA-LIGAND FREE ENERGY PREDICTED BY IDOCK:   -0.74 KCAL/MOL
REMARK 927      BINDING AFFINITY PREDICTED BY RF-SCORE:    0.00 PKD
ROOT
HETATM    1  C   UNL     1     -10.147   8.849  66.796  1.00  0.00    -0.350 C  
HETATM    2  C   UNL     1     -10.260  10.175  67.510  1.00  0.00    -0.257 C  
HETATM    3  C   UNL     1     -10.246  10.252  68.860  1.00  0.00    -0.220 C  
ENDROOT
BRANCH   2   4
HETATM    4  C   UNL     1     -10.389  11.412  66.742  1.00  0.00    -0.271 C  
HETATM    5  C   UNL     1     -11.233  12.428  66.985  1.00  0.00    -0.358 C  
BRANCH   5   6
HETATM    6  C   UNL     1     -11.320  13.640  66.170  1.00  0.00    -0.324 C  
HETATM    7  C   UNL     1      -9.065  14.563  66.868  1.00  0.00    -0.274 C  
HETATM    8  C   UNL     1     -11.971  13.639  64.989  1.00  0.00    -0.401 C  
HETATM    9  C   UNL     1     -12.068  14.845  64.100  1.00  0.00    -0.289 C  
HETATM   10  C   UNL     1     -12.659  12.436  64.377  1.00  0.00    -0.489 C  
HETATM   11  C   UNL     1     -11.117  15.182  68.162  1.00  0.00    -0.306 C  
HETATM   12  C   UNL     1     -10.582  14.865  66.740  1.00  0.00    -0.305 C  
HETATM   13  C   UNL     1     -10.725  16.173  65.910  1.00  0.00    -0.261 C  
HETATM   14  C   UNL     1     -11.402  16.132  64.549  1.00  0.00    -0.273 C  
ENDBRANCH   5   6
ENDBRANCH   2   4
BRANCH   3  15
HETATM   15  C   UNL     1     -10.063   9.125  69.756  1.00  0.00    -0.211 C  
HETATM   16  C   UNL     1     -11.058   8.544  70.446  1.00  0.00    -0.246 C  
BRANCH  16  17
HETATM   17  C   UNL     1     -10.919   7.451  71.408  1.00  0.00    -0.258 C  
HETATM   18  C   UNL     1     -10.387   5.442  69.835  1.00  0.00    -0.307 C  
HETATM   19  O   UNL     1      -9.710   4.424  69.821  1.00  0.00    -0.193 OA 
HETATM   20  C   UNL     1     -10.638   6.168  71.097  1.00  0.00    -0.300 C  
HETATM   21  C   UNL     1     -11.044   7.738  72.894  1.00  0.00    -0.457 C  
HETATM   22  O   UNL     1     -11.000   5.925  68.745  1.00  0.00    -0.300 OA 
ENDBRANCH  16  17
ENDBRANCH   3  15
TORSDOF 4
ENDMDL
MODEL       43
REMARK 921   NORMALIZED FREE ENERGY PREDICTED BY IDOCK:   -5.40 KCAL/MOL
REMARK 922        TOTAL FREE ENERGY PREDICTED BY IDOCK:   -7.36 KCAL/MOL
REMARK 923 INTER-LIGAND FREE ENERGY PREDICTED BY IDOCK:   -6.81 KCAL/MOL
REMARK 924 INTRA-LIGAND FREE ENERGY PREDICTED BY IDOCK:   -0.55 KCAL/MOL
REMARK 927      BINDING AFFINITY PREDICTED BY RF-SCORE:    0.00 PKD
ROOT
HETATM    1  C   UNL     1     -11.706  11.253  70.363  1.00  0.00    -0.398 C  
HETATM    2  C   UNL     1     -11.122  10.217  69.431  1.00  0.00    -0.299 C  
HETATM    3  C   UNL     1     -10.681  10.548  68.197  1.00  0.00    -0.273 C  
ENDROOT
BRANCH   2   4
HETATM    4  C   UNL     1     -11.028   8.822  69.856  1.00  0.00    -0.184 C  
HETATM    5  C   UNL     1     -10.025   8.254  70.544  1.00  0.00    -0.198 C  
BRANCH   5   6
HETATM    6  C   UNL     1      -9.987   6.843  70.933  1.00  0.00    -0.200 C  
HETATM    7  C   UNL     1     -12.266   6.836  72.040  1.00  0.00    -0.331 C  
HETATM    8  C   UNL     1      -9.345   5.930  70.176  1.00  0.00    -0.180 C  
HETATM    9  C   UNL     1      -9.297   4.468  70.512  1.00  0.00    -0.218 C  
HETATM   10  C   UNL     1      -8.620   6.231  68.880  1.00  0.00    -0.125 C  
HETATM   11  C   UNL     1     -10.228   7.354  73.396  1.00  0.00    -0.402 C  
HETATM   12  C   UNL     1     -10.763   6.498  72.217  1.00  0.00    -0.252 C  
HETATM   13  C   UNL     1     -10.671   5.013  72.670  1.00  0.00    -0.279 C  
HETATM   14  C   UNL     1     -10.004   3.988  71.765  1.00  0.00    -0.240 C  
ENDBRANCH   5   6
ENDBRANCH   2   4
BRANCH   3  15
HETATM   15  C   UNL     1     -10.651  11.895  67.657  1.00  0.00    -0.241 C  
HETATM   16  C   UNL     1     -11.718  12.516  67.129  1.00  0.00    -0.425 C  
BRANCH  16  17
HETATM   17  C   UNL     1     -11.728  13.844  66.515  1.00  0.00    -0.414 C  
HETATM   18  C   UNL     1     -11.909  13.243  63.986  1.00  0.00    -0.455 C  
HETATM   19  O   UNL     1     -12.429  13.665  62.963  1.00  0.00    -0.719 OA 
HETATM   20  C   UNL     1     -11.808  14.091  65.191  1.00  0.00    -0.370 C  
HETATM   21  C   UNL     1     -11.695  15.079  67.398  1.00  0.00    -0.255 C  
HETATM   22  O   UNL     1     -11.337  12.033  64.067  1.00  0.00    -0.347 OA 
ENDBRANCH  16  17
ENDBRANCH   3  15
TORSDOF 4
ENDMDL
MODEL       44
REMARK 921   NORMALIZED FREE ENERGY PREDICTED BY IDOCK:   -5.39 KCAL/MOL
REMARK 922        TOTAL FREE ENERGY PREDICTED BY IDOCK:   -7.35 KCAL/MOL
REMARK 923 INTER-LIGAND FREE ENERGY PREDICTED BY IDOCK:   -6.71 KCAL/MOL
REMARK 924 INTRA-LIGAND FREE ENERGY PREDICTED BY IDOCK:   -0.64 KCAL/MOL
REMARK 927      BINDING AFFINITY PREDICTED BY RF-SCORE:    0.00 PKD
ROOT
HETATM    1  C   UNL     1     -13.649  10.477  72.034  1.00  0.00    -0.216 C  
HETATM    2  C   UNL     1     -12.406  10.140  71.245  1.00  0.00    -0.501 C  
HETATM    3  C   UNL     1     -11.878  11.011  70.355  1.00  0.00    -0.460 C  
ENDROOT
BRANCH   2   4
HETATM    4  C   UNL     1     -11.748   8.849  71.432  1.00  0.00    -0.385 C  
HETATM    5  C   UNL     1     -10.539   8.485  70.975  1.00  0.00    -0.267 C  
BRANCH   5   6
HETATM    6  C   UNL     1      -9.937   7.168  71.191  1.00  0.00    -0.187 C  
HETATM    7  C   UNL     1      -9.900   7.331  73.719  1.00  0.00    -0.358 C  
HETATM    8  C   UNL     1     -10.191   6.142  70.353  1.00  0.00    -0.256 C  
HETATM    9  C   UNL     1      -9.624   4.765  70.542  1.00  0.00    -0.258 C  
HETATM   10  C   UNL     1     -11.097   6.214  69.140  1.00  0.00    -0.448 C  
HETATM   11  C   UNL     1      -7.925   8.111  72.394  1.00  0.00    -0.185 C  
HETATM   12  C   UNL     1      -9.056   7.050  72.448  1.00  0.00    -0.147 C  
HETATM   13  C   UNL     1      -8.363   5.672  72.646  1.00  0.00    -0.117 C  
HETATM   14  C   UNL     1      -8.719   4.510  71.731  1.00  0.00    -0.131 C  
ENDBRANCH   5   6
ENDBRANCH   2   4
BRANCH   3  15
HETATM   15  C   UNL     1     -12.379  12.350  70.104  1.00  0.00    -0.209 C  
HETATM   16  C   UNL     1     -12.174  13.395  70.922  1.00  0.00    -0.367 C  
BRANCH  16  17
HETATM   17  C   UNL     1     -12.709  14.745  70.749  1.00  0.00    -0.422 C  
HETATM   18  C   UNL     1     -10.999  15.769  69.071  1.00  0.00    -0.262 C  
HETATM   19  O   UNL     1     -10.971  16.542  68.125  1.00  0.00    -0.346 OA 
HETATM   20  C   UNL     1     -12.175  15.701  69.962  1.00  0.00    -0.351 C  
HETATM   21  C   UNL     1     -13.995  15.139  71.455  1.00  0.00    -0.614 C  
HETATM   22  O   UNL     1      -9.959  14.993  69.409  1.00  0.00    -0.220 OA 
ENDBRANCH  16  17
ENDBRANCH   3  15
TORSDOF 4
ENDMDL
MODEL       45
REMARK 921   NORMALIZED FREE ENERGY PREDICTED BY IDOCK:   -5.39 KCAL/MOL
REMARK 922        TOTAL FREE ENERGY PREDICTED BY IDOCK:   -7.34 KCAL/MOL
REMARK 923 INTER-LIGAND FREE ENERGY PREDICTED BY IDOCK:   -6.75 KCAL/MOL
REMARK 924 INTRA-LIGAND FREE ENERGY PREDICTED BY IDOCK:   -0.58 KCAL/MOL
REMARK 927      BINDING AFFINITY PREDICTED BY RF-SCORE:    0.00 PKD
ROOT
HETATM    1  C   UNL     1     -12.203  12.688  70.485  1.00  0.00    -0.383 C  
HETATM    2  C   UNL     1     -11.839  11.645  69.454  1.00  0.00    -0.408 C  
HETATM    3  C   UNL     1     -11.635  11.975  68.159  1.00  0.00    -0.403 C  
ENDROOT
BRANCH   2   4
HETATM    4  C   UNL     1     -11.705  10.244  69.847  1.00  0.00    -0.298 C  
HETATM    5  C   UNL     1     -10.575   9.519  69.876  1.00  0.00    -0.269 C  
BRANCH   5   6
HETATM    6  C   UNL     1     -10.508   8.111  70.274  1.00  0.00    -0.219 C  
HETATM    7  C   UNL     1     -11.513   8.462  72.573  1.00  0.00    -0.422 C  
HETATM    8  C   UNL     1     -10.648   7.125  69.365  1.00  0.00    -0.246 C  
HETATM    9  C   UNL     1     -10.616   5.667  69.720  1.00  0.00    -0.400 C  
HETATM   10  C   UNL     1     -10.891   7.335  67.884  1.00  0.00    -0.184 C  
HETATM   11  C   UNL     1      -9.032   8.583  72.270  1.00  0.00    -0.299 C  
HETATM   12  C   UNL     1     -10.319   7.866  71.782  1.00  0.00    -0.260 C  
HETATM   13  C   UNL     1     -10.182   6.375  72.201  1.00  0.00    -0.207 C  
HETATM   14  C   UNL     1     -10.415   5.278  71.172  1.00  0.00    -0.275 C  
ENDBRANCH   5   6
ENDBRANCH   2   4
BRANCH   3  15
HETATM   15  C   UNL     1     -11.671  13.325  67.628  1.00  0.00    -0.408 C  
HETATM   16  C   UNL     1     -10.710  13.855  66.855  1.00  0.00    -0.284 C  
BRANCH  16  17
HETATM   17  C   UNL     1     -10.667  15.227  66.349  1.00  0.00    -0.318 C  
HETATM   18  C   UNL     1      -9.847  16.529  68.452  1.00  0.00    -0.237 C  
HETATM   19  O   UNL     1      -9.139  17.482  68.740  1.00  0.00    -0.270 OA 
HETATM   20  C   UNL     1     -10.299  16.311  67.063  1.00  0.00    -0.292 C  
HETATM   21  C   UNL     1     -11.010  15.502  64.895  1.00  0.00    -0.452 C  
HETATM   22  O   UNL     1     -10.319  15.669  69.367  1.00  0.00    -0.223 OA 
ENDBRANCH  16  17
ENDBRANCH   3  15
TORSDOF 4
ENDMDL
MODEL       46
REMARK 921   NORMALIZED FREE ENERGY PREDICTED BY IDOCK:   -5.38 KCAL/MOL
REMARK 922        TOTAL FREE ENERGY PREDICTED BY IDOCK:   -7.33 KCAL/MOL
REMARK 923 INTER-LIGAND FREE ENERGY PREDICTED BY IDOCK:   -6.73 KCAL/MOL
REMARK 924 INTRA-LIGAND FREE ENERGY PREDICTED BY IDOCK:   -0.60 KCAL/MOL
REMARK 927      BINDING AFFINITY PREDICTED BY RF-SCORE:    0.00 PKD
ROOT
HETATM    1  C   UNL     1     -12.681   8.459  71.925  1.00  0.00    -0.390 C  
HETATM    2  C   UNL     1     -11.638   9.007  70.979  1.00  0.00    -0.360 C  
HETATM    3  C   UNL     1     -10.809   8.188  70.292  1.00  0.00    -0.244 C  
ENDROOT
BRANCH   2   4
HETATM    4  C   UNL     1     -11.504  10.451  70.795  1.00  0.00    -0.422 C  
HETATM    5  C   UNL     1     -12.146  11.212  69.895  1.00  0.00    -0.418 C  
BRANCH   5   6
HETATM    6  C   UNL     1     -11.961  12.657  69.755  1.00  0.00    -0.365 C  
HETATM    7  C   UNL     1     -12.021  12.665  67.222  1.00  0.00    -0.321 C  
HETATM    8  C   UNL     1     -12.451  13.513  70.675  1.00  0.00    -0.405 C  
HETATM    9  C   UNL     1     -12.315  15.004  70.569  1.00  0.00    -0.411 C  
HETATM   10  C   UNL     1     -13.228  13.109  71.912  1.00  0.00    -0.526 C  
HETATM   11  C   UNL     1      -9.834  12.414  68.413  1.00  0.00    -0.198 C  
HETATM   12  C   UNL     1     -11.224  13.102  68.479  1.00  0.00    -0.307 C  
HETATM   13  C   UNL     1     -10.967  14.631  68.358  1.00  0.00    -0.260 C  
HETATM   14  C   UNL     1     -11.590  15.582  69.369  1.00  0.00    -0.366 C  
ENDBRANCH   5   6
ENDBRANCH   2   4
BRANCH   3  15
HETATM   15  C   UNL     1     -10.859   6.739  70.322  1.00  0.00    -0.314 C  
HETATM   16  C   UNL     1      -9.795   5.954  70.558  1.00  0.00    -0.231 C  
BRANCH  16  17
HETATM   17  C   UNL     1      -9.777   4.492  70.536  1.00  0.00    -0.290 C  
HETATM   18  C   UNL     1      -9.446   4.017  67.995  1.00  0.00    -0.165 C  
HETATM   19  O   UNL     1      -8.879   3.219  67.263  1.00  0.00    -0.112 OA 
HETATM   20  C   UNL     1      -9.630   3.730  69.433  1.00  0.00    -0.219 C  
HETATM   21  C   UNL     1      -9.883   3.720  71.840  1.00  0.00    -0.248 C  
HETATM   22  O   UNL     1      -9.997   5.154  67.546  1.00  0.00    -0.158 OA 
ENDBRANCH  16  17
ENDBRANCH   3  15
TORSDOF 4
ENDMDL
MODEL       47
REMARK 921   NORMALIZED FREE ENERGY PREDICTED BY IDOCK:   -5.38 KCAL/MOL
REMARK 922        TOTAL FREE ENERGY PREDICTED BY IDOCK:   -7.33 KCAL/MOL
REMARK 923 INTER-LIGAND FREE ENERGY PREDICTED BY IDOCK:   -6.86 KCAL/MOL
REMARK 924 INTRA-LIGAND FREE ENERGY PREDICTED BY IDOCK:   -0.47 KCAL/MOL
REMARK 927      BINDING AFFINITY PREDICTED BY RF-SCORE:    0.00 PKD
ROOT
HETATM    1  C   UNL     1     -12.132  11.812  70.545  1.00  0.00    -0.439 C  
HETATM    2  C   UNL     1     -11.356  10.556  70.224  1.00  0.00    -0.407 C  
HETATM    3  C   UNL     1     -10.676  10.425  69.062  1.00  0.00    -0.260 C  
ENDROOT
BRANCH   2   4
HETATM    4  C   UNL     1     -11.331   9.448  71.176  1.00  0.00    -0.422 C  
HETATM    5  C   UNL     1     -10.434   8.450  71.230  1.00  0.00    -0.273 C  
BRANCH   5   6
HETATM    6  C   UNL     1     -10.470   7.361  72.207  1.00  0.00    -0.260 C  
HETATM    7  C   UNL     1     -11.036   5.548  70.530  1.00  0.00    -0.196 C  
HETATM    8  C   UNL     1      -9.667   7.373  73.291  1.00  0.00    -0.300 C  
HETATM    9  C   UNL     1      -9.642   6.271  74.310  1.00  0.00    -0.240 C  
HETATM   10  C   UNL     1      -8.665   8.461  73.618  1.00  0.00    -0.138 C  
HETATM   11  C   UNL     1     -12.875   6.775  71.702  1.00  0.00    -0.328 C  
HETATM   12  C   UNL     1     -11.439   6.213  71.873  1.00  0.00    -0.355 C  
HETATM   13  C   UNL     1     -11.528   5.085  72.940  1.00  0.00    -0.306 C  
HETATM   14  C   UNL     1     -10.564   5.083  74.117  1.00  0.00    -0.338 C  
ENDBRANCH   5   6
ENDBRANCH   2   4
BRANCH   3  15
HETATM   15  C   UNL     1     -10.556  11.455  68.048  1.00  0.00    -0.224 C  
HETATM   16  C   UNL     1     -11.475  11.684  67.096  1.00  0.00    -0.344 C  
BRANCH  16  17
HETATM   17  C   UNL     1     -11.373  12.664  66.015  1.00  0.00    -0.369 C  
HETATM   18  C   UNL     1     -11.459  14.907  67.338  1.00  0.00    -0.343 C  
HETATM   19  O   UNL     1     -10.980  16.031  67.298  1.00  0.00    -0.300 OA 
HETATM   20  C   UNL     1     -11.373  14.004  66.172  1.00  0.00    -0.322 C  
HETATM   21  C   UNL     1     -11.205  12.186  64.582  1.00  0.00    -0.374 C  
HETATM   22  O   UNL     1     -12.147  14.445  68.392  1.00  0.00    -0.322 OA 
ENDBRANCH  16  17
ENDBRANCH   3  15
TORSDOF 4
ENDMDL
MODEL       48
REMARK 921   NORMALIZED FREE ENERGY PREDICTED BY IDOCK:   -5.36 KCAL/MOL
REMARK 922        TOTAL FREE ENERGY PREDICTED BY IDOCK:   -7.30 KCAL/MOL
REMARK 923 INTER-LIGAND FREE ENERGY PREDICTED BY IDOCK:   -6.62 KCAL/MOL
REMARK 924 INTRA-LIGAND FREE ENERGY PREDICTED BY IDOCK:   -0.68 KCAL/MOL
REMARK 927      BINDING AFFINITY PREDICTED BY RF-SCORE:    0.00 PKD
ROOT
HETATM    1  C   UNL     1     -10.460  11.417  66.888  1.00  0.00    -0.278 C  
HETATM    2  C   UNL     1     -10.914  12.333  68.001  1.00  0.00    -0.265 C  
HETATM    3  C   UNL     1     -11.425  11.843  69.153  1.00  0.00    -0.356 C  
ENDROOT
BRANCH   2   4
HETATM    4  C   UNL     1     -10.809  13.782  67.844  1.00  0.00    -0.257 C  
HETATM    5  C   UNL     1      -9.782  14.562  68.220  1.00  0.00    -0.218 C  
BRANCH   5   6
HETATM    6  C   UNL     1      -9.742  16.014  68.041  1.00  0.00    -0.217 C  
HETATM    7  C   UNL     1      -9.942  15.953  65.516  1.00  0.00    -0.313 C  
HETATM    8  C   UNL     1     -10.258  16.844  68.970  1.00  0.00    -0.308 C  
HETATM    9  C   UNL     1     -10.268  18.338  68.826  1.00  0.00    -0.342 C  
HETATM   10  C   UNL     1     -10.924  16.401  70.257  1.00  0.00    -0.262 C  
HETATM   11  C   UNL     1      -7.678  15.935  66.584  1.00  0.00    -0.199 C  
HETATM   12  C   UNL     1      -9.121  16.493  66.716  1.00  0.00    -0.262 C  
HETATM   13  C   UNL     1      -9.015  18.036  66.550  1.00  0.00    -0.280 C  
HETATM   14  C   UNL     1      -9.668  18.950  67.575  1.00  0.00    -0.360 C  
ENDBRANCH   5   6
ENDBRANCH   2   4
BRANCH   3  15
HETATM   15  C   UNL     1     -11.537  10.434  69.481  1.00  0.00    -0.288 C  
HETATM   16  C   UNL     1     -11.018   9.876  70.587  1.00  0.00    -0.405 C  
BRANCH  16  17
HETATM   17  C   UNL     1     -11.045   8.456  70.932  1.00  0.00    -0.289 C  
HETATM   18  C   UNL     1     -13.494   8.176  71.779  1.00  0.00    -0.350 C  
HETATM   19  O   UNL     1     -14.396   7.351  71.765  1.00  0.00    -0.426 OA 
HETATM   20  C   UNL     1     -12.110   7.794  71.430  1.00  0.00    -0.335 C  
HETATM   21  C   UNL     1      -9.815   7.599  70.686  1.00  0.00    -0.182 C  
HETATM   22  O   UNL     1     -13.673   9.445  72.173  1.00  0.00    -0.427 OA 
ENDBRANCH  16  17
ENDBRANCH   3  15
TORSDOF 4
ENDMDL
MODEL       49
REMARK 921   NORMALIZED FREE ENERGY PREDICTED BY IDOCK:   -5.35 KCAL/MOL
REMARK 922        TOTAL FREE ENERGY PREDICTED BY IDOCK:   -7.29 KCAL/MOL
REMARK 923 INTER-LIGAND FREE ENERGY PREDICTED BY IDOCK:   -6.79 KCAL/MOL
REMARK 924 INTRA-LIGAND FREE ENERGY PREDICTED BY IDOCK:   -0.50 KCAL/MOL
REMARK 927      BINDING AFFINITY PREDICTED BY RF-SCORE:    0.00 PKD
ROOT
HETATM    1  C   UNL     1     -12.948   9.021  71.925  1.00  0.00    -0.451 C  
HETATM    2  C   UNL     1     -11.880   9.547  70.994  1.00  0.00    -0.408 C  
HETATM    3  C   UNL     1     -11.030   8.712  70.353  1.00  0.00    -0.256 C  
ENDROOT
BRANCH   2   4
HETATM    4  C   UNL     1     -11.747  10.985  70.771  1.00  0.00    -0.286 C  
HETATM    5  C   UNL     1     -12.074  11.663  69.659  1.00  0.00    -0.345 C  
BRANCH   5   6
HETATM    6  C   UNL     1     -11.908  13.108  69.496  1.00  0.00    -0.383 C  
HETATM    7  C   UNL     1     -11.904  13.066  66.962  1.00  0.00    -0.437 C  
HETATM    8  C   UNL     1     -12.435  13.973  70.386  1.00  0.00    -0.418 C  
HETATM    9  C   UNL     1     -12.319  15.464  70.254  1.00  0.00    -0.425 C  
HETATM   10  C   UNL     1     -13.237  13.580  71.610  1.00  0.00    -0.449 C  
HETATM   11  C   UNL     1      -9.744  12.873  68.212  1.00  0.00    -0.217 C  
HETATM   12  C   UNL     1     -11.145  13.540  68.230  1.00  0.00    -0.287 C  
HETATM   13  C   UNL     1     -10.910  15.070  68.086  1.00  0.00    -0.263 C  
HETATM   14  C   UNL     1     -11.573  16.030  69.061  1.00  0.00    -0.350 C  
ENDBRANCH   5   6
ENDBRANCH   2   4
BRANCH   3  15
HETATM   15  C   UNL     1     -11.075   7.264  70.424  1.00  0.00    -0.291 C  
HETATM   16  C   UNL     1     -10.016   6.492  70.719  1.00  0.00    -0.205 C  
BRANCH  16  17
HETATM   17  C   UNL     1      -9.991   5.030  70.740  1.00  0.00    -0.291 C  
HETATM   18  C   UNL     1     -10.733   4.535  73.189  1.00  0.00    -0.235 C  
HETATM   19  O   UNL     1     -11.391   3.717  73.815  1.00  0.00    -0.197 OA 
HETATM   20  C   UNL     1     -10.300   4.259  71.804  1.00  0.00    -0.110 C  
HETATM   21  C   UNL     1      -9.642   4.267  69.474  1.00  0.00    -0.274 C  
HETATM   22  O   UNL     1     -10.302   5.687  73.723  1.00  0.00    -0.210 OA 
ENDBRANCH  16  17
ENDBRANCH   3  15
TORSDOF 4
ENDMDL
MODEL       50
REMARK 921   NORMALIZED FREE ENERGY PREDICTED BY IDOCK:   -5.32 KCAL/MOL
REMARK 922        TOTAL FREE ENERGY PREDICTED BY IDOCK:   -7.25 KCAL/MOL
REMARK 923 INTER-LIGAND FREE ENERGY PREDICTED BY IDOCK:   -6.72 KCAL/MOL
REMARK 924 INTRA-LIGAND FREE ENERGY PREDICTED BY IDOCK:   -0.53 KCAL/MOL
REMARK 927      BINDING AFFINITY PREDICTED BY RF-SCORE:    0.00 PKD
ROOT
HETATM    1  C   UNL     1     -12.057  10.831  70.509  1.00  0.00    -0.459 C  
HETATM    2  C   UNL     1     -11.125  10.679  69.329  1.00  0.00    -0.306 C  
HETATM    3  C   UNL     1     -10.509   9.505  69.064  1.00  0.00    -0.229 C  
ENDROOT
BRANCH   2   4
HETATM    4  C   UNL     1     -10.871  11.815  68.446  1.00  0.00    -0.260 C  
HETATM    5  C   UNL     1     -11.750  12.757  68.069  1.00  0.00    -0.405 C  
BRANCH   5   6
HETATM    6  C   UNL     1     -11.433  13.870  67.172  1.00  0.00    -0.370 C  
HETATM    7  C   UNL     1      -9.420  14.672  68.486  1.00  0.00    -0.216 C  
HETATM    8  C   UNL     1     -11.676  13.788  65.848  1.00  0.00    -0.370 C  
HETATM    9  C   UNL     1     -11.346  14.886  64.880  1.00  0.00    -0.415 C  
HETATM   10  C   UNL     1     -12.273  12.584  65.147  1.00  0.00    -0.509 C  
HETATM   11  C   UNL     1     -11.686  15.610  68.988  1.00  0.00    -0.408 C  
HETATM   12  C   UNL     1     -10.772  15.086  67.848  1.00  0.00    -0.268 C  
HETATM   13  C   UNL     1     -10.493  16.296  66.912  1.00  0.00    -0.302 C  
HETATM   14  C   UNL     1     -10.708  16.155  65.413  1.00  0.00    -0.374 C  
ENDBRANCH   5   6
ENDBRANCH   2   4
BRANCH   3  15
HETATM   15  C   UNL     1     -10.707   8.275  69.808  1.00  0.00    -0.221 C  
HETATM   16  C   UNL     1      -9.753   7.349  69.998  1.00  0.00    -0.175 C  
BRANCH  16  17
HETATM   17  C   UNL     1      -9.917   6.067  70.683  1.00  0.00    -0.232 C  
HETATM   18  C   UNL     1     -10.168   6.832  73.161  1.00  0.00    -0.230 C  
HETATM   19  O   UNL     1     -10.775   6.521  74.175  1.00  0.00    -0.207 OA 
HETATM   20  C   UNL     1     -10.086   5.908  72.012  1.00  0.00    -0.223 C  
HETATM   21  C   UNL     1      -9.955   4.783  69.873  1.00  0.00    -0.306 C  
HETATM   22  O   UNL     1      -9.483   7.979  73.045  1.00  0.00    -0.237 OA 
ENDBRANCH  16  17
ENDBRANCH   3  15
TORSDOF 4
ENDMDL
MODEL       51
REMARK 921   NORMALIZED FREE ENERGY PREDICTED BY IDOCK:   -5.31 KCAL/MOL
REMARK 922        TOTAL FREE ENERGY PREDICTED BY IDOCK:   -7.25 KCAL/MOL
REMARK 923 INTER-LIGAND FREE ENERGY PREDICTED BY IDOCK:   -6.56 KCAL/MOL
REMARK 924 INTRA-LIGAND FREE ENERGY PREDICTED BY IDOCK:   -0.69 KCAL/MOL
REMARK 927      BINDING AFFINITY PREDICTED BY RF-SCORE:    0.00 PKD
ROOT
HETATM    1  C   UNL     1     -10.415   8.641  67.568  1.00  0.00    -0.335 C  
HETATM    2  C   UNL     1     -10.683   9.412  68.841  1.00  0.00    -0.203 C  
HETATM    3  C   UNL     1     -10.955   8.779  70.004  1.00  0.00    -0.216 C  
ENDROOT
BRANCH   2   4
HETATM    4  C   UNL     1     -10.654  10.873  68.831  1.00  0.00    -0.241 C  
HETATM    5  C   UNL     1     -11.634  11.697  68.428  1.00  0.00    -0.376 C  
BRANCH   5   6
HETATM    6  C   UNL     1     -11.540  13.157  68.437  1.00  0.00    -0.372 C  
HETATM    7  C   UNL     1     -12.103  13.450  65.983  1.00  0.00    -0.487 C  
HETATM    8  C   UNL     1     -11.871  13.870  69.533  1.00  0.00    -0.383 C  
HETATM    9  C   UNL     1     -11.819  15.369  69.588  1.00  0.00    -0.368 C  
HETATM   10  C   UNL     1     -12.370  13.278  70.836  1.00  0.00    -0.413 C  
HETATM   11  C   UNL     1      -9.714  13.206  66.690  1.00  0.00    -0.261 C  
HETATM   12  C   UNL     1     -11.090  13.791  67.108  1.00  0.00    -0.315 C  
HETATM   13  C   UNL     1     -10.925  15.337  67.131  1.00  0.00    -0.331 C  
HETATM   14  C   UNL     1     -11.372  16.125  68.353  1.00  0.00    -0.345 C  
ENDBRANCH   5   6
ENDBRANCH   2   4
BRANCH   3  15
HETATM   15  C   UNL     1     -10.959   7.339  70.187  1.00  0.00    -0.280 C  
HETATM   16  C   UNL     1      -9.900   6.632  70.614  1.00  0.00    -0.198 C  
BRANCH  16  17
HETATM   17  C   UNL     1      -9.831   5.178  70.753  1.00  0.00    -0.270 C  
HETATM   18  C   UNL     1     -10.927   4.829  73.091  1.00  0.00    -0.300 C  
HETATM   19  O   UNL     1     -11.647   4.030  73.672  1.00  0.00    -0.182 OA 
HETATM   20  C   UNL     1     -10.275   4.473  71.814  1.00  0.00    -0.226 C  
HETATM   21  C   UNL     1      -9.264   4.342  69.619  1.00  0.00    -0.204 C  
HETATM   22  O   UNL     1     -10.622   6.035  73.593  1.00  0.00    -0.250 OA 
ENDBRANCH  16  17
ENDBRANCH   3  15
TORSDOF 4
ENDMDL
MODEL       52
REMARK 921   NORMALIZED FREE ENERGY PREDICTED BY IDOCK:   -5.29 KCAL/MOL
REMARK 922        TOTAL FREE ENERGY PREDICTED BY IDOCK:   -7.22 KCAL/MOL
REMARK 923 INTER-LIGAND FREE ENERGY PREDICTED BY IDOCK:   -6.51 KCAL/MOL
REMARK 924 INTRA-LIGAND FREE ENERGY PREDICTED BY IDOCK:   -0.70 KCAL/MOL
REMARK 927      BINDING AFFINITY PREDICTED BY RF-SCORE:    0.00 PKD
ROOT
HETATM    1  C   UNL     1      -9.782   8.939  66.471  1.00  0.00    -0.322 C  
HETATM    2  C   UNL     1      -9.895   9.234  67.949  1.00  0.00    -0.200 C  
HETATM    3  C   UNL     1     -10.076  10.494  68.404  1.00  0.00    -0.181 C  
ENDROOT
BRANCH   2   4
HETATM    4  C   UNL     1      -9.805   8.146  68.921  1.00  0.00    -0.178 C  
HETATM    5  C   UNL     1     -10.817   7.407  69.400  1.00  0.00    -0.184 C  
BRANCH   5   6
HETATM    6  C   UNL     1     -10.661   6.332  70.382  1.00  0.00    -0.309 C  
HETATM    7  C   UNL     1     -12.795   6.849  71.647  1.00  0.00    -0.383 C  
HETATM    8  C   UNL     1     -10.063   5.170  70.052  1.00  0.00    -0.345 C  
HETATM    9  C   UNL     1      -9.900   4.025  71.010  1.00  0.00    -0.230 C  
HETATM   10  C   UNL     1      -9.508   4.836  68.682  1.00  0.00    -0.208 C  
HETATM   11  C   UNL     1     -10.645   7.920  72.349  1.00  0.00    -0.359 C  
HETATM   12  C   UNL     1     -11.265   6.621  71.768  1.00  0.00    -0.299 C  
HETATM   13  C   UNL     1     -11.045   5.510  72.834  1.00  0.00    -0.349 C  
HETATM   14  C   UNL     1     -10.433   4.180  72.421  1.00  0.00    -0.172 C  
ENDBRANCH   5   6
ENDBRANCH   2   4
BRANCH   3  15
HETATM   15  C   UNL     1     -10.245  11.666  67.565  1.00  0.00    -0.216 C  
HETATM   16  C   UNL     1     -11.430  12.242  67.309  1.00  0.00    -0.426 C  
BRANCH  16  17
HETATM   17  C   UNL     1     -11.663  13.381  66.422  1.00  0.00    -0.409 C  
HETATM   18  C   UNL     1     -11.468  15.380  68.083  1.00  0.00    -0.343 C  
HETATM   19  O   UNL     1     -11.060  16.532  68.110  1.00  0.00    -0.354 OA 
HETATM   20  C   UNL     1     -11.670  14.677  66.799  1.00  0.00    -0.355 C  
HETATM   21  C   UNL     1     -11.874  13.145  64.936  1.00  0.00    -0.399 C  
HETATM   22  O   UNL     1     -11.825  14.707  69.186  1.00  0.00    -0.293 OA 
ENDBRANCH  16  17
ENDBRANCH   3  15
TORSDOF 4
ENDMDL
MODEL       53
REMARK 921   NORMALIZED FREE ENERGY PREDICTED BY IDOCK:   -5.29 KCAL/MOL
REMARK 922        TOTAL FREE ENERGY PREDICTED BY IDOCK:   -7.21 KCAL/MOL
REMARK 923 INTER-LIGAND FREE ENERGY PREDICTED BY IDOCK:   -6.55 KCAL/MOL
REMARK 924 INTRA-LIGAND FREE ENERGY PREDICTED BY IDOCK:   -0.66 KCAL/MOL
REMARK 927      BINDING AFFINITY PREDICTED BY RF-SCORE:    0.00 PKD
ROOT
HETATM    1  C   UNL     1     -11.256  14.402  69.439  1.00  0.00    -0.317 C  
HETATM    2  C   UNL     1     -10.455  13.478  68.551  1.00  0.00    -0.250 C  
HETATM    3  C   UNL     1      -9.472  13.948  67.750  1.00  0.00    -0.214 C  
ENDROOT
BRANCH   2   4
HETATM    4  C   UNL     1     -10.738  12.044  68.542  1.00  0.00    -0.261 C  
HETATM    5  C   UNL     1      -9.876  11.050  68.808  1.00  0.00    -0.206 C  
BRANCH   5   6
HETATM    6  C   UNL     1     -10.221   9.628  68.775  1.00  0.00    -0.213 C  
HETATM    7  C   UNL     1     -11.916   9.746  70.655  1.00  0.00    -0.340 C  
HETATM    8  C   UNL     1     -10.198   8.934  67.619  1.00  0.00    -0.296 C  
HETATM    9  C   UNL     1     -10.569   7.483  67.522  1.00  0.00    -0.331 C  
HETATM   10  C   UNL     1      -9.837   9.512  66.265  1.00  0.00    -0.334 C  
HETATM   11  C   UNL     1      -9.520   9.240  71.171  1.00  0.00    -0.287 C  
HETATM   12  C   UNL     1     -10.647   9.027  70.126  1.00  0.00    -0.250 C  
HETATM   13  C   UNL     1     -10.952   7.502  70.109  1.00  0.00    -0.267 C  
HETATM   14  C   UNL     1     -10.990   6.756  68.784  1.00  0.00    -0.267 C  
ENDBRANCH   5   6
ENDBRANCH   2   4
BRANCH   3  15
HETATM   15  C   UNL     1      -9.035  15.330  67.693  1.00  0.00    -0.182 C  
HETATM   16  C   UNL     1      -8.386  15.871  66.648  1.00  0.00    -0.328 C  
BRANCH  16  17
HETATM   17  C   UNL     1      -7.868  17.236  66.566  1.00  0.00    -0.322 C  
HETATM   18  C   UNL     1     -10.053  18.596  66.158  1.00  0.00    -0.369 C  
HETATM   19  O   UNL     1     -10.547  19.675  66.451  1.00  0.00    -0.461 OA 
HETATM   20  C   UNL     1      -8.611  18.342  66.357  1.00  0.00    -0.264 C  
HETATM   21  C   UNL     1      -6.384  17.489  66.772  1.00  0.00    -0.228 C  
HETATM   22  O   UNL     1     -10.751  17.608  65.579  1.00  0.00    -0.565 OA 
ENDBRANCH  16  17
ENDBRANCH   3  15
TORSDOF 4
ENDMDL
MODEL       54
REMARK 921   NORMALIZED FREE ENERGY PREDICTED BY IDOCK:   -5.29 KCAL/MOL
REMARK 922        TOTAL FREE ENERGY PREDICTED BY IDOCK:   -7.21 KCAL/MOL
REMARK 923 INTER-LIGAND FREE ENERGY PREDICTED BY IDOCK:   -6.57 KCAL/MOL
REMARK 924 INTRA-LIGAND FREE ENERGY PREDICTED BY IDOCK:   -0.64 KCAL/MOL
REMARK 927      BINDING AFFINITY PREDICTED BY RF-SCORE:    0.00 PKD
ROOT
HETATM    1  C   UNL     1     -11.090  14.779  66.714  1.00  0.00    -0.338 C  
HETATM    2  C   UNL     1      -9.831  14.223  67.337  1.00  0.00    -0.235 C  
HETATM    3  C   UNL     1      -8.627  14.804  67.133  1.00  0.00    -0.248 C  
ENDROOT
BRANCH   2   4
HETATM    4  C   UNL     1      -9.897  13.029  68.177  1.00  0.00    -0.228 C  
HETATM    5  C   UNL     1     -10.798  12.037  68.101  1.00  0.00    -0.257 C  
BRANCH   5   6
HETATM    6  C   UNL     1     -10.814  10.868  68.982  1.00  0.00    -0.275 C  
HETATM    7  C   UNL     1      -8.476  10.088  68.390  1.00  0.00    -0.112 C  
HETATM    8  C   UNL     1     -11.496  10.882  70.145  1.00  0.00    -0.405 C  
HETATM    9  C   UNL     1     -11.524   9.723  71.098  1.00  0.00    -0.472 C  
HETATM   10  C   UNL     1     -12.291  12.060  70.672  1.00  0.00    -0.394 C  
HETATM   11  C   UNL     1     -10.437   9.240  67.086  1.00  0.00    -0.319 C  
HETATM   12  C   UNL     1      -9.968   9.675  68.500  1.00  0.00    -0.182 C  
HETATM   13  C   UNL     1     -10.034   8.407  69.398  1.00  0.00    -0.191 C  
HETATM   14  C   UNL     1     -10.749   8.470  70.739  1.00  0.00    -0.254 C  
ENDBRANCH   5   6
ENDBRANCH   2   4
BRANCH   3  15
HETATM   15  C   UNL     1      -8.409  16.023  66.377  1.00  0.00    -0.344 C  
HETATM   16  C   UNL     1      -7.813  17.119  66.873  1.00  0.00    -0.250 C  
BRANCH  16  17
HETATM   17  C   UNL     1      -7.626  18.392  66.177  1.00  0.00    -0.270 C  
HETATM   18  C   UNL     1      -9.699  19.740  67.000  1.00  0.00    -0.381 C  
HETATM   19  O   UNL     1     -10.007  20.885  67.297  1.00  0.00    -0.387 OA 
HETATM   20  C   UNL     1      -8.449  19.457  66.265  1.00  0.00    -0.346 C  
HETATM   21  C   UNL     1      -6.398  18.599  65.309  1.00  0.00    -0.296 C  
HETATM   22  O   UNL     1     -10.488  18.685  67.248  1.00  0.00    -0.385 OA 
ENDBRANCH  16  17
ENDBRANCH   3  15
TORSDOF 4
ENDMDL
MODEL       55
REMARK 921   NORMALIZED FREE ENERGY PREDICTED BY IDOCK:   -5.26 KCAL/MOL
REMARK 922        TOTAL FREE ENERGY PREDICTED BY IDOCK:   -7.19 KCAL/MOL
REMARK 923 INTER-LIGAND FREE ENERGY PREDICTED BY IDOCK:   -6.62 KCAL/MOL
REMARK 924 INTRA-LIGAND FREE ENERGY PREDICTED BY IDOCK:   -0.56 KCAL/MOL
REMARK 927      BINDING AFFINITY PREDICTED BY RF-SCORE:    0.00 PKD
ROOT
HETATM    1  C   UNL     1     -14.000   8.954  72.052  1.00  0.00    -0.497 C  
HETATM    2  C   UNL     1     -12.722   9.344  71.347  1.00  0.00    -0.425 C  
HETATM    3  C   UNL     1     -11.622   8.559  71.395  1.00  0.00    -0.344 C  
ENDROOT
BRANCH   2   4
HETATM    4  C   UNL     1     -12.654  10.595  70.594  1.00  0.00    -0.454 C  
HETATM    5  C   UNL     1     -11.548  11.289  70.279  1.00  0.00    -0.366 C  
BRANCH   5   6
HETATM    6  C   UNL     1     -11.549  12.544  69.527  1.00  0.00    -0.348 C  
HETATM    7  C   UNL     1     -11.627  11.456  67.240  1.00  0.00    -0.232 C  
HETATM    8  C   UNL     1     -12.136  13.652  70.023  1.00  0.00    -0.417 C  
HETATM    9  C   UNL     1     -12.190  14.958  69.284  1.00  0.00    -0.221 C  
HETATM   10  C   UNL     1     -12.847  13.735  71.359  1.00  0.00    -0.449 C  
HETATM   11  C   UNL     1      -9.418  11.986  68.290  1.00  0.00    -0.199 C  
HETATM   12  C   UNL     1     -10.883  12.476  68.141  1.00  0.00    -0.248 C  
HETATM   13  C   UNL     1     -10.822  13.823  67.365  1.00  0.00    -0.285 C  
HETATM   14  C   UNL     1     -11.553  15.040  67.911  1.00  0.00    -0.350 C  
ENDBRANCH   5   6
ENDBRANCH   2   4
BRANCH   3  15
HETATM   15  C   UNL     1     -11.551   7.265  72.047  1.00  0.00    -0.311 C  
HETATM   16  C   UNL     1     -10.657   6.313  71.734  1.00  0.00    -0.266 C  
BRANCH  16  17
HETATM   17  C   UNL     1     -10.584   4.972  72.313  1.00  0.00    -0.269 C  
HETATM   18  C   UNL     1      -9.612   3.600  70.322  1.00  0.00    -0.176 C  
HETATM   19  O   UNL     1      -8.853   2.664  70.119  1.00  0.00    -0.067 OA 
HETATM   20  C   UNL     1     -10.139   3.869  71.676  1.00  0.00    -0.167 C  
HETATM   21  C   UNL     1     -10.986   4.757  73.762  1.00  0.00    -0.371 C  
HETATM   22  O   UNL     1     -10.072   4.392  69.342  1.00  0.00    -0.162 OA 
ENDBRANCH  16  17
ENDBRANCH   3  15
TORSDOF 4
ENDMDL
MODEL       56
REMARK 921   NORMALIZED FREE ENERGY PREDICTED BY IDOCK:   -5.26 KCAL/MOL
REMARK 922        TOTAL FREE ENERGY PREDICTED BY IDOCK:   -7.18 KCAL/MOL
REMARK 923 INTER-LIGAND FREE ENERGY PREDICTED BY IDOCK:   -6.59 KCAL/MOL
REMARK 924 INTRA-LIGAND FREE ENERGY PREDICTED BY IDOCK:   -0.59 KCAL/MOL
REMARK 927      BINDING AFFINITY PREDICTED BY RF-SCORE:    0.00 PKD
ROOT
HETATM    1  C   UNL     1     -12.267  15.762  70.315  1.00  0.00    -0.367 C  
HETATM    2  C   UNL     1     -11.347  15.144  69.289  1.00  0.00    -0.313 C  
HETATM    3  C   UNL     1     -11.224  13.803  69.168  1.00  0.00    -0.307 C  
ENDROOT
BRANCH   2   4
HETATM    4  C   UNL     1     -10.562  16.000  68.401  1.00  0.00    -0.270 C  
HETATM    5  C   UNL     1      -9.652  16.918  68.762  1.00  0.00    -0.268 C  
BRANCH   5   6
HETATM    6  C   UNL     1      -8.902  17.751  67.820  1.00  0.00    -0.249 C  
HETATM    7  C   UNL     1      -7.515  15.855  66.871  1.00  0.00    -0.233 C  
HETATM    8  C   UNL     1      -9.466  18.835  67.249  1.00  0.00    -0.326 C  
HETATM    9  C   UNL     1      -8.755  19.708  66.257  1.00  0.00    -0.401 C  
HETATM   10  C   UNL     1     -10.887  19.304  67.490  1.00  0.00    -0.524 C  
HETATM   11  C   UNL     1      -6.664  17.156  68.832  1.00  0.00    -0.209 C  
HETATM   12  C   UNL     1      -7.474  17.267  67.513  1.00  0.00    -0.186 C  
HETATM   13  C   UNL     1      -6.651  18.184  66.564  1.00  0.00    -0.239 C  
HETATM   14  C   UNL     1      -7.329  19.359  65.875  1.00  0.00    -0.306 C  
ENDBRANCH   5   6
ENDBRANCH   2   4
BRANCH   3  15
HETATM   15  C   UNL     1     -11.978  12.827  69.932  1.00  0.00    -0.368 C  
HETATM   16  C   UNL     1     -11.526  11.600  70.239  1.00  0.00    -0.118 C  
BRANCH  16  17
HETATM   17  C   UNL     1     -12.268  10.558  70.948  1.00  0.00    -0.490 C  
HETATM   18  C   UNL     1     -11.005   8.411  70.183  1.00  0.00    -0.215 C  
HETATM   19  O   UNL     1     -10.663   7.324  70.625  1.00  0.00    -0.227 OA 
HETATM   20  C   UNL     1     -12.008   9.236  70.887  1.00  0.00    -0.321 C  
HETATM   21  C   UNL     1     -13.404  10.946  71.878  1.00  0.00    -0.429 C  
HETATM   22  O   UNL     1     -10.560   8.895  69.014  1.00  0.00    -0.226 OA 
ENDBRANCH  16  17
ENDBRANCH   3  15
TORSDOF 4
ENDMDL
MODEL       57
REMARK 921   NORMALIZED FREE ENERGY PREDICTED BY IDOCK:   -5.25 KCAL/MOL
REMARK 922        TOTAL FREE ENERGY PREDICTED BY IDOCK:   -7.17 KCAL/MOL
REMARK 923 INTER-LIGAND FREE ENERGY PREDICTED BY IDOCK:   -6.57 KCAL/MOL
REMARK 924 INTRA-LIGAND FREE ENERGY PREDICTED BY IDOCK:   -0.61 KCAL/MOL
REMARK 927      BINDING AFFINITY PREDICTED BY RF-SCORE:    0.00 PKD
ROOT
HETATM    1  C   UNL     1     -10.442  15.304  65.191  1.00  0.00    -0.438 C  
HETATM    2  C   UNL     1     -10.090  14.945  66.615  1.00  0.00    -0.264 C  
HETATM    3  C   UNL     1      -9.871  15.899  67.549  1.00  0.00    -0.230 C  
ENDROOT
BRANCH   2   4
HETATM    4  C   UNL     1      -9.976  13.543  67.010  1.00  0.00    -0.247 C  
HETATM    5  C   UNL     1     -10.585  12.492  66.439  1.00  0.00    -0.271 C  
BRANCH   5   6
HETATM    6  C   UNL     1     -10.435  11.107  66.889  1.00  0.00    -0.289 C  
HETATM    7  C   UNL     1      -8.092  10.807  65.971  1.00  0.00    -0.158 C  
HETATM    8  C   UNL     1     -11.025  10.676  68.022  1.00  0.00    -0.336 C  
HETATM    9  C   UNL     1     -10.883   9.276  68.544  1.00  0.00    -0.119 C  
HETATM   10  C   UNL     1     -11.875  11.532  68.939  1.00  0.00    -0.406 C  
HETATM   11  C   UNL     1     -10.068  10.222  64.550  1.00  0.00    -0.286 C  
HETATM   12  C   UNL     1      -9.530  10.227  66.006  1.00  0.00    -0.234 C  
HETATM   13  C   UNL     1      -9.420   8.739  66.443  1.00  0.00    -0.291 C  
HETATM   14  C   UNL     1     -10.034   8.293  67.762  1.00  0.00    -0.235 C  
ENDBRANCH   5   6
ENDBRANCH   2   4
BRANCH   3  15
HETATM   15  C   UNL     1     -10.005  17.327  67.327  1.00  0.00    -0.283 C  
HETATM   16  C   UNL     1      -8.994  18.128  66.954  1.00  0.00    -0.275 C  
BRANCH  16  17
HETATM   17  C   UNL     1      -9.061  19.579  66.780  1.00  0.00    -0.396 C  
HETATM   18  C   UNL     1      -6.915  20.351  68.042  1.00  0.00    -0.282 C  
HETATM   19  O   UNL     1      -6.043  21.203  67.961  1.00  0.00    -0.335 OA 
HETATM   20  C   UNL     1      -8.163  20.465  67.259  1.00  0.00    -0.390 C  
HETATM   21  C   UNL     1     -10.188  20.186  65.962  1.00  0.00    -0.497 C  
HETATM   22  O   UNL     1      -6.840  19.309  68.883  1.00  0.00    -0.300 OA 
ENDBRANCH  16  17
ENDBRANCH   3  15
TORSDOF 4
ENDMDL
MODEL       58
REMARK 921   NORMALIZED FREE ENERGY PREDICTED BY IDOCK:   -5.24 KCAL/MOL
REMARK 922        TOTAL FREE ENERGY PREDICTED BY IDOCK:   -7.16 KCAL/MOL
REMARK 923 INTER-LIGAND FREE ENERGY PREDICTED BY IDOCK:   -6.45 KCAL/MOL
REMARK 924 INTRA-LIGAND FREE ENERGY PREDICTED BY IDOCK:   -0.71 KCAL/MOL
REMARK 927      BINDING AFFINITY PREDICTED BY RF-SCORE:    0.00 PKD
ROOT
HETATM    1  C   UNL     1     -10.599   9.998  68.086  1.00  0.00    -0.268 C  
HETATM    2  C   UNL     1     -11.280  11.271  67.640  1.00  0.00    -0.357 C  
HETATM    3  C   UNL     1     -11.253  11.671  66.349  1.00  0.00    -0.349 C  
ENDROOT
BRANCH   2   4
HETATM    4  C   UNL     1     -11.987  12.102  68.613  1.00  0.00    -0.290 C  
HETATM    5  C   UNL     1     -11.485  12.625  69.743  1.00  0.00    -0.200 C  
BRANCH   5   6
HETATM    6  C   UNL     1     -12.250  13.446  70.683  1.00  0.00    -0.427 C  
HETATM    7  C   UNL     1     -12.575  15.393  69.095  1.00  0.00     0.201 C  
HETATM    8  C   UNL     1     -13.062  12.880  71.600  1.00  0.00    -0.430 C  
HETATM    9  C   UNL     1     -13.890  13.673  72.568  1.00  0.00    -0.620 C  
HETATM   10  C   UNL     1     -13.284  11.390  71.762  1.00  0.00    -0.472 C  
HETATM   11  C   UNL     1     -10.589  15.348  70.618  1.00  0.00    -0.165 C  
HETATM   12  C   UNL     1     -12.089  14.966  70.505  1.00  0.00    -0.378 C  
HETATM   13  C   UNL     1     -12.848  15.841  71.542  1.00  0.00    -0.512 C  
HETATM   14  C   UNL     1     -13.813  15.186  72.519  1.00  0.00    -0.602 C  
ENDBRANCH   5   6
ENDBRANCH   2   4
BRANCH   3  15
HETATM   15  C   UNL     1     -10.647  10.926  65.260  1.00  0.00    -0.259 C  
HETATM   16  C   UNL     1      -9.361  11.046  64.892  1.00  0.00    -0.243 C  
BRANCH  16  17
HETATM   17  C   UNL     1      -8.719  10.369  63.765  1.00  0.00    -0.198 C  
HETATM   18  C   UNL     1      -8.114   8.065  64.821  1.00  0.00    -0.143 C  
HETATM   19  O   UNL     1      -8.048   6.886  64.508  1.00  0.00    -0.126 OA 
HETATM   20  C   UNL     1      -8.212   9.120  63.791  1.00  0.00    -0.173 C  
HETATM   21  C   UNL     1      -8.632  11.070  62.420  1.00  0.00    -0.341 C  
HETATM   22  O   UNL     1      -8.029   8.488  66.091  1.00  0.00    -0.098 OA 
ENDBRANCH  16  17
ENDBRANCH   3  15
TORSDOF 4
ENDMDL
MODEL       59
REMARK 921   NORMALIZED FREE ENERGY PREDICTED BY IDOCK:   -5.23 KCAL/MOL
REMARK 922        TOTAL FREE ENERGY PREDICTED BY IDOCK:   -7.15 KCAL/MOL
REMARK 923 INTER-LIGAND FREE ENERGY PREDICTED BY IDOCK:   -6.63 KCAL/MOL
REMARK 924 INTRA-LIGAND FREE ENERGY PREDICTED BY IDOCK:   -0.52 KCAL/MOL
REMARK 927      BINDING AFFINITY PREDICTED BY RF-SCORE:    0.00 PKD
ROOT
HETATM    1  C   UNL     1     -10.668  11.180  68.497  1.00  0.00    -0.235 C  
HETATM    2  C   UNL     1     -11.226  10.530  69.741  1.00  0.00    -0.361 C  
HETATM    3  C   UNL     1     -11.987  11.223  70.619  1.00  0.00    -0.435 C  
ENDROOT
BRANCH   2   4
HETATM    4  C   UNL     1     -10.945   9.123  70.021  1.00  0.00    -0.240 C  
HETATM    5  C   UNL     1     -10.085   8.637  70.929  1.00  0.00    -0.262 C  
BRANCH   5   6
HETATM    6  C   UNL     1      -9.843   7.211  71.155  1.00  0.00    -0.180 C  
HETATM    7  C   UNL     1     -12.241   6.650  71.752  1.00  0.00    -0.400 C  
HETATM    8  C   UNL     1      -8.905   6.545  70.451  1.00  0.00    -0.151 C  
HETATM    9  C   UNL     1      -8.633   5.078  70.623  1.00  0.00    -0.125 C  
HETATM   10  C   UNL     1      -8.027   7.155  69.378  1.00  0.00    -0.125 C  
HETATM   11  C   UNL     1     -10.630   7.298  73.555  1.00  0.00    -0.408 C  
HETATM   12  C   UNL     1     -10.759   6.550  72.201  1.00  0.00    -0.249 C  
HETATM   13  C   UNL     1     -10.462   5.051  72.492  1.00  0.00    -0.270 C  
HETATM   14  C   UNL     1      -9.451   4.303  71.637  1.00  0.00    -0.211 C  
ENDBRANCH   5   6
ENDBRANCH   2   4
BRANCH   3  15
HETATM   15  C   UNL     1     -12.402  12.603  70.451  1.00  0.00    -0.315 C  
HETATM   16  C   UNL     1     -12.452  13.500  71.449  1.00  0.00    -0.347 C  
BRANCH  16  17
HETATM   17  C   UNL     1     -12.922  14.881  71.347  1.00  0.00    -0.427 C  
HETATM   18  C   UNL     1     -11.305  15.848  69.547  1.00  0.00    -0.335 C  
HETATM   19  O   UNL     1     -11.313  16.640  68.616  1.00  0.00    -0.304 OA 
HETATM   20  C   UNL     1     -12.404  15.825  70.534  1.00  0.00    -0.388 C  
HETATM   21  C   UNL     1     -14.120  15.328  72.167  1.00  0.00    -0.658 C  
HETATM   22  O   UNL     1     -10.285  15.009  69.781  1.00  0.00    -0.207 OA 
ENDBRANCH  16  17
ENDBRANCH   3  15
TORSDOF 4
ENDMDL
MODEL       60
REMARK 921   NORMALIZED FREE ENERGY PREDICTED BY IDOCK:   -5.22 KCAL/MOL
REMARK 922        TOTAL FREE ENERGY PREDICTED BY IDOCK:   -7.14 KCAL/MOL
REMARK 923 INTER-LIGAND FREE ENERGY PREDICTED BY IDOCK:   -6.50 KCAL/MOL
REMARK 924 INTRA-LIGAND FREE ENERGY PREDICTED BY IDOCK:   -0.63 KCAL/MOL
REMARK 927      BINDING AFFINITY PREDICTED BY RF-SCORE:    0.00 PKD
ROOT
HETATM    1  C   UNL     1     -10.392   9.280  67.383  1.00  0.00    -0.327 C  
HETATM    2  C   UNL     1     -10.416  10.492  68.284  1.00  0.00    -0.211 C  
HETATM    3  C   UNL     1     -10.343  10.372  69.629  1.00  0.00    -0.261 C  
ENDROOT
BRANCH   2   4
HETATM    4  C   UNL     1     -10.524  11.831  67.708  1.00  0.00    -0.219 C  
HETATM    5  C   UNL     1     -10.226  12.194  66.450  1.00  0.00    -0.245 C  
BRANCH   5   6
HETATM    6  C   UNL     1     -10.349  13.559  65.935  1.00  0.00    -0.301 C  
HETATM    7  C   UNL     1     -12.849  13.441  65.534  1.00  0.00    -0.361 C  
HETATM    8  C   UNL     1      -9.550  14.547  66.386  1.00  0.00    -0.324 C  
HETATM    9  C   UNL     1      -9.651  15.968  65.913  1.00  0.00    -0.370 C  
HETATM   10  C   UNL     1      -8.476  14.383  67.442  1.00  0.00    -0.216 C  
HETATM   11  C   UNL     1     -11.264  12.801  63.705  1.00  0.00    -0.482 C  
HETATM   12  C   UNL     1     -11.470  13.768  64.901  1.00  0.00    -0.351 C  
HETATM   13  C   UNL     1     -11.563  15.201  64.302  1.00  0.00    -0.192 C  
HETATM   14  C   UNL     1     -10.702  16.315  64.876  1.00  0.00    -0.256 C  
ENDBRANCH   5   6
ENDBRANCH   2   4
BRANCH   3  15
HETATM   15  C   UNL     1     -10.172   9.121  70.345  1.00  0.00    -0.268 C  
HETATM   16  C   UNL     1     -11.154   8.500  71.018  1.00  0.00    -0.306 C  
BRANCH  16  17
HETATM   17  C   UNL     1     -11.020   7.275  71.806  1.00  0.00    -0.256 C  
HETATM   18  C   UNL     1     -10.630   5.498  69.941  1.00  0.00    -0.317 C  
HETATM   19  O   UNL     1      -9.995   4.471  69.752  1.00  0.00    -0.223 OA 
HETATM   20  C   UNL     1     -10.802   6.042  71.304  1.00  0.00    -0.331 C  
HETATM   21  C   UNL     1     -11.075   7.350  73.323  1.00  0.00    -0.303 C  
HETATM   22  O   UNL     1     -11.266   6.153  68.960  1.00  0.00    -0.383 OA 
ENDBRANCH  16  17
ENDBRANCH   3  15
TORSDOF 4
ENDMDL
MODEL       61
REMARK 921   NORMALIZED FREE ENERGY PREDICTED BY IDOCK:   -5.22 KCAL/MOL
REMARK 922        TOTAL FREE ENERGY PREDICTED BY IDOCK:   -7.13 KCAL/MOL
REMARK 923 INTER-LIGAND FREE ENERGY PREDICTED BY IDOCK:   -6.72 KCAL/MOL
REMARK 924 INTRA-LIGAND FREE ENERGY PREDICTED BY IDOCK:   -0.41 KCAL/MOL
REMARK 927      BINDING AFFINITY PREDICTED BY RF-SCORE:    0.00 PKD
ROOT
HETATM    1  C   UNL     1     -10.130   9.166  66.475  1.00  0.00    -0.357 C  
HETATM    2  C   UNL     1     -10.520   9.560  67.881  1.00  0.00    -0.293 C  
HETATM    3  C   UNL     1     -10.964  10.805  68.166  1.00  0.00    -0.308 C  
ENDROOT
BRANCH   2   4
HETATM    4  C   UNL     1     -10.418   8.589  68.968  1.00  0.00    -0.216 C  
HETATM    5  C   UNL     1     -10.892   7.333  68.976  1.00  0.00    -0.137 C  
BRANCH   5   6
HETATM    6  C   UNL     1     -10.763   6.410  70.104  1.00  0.00    -0.328 C  
HETATM    7  C   UNL     1      -8.275   6.023  69.817  1.00  0.00    -0.118 C  
HETATM    8  C   UNL     1     -11.539   6.538  71.200  1.00  0.00    -0.390 C  
HETATM    9  C   UNL     1     -11.432   5.637  72.396  1.00  0.00    -0.309 C  
HETATM   10  C   UNL     1     -12.591   7.610  71.399  1.00  0.00    -0.359 C  
HETATM   11  C   UNL     1      -9.908   4.519  68.662  1.00  0.00    -0.168 C  
HETATM   12  C   UNL     1      -9.663   5.343  69.954  1.00  0.00    -0.249 C  
HETATM   13  C   UNL     1      -9.566   4.320  71.121  1.00  0.00    -0.249 C  
HETATM   14  C   UNL     1     -10.400   4.526  72.376  1.00  0.00    -0.256 C  
ENDBRANCH   5   6
ENDBRANCH   2   4
BRANCH   3  15
HETATM   15  C   UNL     1     -11.177  11.857  67.189  1.00  0.00    -0.377 C  
HETATM   16  C   UNL     1     -10.187  12.540  66.592  1.00  0.00    -0.243 C  
BRANCH  16  17
HETATM   17  C   UNL     1     -10.347  13.649  65.652  1.00  0.00    -0.309 C  
HETATM   18  C   UNL     1     -11.759  12.531  63.768  1.00  0.00    -0.485 C  
HETATM   19  O   UNL     1     -12.652  12.811  62.982  1.00  0.00    -0.507 OA 
HETATM   20  C   UNL     1     -11.015  13.590  64.481  1.00  0.00    -0.405 C  
HETATM   21  C   UNL     1      -9.775  15.013  65.996  1.00  0.00    -0.359 C  
HETATM   22  O   UNL     1     -11.345  11.273  63.982  1.00  0.00    -0.297 OA 
ENDBRANCH  16  17
ENDBRANCH   3  15
TORSDOF 4
ENDMDL
MODEL       62
REMARK 921   NORMALIZED FREE ENERGY PREDICTED BY IDOCK:   -5.21 KCAL/MOL
REMARK 922        TOTAL FREE ENERGY PREDICTED BY IDOCK:   -7.12 KCAL/MOL
REMARK 923 INTER-LIGAND FREE ENERGY PREDICTED BY IDOCK:   -6.49 KCAL/MOL
REMARK 924 INTRA-LIGAND FREE ENERGY PREDICTED BY IDOCK:   -0.63 KCAL/MOL
REMARK 927      BINDING AFFINITY PREDICTED BY RF-SCORE:    0.00 PKD
ROOT
HETATM    1  C   UNL     1     -10.143  10.258  65.847  1.00  0.00    -0.319 C  
HETATM    2  C   UNL     1     -10.784  10.139  67.210  1.00  0.00    -0.316 C  
HETATM    3  C   UNL     1     -10.837   8.956  67.863  1.00  0.00    -0.096 C  
ENDROOT
BRANCH   2   4
HETATM    4  C   UNL     1     -11.367  11.316  67.851  1.00  0.00    -0.367 C  
HETATM    5  C   UNL     1     -10.827  12.048  68.838  1.00  0.00    -0.252 C  
BRANCH   5   6
HETATM    6  C   UNL     1     -11.468  13.216  69.444  1.00  0.00    -0.321 C  
HETATM    7  C   UNL     1     -11.700  14.515  67.280  1.00  0.00    -0.429 C  
HETATM    8  C   UNL     1     -12.279  13.087  70.514  1.00  0.00    -0.392 C  
HETATM    9  C   UNL     1     -12.983  14.246  71.158  1.00  0.00    -0.423 C  
HETATM   10  C   UNL     1     -12.622  11.776  71.192  1.00  0.00    -0.412 C  
HETATM   11  C   UNL     1      -9.651  14.802  68.688  1.00  0.00    -0.218 C  
HETATM   12  C   UNL     1     -11.183  14.556  68.742  1.00  0.00    -0.281 C  
HETATM   13  C   UNL     1     -11.808  15.808  69.420  1.00  0.00    -0.361 C  
HETATM   14  C   UNL     1     -12.775  15.633  70.581  1.00  0.00    -0.443 C  
ENDBRANCH   5   6
ENDBRANCH   2   4
BRANCH   3  15
HETATM   15  C   UNL     1     -10.251   7.716  67.387  1.00  0.00    -0.320 C  
HETATM   16  C   UNL     1     -10.814   6.508  67.550  1.00  0.00    -0.433 C  
BRANCH  16  17
HETATM   17  C   UNL     1     -10.237   5.225  67.148  1.00  0.00    -0.264 C  
HETATM   18  C   UNL     1      -9.617   4.190  69.458  1.00  0.00    -0.204 C  
HETATM   19  O   UNL     1      -9.585   3.101  70.012  1.00  0.00    -0.166 OA 
HETATM   20  C   UNL     1      -9.749   4.291  67.990  1.00  0.00    -0.168 C  
HETATM   21  C   UNL     1     -10.205   4.844  65.678  1.00  0.00    -0.155 C  
HETATM   22  O   UNL     1      -9.465   5.348  70.117  1.00  0.00    -0.149 OA 
ENDBRANCH  16  17
ENDBRANCH   3  15
TORSDOF 4
ENDMDL
MODEL       63
REMARK 921   NORMALIZED FREE ENERGY PREDICTED BY IDOCK:   -5.20 KCAL/MOL
REMARK 922        TOTAL FREE ENERGY PREDICTED BY IDOCK:   -7.11 KCAL/MOL
REMARK 923 INTER-LIGAND FREE ENERGY PREDICTED BY IDOCK:   -6.47 KCAL/MOL
REMARK 924 INTRA-LIGAND FREE ENERGY PREDICTED BY IDOCK:   -0.64 KCAL/MOL
REMARK 927      BINDING AFFINITY PREDICTED BY RF-SCORE:    0.00 PKD
ROOT
HETATM    1  C   UNL     1     -10.481   8.505  68.573  1.00  0.00    -0.205 C  
HETATM    2  C   UNL     1     -11.006   9.377  69.690  1.00  0.00    -0.216 C  
HETATM    3  C   UNL     1     -11.535   8.842  70.813  1.00  0.00    -0.309 C  
ENDROOT
BRANCH   2   4
HETATM    4  C   UNL     1     -10.952  10.832  69.569  1.00  0.00    -0.317 C  
HETATM    5  C   UNL     1     -11.787  11.615  68.867  1.00  0.00    -0.392 C  
BRANCH   5   6
HETATM    6  C   UNL     1     -11.674  13.072  68.780  1.00  0.00    -0.363 C  
HETATM    7  C   UNL     1     -12.185  13.206  66.302  1.00  0.00    -0.423 C  
HETATM    8  C   UNL     1     -12.017  13.860  69.819  1.00  0.00    -0.398 C  
HETATM    9  C   UNL     1     -11.947  15.359  69.776  1.00  0.00    -0.381 C  
HETATM   10  C   UNL     1     -12.548  13.363  71.149  1.00  0.00    -0.430 C  
HETATM   11  C   UNL     1      -9.814  12.982  67.071  1.00  0.00    -0.238 C  
HETATM   12  C   UNL     1     -11.189  13.610  67.421  1.00  0.00    -0.323 C  
HETATM   13  C   UNL     1     -11.005  15.152  67.344  1.00  0.00    -0.314 C  
HETATM   14  C   UNL     1     -11.466  16.025  68.502  1.00  0.00    -0.357 C  
ENDBRANCH   5   6
ENDBRANCH   2   4
BRANCH   3  15
HETATM   15  C   UNL     1     -11.602   7.422  71.106  1.00  0.00    -0.313 C  
HETATM   16  C   UNL     1     -10.671   6.754  71.807  1.00  0.00    -0.250 C  
BRANCH  16  17
HETATM   17  C   UNL     1     -10.658   5.316  72.074  1.00  0.00    -0.279 C  
HETATM   18  C   UNL     1      -9.208   4.435  70.097  1.00  0.00    -0.132 C  
HETATM   19  O   UNL     1      -8.376   3.570  69.865  1.00  0.00    -0.052 OA 
HETATM   20  C   UNL     1     -10.030   4.388  71.324  1.00  0.00    -0.245 C  
HETATM   21  C   UNL     1     -11.354   4.777  73.312  1.00  0.00    -0.408 C  
HETATM   22  O   UNL     1      -9.484   5.429  69.240  1.00  0.00    -0.121 OA 
ENDBRANCH  16  17
ENDBRANCH   3  15
TORSDOF 4
ENDMDL
MODEL       64
REMARK 921   NORMALIZED FREE ENERGY PREDICTED BY IDOCK:   -5.18 KCAL/MOL
REMARK 922        TOTAL FREE ENERGY PREDICTED BY IDOCK:   -7.08 KCAL/MOL
REMARK 923 INTER-LIGAND FREE ENERGY PREDICTED BY IDOCK:   -6.48 KCAL/MOL
REMARK 924 INTRA-LIGAND FREE ENERGY PREDICTED BY IDOCK:   -0.60 KCAL/MOL
REMARK 927      BINDING AFFINITY PREDICTED BY RF-SCORE:    0.00 PKD
ROOT
HETATM    1  C   UNL     1     -10.265   9.280  67.285  1.00  0.00    -0.315 C  
HETATM    2  C   UNL     1     -10.574  10.449  68.191  1.00  0.00    -0.246 C  
HETATM    3  C   UNL     1     -10.763  10.281  69.519  1.00  0.00    -0.280 C  
ENDROOT
BRANCH   2   4
HETATM    4  C   UNL     1     -10.677  11.797  67.636  1.00  0.00    -0.254 C  
HETATM    5  C   UNL     1     -10.220  12.217  66.445  1.00  0.00    -0.245 C  
BRANCH   5   6
HETATM    6  C   UNL     1     -10.349  13.588  65.949  1.00  0.00    -0.301 C  
HETATM    7  C   UNL     1     -12.873  13.530  65.732  1.00  0.00    -0.326 C  
HETATM    8  C   UNL     1      -9.496  14.554  66.347  1.00  0.00    -0.316 C  
HETATM    9  C   UNL     1      -9.598  15.981  65.892  1.00  0.00    -0.370 C  
HETATM   10  C   UNL     1      -8.352  14.357  67.320  1.00  0.00    -0.228 C  
HETATM   11  C   UNL     1     -11.442  12.870  63.787  1.00  0.00    -0.519 C  
HETATM   12  C   UNL     1     -11.538  13.832  65.002  1.00  0.00    -0.350 C  
HETATM   13  C   UNL     1     -11.641  15.271  64.421  1.00  0.00    -0.265 C  
HETATM   14  C   UNL     1     -10.714  16.360  64.937  1.00  0.00    -0.213 C  
ENDBRANCH   5   6
ENDBRANCH   2   4
BRANCH   3  15
HETATM   15  C   UNL     1     -10.633   9.020  70.225  1.00  0.00    -0.250 C  
HETATM   16  C   UNL     1     -10.836   8.872  71.544  1.00  0.00    -0.396 C  
BRANCH  16  17
HETATM   17  C   UNL     1     -10.657   7.642  72.314  1.00  0.00    -0.298 C  
HETATM   18  C   UNL     1      -8.333   8.055  73.418  1.00  0.00    -0.220 C  
HETATM   19  O   UNL     1      -7.746   7.826  74.465  1.00  0.00    -0.158 OA 
HETATM   20  C   UNL     1      -9.587   7.350  73.082  1.00  0.00    -0.259 C  
HETATM   21  C   UNL     1     -11.757   6.594  72.320  1.00  0.00    -0.305 C  
HETATM   22  O   UNL     1      -7.857   8.891  72.483  1.00  0.00    -0.369 OA 
ENDBRANCH  16  17
ENDBRANCH   3  15
TORSDOF 4
ENDMDL
MODEL       65
REMARK 921   NORMALIZED FREE ENERGY PREDICTED BY IDOCK:   -5.17 KCAL/MOL
REMARK 922        TOTAL FREE ENERGY PREDICTED BY IDOCK:   -7.07 KCAL/MOL
REMARK 923 INTER-LIGAND FREE ENERGY PREDICTED BY IDOCK:   -6.52 KCAL/MOL
REMARK 924 INTRA-LIGAND FREE ENERGY PREDICTED BY IDOCK:   -0.55 KCAL/MOL
REMARK 927      BINDING AFFINITY PREDICTED BY RF-SCORE:    0.00 PKD
ROOT
HETATM    1  C   UNL     1     -11.829  14.879  70.264  1.00  0.00    -0.358 C  
HETATM    2  C   UNL     1     -10.993  14.274  69.160  1.00  0.00    -0.286 C  
HETATM    3  C   UNL     1     -10.983  12.940  68.934  1.00  0.00    -0.271 C  
ENDROOT
BRANCH   2   4
HETATM    4  C   UNL     1     -10.170  15.132  68.311  1.00  0.00    -0.223 C  
HETATM    5  C   UNL     1      -9.584  16.288  68.659  1.00  0.00    -0.237 C  
BRANCH   5   6
HETATM    6  C   UNL     1      -8.775  17.108  67.755  1.00  0.00    -0.220 C  
HETATM    7  C   UNL     1      -9.514  19.332  68.718  1.00  0.00    -0.459 C  
HETATM    8  C   UNL     1      -7.584  16.670  67.298  1.00  0.00    -0.199 C  
HETATM    9  C   UNL     1      -6.701  17.478  66.392  1.00  0.00    -0.297 C  
HETATM   10  C   UNL     1      -6.954  15.337  67.650  1.00  0.00    -0.209 C  
HETATM   11  C   UNL     1     -10.779  18.322  66.809  1.00  0.00    -0.247 C  
HETATM   12  C   UNL     1      -9.363  18.491  67.423  1.00  0.00    -0.287 C  
HETATM   13  C   UNL     1      -8.540  19.339  66.412  1.00  0.00    -0.355 C  
HETATM   14  C   UNL     1      -7.168  18.857  65.966  1.00  0.00    -0.293 C  
ENDBRANCH   5   6
ENDBRANCH   2   4
BRANCH   3  15
HETATM   15  C   UNL     1     -11.790  11.969  69.650  1.00  0.00    -0.401 C  
HETATM   16  C   UNL     1     -11.306  10.834  70.180  1.00  0.00    -0.390 C  
BRANCH  16  17
HETATM   17  C   UNL     1     -12.084   9.794  70.852  1.00  0.00    -0.407 C  
HETATM   18  C   UNL     1     -10.768   7.648  70.181  1.00  0.00    -0.240 C  
HETATM   19  O   UNL     1     -10.448   6.566  70.652  1.00  0.00    -0.204 OA 
HETATM   20  C   UNL     1     -11.815   8.473  70.818  1.00  0.00    -0.184 C  
HETATM   21  C   UNL     1     -13.275  10.184  71.710  1.00  0.00    -0.542 C  
HETATM   22  O   UNL     1     -10.257   8.124  69.036  1.00  0.00    -0.210 OA 
ENDBRANCH  16  17
ENDBRANCH   3  15
TORSDOF 4
ENDMDL
MODEL       66
REMARK 921   NORMALIZED FREE ENERGY PREDICTED BY IDOCK:   -5.17 KCAL/MOL
REMARK 922        TOTAL FREE ENERGY PREDICTED BY IDOCK:   -7.07 KCAL/MOL
REMARK 923 INTER-LIGAND FREE ENERGY PREDICTED BY IDOCK:   -6.58 KCAL/MOL
REMARK 924 INTRA-LIGAND FREE ENERGY PREDICTED BY IDOCK:   -0.49 KCAL/MOL
REMARK 927      BINDING AFFINITY PREDICTED BY RF-SCORE:    0.00 PKD
ROOT
HETATM    1  C   UNL     1      -9.426  14.927  67.672  1.00  0.00    -0.199 C  
HETATM    2  C   UNL     1      -9.382  15.916  66.530  1.00  0.00    -0.306 C  
HETATM    3  C   UNL     1      -9.971  15.648  65.342  1.00  0.00    -0.311 C  
ENDROOT
BRANCH   2   4
HETATM    4  C   UNL     1      -8.691  17.193  66.694  1.00  0.00    -0.281 C  
HETATM    5  C   UNL     1      -7.382  17.377  66.930  1.00  0.00    -0.237 C  
BRANCH   5   6
HETATM    6  C   UNL     1      -6.750  18.688  67.093  1.00  0.00    -0.206 C  
HETATM    7  C   UNL     1      -6.221  18.397  69.554  1.00  0.00    -0.262 C  
HETATM    8  C   UNL     1      -6.066  19.260  66.081  1.00  0.00    -0.191 C  
HETATM    9  C   UNL     1      -5.376  20.588  66.201  1.00  0.00    -0.207 C  
HETATM   10  C   UNL     1      -5.865  18.646  64.711  1.00  0.00    -0.241 C  
HETATM   11  C   UNL     1      -8.391  19.435  68.863  1.00  0.00    -0.335 C  
HETATM   12  C   UNL     1      -6.889  19.311  68.493  1.00  0.00    -0.319 C  
HETATM   13  C   UNL     1      -6.276  20.732  68.652  1.00  0.00    -0.308 C  
HETATM   14  C   UNL     1      -5.449  21.327  67.523  1.00  0.00    -0.380 C  
ENDBRANCH   5   6
ENDBRANCH   2   4
BRANCH   3  15
HETATM   15  C   UNL     1     -10.744  14.456  65.047  1.00  0.00    -0.440 C  
HETATM   16  C   UNL     1     -10.228  13.340  64.507  1.00  0.00    -0.332 C  
BRANCH  16  17
HETATM   17  C   UNL     1     -10.971  12.139  64.131  1.00  0.00    -0.416 C  
HETATM   18  C   UNL     1      -9.493  10.266  65.178  1.00  0.00    -0.252 C  
HETATM   19  O   UNL     1      -9.614   9.178  65.722  1.00  0.00    -0.262 OA 
HETATM   20  C   UNL     1     -10.617  10.873  64.437  1.00  0.00    -0.343 C  
HETATM   21  C   UNL     1     -12.281  12.273  63.374  1.00  0.00    -0.630 C  
HETATM   22  O   UNL     1      -8.334  10.941  65.149  1.00  0.00    -0.120 OA 
ENDBRANCH  16  17
ENDBRANCH   3  15
TORSDOF 4
ENDMDL
MODEL       67
REMARK 921   NORMALIZED FREE ENERGY PREDICTED BY IDOCK:   -5.16 KCAL/MOL
REMARK 922        TOTAL FREE ENERGY PREDICTED BY IDOCK:   -7.06 KCAL/MOL
REMARK 923 INTER-LIGAND FREE ENERGY PREDICTED BY IDOCK:   -6.33 KCAL/MOL
REMARK 924 INTRA-LIGAND FREE ENERGY PREDICTED BY IDOCK:   -0.73 KCAL/MOL
REMARK 927      BINDING AFFINITY PREDICTED BY RF-SCORE:    0.00 PKD
ROOT
HETATM    1  C   UNL     1     -10.159   9.734  70.148  1.00  0.00    -0.317 C  
HETATM    2  C   UNL     1     -10.371   9.445  68.680  1.00  0.00    -0.227 C  
HETATM    3  C   UNL     1     -10.084   8.234  68.151  1.00  0.00    -0.238 C  
ENDROOT
BRANCH   2   4
HETATM    4  C   UNL     1     -10.893  10.487  67.797  1.00  0.00    -0.347 C  
HETATM    5  C   UNL     1     -10.199  11.485  67.228  1.00  0.00    -0.229 C  
BRANCH   5   6
HETATM    6  C   UNL     1     -10.785  12.504  66.356  1.00  0.00    -0.275 C  
HETATM    7  C   UNL     1      -9.782  14.480  67.586  1.00  0.00    -0.215 C  
HETATM    8  C   UNL     1     -10.991  12.263  65.045  1.00  0.00    -0.344 C  
HETATM    9  C   UNL     1     -11.563  13.280  64.101  1.00  0.00    -0.451 C  
HETATM   10  C   UNL     1     -10.651  10.968  64.336  1.00  0.00    -0.395 C  
HETATM   11  C   UNL     1     -12.039  13.622  68.244  1.00  0.00    -0.306 C  
HETATM   12  C   UNL     1     -11.090  13.850  67.038  1.00  0.00    -0.311 C  
HETATM   13  C   UNL     1     -11.772  14.915  66.132  1.00  0.00    -0.178 C  
HETATM   14  C   UNL     1     -11.929  14.648  64.642  1.00  0.00    -0.472 C  
ENDBRANCH   5   6
ENDBRANCH   2   4
BRANCH   3  15
HETATM   15  C   UNL     1      -9.619   7.086  68.907  1.00  0.00    -0.140 C  
HETATM   16  C   UNL     1     -10.422   6.112  69.364  1.00  0.00    -0.316 C  
BRANCH  16  17
HETATM   17  C   UNL     1     -10.015   4.970  70.183  1.00  0.00    -0.328 C  
HETATM   18  C   UNL     1     -10.962   5.642  72.516  1.00  0.00    -0.264 C  
HETATM   19  O   UNL     1     -11.467   5.123  73.501  1.00  0.00    -0.250 OA 
HETATM   20  C   UNL     1     -10.266   4.825  71.500  1.00  0.00    -0.246 C  
HETATM   21  C   UNL     1      -9.289   3.804  69.536  1.00  0.00    -0.249 C  
HETATM   22  O   UNL     1     -10.937   6.969  72.323  1.00  0.00    -0.229 OA 
ENDBRANCH  16  17
ENDBRANCH   3  15
TORSDOF 4
ENDMDL
MODEL       68
REMARK 921   NORMALIZED FREE ENERGY PREDICTED BY IDOCK:   -5.16 KCAL/MOL
REMARK 922        TOTAL FREE ENERGY PREDICTED BY IDOCK:   -7.06 KCAL/MOL
REMARK 923 INTER-LIGAND FREE ENERGY PREDICTED BY IDOCK:   -6.66 KCAL/MOL
REMARK 924 INTRA-LIGAND FREE ENERGY PREDICTED BY IDOCK:   -0.40 KCAL/MOL
REMARK 927      BINDING AFFINITY PREDICTED BY RF-SCORE:    0.00 PKD
ROOT
HETATM    1  C   UNL     1      -9.917   9.628  65.625  1.00  0.00    -0.321 C  
HETATM    2  C   UNL     1     -10.253   9.554  67.096  1.00  0.00    -0.305 C  
HETATM    3  C   UNL     1     -10.800  10.604  67.748  1.00  0.00    -0.338 C  
ENDROOT
BRANCH   2   4
HETATM    4  C   UNL     1      -9.983   8.330  67.848  1.00  0.00    -0.227 C  
HETATM    5  C   UNL     1     -10.560   7.131  67.671  1.00  0.00    -0.318 C  
BRANCH   5   6
HETATM    6  C   UNL     1     -10.250   5.941  68.466  1.00  0.00    -0.240 C  
HETATM    7  C   UNL     1      -8.022   5.480  67.352  1.00  0.00    -0.101 C  
HETATM    8  C   UNL     1     -10.663   5.832  69.745  1.00  0.00    -0.418 C  
HETATM    9  C   UNL     1     -10.351   4.648  70.614  1.00  0.00    -0.119 C  
HETATM   10  C   UNL     1     -11.457   6.883  70.495  1.00  0.00    -0.390 C  
HETATM   11  C   UNL     1     -10.106   4.435  66.442  1.00  0.00    -0.235 C  
HETATM   12  C   UNL     1      -9.396   4.880  67.749  1.00  0.00    -0.154 C  
HETATM   13  C   UNL     1      -9.119   3.586  68.566  1.00  0.00    -0.202 C  
HETATM   14  C   UNL     1      -9.531   3.515  70.028  1.00  0.00    -0.253 C  
ENDBRANCH   5   6
ENDBRANCH   2   4
BRANCH   3  15
HETATM   15  C   UNL     1     -11.181  11.860  67.129  1.00  0.00    -0.377 C  
HETATM   16  C   UNL     1     -10.334  12.652  66.452  1.00  0.00    -0.264 C  
BRANCH  16  17
HETATM   17  C   UNL     1     -10.650  13.954  65.866  1.00  0.00    -0.293 C  
HETATM   18  C   UNL     1     -11.827  13.253  63.649  1.00  0.00    -0.458 C  
HETATM   19  O   UNL     1     -12.738  13.621  62.922  1.00  0.00    -0.577 OA 
HETATM   20  C   UNL     1     -11.276  14.149  64.687  1.00  0.00    -0.371 C  
HETATM   21  C   UNL     1     -10.309  15.223  66.628  1.00  0.00    -0.281 C  
HETATM   22  O   UNL     1     -11.223  12.063  63.516  1.00  0.00    -0.417 OA 
ENDBRANCH  16  17
ENDBRANCH   3  15
TORSDOF 4
ENDMDL
MODEL       69
REMARK 921   NORMALIZED FREE ENERGY PREDICTED BY IDOCK:   -5.16 KCAL/MOL
REMARK 922        TOTAL FREE ENERGY PREDICTED BY IDOCK:   -7.05 KCAL/MOL
REMARK 923 INTER-LIGAND FREE ENERGY PREDICTED BY IDOCK:   -6.39 KCAL/MOL
REMARK 924 INTRA-LIGAND FREE ENERGY PREDICTED BY IDOCK:   -0.66 KCAL/MOL
REMARK 927      BINDING AFFINITY PREDICTED BY RF-SCORE:    0.00 PKD
ROOT
HETATM    1  C   UNL     1     -12.855  10.997  71.684  1.00  0.00    -0.540 C  
HETATM    2  C   UNL     1     -11.710  10.336  70.953  1.00  0.00    -0.472 C  
HETATM    3  C   UNL     1     -11.327  10.747  69.723  1.00  0.00    -0.372 C  
ENDROOT
BRANCH   2   4
HETATM    4  C   UNL     1     -10.991   9.225  71.573  1.00  0.00    -0.446 C  
HETATM    5  C   UNL     1     -10.262   8.286  70.948  1.00  0.00    -0.224 C  
BRANCH   5   6
HETATM    6  C   UNL     1      -9.571   7.190  71.628  1.00  0.00    -0.163 C  
HETATM    7  C   UNL     1     -10.566   5.351  70.197  1.00  0.00    -0.344 C  
HETATM    8  C   UNL     1      -8.341   7.363  72.153  1.00  0.00    -0.122 C  
HETATM    9  C   UNL     1      -7.575   6.268  72.836  1.00  0.00    -0.096 C  
HETATM   10  C   UNL     1      -7.548   8.654  72.102  1.00  0.00    -0.061 C  
HETATM   11  C   UNL     1     -11.720   6.046  72.306  1.00  0.00    -0.338 C  
HETATM   12  C   UNL     1     -10.329   5.850  71.646  1.00  0.00    -0.268 C  
HETATM   13  C   UNL     1      -9.628   4.700  72.424  1.00  0.00    -0.192 C  
HETATM   14  C   UNL     1      -8.212   4.896  72.945  1.00  0.00    -0.101 C  
ENDBRANCH   5   6
ENDBRANCH   2   4
BRANCH   3  15
HETATM   15  C   UNL     1     -11.899  11.871  69.006  1.00  0.00    -0.368 C  
HETATM   16  C   UNL     1     -11.173  12.819  68.391  1.00  0.00    -0.313 C  
BRANCH  16  17
HETATM   17  C   UNL     1     -11.697  14.004  67.712  1.00  0.00    -0.403 C  
HETATM   18  C   UNL     1     -10.726  15.919  69.189  1.00  0.00    -0.259 C  
HETATM   19  O   UNL     1     -10.286  17.054  69.072  1.00  0.00    -0.301 OA 
HETATM   20  C   UNL     1     -11.480  15.281  68.090  1.00  0.00    -0.357 C  
HETATM   21  C   UNL     1     -12.519  13.841  66.446  1.00  0.00    -0.404 C  
HETATM   22  O   UNL     1     -10.625  15.211  70.323  1.00  0.00    -0.247 OA 
ENDBRANCH  16  17
ENDBRANCH   3  15
TORSDOF 4
ENDMDL
MODEL       70
REMARK 921   NORMALIZED FREE ENERGY PREDICTED BY IDOCK:   -5.11 KCAL/MOL
REMARK 922        TOTAL FREE ENERGY PREDICTED BY IDOCK:   -7.00 KCAL/MOL
REMARK 923 INTER-LIGAND FREE ENERGY PREDICTED BY IDOCK:   -6.32 KCAL/MOL
REMARK 924 INTRA-LIGAND FREE ENERGY PREDICTED BY IDOCK:   -0.68 KCAL/MOL
REMARK 927      BINDING AFFINITY PREDICTED BY RF-SCORE:    0.00 PKD
ROOT
HETATM    1  C   UNL     1     -10.718  11.441  65.958  1.00  0.00    -0.318 C  
HETATM    2  C   UNL     1     -11.058  10.919  67.334  1.00  0.00    -0.373 C  
HETATM    3  C   UNL     1     -10.739   9.660  67.709  1.00  0.00    -0.316 C  
ENDROOT
BRANCH   2   4
HETATM    4  C   UNL     1     -11.749  11.779  68.293  1.00  0.00    -0.377 C  
HETATM    5  C   UNL     1     -11.227  12.342  69.394  1.00  0.00    -0.243 C  
BRANCH   5   6
HETATM    6  C   UNL     1     -11.978  13.190  70.322  1.00  0.00    -0.366 C  
HETATM    7  C   UNL     1     -12.345  15.082  68.676  1.00  0.00     0.050 C  
HETATM    8  C   UNL     1     -12.768  12.651  71.273  1.00  0.00    -0.354 C  
HETATM    9  C   UNL     1     -13.580  13.472  72.232  1.00  0.00    -0.690 C  
HETATM   10  C   UNL     1     -12.978  11.166  71.490  1.00  0.00    -0.542 C  
HETATM   11  C   UNL     1     -10.328  15.097  70.159  1.00  0.00    -0.146 C  
HETATM   12  C   UNL     1     -11.828  14.705  70.090  1.00  0.00    -0.365 C  
HETATM   13  C   UNL     1     -12.571  15.610  71.113  1.00  0.00    -0.511 C  
HETATM   14  C   UNL     1     -13.512  14.984  72.130  1.00  0.00    -0.508 C  
ENDBRANCH   5   6
ENDBRANCH   2   4
BRANCH   3  15
HETATM   15  C   UNL     1     -10.002   8.711  66.895  1.00  0.00    -0.330 C  
HETATM   16  C   UNL     1      -9.062   7.880  67.375  1.00  0.00    -0.146 C  
BRANCH  16  17
HETATM   17  C   UNL     1      -8.247   6.954  66.590  1.00  0.00    -0.115 C  
HETATM   18  C   UNL     1      -9.585   4.734  66.855  1.00  0.00    -0.172 C  
HETATM   19  O   UNL     1      -9.876   3.738  66.208  1.00  0.00    -0.166 OA 
HETATM   20  C   UNL     1      -8.511   5.644  66.407  1.00  0.00    -0.121 C  
HETATM   21  C   UNL     1      -7.016   7.467  65.863  1.00  0.00    -0.061 C  
HETATM   22  O   UNL     1     -10.155   5.030  68.033  1.00  0.00    -0.153 OA 
ENDBRANCH  16  17
ENDBRANCH   3  15
TORSDOF 4
ENDMDL
MODEL       71
REMARK 921   NORMALIZED FREE ENERGY PREDICTED BY IDOCK:   -5.07 KCAL/MOL
REMARK 922        TOTAL FREE ENERGY PREDICTED BY IDOCK:   -6.95 KCAL/MOL
REMARK 923 INTER-LIGAND FREE ENERGY PREDICTED BY IDOCK:   -6.48 KCAL/MOL
REMARK 924 INTRA-LIGAND FREE ENERGY PREDICTED BY IDOCK:   -0.47 KCAL/MOL
REMARK 927      BINDING AFFINITY PREDICTED BY RF-SCORE:    0.00 PKD
ROOT
HETATM    1  C   UNL     1     -12.356  10.967  69.939  1.00  0.00    -0.356 C  
HETATM    2  C   UNL     1     -11.064  11.051  69.161  1.00  0.00    -0.301 C  
HETATM    3  C   UNL     1     -10.069  10.154  69.348  1.00  0.00    -0.250 C  
ENDROOT
BRANCH   2   4
HETATM    4  C   UNL     1     -10.867  12.118  68.183  1.00  0.00    -0.256 C  
HETATM    5  C   UNL     1     -11.615  13.223  68.032  1.00  0.00    -0.371 C  
BRANCH   5   6
HETATM    6  C   UNL     1     -11.368  14.255  67.024  1.00  0.00    -0.354 C  
HETATM    7  C   UNL     1      -9.149  15.009  67.988  1.00  0.00    -0.178 C  
HETATM    8  C   UNL     1     -11.800  14.105  65.755  1.00  0.00    -0.385 C  
HETATM    9  C   UNL     1     -11.551  15.118  64.675  1.00  0.00    -0.357 C  
HETATM   10  C   UNL     1     -12.555  12.901  65.230  1.00  0.00    -0.502 C  
HETATM   11  C   UNL     1     -11.267  16.118  68.728  1.00  0.00    -0.365 C  
HETATM   12  C   UNL     1     -10.553  15.466  67.514  1.00  0.00    -0.283 C  
HETATM   13  C   UNL     1     -10.344  16.595  66.464  1.00  0.00    -0.300 C  
HETATM   14  C   UNL     1     -10.776  16.374  65.023  1.00  0.00    -0.279 C  
ENDBRANCH   5   6
ENDBRANCH   2   4
BRANCH   3  15
HETATM   15  C   UNL     1     -10.139   9.008  70.234  1.00  0.00    -0.232 C  
HETATM   16  C   UNL     1     -10.786   7.868  69.941  1.00  0.00    -0.221 C  
BRANCH  16  17
HETATM   17  C   UNL     1     -10.941   6.711  70.821  1.00  0.00    -0.318 C  
HETATM   18  C   UNL     1     -13.241   7.214  71.938  1.00  0.00    -0.221 C  
HETATM   19  O   UNL     1     -14.232   6.620  72.338  1.00  0.00     0.008 OA 
HETATM   20  C   UNL     1     -11.990   6.487  71.639  1.00  0.00    -0.387 C  
HETATM   21  C   UNL     1      -9.885   5.619  70.818  1.00  0.00    -0.239 C  
HETATM   22  O   UNL     1     -13.192   8.548  71.813  1.00  0.00    -0.338 OA 
ENDBRANCH  16  17
ENDBRANCH   3  15
TORSDOF 4
ENDMDL
MODEL       72
REMARK 921   NORMALIZED FREE ENERGY PREDICTED BY IDOCK:   -5.05 KCAL/MOL
REMARK 922        TOTAL FREE ENERGY PREDICTED BY IDOCK:   -6.92 KCAL/MOL
REMARK 923 INTER-LIGAND FREE ENERGY PREDICTED BY IDOCK:   -6.19 KCAL/MOL
REMARK 924 INTRA-LIGAND FREE ENERGY PREDICTED BY IDOCK:   -0.73 KCAL/MOL
REMARK 927      BINDING AFFINITY PREDICTED BY RF-SCORE:    0.00 PKD
ROOT
HETATM    1  C   UNL     1     -11.108  15.032  64.769  1.00  0.00    -0.388 C  
HETATM    2  C   UNL     1     -10.277  14.334  65.821  1.00  0.00    -0.351 C  
HETATM    3  C   UNL     1      -9.380  15.010  66.574  1.00  0.00    -0.309 C  
ENDROOT
BRANCH   2   4
HETATM    4  C   UNL     1     -10.430  12.897  66.039  1.00  0.00    -0.290 C  
HETATM    5  C   UNL     1      -9.520  12.058  66.559  1.00  0.00    -0.234 C  
BRANCH   5   6
HETATM    6  C   UNL     1      -9.734  10.622  66.745  1.00  0.00    -0.222 C  
HETATM    7  C   UNL     1     -11.433  10.870  68.608  1.00  0.00    -0.380 C  
HETATM    8  C   UNL     1      -9.646   9.765  65.707  1.00  0.00    -0.318 C  
HETATM    9  C   UNL     1      -9.882   8.289  65.836  1.00  0.00     0.120 C  
HETATM   10  C   UNL     1      -9.339  10.161  64.277  1.00  0.00    -0.349 C  
HETATM   11  C   UNL     1      -9.001  10.668  69.163  1.00  0.00    -0.139 C  
HETATM   12  C   UNL     1     -10.103  10.197  68.178  1.00  0.00    -0.178 C  
HETATM   13  C   UNL     1     -10.267   8.665  68.395  1.00  0.00    -0.232 C  
HETATM   14  C   UNL     1     -10.236   7.727  67.199  1.00  0.00    -0.365 C  
ENDBRANCH   5   6
ENDBRANCH   2   4
BRANCH   3  15
HETATM   15  C   UNL     1      -9.158  16.443  66.517  1.00  0.00    -0.308 C  
HETATM   16  C   UNL     1      -9.647  17.315  67.413  1.00  0.00    -0.252 C  
BRANCH  16  17
HETATM   17  C   UNL     1      -9.507  18.770  67.367  1.00  0.00    -0.324 C  
HETATM   18  C   UNL     1      -7.062  19.083  68.211  1.00  0.00    -0.268 C  
HETATM   19  O   UNL     1      -6.094  19.804  68.016  1.00  0.00    -0.212 OA 
HETATM   20  C   UNL     1      -8.401  19.460  67.714  1.00  0.00    -0.340 C  
HETATM   21  C   UNL     1     -10.656  19.618  66.848  1.00  0.00    -0.603 C  
HETATM   22  O   UNL     1      -6.997  17.958  68.937  1.00  0.00    -0.248 OA 
ENDBRANCH  16  17
ENDBRANCH   3  15
TORSDOF 4
ENDMDL
MODEL       73
REMARK 921   NORMALIZED FREE ENERGY PREDICTED BY IDOCK:   -5.05 KCAL/MOL
REMARK 922        TOTAL FREE ENERGY PREDICTED BY IDOCK:   -6.92 KCAL/MOL
REMARK 923 INTER-LIGAND FREE ENERGY PREDICTED BY IDOCK:   -6.25 KCAL/MOL
REMARK 924 INTRA-LIGAND FREE ENERGY PREDICTED BY IDOCK:   -0.66 KCAL/MOL
REMARK 927      BINDING AFFINITY PREDICTED BY RF-SCORE:    0.00 PKD
ROOT
HETATM    1  C   UNL     1     -12.365  12.825  65.107  1.00  0.00    -0.555 C  
HETATM    2  C   UNL     1     -11.215  12.241  65.894  1.00  0.00    -0.381 C  
HETATM    3  C   UNL     1     -10.610  12.939  66.881  1.00  0.00    -0.262 C  
ENDROOT
BRANCH   2   4
HETATM    4  C   UNL     1     -10.730  10.896  65.592  1.00  0.00    -0.178 C  
HETATM    5  C   UNL     1      -9.589  10.334  66.021  1.00  0.00    -0.259 C  
BRANCH   5   6
HETATM    6  C   UNL     1      -9.156   8.979  65.675  1.00  0.00    -0.278 C  
HETATM    7  C   UNL     1      -6.855   9.662  64.862  1.00  0.00    -0.109 C  
HETATM    8  C   UNL     1      -9.589   7.910  66.375  1.00  0.00    -0.251 C  
HETATM    9  C   UNL     1      -9.156   6.503  66.081  1.00  0.00    -0.146 C  
HETATM   10  C   UNL     1     -10.530   7.971  67.561  1.00  0.00    -0.331 C  
HETATM   11  C   UNL     1      -8.764   9.556  63.246  1.00  0.00    -0.238 C  
HETATM   12  C   UNL     1      -8.155   8.891  64.509  1.00  0.00    -0.150 C  
HETATM   13  C   UNL     1      -7.742   7.450  64.095  1.00  0.00    -0.121 C  
HETATM   14  C   UNL     1      -8.184   6.266  64.941  1.00  0.00    -0.119 C  
ENDBRANCH   5   6
ENDBRANCH   2   4
BRANCH   3  15
HETATM   15  C   UNL     1     -11.014  14.256  67.338  1.00  0.00    -0.301 C  
HETATM   16  C   UNL     1     -10.181  15.143  67.906  1.00  0.00    -0.232 C  
BRANCH  16  17
HETATM   17  C   UNL     1     -10.549  16.454  68.440  1.00  0.00    -0.311 C  
HETATM   18  C   UNL     1     -10.259  17.969  66.340  1.00  0.00    -0.393 C  
HETATM   19  O   UNL     1     -10.774  18.947  65.818  1.00  0.00    -0.462 OA 
HETATM   20  C   UNL     1     -10.563  17.607  67.739  1.00  0.00    -0.380 C  
HETATM   21  C   UNL     1     -11.006  16.575  69.883  1.00  0.00    -0.273 C  
HETATM   22  O   UNL     1      -9.343  17.210  65.720  1.00  0.00    -0.523 OA 
ENDBRANCH  16  17
ENDBRANCH   3  15
TORSDOF 4
ENDMDL
MODEL       74
REMARK 921   NORMALIZED FREE ENERGY PREDICTED BY IDOCK:   -5.03 KCAL/MOL
REMARK 922        TOTAL FREE ENERGY PREDICTED BY IDOCK:   -6.90 KCAL/MOL
REMARK 923 INTER-LIGAND FREE ENERGY PREDICTED BY IDOCK:   -6.39 KCAL/MOL
REMARK 924 INTRA-LIGAND FREE ENERGY PREDICTED BY IDOCK:   -0.51 KCAL/MOL
REMARK 927      BINDING AFFINITY PREDICTED BY RF-SCORE:    0.00 PKD
ROOT
HETATM    1  C   UNL     1     -10.914  16.126  64.794  1.00  0.00    -0.330 C  
HETATM    2  C   UNL     1     -10.001  15.833  65.962  1.00  0.00    -0.358 C  
HETATM    3  C   UNL     1      -9.775  14.566  66.380  1.00  0.00    -0.314 C  
ENDROOT
BRANCH   2   4
HETATM    4  C   UNL     1      -9.344  16.929  66.671  1.00  0.00    -0.278 C  
HETATM    5  C   UNL     1      -8.029  17.199  66.698  1.00  0.00    -0.300 C  
BRANCH   5   6
HETATM    6  C   UNL     1      -7.431  18.312  67.436  1.00  0.00    -0.219 C  
HETATM    7  C   UNL     1      -9.101  20.049  66.650  1.00  0.00    -0.463 C  
HETATM    8  C   UNL     1      -6.823  18.113  68.624  1.00  0.00    -0.253 C  
HETATM    9  C   UNL     1      -6.217  19.221  69.435  1.00  0.00    -0.324 C  
HETATM   10  C   UNL     1      -6.694  16.774  69.320  1.00  0.00    -0.229 C  
HETATM   11  C   UNL     1      -6.997  19.668  65.348  1.00  0.00    -0.273 C  
HETATM   12  C   UNL     1      -7.596  19.695  66.780  1.00  0.00    -0.274 C  
HETATM   13  C   UNL     1      -6.905  20.872  67.527  1.00  0.00    -0.416 C  
HETATM   14  C   UNL     1      -6.289  20.637  68.897  1.00  0.00    -0.251 C  
ENDBRANCH   5   6
ENDBRANCH   2   4
BRANCH   3  15
HETATM   15  C   UNL     1     -10.304  13.374  65.744  1.00  0.00    -0.296 C  
HETATM   16  C   UNL     1      -9.676  12.187  65.732  1.00  0.00    -0.245 C  
BRANCH  16  17
HETATM   17  C   UNL     1     -10.132  10.975  65.053  1.00  0.00    -0.354 C  
HETATM   18  C   UNL     1     -10.074   9.240  66.997  1.00  0.00    -0.247 C  
HETATM   19  O   UNL     1     -10.697   8.267  67.396  1.00  0.00    -0.270 OA 
HETATM   20  C   UNL     1     -10.280   9.765  65.631  1.00  0.00    -0.178 C  
HETATM   21  C   UNL     1     -10.531  11.039  63.589  1.00  0.00    -0.388 C  
HETATM   22  O   UNL     1      -9.125   9.846  67.725  1.00  0.00    -0.131 OA 
ENDBRANCH  16  17
ENDBRANCH   3  15
TORSDOF 4
ENDMDL
MODEL       75
REMARK 921   NORMALIZED FREE ENERGY PREDICTED BY IDOCK:   -5.02 KCAL/MOL
REMARK 922        TOTAL FREE ENERGY PREDICTED BY IDOCK:   -6.89 KCAL/MOL
REMARK 923 INTER-LIGAND FREE ENERGY PREDICTED BY IDOCK:   -6.31 KCAL/MOL
REMARK 924 INTRA-LIGAND FREE ENERGY PREDICTED BY IDOCK:   -0.57 KCAL/MOL
REMARK 927      BINDING AFFINITY PREDICTED BY RF-SCORE:    0.00 PKD
ROOT
HETATM    1  C   UNL     1     -10.406   9.185  66.859  1.00  0.00    -0.321 C  
HETATM    2  C   UNL     1     -10.470   9.575  68.318  1.00  0.00    -0.265 C  
HETATM    3  C   UNL     1     -10.630  10.863  68.697  1.00  0.00    -0.224 C  
ENDROOT
BRANCH   2   4
HETATM    4  C   UNL     1     -10.354   8.551  69.354  1.00  0.00    -0.218 C  
HETATM    5  C   UNL     1     -10.886   7.319  69.334  1.00  0.00    -0.206 C  
BRANCH   5   6
HETATM    6  C   UNL     1     -10.740   6.339  70.413  1.00  0.00    -0.329 C  
HETATM    7  C   UNL     1      -8.229   6.096  70.178  1.00  0.00    -0.120 C  
HETATM    8  C   UNL     1     -11.550   6.365  71.490  1.00  0.00    -0.364 C  
HETATM    9  C   UNL     1     -11.427   5.403  72.636  1.00  0.00    -0.305 C  
HETATM   10  C   UNL     1     -12.661   7.370  71.719  1.00  0.00    -0.367 C  
HETATM   11  C   UNL     1      -9.750   4.580  68.892  1.00  0.00    -0.224 C  
HETATM   12  C   UNL     1      -9.582   5.340  70.235  1.00  0.00    -0.241 C  
HETATM   13  C   UNL     1      -9.463   4.257  71.345  1.00  0.00    -0.225 C  
HETATM   14  C   UNL     1     -10.340   4.348  72.585  1.00  0.00    -0.248 C  
ENDBRANCH   5   6
ENDBRANCH   2   4
BRANCH   3  15
HETATM   15  C   UNL     1     -10.820  11.979  67.790  1.00  0.00    -0.256 C  
HETATM   16  C   UNL     1     -11.539  13.074  68.086  1.00  0.00    -0.379 C  
BRANCH  16  17
HETATM   17  C   UNL     1     -11.815  14.196  67.188  1.00  0.00    -0.454 C  
HETATM   18  C   UNL     1     -10.974  16.213  68.607  1.00  0.00    -0.336 C  
HETATM   19  O   UNL     1     -10.420  17.292  68.455  1.00  0.00    -0.344 OA 
HETATM   20  C   UNL     1     -11.560  15.493  67.458  1.00  0.00    -0.110 C  
HETATM   21  C   UNL     1     -12.392  13.928  65.809  1.00  0.00    -0.518 C  
HETATM   22  O   UNL     1     -11.155  15.650  69.810  1.00  0.00    -0.260 OA 
ENDBRANCH  16  17
ENDBRANCH   3  15
TORSDOF 4
ENDMDL
MODEL       76
REMARK 921   NORMALIZED FREE ENERGY PREDICTED BY IDOCK:   -5.00 KCAL/MOL
REMARK 922        TOTAL FREE ENERGY PREDICTED BY IDOCK:   -6.86 KCAL/MOL
REMARK 923 INTER-LIGAND FREE ENERGY PREDICTED BY IDOCK:   -6.21 KCAL/MOL
REMARK 924 INTRA-LIGAND FREE ENERGY PREDICTED BY IDOCK:   -0.65 KCAL/MOL
REMARK 927      BINDING AFFINITY PREDICTED BY RF-SCORE:    0.00 PKD
ROOT
HETATM    1  C   UNL     1     -11.938  10.357  70.996  1.00  0.00    -0.481 C  
HETATM    2  C   UNL     1     -11.261  10.035  69.684  1.00  0.00    -0.285 C  
HETATM    3  C   UNL     1     -10.549   8.897  69.518  1.00  0.00    -0.233 C  
ENDROOT
BRANCH   2   4
HETATM    4  C   UNL     1     -11.365  10.963  68.560  1.00  0.00    -0.367 C  
HETATM    5  C   UNL     1     -10.397  11.758  68.078  1.00  0.00    -0.212 C  
BRANCH   5   6
HETATM    6  C   UNL     1     -10.568  12.675  66.950  1.00  0.00    -0.256 C  
HETATM    7  C   UNL     1      -9.544  14.681  68.110  1.00  0.00    -0.213 C  
HETATM    8  C   UNL     1     -10.500  12.232  65.677  1.00  0.00    -0.293 C  
HETATM    9  C   UNL     1     -10.640  13.131  64.484  1.00  0.00    -0.425 C  
HETATM   10  C   UNL     1     -10.240  10.796  65.270  1.00  0.00    -0.351 C  
HETATM   11  C   UNL     1     -12.010  14.278  68.268  1.00  0.00    -0.346 C  
HETATM   12  C   UNL     1     -10.778  14.151  67.332  1.00  0.00    -0.284 C  
HETATM   13  C   UNL     1     -11.025  15.118  66.140  1.00  0.00    -0.331 C  
HETATM   14  C   UNL     1     -10.872  14.612  64.714  1.00  0.00    -0.402 C  
ENDBRANCH   5   6
ENDBRANCH   2   4
BRANCH   3  15
HETATM   15  C   UNL     1     -10.406   7.853  70.516  1.00  0.00    -0.205 C  
HETATM   16  C   UNL     1     -10.717   6.564  70.305  1.00  0.00    -0.307 C  
BRANCH  16  17
HETATM   17  C   UNL     1     -10.653   5.487  71.292  1.00  0.00    -0.304 C  
HETATM   18  C   UNL     1      -9.056   3.798  70.113  1.00  0.00    -0.125 C  
HETATM   19  O   UNL     1      -8.174   3.000  70.393  1.00  0.00    -0.048 OA 
HETATM   20  C   UNL     1      -9.942   4.348  71.160  1.00  0.00    -0.243 C  
HETATM   21  C   UNL     1     -11.391   5.633  72.612  1.00  0.00    -0.356 C  
HETATM   22  O   UNL     1      -9.329   4.171  68.854  1.00  0.00    -0.138 OA 
ENDBRANCH  16  17
ENDBRANCH   3  15
TORSDOF 4
ENDMDL
MODEL       77
REMARK 921   NORMALIZED FREE ENERGY PREDICTED BY IDOCK:   -4.99 KCAL/MOL
REMARK 922        TOTAL FREE ENERGY PREDICTED BY IDOCK:   -6.85 KCAL/MOL
REMARK 923 INTER-LIGAND FREE ENERGY PREDICTED BY IDOCK:   -6.21 KCAL/MOL
REMARK 924 INTRA-LIGAND FREE ENERGY PREDICTED BY IDOCK:   -0.64 KCAL/MOL
REMARK 927      BINDING AFFINITY PREDICTED BY RF-SCORE:    0.00 PKD
ROOT
HETATM    1  C   UNL     1     -10.532  14.067  65.809  1.00  0.00    -0.317 C  
HETATM    2  C   UNL     1     -10.293  15.019  66.958  1.00  0.00    -0.269 C  
HETATM    3  C   UNL     1     -10.762  14.758  68.199  1.00  0.00    -0.247 C  
ENDROOT
BRANCH   2   4
HETATM    4  C   UNL     1      -9.544  16.255  66.740  1.00  0.00    -0.254 C  
HETATM    5  C   UNL     1      -8.859  16.956  67.657  1.00  0.00    -0.215 C  
BRANCH   5   6
HETATM    6  C   UNL     1      -8.134  18.195  67.376  1.00  0.00    -0.229 C  
HETATM    7  C   UNL     1      -9.655  19.684  68.750  1.00  0.00    -0.444 C  
HETATM    8  C   UNL     1      -6.798  18.192  67.188  1.00  0.00    -0.210 C  
HETATM    9  C   UNL     1      -6.000  19.436  66.924  1.00  0.00    -0.173 C  
HETATM   10  C   UNL     1      -5.914  16.963  67.251  1.00  0.00    -0.195 C  
HETATM   11  C   UNL     1     -10.140  19.314  66.322  1.00  0.00    -0.519 C  
HETATM   12  C   UNL     1      -8.997  19.469  67.362  1.00  0.00    -0.368 C  
HETATM   13  C   UNL     1      -8.243  20.780  66.998  1.00  0.00    -0.193 C  
HETATM   14  C   UNL     1      -6.728  20.765  66.862  1.00  0.00    -0.366 C  
ENDBRANCH   5   6
ENDBRANCH   2   4
BRANCH   3  15
HETATM   15  C   UNL     1     -11.467  13.550  68.585  1.00  0.00    -0.343 C  
HETATM   16  C   UNL     1     -10.869  12.462  69.099  1.00  0.00    -0.148 C  
BRANCH  16  17
HETATM   17  C   UNL     1     -11.521  11.200  69.443  1.00  0.00    -0.368 C  
HETATM   18  C   UNL     1     -10.661   9.637  67.544  1.00  0.00    -0.277 C  
HETATM   19  O   UNL     1     -10.327   8.474  67.374  1.00  0.00    -0.243 OA 
HETATM   20  C   UNL     1     -11.401  10.045  68.756  1.00  0.00    -0.117 C  
HETATM   21  C   UNL     1     -12.378  11.114  70.695  1.00  0.00    -0.482 C  
HETATM   22  O   UNL     1     -10.452  10.596  66.630  1.00  0.00    -0.237 OA 
ENDBRANCH  16  17
ENDBRANCH   3  15
TORSDOF 4
ENDMDL
MODEL       78
REMARK 921   NORMALIZED FREE ENERGY PREDICTED BY IDOCK:   -4.97 KCAL/MOL
REMARK 922        TOTAL FREE ENERGY PREDICTED BY IDOCK:   -6.82 KCAL/MOL
REMARK 923 INTER-LIGAND FREE ENERGY PREDICTED BY IDOCK:   -6.15 KCAL/MOL
REMARK 924 INTRA-LIGAND FREE ENERGY PREDICTED BY IDOCK:   -0.67 KCAL/MOL
REMARK 927      BINDING AFFINITY PREDICTED BY RF-SCORE:    0.00 PKD
ROOT
HETATM    1  C   UNL     1     -10.421  14.066  65.727  1.00  0.00    -0.317 C  
HETATM    2  C   UNL     1     -10.327  14.966  66.937  1.00  0.00    -0.264 C  
HETATM    3  C   UNL     1     -10.871  14.612  68.124  1.00  0.00    -0.256 C  
ENDROOT
BRANCH   2   4
HETATM    4  C   UNL     1      -9.640  16.253  66.841  1.00  0.00    -0.244 C  
HETATM    5  C   UNL     1      -9.049  16.929  67.839  1.00  0.00    -0.233 C  
BRANCH   5   6
HETATM    6  C   UNL     1      -8.382  18.222  67.677  1.00  0.00    -0.252 C  
HETATM    7  C   UNL     1      -6.349  17.297  66.480  1.00  0.00    -0.263 C  
HETATM    8  C   UNL     1      -9.093  19.355  67.511  1.00  0.00    -0.363 C  
HETATM    9  C   UNL     1      -8.462  20.703  67.314  1.00  0.00    -0.306 C  
HETATM   10  C   UNL     1     -10.606  19.433  67.463  1.00  0.00    -0.591 C  
HETATM   11  C   UNL     1      -6.335  17.504  68.974  1.00  0.00    -0.218 C  
HETATM   12  C   UNL     1      -6.844  18.166  67.666  1.00  0.00    -0.200 C  
HETATM   13  C   UNL     1      -6.130  19.544  67.560  1.00  0.00    -0.208 C  
HETATM   14  C   UNL     1      -6.949  20.800  67.301  1.00  0.00    -0.414 C  
ENDBRANCH   5   6
ENDBRANCH   2   4
BRANCH   3  15
HETATM   15  C   UNL     1     -11.528  13.347  68.392  1.00  0.00    -0.351 C  
HETATM   16  C   UNL     1     -10.880  12.217  68.718  1.00  0.00    -0.265 C  
BRANCH  16  17
HETATM   17  C   UNL     1     -11.487  10.904  68.935  1.00  0.00    -0.369 C  
HETATM   18  C   UNL     1     -10.667   9.600  66.833  1.00  0.00    -0.115 C  
HETATM   19  O   UNL     1     -10.312   8.474  66.515  1.00  0.00    -0.283 OA 
HETATM   20  C   UNL     1     -11.367   9.842  68.111  1.00  0.00    -0.027 C  
HETATM   21  C   UNL     1     -12.290  10.648  70.199  1.00  0.00    -0.370 C  
HETATM   22  O   UNL     1     -10.518  10.665  66.032  1.00  0.00    -0.239 OA 
ENDBRANCH  16  17
ENDBRANCH   3  15
TORSDOF 4
ENDMDL
MODEL       79
REMARK 921   NORMALIZED FREE ENERGY PREDICTED BY IDOCK:   -4.97 KCAL/MOL
REMARK 922        TOTAL FREE ENERGY PREDICTED BY IDOCK:   -6.82 KCAL/MOL
REMARK 923 INTER-LIGAND FREE ENERGY PREDICTED BY IDOCK:   -6.13 KCAL/MOL
REMARK 924 INTRA-LIGAND FREE ENERGY PREDICTED BY IDOCK:   -0.69 KCAL/MOL
REMARK 927      BINDING AFFINITY PREDICTED BY RF-SCORE:    0.00 PKD
ROOT
HETATM    1  C   UNL     1     -10.137   9.634  69.025  1.00  0.00    -0.193 C  
HETATM    2  C   UNL     1     -10.394   9.653  67.536  1.00  0.00    -0.297 C  
HETATM    3  C   UNL     1     -10.600   8.510  66.842  1.00  0.00    -0.279 C  
ENDROOT
BRANCH   2   4
HETATM    4  C   UNL     1     -10.419  10.923  66.814  1.00  0.00    -0.302 C  
HETATM    5  C   UNL     1     -11.386  11.853  66.851  1.00  0.00    -0.392 C  
BRANCH   5   6
HETATM    6  C   UNL     1     -11.355  13.106  66.095  1.00  0.00    -0.343 C  
HETATM    7  C   UNL     1      -9.191  13.948  67.109  1.00  0.00    -0.242 C  
HETATM    8  C   UNL     1     -11.857  13.176  64.845  1.00  0.00    -0.399 C  
HETATM    9  C   UNL     1     -11.826  14.426  64.014  1.00  0.00    -0.222 C  
HETATM   10  C   UNL     1     -12.481  12.018  64.093  1.00  0.00    -0.437 C  
HETATM   11  C   UNL     1     -11.376  14.544  68.173  1.00  0.00    -0.319 C  
HETATM   12  C   UNL     1     -10.675  14.286  66.812  1.00  0.00    -0.287 C  
HETATM   13  C   UNL     1     -10.698  15.636  66.040  1.00  0.00    -0.322 C  
HETATM   14  C   UNL     1     -11.203  15.675  64.605  1.00  0.00    -0.380 C  
ENDBRANCH   5   6
ENDBRANCH   2   4
BRANCH   3  15
HETATM   15  C   UNL     1     -10.666   7.183  67.425  1.00  0.00    -0.368 C  
HETATM   16  C   UNL     1      -9.611   6.360  67.541  1.00  0.00    -0.129 C  
BRANCH  16  17
HETATM   17  C   UNL     1      -9.634   4.993  68.059  1.00  0.00    -0.181 C  
HETATM   18  C   UNL     1      -9.811   5.415  70.624  1.00  0.00    -0.191 C  
HETATM   19  O   UNL     1     -10.336   4.927  71.615  1.00  0.00    -0.203 OA 
HETATM   20  C   UNL     1      -9.718   4.653  69.362  1.00  0.00    -0.272 C  
HETATM   21  C   UNL     1      -9.613   3.822  67.091  1.00  0.00    -0.218 C  
HETATM   22  O   UNL     1      -9.228   6.622  70.629  1.00  0.00    -0.158 OA 
ENDBRANCH  16  17
ENDBRANCH   3  15
TORSDOF 4
ENDMDL
MODEL       80
REMARK 921   NORMALIZED FREE ENERGY PREDICTED BY IDOCK:   -4.96 KCAL/MOL
REMARK 922        TOTAL FREE ENERGY PREDICTED BY IDOCK:   -6.81 KCAL/MOL
REMARK 923 INTER-LIGAND FREE ENERGY PREDICTED BY IDOCK:   -6.22 KCAL/MOL
REMARK 924 INTRA-LIGAND FREE ENERGY PREDICTED BY IDOCK:   -0.59 KCAL/MOL
REMARK 927      BINDING AFFINITY PREDICTED BY RF-SCORE:    0.00 PKD
ROOT
HETATM    1  C   UNL     1      -8.230  10.087  69.647  1.00  0.00    -0.185 C  
HETATM    2  C   UNL     1      -9.658   9.661  69.896  1.00  0.00    -0.260 C  
HETATM    3  C   UNL     1     -10.696  10.491  69.644  1.00  0.00    -0.302 C  
ENDROOT
BRANCH   2   4
HETATM    4  C   UNL     1      -9.943   8.328  70.423  1.00  0.00    -0.196 C  
HETATM    5  C   UNL     1      -9.080   7.501  71.034  1.00  0.00    -0.148 C  
BRANCH   5   6
HETATM    6  C   UNL     1      -9.427   6.170  71.534  1.00  0.00    -0.161 C  
HETATM    7  C   UNL     1     -10.869   6.998  73.446  1.00  0.00    -0.332 C  
HETATM    8  C   UNL     1      -9.551   5.122  70.694  1.00  0.00    -0.242 C  
HETATM    9  C   UNL     1      -9.931   3.742  71.149  1.00  0.00    -0.144 C  
HETATM   10  C   UNL     1      -9.364   5.185  69.192  1.00  0.00    -0.171 C  
HETATM   11  C   UNL     1      -8.427   6.594  73.816  1.00  0.00    -0.136 C  
HETATM   12  C   UNL     1      -9.678   6.086  73.051  1.00  0.00    -0.163 C  
HETATM   13  C   UNL     1      -9.983   4.662  73.597  1.00  0.00    -0.188 C  
HETATM   14  C   UNL     1     -10.189   3.510  72.625  1.00  0.00    -0.241 C  
ENDBRANCH   5   6
ENDBRANCH   2   4
BRANCH   3  15
HETATM   15  C   UNL     1     -10.579  11.816  69.064  1.00  0.00    -0.172 C  
HETATM   16  C   UNL     1     -11.611  12.661  68.906  1.00  0.00    -0.363 C  
BRANCH  16  17
HETATM   17  C   UNL     1     -11.560  13.978  68.271  1.00  0.00    -0.364 C  
HETATM   18  C   UNL     1     -12.504  13.447  65.901  1.00  0.00    -0.408 C  
HETATM   19  O   UNL     1     -13.198  13.963  65.038  1.00  0.00    -0.729 OA 
HETATM   20  C   UNL     1     -11.946  14.251  67.008  1.00  0.00    -0.463 C  
HETATM   21  C   UNL     1     -11.087  15.179  69.072  1.00  0.00    -0.260 C  
HETATM   22  O   UNL     1     -12.143  12.155  65.870  1.00  0.00    -0.594 OA 
ENDBRANCH  16  17
ENDBRANCH   3  15
TORSDOF 4
ENDMDL
MODEL       81
REMARK 921   NORMALIZED FREE ENERGY PREDICTED BY IDOCK:   -4.94 KCAL/MOL
REMARK 922        TOTAL FREE ENERGY PREDICTED BY IDOCK:   -6.79 KCAL/MOL
REMARK 923 INTER-LIGAND FREE ENERGY PREDICTED BY IDOCK:   -6.06 KCAL/MOL
REMARK 924 INTRA-LIGAND FREE ENERGY PREDICTED BY IDOCK:   -0.73 KCAL/MOL
REMARK 927      BINDING AFFINITY PREDICTED BY RF-SCORE:    0.00 PKD
ROOT
HETATM    1  C   UNL     1     -10.639   9.501  70.690  1.00  0.00    -0.374 C  
HETATM    2  C   UNL     1     -10.545   8.921  69.298  1.00  0.00    -0.219 C  
HETATM    3  C   UNL     1     -10.978   9.608  68.217  1.00  0.00    -0.172 C  
ENDROOT
BRANCH   2   4
HETATM    4  C   UNL     1      -9.980   7.589  69.098  1.00  0.00    -0.179 C  
HETATM    5  C   UNL     1     -10.594   6.525  68.556  1.00  0.00    -0.291 C  
BRANCH   5   6
HETATM    6  C   UNL     1      -9.972   5.210  68.390  1.00  0.00    -0.214 C  
HETATM    7  C   UNL     1      -8.481   5.890  66.457  1.00  0.00    -0.113 C  
HETATM    8  C   UNL     1      -9.770   4.397  69.447  1.00  0.00    -0.267 C  
HETATM    9  C   UNL     1      -9.113   3.052  69.339  1.00  0.00    -0.198 C  
HETATM   10  C   UNL     1     -10.135   4.728  70.880  1.00  0.00    -0.275 C  
HETATM   11  C   UNL     1     -10.762   4.965  66.002  1.00  0.00    -0.247 C  
HETATM   12  C   UNL     1      -9.539   4.869  66.953  1.00  0.00    -0.171 C  
HETATM   13  C   UNL     1      -8.938   3.447  66.759  1.00  0.00    -0.166 C  
HETATM   14  C   UNL     1      -8.653   2.578  67.974  1.00  0.00    -0.117 C  
ENDBRANCH   5   6
ENDBRANCH   2   4
BRANCH   3  15
HETATM   15  C   UNL     1     -11.505  10.960  68.247  1.00  0.00    -0.376 C  
HETATM   16  C   UNL     1     -10.795  12.051  67.918  1.00  0.00    -0.254 C  
BRANCH  16  17
HETATM   17  C   UNL     1     -11.256  13.437  67.992  1.00  0.00    -0.298 C  
HETATM   18  C   UNL     1     -12.531  13.681  65.732  1.00  0.00    -0.477 C  
HETATM   19  O   UNL     1     -13.518  14.238  65.275  1.00  0.00    -0.564 OA 
HETATM   20  C   UNL     1     -11.979  14.071  67.046  1.00  0.00    -0.472 C  
HETATM   21  C   UNL     1     -10.964  14.260  69.235  1.00  0.00    -0.271 C  
HETATM   22  O   UNL     1     -11.844  12.746  65.059  1.00  0.00    -0.341 OA 
ENDBRANCH  16  17
ENDBRANCH   3  15
TORSDOF 4
ENDMDL
MODEL       82
REMARK 921   NORMALIZED FREE ENERGY PREDICTED BY IDOCK:   -4.94 KCAL/MOL
REMARK 922        TOTAL FREE ENERGY PREDICTED BY IDOCK:   -6.79 KCAL/MOL
REMARK 923 INTER-LIGAND FREE ENERGY PREDICTED BY IDOCK:   -6.24 KCAL/MOL
REMARK 924 INTRA-LIGAND FREE ENERGY PREDICTED BY IDOCK:   -0.55 KCAL/MOL
REMARK 927      BINDING AFFINITY PREDICTED BY RF-SCORE:    0.00 PKD
ROOT
HETATM    1  C   UNL     1     -10.276   9.616  70.174  1.00  0.00    -0.313 C  
HETATM    2  C   UNL     1     -10.332   8.921  68.834  1.00  0.00    -0.229 C  
HETATM    3  C   UNL     1     -10.826   9.541  67.738  1.00  0.00    -0.258 C  
ENDROOT
BRANCH   2   4
HETATM    4  C   UNL     1      -9.850   7.548  68.700  1.00  0.00    -0.169 C  
HETATM    5  C   UNL     1     -10.343   6.457  69.308  1.00  0.00    -0.248 C  
BRANCH   5   6
HETATM    6  C   UNL     1      -9.808   5.105  69.137  1.00  0.00    -0.257 C  
HETATM    7  C   UNL     1     -10.233   4.374  71.526  1.00  0.00    -0.167 C  
HETATM    8  C   UNL     1      -9.916   4.458  67.959  1.00  0.00    -0.076 C  
HETATM    9  C   UNL     1      -9.410   3.062  67.737  1.00  0.00    -0.251 C  
HETATM   10  C   UNL     1     -10.583   5.017  66.718  1.00  0.00    -0.220 C  
HETATM   11  C   UNL     1      -8.039   5.413  70.916  1.00  0.00    -0.112 C  
HETATM   12  C   UNL     1      -9.174   4.490  70.398  1.00  0.00    -0.194 C  
HETATM   13  C   UNL     1      -8.546   3.080  70.205  1.00  0.00    -0.109 C  
HETATM   14  C   UNL     1      -8.743   2.340  68.891  1.00  0.00    -0.128 C  
ENDBRANCH   5   6
ENDBRANCH   2   4
BRANCH   3  15
HETATM   15  C   UNL     1     -11.284  10.918  67.697  1.00  0.00    -0.379 C  
HETATM   16  C   UNL     1     -11.365  11.650  66.574  1.00  0.00    -0.331 C  
BRANCH  16  17
HETATM   17  C   UNL     1     -11.756  13.056  66.486  1.00  0.00    -0.437 C  
HETATM   18  C   UNL     1     -11.981  13.371  63.909  1.00  0.00    -0.465 C  
HETATM   19  O   UNL     1     -12.670  13.976  63.101  1.00  0.00    -0.676 OA 
HETATM   20  C   UNL     1     -12.001  13.728  65.342  1.00  0.00    -0.395 C  
HETATM   21  C   UNL     1     -11.965  13.859  67.759  1.00  0.00    -0.390 C  
HETATM   22  O   UNL     1     -11.120  12.406  63.554  1.00  0.00    -0.435 OA 
ENDBRANCH  16  17
ENDBRANCH   3  15
TORSDOF 4
ENDMDL
MODEL       83
REMARK 921   NORMALIZED FREE ENERGY PREDICTED BY IDOCK:   -4.93 KCAL/MOL
REMARK 922        TOTAL FREE ENERGY PREDICTED BY IDOCK:   -6.77 KCAL/MOL
REMARK 923 INTER-LIGAND FREE ENERGY PREDICTED BY IDOCK:   -6.15 KCAL/MOL
REMARK 924 INTRA-LIGAND FREE ENERGY PREDICTED BY IDOCK:   -0.63 KCAL/MOL
REMARK 927      BINDING AFFINITY PREDICTED BY RF-SCORE:    0.00 PKD
ROOT
HETATM    1  C   UNL     1      -9.697  10.421  65.530  1.00  0.00    -0.307 C  
HETATM    2  C   UNL     1     -10.662  10.596  66.679  1.00  0.00    -0.246 C  
HETATM    3  C   UNL     1     -11.372  11.736  66.836  1.00  0.00    -0.386 C  
ENDROOT
BRANCH   2   4
HETATM    4  C   UNL     1     -10.842   9.522  67.654  1.00  0.00    -0.253 C  
HETATM    5  C   UNL     1      -9.882   8.902  68.358  1.00  0.00    -0.191 C  
BRANCH   5   6
HETATM    6  C   UNL     1     -10.128   7.824  69.317  1.00  0.00    -0.199 C  
HETATM    7  C   UNL     1      -8.442   6.220  68.314  1.00  0.00    -0.114 C  
HETATM    8  C   UNL     1     -10.475   8.093  70.592  1.00  0.00    -0.224 C  
HETATM    9  C   UNL     1     -10.712   7.028  71.623  1.00  0.00    -0.244 C  
HETATM   10  C   UNL     1     -10.638   9.483  71.174  1.00  0.00    -0.388 C  
HETATM   11  C   UNL     1     -10.817   6.178  67.527  1.00  0.00    -0.422 C  
HETATM   12  C   UNL     1      -9.914   6.401  68.769  1.00  0.00    -0.165 C  
HETATM   13  C   UNL     1     -10.237   5.250  69.764  1.00  0.00    -0.364 C  
HETATM   14  C   UNL     1     -10.556   5.576  71.216  1.00  0.00    -0.304 C  
ENDBRANCH   5   6
ENDBRANCH   2   4
BRANCH   3  15
HETATM   15  C   UNL     1     -11.349  12.863  65.923  1.00  0.00    -0.348 C  
HETATM   16  C   UNL     1     -10.745  14.033  66.187  1.00  0.00    -0.289 C  
BRANCH  16  17
HETATM   17  C   UNL     1     -10.746  15.219  65.332  1.00  0.00    -0.407 C  
HETATM   18  C   UNL     1      -8.842  16.636  66.407  1.00  0.00    -0.302 C  
HETATM   19  O   UNL     1      -7.950  17.403  66.075  1.00  0.00    -0.472 OA 
HETATM   20  C   UNL     1      -9.928  16.283  65.470  1.00  0.00    -0.217 C  
HETATM   21  C   UNL     1     -11.695  15.289  64.148  1.00  0.00    -0.115 C  
HETATM   22  O   UNL     1      -8.942  16.126  67.644  1.00  0.00    -0.189 OA 
ENDBRANCH  16  17
ENDBRANCH   3  15
TORSDOF 4
ENDMDL
MODEL       84
REMARK 921   NORMALIZED FREE ENERGY PREDICTED BY IDOCK:   -4.92 KCAL/MOL
REMARK 922        TOTAL FREE ENERGY PREDICTED BY IDOCK:   -6.76 KCAL/MOL
REMARK 923 INTER-LIGAND FREE ENERGY PREDICTED BY IDOCK:   -6.13 KCAL/MOL
REMARK 924 INTRA-LIGAND FREE ENERGY PREDICTED BY IDOCK:   -0.64 KCAL/MOL
REMARK 927      BINDING AFFINITY PREDICTED BY RF-SCORE:    0.00 PKD
ROOT
HETATM    1  C   UNL     1     -10.513  11.341  66.416  1.00  0.00    -0.306 C  
HETATM    2  C   UNL     1     -10.835  10.945  67.839  1.00  0.00    -0.295 C  
HETATM    3  C   UNL     1     -10.353   9.802  68.379  1.00  0.00    -0.230 C  
ENDROOT
BRANCH   2   4
HETATM    4  C   UNL     1     -11.686  11.801  68.662  1.00  0.00    -0.389 C  
HETATM    5  C   UNL     1     -11.337  12.442  69.789  1.00  0.00    -0.125 C  
BRANCH   5   6
HETATM    6  C   UNL     1     -12.243  13.282  70.574  1.00  0.00    -0.416 C  
HETATM    7  C   UNL     1     -12.535  15.057  68.790  1.00  0.00     0.155 C  
HETATM    8  C   UNL     1     -13.102  12.738  71.460  1.00  0.00    -0.380 C  
HETATM    9  C   UNL     1     -14.071  13.548  72.272  1.00  0.00    -0.564 C  
HETATM   10  C   UNL     1     -13.241  11.255  71.739  1.00  0.00    -0.480 C  
HETATM   11  C   UNL     1     -10.710  15.289  70.487  1.00  0.00    -0.247 C  
HETATM   12  C   UNL     1     -12.164  14.789  70.272  1.00  0.00    -0.394 C  
HETATM   13  C   UNL     1     -13.077  15.692  71.150  1.00  0.00    -0.523 C  
HETATM   14  C   UNL     1     -14.088  15.053  72.090  1.00  0.00    -0.629 C  
ENDBRANCH   5   6
ENDBRANCH   2   4
BRANCH   3  15
HETATM   15  C   UNL     1      -9.449   8.883  67.711  1.00  0.00    -0.163 C  
HETATM   16  C   UNL     1      -9.831   8.003  66.772  1.00  0.00    -0.327 C  
BRANCH  16  17
HETATM   17  C   UNL     1      -8.976   7.014  66.117  1.00  0.00    -0.162 C  
HETATM   18  C   UNL     1      -7.906   8.434  64.212  1.00  0.00    -0.143 C  
HETATM   19  O   UNL     1      -6.846   8.541  63.613  1.00  0.00    -0.086 OA 
HETATM   20  C   UNL     1      -8.191   7.248  65.045  1.00  0.00    -0.100 C  
HETATM   21  C   UNL     1      -8.894   5.604  66.677  1.00  0.00    -0.119 C  
HETATM   22  O   UNL     1      -8.898   9.329  64.103  1.00  0.00    -0.206 OA 
ENDBRANCH  16  17
ENDBRANCH   3  15
TORSDOF 4
ENDMDL
MODEL       85
REMARK 921   NORMALIZED FREE ENERGY PREDICTED BY IDOCK:   -4.90 KCAL/MOL
REMARK 922        TOTAL FREE ENERGY PREDICTED BY IDOCK:   -6.74 KCAL/MOL
REMARK 923 INTER-LIGAND FREE ENERGY PREDICTED BY IDOCK:   -6.09 KCAL/MOL
REMARK 924 INTRA-LIGAND FREE ENERGY PREDICTED BY IDOCK:   -0.65 KCAL/MOL
REMARK 927      BINDING AFFINITY PREDICTED BY RF-SCORE:    0.00 PKD
ROOT
HETATM    1  C   UNL     1     -12.131  13.507  67.594  1.00  0.00    -0.321 C  
HETATM    2  C   UNL     1     -10.962  12.635  67.992  1.00  0.00    -0.266 C  
HETATM    3  C   UNL     1      -9.709  13.134  68.084  1.00  0.00    -0.228 C  
ENDROOT
BRANCH   2   4
HETATM    4  C   UNL     1     -11.173  11.218  68.283  1.00  0.00    -0.331 C  
HETATM    5  C   UNL     1     -10.350  10.403  68.963  1.00  0.00    -0.232 C  
BRANCH   5   6
HETATM    6  C   UNL     1     -10.616   8.986  69.215  1.00  0.00    -0.226 C  
HETATM    7  C   UNL     1     -12.269   9.380  71.094  1.00  0.00    -0.402 C  
HETATM    8  C   UNL     1     -10.582   8.083  68.213  1.00  0.00    -0.155 C  
HETATM    9  C   UNL     1     -10.873   6.624  68.409  1.00  0.00    -0.320 C  
HETATM   10  C   UNL     1     -10.286   8.406  66.762  1.00  0.00    -0.376 C  
HETATM   11  C   UNL     1      -9.837   9.105  71.616  1.00  0.00    -0.295 C  
HETATM   12  C   UNL     1     -10.975   8.637  70.670  1.00  0.00    -0.274 C  
HETATM   13  C   UNL     1     -11.194   7.124  70.956  1.00  0.00    -0.298 C  
HETATM   14  C   UNL     1     -11.222   6.135  69.801  1.00  0.00    -0.494 C  
ENDBRANCH   5   6
ENDBRANCH   2   4
BRANCH   3  15
HETATM   15  C   UNL     1      -9.352  14.526  67.886  1.00  0.00    -0.201 C  
HETATM   16  C   UNL     1      -9.520  15.484  68.812  1.00  0.00    -0.210 C  
BRANCH  16  17
HETATM   17  C   UNL     1      -9.238  16.909  68.642  1.00  0.00    -0.265 C  
HETATM   18  C   UNL     1      -6.662  16.976  69.025  1.00  0.00    -0.221 C  
HETATM   19  O   UNL     1      -5.674  17.569  68.616  1.00  0.00    -0.157 OA 
HETATM   20  C   UNL     1      -8.021  17.482  68.744  1.00  0.00    -0.238 C  
HETATM   21  C   UNL     1     -10.365  17.859  68.274  1.00  0.00    -0.389 C  
HETATM   22  O   UNL     1      -6.587  15.888  69.805  1.00  0.00    -0.188 OA 
ENDBRANCH  16  17
ENDBRANCH   3  15
TORSDOF 4
ENDMDL
MODEL       86
REMARK 921   NORMALIZED FREE ENERGY PREDICTED BY IDOCK:   -4.89 KCAL/MOL
REMARK 922        TOTAL FREE ENERGY PREDICTED BY IDOCK:   -6.72 KCAL/MOL
REMARK 923 INTER-LIGAND FREE ENERGY PREDICTED BY IDOCK:   -6.05 KCAL/MOL
REMARK 924 INTRA-LIGAND FREE ENERGY PREDICTED BY IDOCK:   -0.68 KCAL/MOL
REMARK 927      BINDING AFFINITY PREDICTED BY RF-SCORE:    0.00 PKD
ROOT
HETATM    1  C   UNL     1     -10.222   9.238  69.310  1.00  0.00    -0.211 C  
HETATM    2  C   UNL     1     -10.339   9.412  67.813  1.00  0.00    -0.291 C  
HETATM    3  C   UNL     1     -10.461   8.349  66.987  1.00  0.00    -0.375 C  
ENDROOT
BRANCH   2   4
HETATM    4  C   UNL     1     -10.317  10.752  67.229  1.00  0.00    -0.262 C  
HETATM    5  C   UNL     1     -11.330  11.632  67.191  1.00  0.00    -0.373 C  
BRANCH   5   6
HETATM    6  C   UNL     1     -11.247  12.960  66.582  1.00  0.00    -0.342 C  
HETATM    7  C   UNL     1      -9.478  13.843  68.167  1.00  0.00    -0.207 C  
HETATM    8  C   UNL     1     -11.444  13.132  65.258  1.00  0.00    -0.328 C  
HETATM    9  C   UNL     1     -11.344  14.465  64.577  1.00  0.00    -0.328 C  
HETATM   10  C   UNL     1     -11.755  12.022  64.275  1.00  0.00    -0.425 C  
HETATM   11  C   UNL     1     -11.901  14.151  68.712  1.00  0.00    -0.384 C  
HETATM   12  C   UNL     1     -10.877  14.100  67.547  1.00  0.00    -0.280 C  
HETATM   13  C   UNL     1     -10.851  15.522  66.918  1.00  0.00    -0.301 C  
HETATM   14  C   UNL     1     -11.005  15.684  65.413  1.00  0.00    -0.342 C  
ENDBRANCH   5   6
ENDBRANCH   2   4
BRANCH   3  15
HETATM   15  C   UNL     1     -10.558   6.967  67.418  1.00  0.00    -0.373 C  
HETATM   16  C   UNL     1      -9.507   6.138  67.529  1.00  0.00    -0.114 C  
BRANCH  16  17
HETATM   17  C   UNL     1      -9.558   4.723  67.896  1.00  0.00    -0.198 C  
HETATM   18  C   UNL     1      -9.341   3.576  65.567  1.00  0.00    -0.158 C  
HETATM   19  O   UNL     1      -8.839   2.584  65.060  1.00  0.00    -0.110 OA 
HETATM   20  C   UNL     1      -9.486   3.690  67.032  1.00  0.00    -0.219 C  
HETATM   21  C   UNL     1      -9.652   4.331  69.361  1.00  0.00    -0.267 C  
HETATM   22  O   UNL     1      -9.856   4.582  64.844  1.00  0.00    -0.157 OA 
ENDBRANCH  16  17
ENDBRANCH   3  15
TORSDOF 4
ENDMDL
MODEL       87
REMARK 921   NORMALIZED FREE ENERGY PREDICTED BY IDOCK:   -4.88 KCAL/MOL
REMARK 922        TOTAL FREE ENERGY PREDICTED BY IDOCK:   -6.71 KCAL/MOL
REMARK 923 INTER-LIGAND FREE ENERGY PREDICTED BY IDOCK:   -6.13 KCAL/MOL
REMARK 924 INTRA-LIGAND FREE ENERGY PREDICTED BY IDOCK:   -0.58 KCAL/MOL
REMARK 927      BINDING AFFINITY PREDICTED BY RF-SCORE:    0.00 PKD
ROOT
HETATM    1  C   UNL     1     -11.076  14.947  65.843  1.00  0.00    -0.338 C  
HETATM    2  C   UNL     1     -10.120  14.093  66.642  1.00  0.00    -0.275 C  
HETATM    3  C   UNL     1      -9.026  14.623  67.235  1.00  0.00    -0.216 C  
ENDROOT
BRANCH   2   4
HETATM    4  C   UNL     1     -10.365  12.659  66.786  1.00  0.00    -0.246 C  
HETATM    5  C   UNL     1      -9.509  11.737  67.254  1.00  0.00    -0.173 C  
BRANCH   5   6
HETATM    6  C   UNL     1      -9.814  10.310  67.366  1.00  0.00    -0.214 C  
HETATM    7  C   UNL     1     -11.594  10.581  69.149  1.00  0.00    -0.295 C  
HETATM    8  C   UNL     1      -9.720   9.493  66.297  1.00  0.00    -0.310 C  
HETATM    9  C   UNL     1     -10.047   8.029  66.348  1.00  0.00    -0.174 C  
HETATM   10  C   UNL     1      -9.314   9.928  64.903  1.00  0.00    -0.329 C  
HETATM   11  C   UNL     1      -9.210  10.212  69.818  1.00  0.00    -0.175 C  
HETATM   12  C   UNL     1     -10.283   9.848  68.758  1.00  0.00    -0.205 C  
HETATM   13  C   UNL     1     -10.546   8.322  68.898  1.00  0.00    -0.160 C  
HETATM   14  C   UNL     1     -10.504   7.433  67.665  1.00  0.00    -0.310 C  
ENDBRANCH   5   6
ENDBRANCH   2   4
BRANCH   3  15
HETATM   15  C   UNL     1      -8.682  16.033  67.235  1.00  0.00    -0.204 C  
HETATM   16  C   UNL     1      -8.007  16.642  66.246  1.00  0.00    -0.340 C  
BRANCH  16  17
HETATM   17  C   UNL     1      -7.579  18.040  66.226  1.00  0.00    -0.306 C  
HETATM   18  C   UNL     1      -9.869  19.282  66.196  1.00  0.00    -0.367 C  
HETATM   19  O   UNL     1     -10.383  20.299  66.639  1.00  0.00    -0.418 OA 
HETATM   20  C   UNL     1      -8.402  19.108  66.203  1.00  0.00    -0.254 C  
HETATM   21  C   UNL     1      -6.098  18.373  66.280  1.00  0.00    -0.207 C  
HETATM   22  O   UNL     1     -10.576  18.301  65.616  1.00  0.00    -0.614 OA 
ENDBRANCH  16  17
ENDBRANCH   3  15
TORSDOF 4
ENDMDL
MODEL       88
REMARK 921   NORMALIZED FREE ENERGY PREDICTED BY IDOCK:   -4.87 KCAL/MOL
REMARK 922        TOTAL FREE ENERGY PREDICTED BY IDOCK:   -6.70 KCAL/MOL
REMARK 923 INTER-LIGAND FREE ENERGY PREDICTED BY IDOCK:   -6.09 KCAL/MOL
REMARK 924 INTRA-LIGAND FREE ENERGY PREDICTED BY IDOCK:   -0.61 KCAL/MOL
REMARK 927      BINDING AFFINITY PREDICTED BY RF-SCORE:    0.00 PKD
ROOT
HETATM    1  C   UNL     1     -11.082  14.951  65.825  1.00  0.00    -0.342 C  
HETATM    2  C   UNL     1     -10.082  14.092  66.563  1.00  0.00    -0.283 C  
HETATM    3  C   UNL     1      -8.988  14.630  67.150  1.00  0.00    -0.240 C  
ENDROOT
BRANCH   2   4
HETATM    4  C   UNL     1     -10.282  12.647  66.651  1.00  0.00    -0.246 C  
HETATM    5  C   UNL     1      -9.378  11.729  67.027  1.00  0.00    -0.187 C  
BRANCH   5   6
HETATM    6  C   UNL     1      -9.640  10.290  67.088  1.00  0.00    -0.199 C  
HETATM    7  C   UNL     1      -7.441   9.600  66.034  1.00  0.00    -0.099 C  
HETATM    8  C   UNL     1     -10.371   9.758  68.088  1.00  0.00    -0.241 C  
HETATM    9  C   UNL     1     -10.648   8.288  68.214  1.00  0.00    -0.157 C  
HETATM   10  C   UNL     1     -10.982  10.543  69.231  1.00  0.00    -0.291 C  
HETATM   11  C   UNL     1      -9.444   9.991  64.586  1.00  0.00    -0.367 C  
HETATM   12  C   UNL     1      -8.984   9.459  65.970  1.00  0.00    -0.205 C  
HETATM   13  C   UNL     1      -9.313   7.939  65.992  1.00  0.00    -0.129 C  
HETATM   14  C   UNL     1     -10.079   7.350  67.167  1.00  0.00    -0.314 C  
ENDBRANCH   5   6
ENDBRANCH   2   4
BRANCH   3  15
HETATM   15  C   UNL     1      -8.684  16.048  67.201  1.00  0.00    -0.212 C  
HETATM   16  C   UNL     1      -8.027  16.711  66.236  1.00  0.00    -0.340 C  
BRANCH  16  17
HETATM   17  C   UNL     1      -7.640  18.121  66.266  1.00  0.00    -0.299 C  
HETATM   18  C   UNL     1      -9.962  19.299  66.177  1.00  0.00    -0.397 C  
HETATM   19  O   UNL     1     -10.522  20.289  66.624  1.00  0.00    -0.383 OA 
HETATM   20  C   UNL     1      -8.492  19.166  66.238  1.00  0.00    -0.311 C  
HETATM   21  C   UNL     1      -6.172  18.493  66.387  1.00  0.00    -0.208 C  
HETATM   22  O   UNL     1     -10.618  18.314  65.546  1.00  0.00    -0.632 OA 
ENDBRANCH  16  17
ENDBRANCH   3  15
TORSDOF 4
ENDMDL
MODEL       89
REMARK 921   NORMALIZED FREE ENERGY PREDICTED BY IDOCK:   -4.84 KCAL/MOL
REMARK 922        TOTAL FREE ENERGY PREDICTED BY IDOCK:   -6.67 KCAL/MOL
REMARK 923 INTER-LIGAND FREE ENERGY PREDICTED BY IDOCK:   -6.25 KCAL/MOL
REMARK 924 INTRA-LIGAND FREE ENERGY PREDICTED BY IDOCK:   -0.42 KCAL/MOL
REMARK 927      BINDING AFFINITY PREDICTED BY RF-SCORE:    0.00 PKD
ROOT
HETATM    1  C   UNL     1      -8.919   8.472  69.943  1.00  0.00    -0.145 C  
HETATM    2  C   UNL     1     -10.266   8.062  70.490  1.00  0.00    -0.201 C  
HETATM    3  C   UNL     1     -11.275   8.953  70.622  1.00  0.00    -0.308 C  
ENDROOT
BRANCH   2   4
HETATM    4  C   UNL     1     -10.502   6.676  70.892  1.00  0.00    -0.249 C  
HETATM    5  C   UNL     1      -9.574   5.732  71.117  1.00  0.00    -0.201 C  
BRANCH   5   6
HETATM    6  C   UNL     1      -9.877   4.356  71.511  1.00  0.00    -0.259 C  
HETATM    7  C   UNL     1      -7.733   3.364  70.595  1.00  0.00    -0.040 C  
HETATM    8  C   UNL     1     -10.594   4.093  72.623  1.00  0.00    -0.200 C  
HETATM    9  C   UNL     1     -10.911   2.701  73.089  1.00  0.00    -0.244 C  
HETATM   10  C   UNL     1     -11.146   5.140  73.569  1.00  0.00    -0.361 C  
HETATM   11  C   UNL     1      -9.767   3.486  69.141  1.00  0.00    -0.033 C  
HETATM   12  C   UNL     1      -9.282   3.268  70.599  1.00  0.00    -0.207 C  
HETATM   13  C   UNL     1      -9.655   1.806  70.976  1.00  0.00    -0.197 C  
HETATM   14  C   UNL     1     -10.402   1.530  72.272  1.00  0.00    -0.225 C  
ENDBRANCH   5   6
ENDBRANCH   2   4
BRANCH   3  15
HETATM   15  C   UNL     1     -11.215  10.344  70.212  1.00  0.00    -0.395 C  
HETATM   16  C   UNL     1     -12.122  11.270  70.562  1.00  0.00    -0.481 C  
BRANCH  16  17
HETATM   17  C   UNL     1     -12.144  12.666  70.124  1.00  0.00    -0.368 C  
HETATM   18  C   UNL     1     -13.287  13.827  72.157  1.00  0.00    -0.476 C  
HETATM   19  O   UNL     1     -13.236  14.878  72.780  1.00  0.00    -0.400 OA 
HETATM   20  C   UNL     1     -12.646  13.698  70.833  1.00  0.00    -0.421 C  
HETATM   21  C   UNL     1     -11.520  13.045  68.792  1.00  0.00    -0.340 C  
HETATM   22  O   UNL     1     -13.976  12.760  72.586  1.00  0.00    -0.503 OA 
ENDBRANCH  16  17
ENDBRANCH   3  15
TORSDOF 4
ENDMDL
MODEL       90
REMARK 921   NORMALIZED FREE ENERGY PREDICTED BY IDOCK:   -4.82 KCAL/MOL
REMARK 922        TOTAL FREE ENERGY PREDICTED BY IDOCK:   -6.64 KCAL/MOL
REMARK 923 INTER-LIGAND FREE ENERGY PREDICTED BY IDOCK:   -5.98 KCAL/MOL
REMARK 924 INTRA-LIGAND FREE ENERGY PREDICTED BY IDOCK:   -0.66 KCAL/MOL
REMARK 927      BINDING AFFINITY PREDICTED BY RF-SCORE:    0.00 PKD
ROOT
HETATM    1  C   UNL     1      -7.289  11.567  69.018  1.00  0.00    -0.094 C  
HETATM    2  C   UNL     1      -8.719  11.479  68.538  1.00  0.00    -0.138 C  
HETATM    3  C   UNL     1      -9.567  10.541  69.017  1.00  0.00    -0.213 C  
ENDROOT
BRANCH   2   4
HETATM    4  C   UNL     1      -9.212  12.417  67.531  1.00  0.00    -0.183 C  
HETATM    5  C   UNL     1     -10.239  13.272  67.660  1.00  0.00    -0.228 C  
BRANCH   5   6
HETATM    6  C   UNL     1     -10.689  14.184  66.607  1.00  0.00    -0.289 C  
HETATM    7  C   UNL     1      -8.609  15.631  66.634  1.00  0.00    -0.330 C  
HETATM    8  C   UNL     1     -11.478  13.751  65.602  1.00  0.00    -0.318 C  
HETATM    9  C   UNL     1     -11.947  14.635  64.483  1.00  0.00    -0.473 C  
HETATM   10  C   UNL     1     -11.971  12.328  65.436  1.00  0.00    -0.395 C  
HETATM   11  C   UNL     1     -10.553  16.221  68.096  1.00  0.00    -0.307 C  
HETATM   12  C   UNL     1     -10.158  15.624  66.719  1.00  0.00    -0.277 C  
HETATM   13  C   UNL     1     -10.686  16.613  65.640  1.00  0.00    -0.222 C  
HETATM   14  C   UNL     1     -11.515  16.088  64.478  1.00  0.00    -0.274 C  
ENDBRANCH   5   6
ENDBRANCH   2   4
BRANCH   3  15
HETATM   15  C   UNL     1      -9.246   9.583  70.058  1.00  0.00    -0.264 C  
HETATM   16  C   UNL     1     -10.054   9.296  71.092  1.00  0.00    -0.374 C  
BRANCH  16  17
HETATM   17  C   UNL     1      -9.752   8.390  72.199  1.00  0.00    -0.370 C  
HETATM   18  C   UNL     1     -11.822   6.808  72.153  1.00  0.00    -0.290 C  
HETATM   19  O   UNL     1     -12.102   5.634  72.345  1.00  0.00    -0.204 OA 
HETATM   20  C   UNL     1     -10.529   7.364  72.603  1.00  0.00    -0.303 C  
HETATM   21  C   UNL     1      -8.446   8.543  72.960  1.00  0.00    -0.110 C  
HETATM   22  O   UNL     1     -12.677   7.680  71.598  1.00  0.00    -0.323 OA 
ENDBRANCH  16  17
ENDBRANCH   3  15
TORSDOF 4
ENDMDL
MODEL       91
REMARK 921   NORMALIZED FREE ENERGY PREDICTED BY IDOCK:   -4.81 KCAL/MOL
REMARK 922        TOTAL FREE ENERGY PREDICTED BY IDOCK:   -6.63 KCAL/MOL
REMARK 923 INTER-LIGAND FREE ENERGY PREDICTED BY IDOCK:   -5.89 KCAL/MOL
REMARK 924 INTRA-LIGAND FREE ENERGY PREDICTED BY IDOCK:   -0.74 KCAL/MOL
REMARK 927      BINDING AFFINITY PREDICTED BY RF-SCORE:    0.00 PKD
ROOT
HETATM    1  C   UNL     1      -6.654  15.442  67.952  1.00  0.00    -0.169 C  
HETATM    2  C   UNL     1      -7.829  14.783  67.267  1.00  0.00    -0.223 C  
HETATM    3  C   UNL     1      -8.745  15.507  66.586  1.00  0.00    -0.326 C  
ENDROOT
BRANCH   2   4
HETATM    4  C   UNL     1      -7.997  13.333  67.336  1.00  0.00    -0.175 C  
HETATM    5  C   UNL     1      -8.899  12.659  68.067  1.00  0.00    -0.195 C  
BRANCH   5   6
HETATM    6  C   UNL     1      -9.011  11.200  68.098  1.00  0.00    -0.159 C  
HETATM    7  C   UNL     1     -10.104  10.992  65.822  1.00  0.00    -0.305 C  
HETATM    8  C   UNL     1      -8.091  10.445  68.733  1.00  0.00    -0.125 C  
HETATM    9  C   UNL     1      -8.142   8.945  68.774  1.00  0.00    -0.114 C  
HETATM   10  C   UNL     1      -6.874  10.984  69.456  1.00  0.00    -0.133 C  
HETATM   11  C   UNL     1     -11.527  11.231  67.867  1.00  0.00    -0.360 C  
HETATM   12  C   UNL     1     -10.208  10.619  67.324  1.00  0.00    -0.250 C  
HETATM   13  C   UNL     1     -10.369   9.074  67.409  1.00  0.00    -0.335 C  
HETATM   14  C   UNL     1      -9.282   8.239  68.068  1.00  0.00    -0.142 C  
ENDBRANCH   5   6
ENDBRANCH   2   4
BRANCH   3  15
HETATM   15  C   UNL     1      -8.682  16.942  66.377  1.00  0.00    -0.321 C  
HETATM   16  C   UNL     1      -9.435  17.832  67.044  1.00  0.00    -0.271 C  
BRANCH  16  17
HETATM   17  C   UNL     1      -9.458  19.279  66.827  1.00  0.00    -0.386 C  
HETATM   18  C   UNL     1      -7.357  20.037  68.170  1.00  0.00    -0.280 C  
HETATM   19  O   UNL     1      -6.461  20.866  68.108  1.00  0.00    -0.310 OA 
HETATM   20  C   UNL     1      -8.562  20.157  67.325  1.00  0.00    -0.414 C  
HETATM   21  C   UNL     1     -10.529  19.888  65.939  1.00  0.00    -0.567 C  
HETATM   22  O   UNL     1      -7.347  19.018  69.042  1.00  0.00    -0.329 OA 
ENDBRANCH  16  17
ENDBRANCH   3  15
TORSDOF 4
ENDMDL
MODEL       92
REMARK 921   NORMALIZED FREE ENERGY PREDICTED BY IDOCK:   -4.81 KCAL/MOL
REMARK 922        TOTAL FREE ENERGY PREDICTED BY IDOCK:   -6.62 KCAL/MOL
REMARK 923 INTER-LIGAND FREE ENERGY PREDICTED BY IDOCK:   -6.00 KCAL/MOL
REMARK 924 INTRA-LIGAND FREE ENERGY PREDICTED BY IDOCK:   -0.63 KCAL/MOL
REMARK 927      BINDING AFFINITY PREDICTED BY RF-SCORE:    0.00 PKD
ROOT
HETATM    1  C   UNL     1      -7.768  11.187  68.923  1.00  0.00    -0.137 C  
HETATM    2  C   UNL     1      -9.270  11.291  68.785  1.00  0.00    -0.133 C  
HETATM    3  C   UNL     1     -10.096  10.416  69.400  1.00  0.00    -0.251 C  
ENDROOT
BRANCH   2   4
HETATM    4  C   UNL     1      -9.858  12.352  67.971  1.00  0.00    -0.205 C  
HETATM    5  C   UNL     1      -9.484  12.723  66.736  1.00  0.00    -0.243 C  
BRANCH   5   6
HETATM    6  C   UNL     1     -10.112  13.804  65.974  1.00  0.00    -0.320 C  
HETATM    7  C   UNL     1     -12.347  12.641  65.702  1.00  0.00    -0.390 C  
HETATM    8  C   UNL     1      -9.783  15.093  66.194  1.00  0.00    -0.338 C  
HETATM    9  C   UNL     1     -10.414  16.242  65.462  1.00  0.00    -0.383 C  
HETATM   10  C   UNL     1      -8.773  15.569  67.219  1.00  0.00    -0.214 C  
HETATM   11  C   UNL     1     -10.568  12.336  63.968  1.00  0.00    -0.434 C  
HETATM   12  C   UNL     1     -11.184  13.355  64.964  1.00  0.00    -0.332 C  
HETATM   13  C   UNL     1     -11.807  14.492  64.106  1.00  0.00    -0.290 C  
HETATM   14  C   UNL     1     -11.474  15.943  64.421  1.00  0.00    -0.268 C  
ENDBRANCH   5   6
ENDBRANCH   2   4
BRANCH   3  15
HETATM   15  C   UNL     1      -9.668   9.350  70.287  1.00  0.00    -0.292 C  
HETATM   16  C   UNL     1     -10.176   9.142  71.513  1.00  0.00    -0.403 C  
BRANCH  16  17
HETATM   17  C   UNL     1      -9.737   8.127  72.470  1.00  0.00    -0.357 C  
HETATM   18  C   UNL     1     -11.795   6.528  72.508  1.00  0.00    -0.123 C  
HETATM   19  O   UNL     1     -12.046   5.336  72.605  1.00  0.00    -0.125 OA 
HETATM   20  C   UNL     1     -10.457   7.052  72.852  1.00  0.00    -0.283 C  
HETATM   21  C   UNL     1      -8.348   8.218  73.076  1.00  0.00    -0.246 C  
HETATM   22  O   UNL     1     -12.714   7.441  72.161  1.00  0.00    -0.228 OA 
ENDBRANCH  16  17
ENDBRANCH   3  15
TORSDOF 4
ENDMDL
MODEL       93
REMARK 921   NORMALIZED FREE ENERGY PREDICTED BY IDOCK:   -4.81 KCAL/MOL
REMARK 922        TOTAL FREE ENERGY PREDICTED BY IDOCK:   -6.62 KCAL/MOL
REMARK 923 INTER-LIGAND FREE ENERGY PREDICTED BY IDOCK:   -6.06 KCAL/MOL
REMARK 924 INTRA-LIGAND FREE ENERGY PREDICTED BY IDOCK:   -0.56 KCAL/MOL
REMARK 927      BINDING AFFINITY PREDICTED BY RF-SCORE:    0.00 PKD
ROOT
HETATM    1  C   UNL     1     -10.827  11.782  66.829  1.00  0.00    -0.312 C  
HETATM    2  C   UNL     1     -11.171  10.892  68.001  1.00  0.00    -0.378 C  
HETATM    3  C   UNL     1     -11.740  11.391  69.122  1.00  0.00    -0.410 C  
ENDROOT
BRANCH   2   4
HETATM    4  C   UNL     1     -10.887   9.460  67.941  1.00  0.00    -0.215 C  
HETATM    5  C   UNL     1      -9.959   8.791  68.644  1.00  0.00    -0.197 C  
BRANCH   5   6
HETATM    6  C   UNL     1      -9.718   7.351  68.532  1.00  0.00    -0.152 C  
HETATM    7  C   UNL     1      -7.272   7.564  67.905  1.00  0.00    -0.090 C  
HETATM    8  C   UNL     1     -10.380   6.472  69.312  1.00  0.00    -0.237 C  
HETATM    9  C   UNL     1     -10.153   4.990  69.258  1.00  0.00    -0.270 C  
HETATM   10  C   UNL     1     -11.406   6.844  70.363  1.00  0.00    -0.376 C  
HETATM   11  C   UNL     1      -9.015   7.500  66.109  1.00  0.00    -0.188 C  
HETATM   12  C   UNL     1      -8.640   6.947  67.510  1.00  0.00    -0.121 C  
HETATM   13  C   UNL     1      -8.427   5.416  67.340  1.00  0.00    -0.106 C  
HETATM   14  C   UNL     1      -9.130   4.448  68.279  1.00  0.00    -0.165 C  
ENDBRANCH   5   6
ENDBRANCH   2   4
BRANCH   3  15
HETATM   15  C   UNL     1     -12.136  12.774  69.308  1.00  0.00    -0.224 C  
HETATM   16  C   UNL     1     -12.161  13.396  70.499  1.00  0.00    -0.425 C  
BRANCH  16  17
HETATM   17  C   UNL     1     -12.613  14.764  70.750  1.00  0.00    -0.412 C  
HETATM   18  C   UNL     1     -10.851  16.144  69.415  1.00  0.00    -0.320 C  
HETATM   19  O   UNL     1     -10.781  17.163  68.743  1.00  0.00    -0.337 OA 
HETATM   20  C   UNL     1     -12.025  15.880  70.272  1.00  0.00    -0.324 C  
HETATM   21  C   UNL     1     -13.868  15.001  71.572  1.00  0.00    -0.570 C  
HETATM   22  O   UNL     1      -9.859  15.244  69.481  1.00  0.00    -0.234 OA 
ENDBRANCH  16  17
ENDBRANCH   3  15
TORSDOF 4
ENDMDL
MODEL       94
REMARK 921   NORMALIZED FREE ENERGY PREDICTED BY IDOCK:   -4.80 KCAL/MOL
REMARK 922        TOTAL FREE ENERGY PREDICTED BY IDOCK:   -6.62 KCAL/MOL
REMARK 923 INTER-LIGAND FREE ENERGY PREDICTED BY IDOCK:   -6.09 KCAL/MOL
REMARK 924 INTRA-LIGAND FREE ENERGY PREDICTED BY IDOCK:   -0.53 KCAL/MOL
REMARK 927      BINDING AFFINITY PREDICTED BY RF-SCORE:    0.00 PKD
ROOT
HETATM    1  C   UNL     1     -10.550  15.831  67.722  1.00  0.00    -0.292 C  
HETATM    2  C   UNL     1      -9.083  15.622  67.427  1.00  0.00    -0.203 C  
HETATM    3  C   UNL     1      -8.588  14.395  67.149  1.00  0.00    -0.237 C  
ENDROOT
BRANCH   2   4
HETATM    4  C   UNL     1      -8.165  16.759  67.442  1.00  0.00    -0.195 C  
HETATM    5  C   UNL     1      -8.206  17.819  68.264  1.00  0.00    -0.285 C  
BRANCH   5   6
HETATM    6  C   UNL     1      -7.257  18.933  68.222  1.00  0.00    -0.297 C  
HETATM    7  C   UNL     1      -8.950  20.665  67.476  1.00  0.00    -0.321 C  
HETATM    8  C   UNL     1      -6.217  18.993  69.079  1.00  0.00    -0.276 C  
HETATM    9  C   UNL     1      -5.231  20.124  69.099  1.00  0.00    -0.232 C  
HETATM   10  C   UNL     1      -5.916  17.967  70.153  1.00  0.00    -0.120 C  
HETATM   11  C   UNL     1      -7.650  19.381  65.766  1.00  0.00    -0.216 C  
HETATM   12  C   UNL     1      -7.571  20.020  67.178  1.00  0.00    -0.322 C  
HETATM   13  C   UNL     1      -6.530  21.172  67.085  1.00  0.00    -0.417 C  
HETATM   14  C   UNL     1      -5.407  21.257  68.108  1.00  0.00    -0.298 C  
ENDBRANCH   5   6
ENDBRANCH   2   4
BRANCH   3  15
HETATM   15  C   UNL     1      -9.380  13.184  67.037  1.00  0.00    -0.238 C  
HETATM   16  C   UNL     1      -9.603  12.536  65.882  1.00  0.00    -0.174 C  
BRANCH  16  17
HETATM   17  C   UNL     1     -10.443  11.352  65.705  1.00  0.00    -0.316 C  
HETATM   18  C   UNL     1     -12.277  12.257  64.090  1.00  0.00    -0.446 C  
HETATM   19  O   UNL     1     -12.963  11.876  63.152  1.00  0.00    -0.640 OA 
HETATM   20  C   UNL     1     -11.555  11.291  64.943  1.00  0.00     0.176 C  
HETATM   21  C   UNL     1     -10.051  10.046  66.373  1.00  0.00    -0.307 C  
HETATM   22  O   UNL     1     -12.190  13.545  64.453  1.00  0.00    -0.431 OA 
ENDBRANCH  16  17
ENDBRANCH   3  15
TORSDOF 4
ENDMDL
MODEL       95
REMARK 921   NORMALIZED FREE ENERGY PREDICTED BY IDOCK:   -4.79 KCAL/MOL
REMARK 922        TOTAL FREE ENERGY PREDICTED BY IDOCK:   -6.60 KCAL/MOL
REMARK 923 INTER-LIGAND FREE ENERGY PREDICTED BY IDOCK:   -5.99 KCAL/MOL
REMARK 924 INTRA-LIGAND FREE ENERGY PREDICTED BY IDOCK:   -0.61 KCAL/MOL
REMARK 927      BINDING AFFINITY PREDICTED BY RF-SCORE:    0.00 PKD
ROOT
HETATM    1  C   UNL     1     -10.130  10.079  65.072  1.00  0.00    -0.228 C  
HETATM    2  C   UNL     1     -10.519  10.429  66.490  1.00  0.00    -0.262 C  
HETATM    3  C   UNL     1     -10.650   9.475  67.440  1.00  0.00    -0.337 C  
ENDROOT
BRANCH   2   4
HETATM    4  C   UNL     1     -10.765  11.821  66.859  1.00  0.00    -0.288 C  
HETATM    5  C   UNL     1     -10.003  12.593  67.651  1.00  0.00    -0.216 C  
BRANCH   5   6
HETATM    6  C   UNL     1     -10.311  13.983  67.989  1.00  0.00    -0.240 C  
HETATM    7  C   UNL     1     -10.025  14.874  65.635  1.00  0.00    -0.389 C  
HETATM    8  C   UNL     1     -11.186  14.283  68.971  1.00  0.00    -0.294 C  
HETATM    9  C   UNL     1     -11.558  15.689  69.342  1.00  0.00    -0.378 C  
HETATM   10  C   UNL     1     -11.936  13.266  69.807  1.00  0.00    -0.391 C  
HETATM   11  C   UNL     1      -8.068  14.836  67.195  1.00  0.00    -0.226 C  
HETATM   12  C   UNL     1      -9.605  15.039  67.119  1.00  0.00    -0.222 C  
HETATM   13  C   UNL     1      -9.877  16.518  67.517  1.00  0.00    -0.248 C  
HETATM   14  C   UNL     1     -10.921  16.833  68.578  1.00  0.00    -0.312 C  
ENDBRANCH   5   6
ENDBRANCH   2   4
BRANCH   3  15
HETATM   15  C   UNL     1     -10.382   8.063  67.244  1.00  0.00    -0.371 C  
HETATM   16  C   UNL     1     -10.675   7.110  68.144  1.00  0.00    -0.214 C  
BRANCH  16  17
HETATM   17  C   UNL     1     -10.368   5.685  68.024  1.00  0.00    -0.258 C  
HETATM   18  C   UNL     1      -9.858   5.056  70.501  1.00  0.00    -0.219 C  
HETATM   19  O   UNL     1     -10.008   4.122  71.275  1.00  0.00    -0.187 OA 
HETATM   20  C   UNL     1     -10.030   4.871  69.046  1.00  0.00    -0.237 C  
HETATM   21  C   UNL     1     -10.470   5.006  66.669  1.00  0.00    -0.301 C  
HETATM   22  O   UNL     1      -9.463   6.275  70.898  1.00  0.00    -0.170 OA 
ENDBRANCH  16  17
ENDBRANCH   3  15
TORSDOF 4
ENDMDL
MODEL       96
REMARK 921   NORMALIZED FREE ENERGY PREDICTED BY IDOCK:   -4.79 KCAL/MOL
REMARK 922        TOTAL FREE ENERGY PREDICTED BY IDOCK:   -6.60 KCAL/MOL
REMARK 923 INTER-LIGAND FREE ENERGY PREDICTED BY IDOCK:   -5.96 KCAL/MOL
REMARK 924 INTRA-LIGAND FREE ENERGY PREDICTED BY IDOCK:   -0.64 KCAL/MOL
REMARK 927      BINDING AFFINITY PREDICTED BY RF-SCORE:    0.00 PKD
ROOT
HETATM    1  C   UNL     1     -10.147   7.602  67.485  1.00  0.00    -0.264 C  
HETATM    2  C   UNL     1     -10.288   8.996  68.051  1.00  0.00    -0.275 C  
HETATM    3  C   UNL     1      -9.893   9.288  69.311  1.00  0.00    -0.172 C  
ENDROOT
BRANCH   2   4
HETATM    4  C   UNL     1     -10.865  10.062  67.235  1.00  0.00    -0.284 C  
HETATM    5  C   UNL     1     -10.211  11.090  66.671  1.00  0.00    -0.280 C  
BRANCH   5   6
HETATM    6  C   UNL     1     -10.851  12.134  65.868  1.00  0.00    -0.316 C  
HETATM    7  C   UNL     1      -9.943  14.072  67.224  1.00  0.00    -0.242 C  
HETATM    8  C   UNL     1     -11.051  11.969  64.544  1.00  0.00    -0.384 C  
HETATM    9  C   UNL     1     -11.676  13.016  63.669  1.00  0.00    -0.550 C  
HETATM   10  C   UNL     1     -10.649  10.742  63.751  1.00  0.00    -0.116 C  
HETATM   11  C   UNL     1     -12.151  13.061  67.826  1.00  0.00    -0.244 C  
HETATM   12  C   UNL     1     -11.220  13.416  66.637  1.00  0.00    -0.330 C  
HETATM   13  C   UNL     1     -11.959  14.501  65.803  1.00  0.00    -0.309 C  
HETATM   14  C   UNL     1     -12.108  14.325  64.300  1.00  0.00    -0.467 C  
ENDBRANCH   5   6
ENDBRANCH   2   4
BRANCH   3  15
HETATM   15  C   UNL     1      -9.250   8.356  70.218  1.00  0.00    -0.154 C  
HETATM   16  C   UNL     1      -8.961   8.633  71.500  1.00  0.00    -0.302 C  
BRANCH  16  17
HETATM   17  C   UNL     1      -8.257   7.757  72.436  1.00  0.00    -0.155 C  
HETATM   18  C   UNL     1     -10.245   6.691  73.741  1.00  0.00    -0.329 C  
HETATM   19  O   UNL     1     -10.558   5.627  74.255  1.00  0.00    -0.262 OA 
HETATM   20  C   UNL     1      -8.845   6.965  73.357  1.00  0.00    -0.152 C  
HETATM   21  C   UNL     1      -6.743   7.658  72.377  1.00  0.00    -0.058 C  
HETATM   22  O   UNL     1     -11.113   7.696  73.560  1.00  0.00    -0.315 OA 
ENDBRANCH  16  17
ENDBRANCH   3  15
TORSDOF 4
ENDMDL
MODEL       97
REMARK 921   NORMALIZED FREE ENERGY PREDICTED BY IDOCK:   -4.74 KCAL/MOL
REMARK 922        TOTAL FREE ENERGY PREDICTED BY IDOCK:   -6.54 KCAL/MOL
REMARK 923 INTER-LIGAND FREE ENERGY PREDICTED BY IDOCK:   -6.32 KCAL/MOL
REMARK 924 INTRA-LIGAND FREE ENERGY PREDICTED BY IDOCK:   -0.22 KCAL/MOL
REMARK 927      BINDING AFFINITY PREDICTED BY RF-SCORE:    0.00 PKD
ROOT
HETATM    1  C   UNL     1     -11.932  11.476  67.704  1.00  0.00    -0.054 C  
HETATM    2  C   UNL     1     -10.698  11.595  68.567  1.00  0.00    -0.250 C  
HETATM    3  C   UNL     1      -9.724  12.490  68.285  1.00  0.00    -0.220 C  
ENDROOT
BRANCH   2   4
HETATM    4  C   UNL     1     -10.534  10.730  69.733  1.00  0.00    -0.130 C  
HETATM    5  C   UNL     1     -10.419   9.392  69.736  1.00  0.00    -0.243 C  
BRANCH   5   6
HETATM    6  C   UNL     1     -10.265   8.580  70.944  1.00  0.00    -0.246 C  
HETATM    7  C   UNL     1     -11.965   6.825  70.275  1.00  0.00    -0.294 C  
HETATM    8  C   UNL     1      -9.077   8.496  71.579  1.00  0.00    -0.281 C  
HETATM    9  C   UNL     1      -8.855   7.658  72.804  1.00  0.00    -0.203 C  
HETATM   10  C   UNL     1      -7.805   9.191  71.138  1.00  0.00    -0.119 C  
HETATM   11  C   UNL     1     -12.693   8.818  71.604  1.00  0.00    -0.394 C  
HETATM   12  C   UNL     1     -11.527   7.817  71.385  1.00  0.00    -0.289 C  
HETATM   13  C   UNL     1     -11.386   7.005  72.704  1.00  0.00    -0.290 C  
HETATM   14  C   UNL     1     -10.022   6.865  73.361  1.00  0.00    -0.265 C  
ENDBRANCH   5   6
ENDBRANCH   2   4
BRANCH   3  15
HETATM   15  C   UNL     1      -9.769  13.455  67.202  1.00  0.00    -0.237 C  
HETATM   16  C   UNL     1     -10.336  14.668  67.300  1.00  0.00    -0.256 C  
BRANCH  16  17
HETATM   17  C   UNL     1     -10.466  15.650  66.224  1.00  0.00    -0.313 C  
HETATM   18  C   UNL     1     -11.901  14.335  64.492  1.00  0.00    -0.442 C  
HETATM   19  O   UNL     1     -12.785  14.534  63.672  1.00  0.00    -0.754 OA 
HETATM   20  C   UNL     1     -11.132  15.458  65.067  1.00  0.00    -0.428 C  
HETATM   21  C   UNL     1      -9.860  17.033  66.393  1.00  0.00    -0.312 C  
HETATM   22  O   UNL     1     -11.520  13.106  64.869  1.00  0.00    -0.296 OA 
ENDBRANCH  16  17
ENDBRANCH   3  15
TORSDOF 4
ENDMDL
MODEL       98
REMARK 921   NORMALIZED FREE ENERGY PREDICTED BY IDOCK:   -4.72 KCAL/MOL
REMARK 922        TOTAL FREE ENERGY PREDICTED BY IDOCK:   -6.51 KCAL/MOL
REMARK 923 INTER-LIGAND FREE ENERGY PREDICTED BY IDOCK:   -5.86 KCAL/MOL
REMARK 924 INTRA-LIGAND FREE ENERGY PREDICTED BY IDOCK:   -0.65 KCAL/MOL
REMARK 927      BINDING AFFINITY PREDICTED BY RF-SCORE:    0.00 PKD
ROOT
HETATM    1  C   UNL     1     -11.787  14.570  67.181  1.00  0.00    -0.412 C  
HETATM    2  C   UNL     1     -10.314  14.676  66.859  1.00  0.00    -0.264 C  
HETATM    3  C   UNL     1      -9.550  13.574  66.681  1.00  0.00    -0.282 C  
ENDROOT
BRANCH   2   4
HETATM    4  C   UNL     1      -9.684  15.989  66.736  1.00  0.00    -0.253 C  
HETATM    5  C   UNL     1      -9.286  16.790  67.738  1.00  0.00    -0.233 C  
BRANCH   5   6
HETATM    6  C   UNL     1      -8.666  18.102  67.548  1.00  0.00    -0.249 C  
HETATM    7  C   UNL     1      -6.598  17.225  66.375  1.00  0.00    -0.281 C  
HETATM    8  C   UNL     1      -9.418  19.205  67.354  1.00  0.00    -0.362 C  
HETATM    9  C   UNL     1      -8.836  20.570  67.127  1.00  0.00    -0.399 C  
HETATM   10  C   UNL     1     -10.932  19.226  67.302  1.00  0.00    -0.443 C  
HETATM   11  C   UNL     1      -6.598  17.489  68.864  1.00  0.00    -0.226 C  
HETATM   12  C   UNL     1      -7.127  18.103  67.540  1.00  0.00    -0.205 C  
HETATM   13  C   UNL     1      -6.463  19.503  67.404  1.00  0.00    -0.214 C  
HETATM   14  C   UNL     1      -7.327  20.721  67.115  1.00  0.00    -0.385 C  
ENDBRANCH   5   6
ENDBRANCH   2   4
BRANCH   3  15
HETATM   15  C   UNL     1     -10.041  12.209  66.710  1.00  0.00    -0.218 C  
HETATM   16  C   UNL     1      -9.289  11.147  67.042  1.00  0.00    -0.182 C  
BRANCH  16  17
HETATM   17  C   UNL     1      -9.714   9.748  67.025  1.00  0.00    -0.233 C  
HETATM   18  C   UNL     1     -10.521   9.422  69.481  1.00  0.00    -0.218 C  
HETATM   19  O   UNL     1     -11.385   8.824  70.106  1.00  0.00    -0.209 OA 
HETATM   20  C   UNL     1     -10.222   9.073  68.077  1.00  0.00    -0.260 C  
HETATM   21  C   UNL     1      -9.642   8.957  65.730  1.00  0.00    -0.245 C  
HETATM   22  O   UNL     1      -9.745  10.367  70.031  1.00  0.00    -0.091 OA 
ENDBRANCH  16  17
ENDBRANCH   3  15
TORSDOF 4
ENDMDL
MODEL       99
REMARK 921   NORMALIZED FREE ENERGY PREDICTED BY IDOCK:   -4.71 KCAL/MOL
REMARK 922        TOTAL FREE ENERGY PREDICTED BY IDOCK:   -6.51 KCAL/MOL
REMARK 923 INTER-LIGAND FREE ENERGY PREDICTED BY IDOCK:   -5.87 KCAL/MOL
REMARK 924 INTRA-LIGAND FREE ENERGY PREDICTED BY IDOCK:   -0.64 KCAL/MOL
REMARK 927      BINDING AFFINITY PREDICTED BY RF-SCORE:    0.00 PKD
ROOT
HETATM    1  C   UNL     1     -10.769  10.806  69.268  1.00  0.00    -0.268 C  
HETATM    2  C   UNL     1     -10.593   9.755  68.197  1.00  0.00    -0.276 C  
HETATM    3  C   UNL     1     -10.534  10.086  66.887  1.00  0.00    -0.284 C  
ENDROOT
BRANCH   2   4
HETATM    4  C   UNL     1     -10.486   8.345  68.566  1.00  0.00    -0.201 C  
HETATM    5  C   UNL     1      -9.597   7.797  69.410  1.00  0.00    -0.156 C  
BRANCH   5   6
HETATM    6  C   UNL     1      -9.538   6.370  69.733  1.00  0.00    -0.163 C  
HETATM    7  C   UNL     1     -11.572   6.378  71.244  1.00  0.00    -0.370 C  
HETATM    8  C   UNL     1      -9.079   5.473  68.836  1.00  0.00    -0.133 C  
HETATM    9  C   UNL     1      -9.022   3.997  69.103  1.00  0.00    -0.167 C  
HETATM   10  C   UNL     1      -8.597   5.809  67.439  1.00  0.00    -0.105 C  
HETATM   11  C   UNL     1      -9.300   6.781  72.215  1.00  0.00    -0.145 C  
HETATM   12  C   UNL     1     -10.074   5.992  71.125  1.00  0.00    -0.241 C  
HETATM   13  C   UNL     1      -9.952   4.487  71.498  1.00  0.00    -0.259 C  
HETATM   14  C   UNL     1      -9.501   3.484  70.447  1.00  0.00    -0.254 C  
ENDBRANCH   5   6
ENDBRANCH   2   4
BRANCH   3  15
HETATM   15  C   UNL     1     -10.564  11.441  66.370  1.00  0.00    -0.311 C  
HETATM   16  C   UNL     1     -11.689  12.155  66.197  1.00  0.00    -0.384 C  
BRANCH  16  17
HETATM   17  C   UNL     1     -11.780  13.496  65.621  1.00  0.00    -0.363 C  
HETATM   18  C   UNL     1     -11.404  14.990  67.722  1.00  0.00    -0.330 C  
HETATM   19  O   UNL     1     -10.875  16.048  68.031  1.00  0.00    -0.312 OA 
HETATM   20  C   UNL     1     -11.655  14.651  66.306  1.00  0.00    -0.344 C  
HETATM   21  C   UNL     1     -11.986  13.658  64.124  1.00  0.00    -0.488 C  
HETATM   22  O   UNL     1     -11.853  14.109  68.628  1.00  0.00    -0.320 OA 
ENDBRANCH  16  17
ENDBRANCH   3  15
TORSDOF 4
ENDMDL
MODEL      100
REMARK 921   NORMALIZED FREE ENERGY PREDICTED BY IDOCK:   -4.70 KCAL/MOL
REMARK 922        TOTAL FREE ENERGY PREDICTED BY IDOCK:   -6.49 KCAL/MOL
REMARK 923 INTER-LIGAND FREE ENERGY PREDICTED BY IDOCK:   -5.88 KCAL/MOL
REMARK 924 INTRA-LIGAND FREE ENERGY PREDICTED BY IDOCK:   -0.61 KCAL/MOL
REMARK 927      BINDING AFFINITY PREDICTED BY RF-SCORE:    0.00 PKD
ROOT
HETATM    1  C   UNL     1      -9.689  15.012  67.953  1.00  0.00    -0.212 C  
HETATM    2  C   UNL     1      -9.316  15.755  66.691  1.00  0.00    -0.284 C  
HETATM    3  C   UNL     1      -9.750  15.346  65.477  1.00  0.00    -0.318 C  
ENDROOT
BRANCH   2   4
HETATM    4  C   UNL     1      -8.466  16.941  66.764  1.00  0.00    -0.266 C  
HETATM    5  C   UNL     1      -8.290  17.744  67.826  1.00  0.00    -0.235 C  
BRANCH   5   6
HETATM    6  C   UNL     1      -7.426  18.926  67.833  1.00  0.00    -0.269 C  
HETATM    7  C   UNL     1      -5.250  17.637  67.677  1.00  0.00    -0.136 C  
HETATM    8  C   UNL     1      -7.833  20.087  67.280  1.00  0.00    -0.334 C  
HETATM    9  C   UNL     1      -6.979  21.321  67.234  1.00  0.00    -0.284 C  
HETATM   10  C   UNL     1      -9.171  20.306  66.603  1.00  0.00    -0.428 C  
HETATM   11  C   UNL     1      -6.197  18.210  69.922  1.00  0.00    -0.102 C  
HETATM   12  C   UNL     1      -6.038  18.718  68.463  1.00  0.00    -0.225 C  
HETATM   13  C   UNL     1      -5.141  19.987  68.532  1.00  0.00    -0.209 C  
HETATM   14  C   UNL     1      -5.590  21.265  67.839  1.00  0.00    -0.376 C  
ENDBRANCH   5   6
ENDBRANCH   2   4
BRANCH   3  15
HETATM   15  C   UNL     1     -10.646  14.227  65.248  1.00  0.00    -0.396 C  
HETATM   16  C   UNL     1     -10.250  13.029  64.790  1.00  0.00    -0.312 C  
BRANCH  16  17
HETATM   17  C   UNL     1     -11.118  11.892  64.481  1.00  0.00    -0.381 C  
HETATM   18  C   UNL     1      -9.649   9.890  65.271  1.00  0.00    -0.295 C  
HETATM   19  O   UNL     1      -9.774   8.793  65.795  1.00  0.00    -0.204 OA 
HETATM   20  C   UNL     1     -10.815  10.596  64.702  1.00  0.00     0.136 C  
HETATM   21  C   UNL     1     -12.502  12.139  63.907  1.00  0.00    -0.581 C  
HETATM   22  O   UNL     1      -8.461  10.489  65.109  1.00  0.00    -0.169 OA 
ENDBRANCH  16  17
ENDBRANCH   3  15
TORSDOF 4
ENDMDL
MODEL      101
REMARK 921   NORMALIZED FREE ENERGY PREDICTED BY IDOCK:   -4.69 KCAL/MOL
REMARK 922        TOTAL FREE ENERGY PREDICTED BY IDOCK:   -6.48 KCAL/MOL
REMARK 923 INTER-LIGAND FREE ENERGY PREDICTED BY IDOCK:   -5.82 KCAL/MOL
REMARK 924 INTRA-LIGAND FREE ENERGY PREDICTED BY IDOCK:   -0.65 KCAL/MOL
REMARK 927      BINDING AFFINITY PREDICTED BY RF-SCORE:    0.00 PKD
ROOT
HETATM    1  C   UNL     1     -11.035  14.179  65.401  1.00  0.00    -0.328 C  
HETATM    2  C   UNL     1      -9.906  14.359  66.389  1.00  0.00    -0.309 C  
HETATM    3  C   UNL     1      -9.511  13.351  67.200  1.00  0.00    -0.244 C  
ENDROOT
BRANCH   2   4
HETATM    4  C   UNL     1      -9.217  15.644  66.486  1.00  0.00    -0.325 C  
HETATM    5  C   UNL     1      -9.212  16.480  67.537  1.00  0.00    -0.203 C  
BRANCH   5   6
HETATM    6  C   UNL     1      -8.505  17.761  67.568  1.00  0.00    -0.227 C  
HETATM    7  C   UNL     1     -10.399  19.056  68.643  1.00  0.00    -0.273 C  
HETATM    8  C   UNL     1      -7.167  17.813  67.728  1.00  0.00    -0.207 C  
HETATM    9  C   UNL     1      -6.394  19.099  67.795  1.00  0.00    -0.226 C  
HETATM   10  C   UNL     1      -6.264  16.608  67.898  1.00  0.00    -0.148 C  
HETATM   11  C   UNL     1     -10.238  18.931  66.148  1.00  0.00    -0.485 C  
HETATM   12  C   UNL     1      -9.403  19.006  67.455  1.00  0.00    -0.345 C  
HETATM   13  C   UNL     1      -8.651  20.367  67.421  1.00  0.00    -0.403 C  
HETATM   14  C   UNL     1      -7.152  20.407  67.676  1.00  0.00    -0.345 C  
ENDBRANCH   5   6
ENDBRANCH   2   4
BRANCH   3  15
HETATM   15  C   UNL     1     -10.054  12.006  67.180  1.00  0.00    -0.217 C  
HETATM   16  C   UNL     1      -9.353  10.907  67.503  1.00  0.00    -0.164 C  
BRANCH  16  17
HETATM   17  C   UNL     1      -9.831   9.527  67.438  1.00  0.00    -0.218 C  
HETATM   18  C   UNL     1     -10.277   9.013  69.954  1.00  0.00    -0.202 C  
HETATM   19  O   UNL     1     -11.061   8.388  70.652  1.00  0.00    -0.251 OA 
HETATM   20  C   UNL     1     -10.204   8.778  68.497  1.00  0.00    -0.220 C  
HETATM   21  C   UNL     1      -9.984   8.849  66.087  1.00  0.00    -0.290 C  
HETATM   22  O   UNL     1      -9.392   9.887  70.455  1.00  0.00    -0.193 OA 
ENDBRANCH  16  17
ENDBRANCH   3  15
TORSDOF 4
ENDMDL
MODEL      102
REMARK 921   NORMALIZED FREE ENERGY PREDICTED BY IDOCK:   -4.67 KCAL/MOL
REMARK 922        TOTAL FREE ENERGY PREDICTED BY IDOCK:   -6.45 KCAL/MOL
REMARK 923 INTER-LIGAND FREE ENERGY PREDICTED BY IDOCK:   -5.82 KCAL/MOL
REMARK 924 INTRA-LIGAND FREE ENERGY PREDICTED BY IDOCK:   -0.63 KCAL/MOL
REMARK 927      BINDING AFFINITY PREDICTED BY RF-SCORE:    0.00 PKD
ROOT
HETATM    1  C   UNL     1      -9.336   9.894  64.134  1.00  0.00    -0.295 C  
HETATM    2  C   UNL     1      -9.498   9.624  65.612  1.00  0.00    -0.318 C  
HETATM    3  C   UNL     1      -9.279   8.396  66.133  1.00  0.00    -0.263 C  
ENDROOT
BRANCH   2   4
HETATM    4  C   UNL     1      -9.904  10.702  66.512  1.00  0.00    -0.250 C  
HETATM    5  C   UNL     1     -11.075  11.358  66.509  1.00  0.00    -0.312 C  
BRANCH   5   6
HETATM    6  C   UNL     1     -11.418  12.438  67.436  1.00  0.00    -0.418 C  
HETATM    7  C   UNL     1     -12.506  13.919  65.691  1.00  0.00    -0.538 C  
HETATM    8  C   UNL     1     -11.727  12.177  68.723  1.00  0.00    -0.374 C  
HETATM    9  C   UNL     1     -12.112  13.241  69.709  1.00  0.00    -0.355 C  
HETATM   10  C   UNL     1     -11.765  10.796  69.345  1.00  0.00    -0.378 C  
HETATM   11  C   UNL     1     -10.063  14.161  66.179  1.00  0.00    -0.324 C  
HETATM   12  C   UNL     1     -11.442  13.848  66.818  1.00  0.00    -0.369 C  
HETATM   13  C   UNL     1     -11.741  15.005  67.813  1.00  0.00    -0.294 C  
HETATM   14  C   UNL     1     -12.157  14.683  69.241  1.00  0.00    -0.307 C  
ENDBRANCH   5   6
ENDBRANCH   2   4
BRANCH   3  15
HETATM   15  C   UNL     1      -8.815   7.244  65.381  1.00  0.00     0.078 C  
HETATM   16  C   UNL     1      -8.774   5.994  65.870  1.00  0.00    -0.157 C  
BRANCH  16  17
HETATM   17  C   UNL     1      -8.257   4.813  65.180  1.00  0.00    -0.121 C  
HETATM   18  C   UNL     1     -10.439   3.805  64.172  1.00  0.00    -0.257 C  
HETATM   19  O   UNL     1     -10.816   3.216  63.170  1.00  0.00    -0.219 OA 
HETATM   20  C   UNL     1      -9.000   3.928  64.484  1.00  0.00    -0.132 C  
HETATM   21  C   UNL     1      -6.763   4.541  65.176  1.00  0.00    -0.049 C  
HETATM   22  O   UNL     1     -11.284   4.311  65.082  1.00  0.00    -0.169 OA 
ENDBRANCH  16  17
ENDBRANCH   3  15
TORSDOF 4
ENDMDL
MODEL      103
REMARK 921   NORMALIZED FREE ENERGY PREDICTED BY IDOCK:   -4.64 KCAL/MOL
REMARK 922        TOTAL FREE ENERGY PREDICTED BY IDOCK:   -6.42 KCAL/MOL
REMARK 923 INTER-LIGAND FREE ENERGY PREDICTED BY IDOCK:   -5.73 KCAL/MOL
REMARK 924 INTRA-LIGAND FREE ENERGY PREDICTED BY IDOCK:   -0.70 KCAL/MOL
REMARK 927      BINDING AFFINITY PREDICTED BY RF-SCORE:    0.00 PKD
ROOT
HETATM    1  C   UNL     1      -8.284   9.292  68.815  1.00  0.00    -0.112 C  
HETATM    2  C   UNL     1      -9.663   9.867  69.042  1.00  0.00    -0.195 C  
HETATM    3  C   UNL     1     -10.293   9.737  70.231  1.00  0.00    -0.348 C  
ENDROOT
BRANCH   2   4
HETATM    4  C   UNL     1     -10.345  10.579  67.964  1.00  0.00    -0.212 C  
HETATM    5  C   UNL     1      -9.838  11.552  67.191  1.00  0.00    -0.210 C  
BRANCH   5   6
HETATM    6  C   UNL     1     -10.579  12.233  66.129  1.00  0.00    -0.281 C  
HETATM    7  C   UNL     1     -10.015  14.579  66.906  1.00  0.00    -0.259 C  
HETATM    8  C   UNL     1     -10.692  11.689  64.900  1.00  0.00    -0.352 C  
HETATM    9  C   UNL     1     -11.416  12.355  63.767  1.00  0.00    -0.544 C  
HETATM   10  C   UNL     1     -10.085  10.366  64.477  1.00  0.00    -0.365 C  
HETATM   11  C   UNL     1     -12.087  13.454  67.749  1.00  0.00    -0.299 C  
HETATM   12  C   UNL     1     -11.159  13.607  66.513  1.00  0.00    -0.310 C  
HETATM   13  C   UNL     1     -12.003  14.305  65.409  1.00  0.00    -0.383 C  
HETATM   14  C   UNL     1     -12.056  13.708  64.011  1.00  0.00    -0.474 C  
ENDBRANCH   5   6
ENDBRANCH   2   4
BRANCH   3  15
HETATM   15  C   UNL     1      -9.724   9.113  71.411  1.00  0.00    -0.338 C  
HETATM   16  C   UNL     1      -9.832   7.806  71.697  1.00  0.00    -0.201 C  
BRANCH  16  17
HETATM   17  C   UNL     1      -9.334   7.140  72.900  1.00  0.00    -0.179 C  
HETATM   18  C   UNL     1      -6.830   6.764  72.286  1.00  0.00    -0.063 C  
HETATM   19  O   UNL     1      -5.730   6.760  72.820  1.00  0.00    -0.038 OA 
HETATM   20  C   UNL     1      -8.066   6.723  73.094  1.00  0.00    -0.114 C  
HETATM   21  C   UNL     1     -10.269   6.918  74.076  1.00  0.00    -0.384 C  
HETATM   22  O   UNL     1      -6.994   6.733  70.955  1.00  0.00    -0.064 OA 
ENDBRANCH  16  17
ENDBRANCH   3  15
TORSDOF 4
ENDMDL
MODEL      104
REMARK 921   NORMALIZED FREE ENERGY PREDICTED BY IDOCK:   -4.64 KCAL/MOL
REMARK 922        TOTAL FREE ENERGY PREDICTED BY IDOCK:   -6.42 KCAL/MOL
REMARK 923 INTER-LIGAND FREE ENERGY PREDICTED BY IDOCK:   -5.78 KCAL/MOL
REMARK 924 INTRA-LIGAND FREE ENERGY PREDICTED BY IDOCK:   -0.64 KCAL/MOL
REMARK 927      BINDING AFFINITY PREDICTED BY RF-SCORE:    0.00 PKD
ROOT
HETATM    1  C   UNL     1     -11.503  11.373  69.841  1.00  0.00    -0.353 C  
HETATM    2  C   UNL     1     -10.884  11.524  68.471  1.00  0.00    -0.254 C  
HETATM    3  C   UNL     1     -10.700  10.458  67.659  1.00  0.00    -0.335 C  
ENDROOT
BRANCH   2   4
HETATM    4  C   UNL     1     -10.465  12.842  67.999  1.00  0.00    -0.233 C  
HETATM    5  C   UNL     1     -11.171  13.982  68.057  1.00  0.00    -0.302 C  
BRANCH   5   6
HETATM    6  C   UNL     1     -10.696  15.273  67.557  1.00  0.00    -0.285 C  
HETATM    7  C   UNL     1      -8.801  15.496  69.225  1.00  0.00    -0.256 C  
HETATM    8  C   UNL     1     -10.794  15.592  66.250  1.00  0.00    -0.283 C  
HETATM    9  C   UNL     1     -10.299  16.888  65.679  1.00  0.00    -0.254 C  
HETATM   10  C   UNL     1     -11.375  14.692  65.178  1.00  0.00    -0.375 C  
HETATM   11  C   UNL     1     -11.055  16.440  69.770  1.00  0.00    -0.305 C  
HETATM   12  C   UNL     1     -10.050  16.186  68.615  1.00  0.00    -0.231 C  
HETATM   13  C   UNL     1      -9.603  17.585  68.102  1.00  0.00    -0.294 C  
HETATM   14  C   UNL     1      -9.657  17.894  66.614  1.00  0.00    -0.311 C  
ENDBRANCH   5   6
ENDBRANCH   2   4
BRANCH   3  15
HETATM   15  C   UNL     1     -11.118   9.102  67.960  1.00  0.00     0.110 C  
HETATM   16  C   UNL     1     -10.354   8.017  67.754  1.00  0.00    -0.294 C  
BRANCH  16  17
HETATM   17  C   UNL     1     -10.749   6.626  67.978  1.00  0.00    -0.330 C  
HETATM   18  C   UNL     1     -10.596   6.457  70.574  1.00  0.00    -0.239 C  
HETATM   19  O   UNL     1     -11.167   5.912  71.507  1.00  0.00    -0.272 OA 
HETATM   20  C   UNL     1     -10.832   6.023  69.182  1.00  0.00    -0.422 C  
HETATM   21  C   UNL     1     -11.153   5.761  66.797  1.00  0.00    -0.091 C  
HETATM   22  O   UNL     1      -9.678   7.420  70.744  1.00  0.00    -0.171 OA 
ENDBRANCH  16  17
ENDBRANCH   3  15
TORSDOF 4
ENDMDL
MODEL      105
REMARK 921   NORMALIZED FREE ENERGY PREDICTED BY IDOCK:   -4.64 KCAL/MOL
REMARK 922        TOTAL FREE ENERGY PREDICTED BY IDOCK:   -6.42 KCAL/MOL
REMARK 923 INTER-LIGAND FREE ENERGY PREDICTED BY IDOCK:   -5.74 KCAL/MOL
REMARK 924 INTRA-LIGAND FREE ENERGY PREDICTED BY IDOCK:   -0.68 KCAL/MOL
REMARK 927      BINDING AFFINITY PREDICTED BY RF-SCORE:    0.00 PKD
ROOT
HETATM    1  C   UNL     1     -10.942   9.480  71.266  1.00  0.00    -0.440 C  
HETATM    2  C   UNL     1     -10.504   9.627  69.827  1.00  0.00    -0.263 C  
HETATM    3  C   UNL     1     -10.207   8.549  69.067  1.00  0.00    -0.218 C  
ENDROOT
BRANCH   2   4
HETATM    4  C   UNL     1     -10.389  10.956  69.230  1.00  0.00    -0.211 C  
HETATM    5  C   UNL     1     -11.231  11.520  68.349  1.00  0.00    -0.314 C  
BRANCH   5   6
HETATM    6  C   UNL     1     -11.055  12.857  67.780  1.00  0.00    -0.291 C  
HETATM    7  C   UNL     1     -11.327  12.130  65.367  1.00  0.00    -0.388 C  
HETATM    8  C   UNL     1     -11.464  13.956  68.446  1.00  0.00    -0.346 C  
HETATM    9  C   UNL     1     -11.334  15.347  67.899  1.00  0.00    -0.328 C  
HETATM   10  C   UNL     1     -12.136  13.949  69.804  1.00  0.00    -0.404 C  
HETATM   11  C   UNL     1      -9.049  12.177  66.402  1.00  0.00    -0.177 C  
HETATM   12  C   UNL     1     -10.426  12.892  66.375  1.00  0.00    -0.278 C  
HETATM   13  C   UNL     1     -10.177  14.312  65.793  1.00  0.00    -0.351 C  
HETATM   14  C   UNL     1     -10.711  15.532  66.529  1.00  0.00    -0.304 C  
ENDBRANCH   5   6
ENDBRANCH   2   4
BRANCH   3  15
HETATM   15  C   UNL     1     -10.330   7.169  69.497  1.00  0.00    -0.224 C  
HETATM   16  C   UNL     1      -9.313   6.292  69.512  1.00  0.00    -0.147 C  
BRANCH  16  17
HETATM   17  C   UNL     1      -9.397   4.877  69.873  1.00  0.00    -0.204 C  
HETATM   18  C   UNL     1      -9.696   3.763  67.536  1.00  0.00    -0.085 C  
HETATM   19  O   UNL     1      -9.368   2.748  66.939  1.00  0.00    -0.144 OA 
HETATM   20  C   UNL     1      -9.559   3.858  69.004  1.00  0.00    -0.209 C  
HETATM   21  C   UNL     1      -9.248   4.464  71.327  1.00  0.00    -0.196 C  
HETATM   22  O   UNL     1     -10.261   4.816  66.927  1.00  0.00    -0.216 OA 
ENDBRANCH  16  17
ENDBRANCH   3  15
TORSDOF 4
ENDMDL
MODEL      106
REMARK 921   NORMALIZED FREE ENERGY PREDICTED BY IDOCK:   -4.64 KCAL/MOL
REMARK 922        TOTAL FREE ENERGY PREDICTED BY IDOCK:   -6.42 KCAL/MOL
REMARK 923 INTER-LIGAND FREE ENERGY PREDICTED BY IDOCK:   -5.80 KCAL/MOL
REMARK 924 INTRA-LIGAND FREE ENERGY PREDICTED BY IDOCK:   -0.61 KCAL/MOL
REMARK 927      BINDING AFFINITY PREDICTED BY RF-SCORE:    0.00 PKD
ROOT
HETATM    1  C   UNL     1      -7.953  10.783  67.075  1.00  0.00    -0.124 C  
HETATM    2  C   UNL     1      -9.179   9.974  67.432  1.00  0.00    -0.153 C  
HETATM    3  C   UNL     1     -10.353  10.151  66.784  1.00  0.00    -0.285 C  
ENDROOT
BRANCH   2   4
HETATM    4  C   UNL     1      -9.113   8.978  68.500  1.00  0.00    -0.133 C  
HETATM    5  C   UNL     1      -8.887   7.662  68.363  1.00  0.00    -0.130 C  
BRANCH   5   6
HETATM    6  C   UNL     1      -8.841   6.713  69.476  1.00  0.00    -0.139 C  
HETATM    7  C   UNL     1      -9.853   4.780  68.187  1.00  0.00    -0.182 C  
HETATM    8  C   UNL     1      -7.860   6.771  70.399  1.00  0.00    -0.109 C  
HETATM    9  C   UNL     1      -7.749   5.807  71.545  1.00  0.00    -0.107 C  
HETATM   10  C   UNL     1      -6.725   7.775  70.399  1.00  0.00    -0.038 C  
HETATM   11  C   UNL     1     -11.340   6.337  69.463  1.00  0.00    -0.475 C  
HETATM   12  C   UNL     1      -9.951   5.646  69.471  1.00  0.00    -0.263 C  
HETATM   13  C   UNL     1      -9.945   4.675  70.687  1.00  0.00    -0.293 C  
HETATM   14  C   UNL     1      -8.790   4.713  71.676  1.00  0.00    -0.147 C  
ENDBRANCH   5   6
ENDBRANCH   2   4
BRANCH   3  15
HETATM   15  C   UNL     1     -10.559  11.053  65.667  1.00  0.00    -0.263 C  
HETATM   16  C   UNL     1     -11.261  12.195  65.743  1.00  0.00    -0.384 C  
BRANCH  16  17
HETATM   17  C   UNL     1     -11.553  13.105  64.636  1.00  0.00    -0.384 C  
HETATM   18  C   UNL     1     -10.681  15.370  65.584  1.00  0.00    -0.369 C  
HETATM   19  O   UNL     1     -10.127  16.390  65.199  1.00  0.00    -0.529 OA 
HETATM   20  C   UNL     1     -11.290  14.428  64.622  1.00  0.00    -0.373 C  
HETATM   21  C   UNL     1     -12.158  12.559  63.354  1.00  0.00    -0.621 C  
HETATM   22  O   UNL     1     -10.838  15.072  66.882  1.00  0.00    -0.303 OA 
ENDBRANCH  16  17
ENDBRANCH   3  15
TORSDOF 4
ENDMDL
MODEL      107
REMARK 921   NORMALIZED FREE ENERGY PREDICTED BY IDOCK:   -4.63 KCAL/MOL
REMARK 922        TOTAL FREE ENERGY PREDICTED BY IDOCK:   -6.41 KCAL/MOL
REMARK 923 INTER-LIGAND FREE ENERGY PREDICTED BY IDOCK:   -5.79 KCAL/MOL
REMARK 924 INTRA-LIGAND FREE ENERGY PREDICTED BY IDOCK:   -0.62 KCAL/MOL
REMARK 927      BINDING AFFINITY PREDICTED BY RF-SCORE:    0.00 PKD
ROOT
HETATM    1  C   UNL     1      -7.928   9.770  65.560  1.00  0.00    -0.123 C  
HETATM    2  C   UNL     1      -9.221  10.409  66.009  1.00  0.00    -0.200 C  
HETATM    3  C   UNL     1     -10.079   9.763  66.830  1.00  0.00    -0.287 C  
ENDROOT
BRANCH   2   4
HETATM    4  C   UNL     1      -9.570  11.754  65.554  1.00  0.00    -0.222 C  
HETATM    5  C   UNL     1     -10.330  12.652  66.199  1.00  0.00    -0.273 C  
BRANCH   5   6
HETATM    6  C   UNL     1     -10.649  13.985  65.684  1.00  0.00    -0.313 C  
HETATM    7  C   UNL     1     -13.158  13.631  65.637  1.00  0.00    -0.124 C  
HETATM    8  C   UNL     1      -9.891  15.054  66.002  1.00  0.00    -0.347 C  
HETATM    9  C   UNL     1     -10.187  16.445  65.524  1.00  0.00    -0.296 C  
HETATM   10  C   UNL     1      -8.671  15.018  66.900  1.00  0.00    -0.285 C  
HETATM   11  C   UNL     1     -11.788  13.083  63.616  1.00  0.00    -0.580 C  
HETATM   12  C   UNL     1     -11.916  14.062  64.813  1.00  0.00    -0.432 C  
HETATM   13  C   UNL     1     -12.223  15.462  64.209  1.00  0.00    -0.140 C  
HETATM   14  C   UNL     1     -11.398  16.666  64.639  1.00  0.00     0.039 C  
ENDBRANCH   5   6
ENDBRANCH   2   4
BRANCH   3  15
HETATM   15  C   UNL     1      -9.847   8.454  67.413  1.00  0.00    -0.249 C  
HETATM   16  C   UNL     1     -10.823   7.592  67.739  1.00  0.00    -0.133 C  
BRANCH  16  17
HETATM   17  C   UNL     1     -10.648   6.293  68.386  1.00  0.00    -0.316 C  
HETATM   18  C   UNL     1     -11.590   6.769  70.769  1.00  0.00    -0.366 C  
HETATM   19  O   UNL     1     -12.221   6.205  71.651  1.00  0.00    -0.199 OA 
HETATM   20  C   UNL     1     -10.985   6.002  69.660  1.00  0.00    -0.470 C  
HETATM   21  C   UNL     1     -10.088   5.127  67.589  1.00  0.00    -0.204 C  
HETATM   22  O   UNL     1     -11.341   8.086  70.779  1.00  0.00    -0.272 OA 
ENDBRANCH  16  17
ENDBRANCH   3  15
TORSDOF 4
ENDMDL
MODEL      108
REMARK 921   NORMALIZED FREE ENERGY PREDICTED BY IDOCK:   -4.62 KCAL/MOL
REMARK 922        TOTAL FREE ENERGY PREDICTED BY IDOCK:   -6.40 KCAL/MOL
REMARK 923 INTER-LIGAND FREE ENERGY PREDICTED BY IDOCK:   -5.81 KCAL/MOL
REMARK 924 INTRA-LIGAND FREE ENERGY PREDICTED BY IDOCK:   -0.59 KCAL/MOL
REMARK 927      BINDING AFFINITY PREDICTED BY RF-SCORE:    0.00 PKD
ROOT
HETATM    1  C   UNL     1     -10.586   7.980  66.766  1.00  0.00    -0.225 C  
HETATM    2  C   UNL     1      -9.957   9.034  67.648  1.00  0.00    -0.252 C  
HETATM    3  C   UNL     1      -9.312   8.705  68.790  1.00  0.00    -0.142 C  
ENDROOT
BRANCH   2   4
HETATM    4  C   UNL     1     -10.041  10.445  67.275  1.00  0.00    -0.244 C  
HETATM    5  C   UNL     1     -11.087  11.070  66.713  1.00  0.00    -0.240 C  
BRANCH   5   6
HETATM    6  C   UNL     1     -11.104  12.489  66.355  1.00  0.00    -0.332 C  
HETATM    7  C   UNL     1     -12.532  12.199  64.282  1.00  0.00    -0.461 C  
HETATM    8  C   UNL     1     -11.071  13.447  67.305  1.00  0.00    -0.300 C  
HETATM    9  C   UNL     1     -11.115  14.915  66.997  1.00  0.00    -0.338 C  
HETATM   10  C   UNL     1     -11.022  13.188  68.797  1.00  0.00    -0.298 C  
HETATM   11  C   UNL     1     -10.038  12.095  64.098  1.00  0.00    -0.335 C  
HETATM   12  C   UNL     1     -11.211  12.783  64.848  1.00  0.00    -0.331 C  
HETATM   13  C   UNL     1     -11.164  14.288  64.458  1.00  0.00    -0.331 C  
HETATM   14  C   UNL     1     -11.199  15.349  65.547  1.00  0.00    -0.234 C  
ENDBRANCH   5   6
ENDBRANCH   2   4
BRANCH   3  15
HETATM   15  C   UNL     1      -9.094   7.350  69.261  1.00  0.00    -0.135 C  
HETATM   16  C   UNL     1      -9.885   6.726  70.149  1.00  0.00    -0.187 C  
BRANCH  16  17
HETATM   17  C   UNL     1      -9.674   5.389  70.704  1.00  0.00    -0.241 C  
HETATM   18  C   UNL     1     -10.550   5.696  73.139  1.00  0.00    -0.247 C  
HETATM   19  O   UNL     1     -11.147   5.067  74.000  1.00  0.00    -0.276 OA 
HETATM   20  C   UNL     1      -9.969   5.012  71.965  1.00  0.00    -0.239 C  
HETATM   21  C   UNL     1      -9.124   4.286  69.816  1.00  0.00    -0.181 C  
HETATM   22  O   UNL     1     -10.317   7.013  73.229  1.00  0.00    -0.243 OA 
ENDBRANCH  16  17
ENDBRANCH   3  15
TORSDOF 4
ENDMDL
MODEL      109
REMARK 921   NORMALIZED FREE ENERGY PREDICTED BY IDOCK:   -4.62 KCAL/MOL
REMARK 922        TOTAL FREE ENERGY PREDICTED BY IDOCK:   -6.39 KCAL/MOL
REMARK 923 INTER-LIGAND FREE ENERGY PREDICTED BY IDOCK:   -5.80 KCAL/MOL
REMARK 924 INTRA-LIGAND FREE ENERGY PREDICTED BY IDOCK:   -0.59 KCAL/MOL
REMARK 927      BINDING AFFINITY PREDICTED BY RF-SCORE:    0.00 PKD
ROOT
HETATM    1  C   UNL     1     -12.048  11.432  68.760  1.00  0.00    -0.256 C  
HETATM    2  C   UNL     1     -11.205  11.544  67.512  1.00  0.00    -0.360 C  
HETATM    3  C   UNL     1     -10.900  12.746  66.972  1.00  0.00    -0.282 C  
ENDROOT
BRANCH   2   4
HETATM    4  C   UNL     1     -10.703  10.338  66.857  1.00  0.00    -0.252 C  
HETATM    5  C   UNL     1      -9.425  10.056  66.554  1.00  0.00    -0.222 C  
BRANCH   5   6
HETATM    6  C   UNL     1      -8.987   8.828  65.889  1.00  0.00    -0.240 C  
HETATM    7  C   UNL     1      -6.917   9.847  64.841  1.00  0.00    -0.131 C  
HETATM    8  C   UNL     1      -9.223   7.618  66.436  1.00  0.00    -0.223 C  
HETATM    9  C   UNL     1      -8.772   6.330  65.812  1.00  0.00    -0.145 C  
HETATM   10  C   UNL     1      -9.933   7.384  67.754  1.00  0.00    -0.208 C  
HETATM   11  C   UNL     1      -9.080   9.858  63.583  1.00  0.00    -0.294 C  
HETATM   12  C   UNL     1      -8.213   9.037  64.575  1.00  0.00    -0.159 C  
HETATM   13  C   UNL     1      -7.802   7.735  63.831  1.00  0.00    -0.126 C  
HETATM   14  C   UNL     1      -8.014   6.386  64.500  1.00  0.00    -0.117 C  
ENDBRANCH   5   6
ENDBRANCH   2   4
BRANCH   3  15
HETATM   15  C   UNL     1     -11.271  14.030  67.537  1.00  0.00    -0.328 C  
HETATM   16  C   UNL     1     -10.560  14.671  68.478  1.00  0.00    -0.245 C  
BRANCH  16  17
HETATM   17  C   UNL     1     -10.922  15.932  69.126  1.00  0.00    -0.284 C  
HETATM   18  C   UNL     1     -11.678  15.106  71.479  1.00  0.00    -0.390 C  
HETATM   19  O   UNL     1     -11.641  15.463  72.648  1.00  0.00    -0.459 OA 
HETATM   20  C   UNL     1     -11.388  16.057  70.386  1.00  0.00    -0.405 C  
HETATM   21  C   UNL     1     -10.734  17.241  68.379  1.00  0.00    -0.332 C  
HETATM   22  O   UNL     1     -12.049  13.873  71.105  1.00  0.00    -0.344 OA 
ENDBRANCH  16  17
ENDBRANCH   3  15
TORSDOF 4
ENDMDL
MODEL      110
REMARK 921   NORMALIZED FREE ENERGY PREDICTED BY IDOCK:   -4.62 KCAL/MOL
REMARK 922        TOTAL FREE ENERGY PREDICTED BY IDOCK:   -6.39 KCAL/MOL
REMARK 923 INTER-LIGAND FREE ENERGY PREDICTED BY IDOCK:   -5.65 KCAL/MOL
REMARK 924 INTRA-LIGAND FREE ENERGY PREDICTED BY IDOCK:   -0.73 KCAL/MOL
REMARK 927      BINDING AFFINITY PREDICTED BY RF-SCORE:    0.00 PKD
ROOT
HETATM    1  C   UNL     1     -10.883   6.828  69.186  1.00  0.00    -0.298 C  
HETATM    2  C   UNL     1      -9.969   8.018  69.013  1.00  0.00    -0.186 C  
HETATM    3  C   UNL     1      -8.769   7.903  68.400  1.00  0.00    -0.131 C  
ENDROOT
BRANCH   2   4
HETATM    4  C   UNL     1     -10.372   9.330  69.516  1.00  0.00    -0.223 C  
HETATM    5  C   UNL     1     -11.344  10.117  69.029  1.00  0.00    -0.188 C  
BRANCH   5   6
HETATM    6  C   UNL     1     -11.695  11.428  69.576  1.00  0.00    -0.417 C  
HETATM    7  C   UNL     1     -12.000  12.554  67.326  1.00  0.00    -0.286 C  
HETATM    8  C   UNL     1     -12.364  11.540  70.742  1.00  0.00    -0.472 C  
HETATM    9  C   UNL     1     -12.773  12.857  71.335  1.00  0.00    -0.366 C  
HETATM   10  C   UNL     1     -12.824  10.375  71.594  1.00  0.00    -0.579 C  
HETATM   11  C   UNL     1      -9.760  12.593  68.442  1.00  0.00    -0.187 C  
HETATM   12  C   UNL     1     -11.290  12.630  68.703  1.00  0.00    -0.331 C  
HETATM   13  C   UNL     1     -11.602  14.028  69.310  1.00  0.00    -0.356 C  
HETATM   14  C   UNL     1     -12.419  14.129  70.589  1.00  0.00    -0.432 C  
ENDBRANCH   5   6
ENDBRANCH   2   4
BRANCH   3  15
HETATM   15  C   UNL     1      -8.257   6.686  67.797  1.00  0.00    -0.119 C  
HETATM   16  C   UNL     1      -8.220   6.461  66.473  1.00  0.00    -0.113 C  
BRANCH  16  17
HETATM   17  C   UNL     1      -7.776   5.232  65.818  1.00  0.00    -0.091 C  
HETATM   18  C   UNL     1     -10.048   4.175  65.105  1.00  0.00    -0.209 C  
HETATM   19  O   UNL     1     -10.525   3.521  64.188  1.00  0.00    -0.229 OA 
HETATM   20  C   UNL     1      -8.585   4.307  65.262  1.00  0.00    -0.121 C  
HETATM   21  C   UNL     1      -6.290   4.948  65.683  1.00  0.00    -0.035 C  
HETATM   22  O   UNL     1     -10.798   4.748  66.058  1.00  0.00    -0.287 OA 
ENDBRANCH  16  17
ENDBRANCH   3  15
TORSDOF 4
ENDMDL
MODEL      111
REMARK 921   NORMALIZED FREE ENERGY PREDICTED BY IDOCK:   -4.61 KCAL/MOL
REMARK 922        TOTAL FREE ENERGY PREDICTED BY IDOCK:   -6.39 KCAL/MOL
REMARK 923 INTER-LIGAND FREE ENERGY PREDICTED BY IDOCK:   -5.73 KCAL/MOL
REMARK 924 INTRA-LIGAND FREE ENERGY PREDICTED BY IDOCK:   -0.66 KCAL/MOL
REMARK 927      BINDING AFFINITY PREDICTED BY RF-SCORE:    0.00 PKD
ROOT
HETATM    1  C   UNL     1     -12.941  10.500  71.463  1.00  0.00    -0.565 C  
HETATM    2  C   UNL     1     -11.901  10.448  70.368  1.00  0.00    -0.418 C  
HETATM    3  C   UNL     1     -11.028   9.419  70.273  1.00  0.00    -0.305 C  
ENDROOT
BRANCH   2   4
HETATM    4  C   UNL     1     -11.820  11.525  69.383  1.00  0.00    -0.417 C  
HETATM    5  C   UNL     1     -10.712  12.158  68.969  1.00  0.00    -0.163 C  
BRANCH   5   6
HETATM    6  C   UNL     1     -10.699  13.238  67.982  1.00  0.00    -0.254 C  
HETATM    7  C   UNL     1     -11.388  11.785  66.024  1.00  0.00    -0.335 C  
HETATM    8  C   UNL     1     -11.019  14.502  68.329  1.00  0.00    -0.258 C  
HETATM    9  C   UNL     1     -11.049  15.642  67.353  1.00  0.00    -0.260 C  
HETATM   10  C   UNL     1     -11.424  14.944  69.720  1.00  0.00    -0.328 C  
HETATM   11  C   UNL     1      -8.960  12.109  66.537  1.00  0.00    -0.179 C  
HETATM   12  C   UNL     1     -10.346  12.808  66.546  1.00  0.00    -0.262 C  
HETATM   13  C   UNL     1     -10.267  13.962  65.507  1.00  0.00    -0.348 C  
HETATM   14  C   UNL     1     -10.701  15.365  65.903  1.00  0.00    -0.343 C  
ENDBRANCH   5   6
ENDBRANCH   2   4
BRANCH   3  15
HETATM   15  C   UNL     1     -11.022   8.252  71.135  1.00  0.00    -0.286 C  
HETATM   16  C   UNL     1      -9.955   7.844  71.841  1.00  0.00    -0.234 C  
BRANCH  16  17
HETATM   17  C   UNL     1      -9.876   6.643  72.671  1.00  0.00    -0.180 C  
HETATM   18  C   UNL     1      -7.298   6.323  72.875  1.00  0.00    -0.095 C  
HETATM   19  O   UNL     1      -6.467   5.947  73.689  1.00  0.00    -0.070 OA 
HETATM   20  C   UNL     1      -8.735   6.046  73.074  1.00  0.00    -0.122 C  
HETATM   21  C   UNL     1     -11.153   6.002  73.188  1.00  0.00    -0.236 C  
HETATM   22  O   UNL     1      -6.969   6.936  71.729  1.00  0.00    -0.068 OA 
ENDBRANCH  16  17
ENDBRANCH   3  15
TORSDOF 4
ENDMDL
MODEL      112
REMARK 921   NORMALIZED FREE ENERGY PREDICTED BY IDOCK:   -4.60 KCAL/MOL
REMARK 922        TOTAL FREE ENERGY PREDICTED BY IDOCK:   -6.37 KCAL/MOL
REMARK 923 INTER-LIGAND FREE ENERGY PREDICTED BY IDOCK:   -5.75 KCAL/MOL
REMARK 924 INTRA-LIGAND FREE ENERGY PREDICTED BY IDOCK:   -0.62 KCAL/MOL
REMARK 927      BINDING AFFINITY PREDICTED BY RF-SCORE:    0.00 PKD
ROOT
HETATM    1  C   UNL     1     -10.911   7.793  70.298  1.00  0.00    -0.252 C  
HETATM    2  C   UNL     1     -10.796   8.887  69.261  1.00  0.00    -0.113 C  
HETATM    3  C   UNL     1     -10.573   8.602  67.958  1.00  0.00    -0.205 C  
ENDROOT
BRANCH   2   4
HETATM    4  C   UNL     1     -10.924  10.287  69.658  1.00  0.00    -0.314 C  
HETATM    5  C   UNL     1     -11.904  11.138  69.314  1.00  0.00    -0.422 C  
BRANCH   5   6
HETATM    6  C   UNL     1     -11.969  12.536  69.740  1.00  0.00    -0.359 C  
HETATM    7  C   UNL     1     -12.150  13.494  67.401  1.00  0.00    -0.360 C  
HETATM    8  C   UNL     1     -12.551  12.881  70.908  1.00  0.00    -0.355 C  
HETATM    9  C   UNL     1     -12.670  14.301  71.381  1.00  0.00    -0.424 C  
HETATM   10  C   UNL     1     -13.190  11.911  71.880  1.00  0.00    -0.467 C  
HETATM   11  C   UNL     1      -9.898  13.190  68.450  1.00  0.00    -0.206 C  
HETATM   12  C   UNL     1     -11.378  13.551  68.746  1.00  0.00    -0.329 C  
HETATM   13  C   UNL     1     -11.386  15.032  69.222  1.00  0.00    -0.311 C  
HETATM   14  C   UNL     1     -12.110  15.406  70.507  1.00  0.00    -0.411 C  
ENDBRANCH   5   6
ENDBRANCH   2   4
BRANCH   3  15
HETATM   15  C   UNL     1     -10.485   7.265  67.402  1.00  0.00    -0.359 C  
HETATM   16  C   UNL     1      -9.428   6.805  66.713  1.00  0.00    -0.199 C  
BRANCH  16  17
HETATM   17  C   UNL     1      -9.315   5.493  66.078  1.00  0.00    -0.161 C  
HETATM   18  C   UNL     1      -7.382   5.903  64.380  1.00  0.00    -0.067 C  
HETATM   19  O   UNL     1      -6.430   5.313  63.892  1.00  0.00    -0.028 OA 
HETATM   20  C   UNL     1      -8.441   5.169  65.103  1.00  0.00    -0.147 C  
HETATM   21  C   UNL     1     -10.200   4.352  66.550  1.00  0.00    -0.155 C  
HETATM   22  O   UNL     1      -7.572   7.223  64.236  1.00  0.00    -0.100 OA 
ENDBRANCH  16  17
ENDBRANCH   3  15
TORSDOF 4
ENDMDL
MODEL      113
REMARK 921   NORMALIZED FREE ENERGY PREDICTED BY IDOCK:   -4.58 KCAL/MOL
REMARK 922        TOTAL FREE ENERGY PREDICTED BY IDOCK:   -6.35 KCAL/MOL
REMARK 923 INTER-LIGAND FREE ENERGY PREDICTED BY IDOCK:   -5.72 KCAL/MOL
REMARK 924 INTRA-LIGAND FREE ENERGY PREDICTED BY IDOCK:   -0.63 KCAL/MOL
REMARK 927      BINDING AFFINITY PREDICTED BY RF-SCORE:    0.00 PKD
ROOT
HETATM    1  C   UNL     1      -7.868  16.722  68.942  1.00  0.00    -0.244 C  
HETATM    2  C   UNL     1      -7.877  16.071  67.579  1.00  0.00    -0.170 C  
HETATM    3  C   UNL     1      -7.349  16.690  66.498  1.00  0.00    -0.273 C  
ENDROOT
BRANCH   2   4
HETATM    4  C   UNL     1      -8.469  14.747  67.404  1.00  0.00    -0.218 C  
HETATM    5  C   UNL     1      -8.869  13.907  68.373  1.00  0.00    -0.177 C  
BRANCH   5   6
HETATM    6  C   UNL     1      -9.449  12.585  68.131  1.00  0.00    -0.214 C  
HETATM    7  C   UNL     1     -11.506  13.441  66.923  1.00  0.00    -0.376 C  
HETATM    8  C   UNL     1      -8.664  11.507  67.931  1.00  0.00    -0.144 C  
HETATM    9  C   UNL     1      -9.205  10.135  67.652  1.00  0.00    -0.151 C  
HETATM   10  C   UNL     1      -7.149  11.525  67.921  1.00  0.00    -0.076 C  
HETATM   11  C   UNL     1     -11.569  13.111  69.403  1.00  0.00    -0.360 C  
HETATM   12  C   UNL     1     -10.987  12.546  68.079  1.00  0.00    -0.266 C  
HETATM   13  C   UNL     1     -11.611  11.134  67.888  1.00  0.00    -0.328 C  
HETATM   14  C   UNL     1     -10.708   9.946  67.592  1.00  0.00    -0.339 C  
ENDBRANCH   5   6
ENDBRANCH   2   4
BRANCH   3  15
HETATM   15  C   UNL     1      -6.674  17.974  66.523  1.00  0.00    -0.243 C  
HETATM   16  C   UNL     1      -7.179  19.099  65.990  1.00  0.00    -0.298 C  
BRANCH  16  17
HETATM   17  C   UNL     1      -6.515  20.400  65.930  1.00  0.00    -0.255 C  
HETATM   18  C   UNL     1      -5.825  20.515  63.420  1.00  0.00    -0.253 C  
HETATM   19  O   UNL     1      -5.717  21.335  62.520  1.00  0.00    -0.220 OA 
HETATM   20  C   UNL     1      -5.963  20.945  64.826  1.00  0.00    -0.306 C  
HETATM   21  C   UNL     1      -6.456  21.271  67.173  1.00  0.00    -0.411 C  
HETATM   22  O   UNL     1      -5.753  19.192  63.213  1.00  0.00    -0.396 OA 
ENDBRANCH  16  17
ENDBRANCH   3  15
TORSDOF 4
ENDMDL
MODEL      114
REMARK 921   NORMALIZED FREE ENERGY PREDICTED BY IDOCK:   -4.58 KCAL/MOL
REMARK 922        TOTAL FREE ENERGY PREDICTED BY IDOCK:   -6.34 KCAL/MOL
REMARK 923 INTER-LIGAND FREE ENERGY PREDICTED BY IDOCK:   -5.81 KCAL/MOL
REMARK 924 INTRA-LIGAND FREE ENERGY PREDICTED BY IDOCK:   -0.52 KCAL/MOL
REMARK 927      BINDING AFFINITY PREDICTED BY RF-SCORE:    0.00 PKD
ROOT
HETATM    1  C   UNL     1      -9.214   9.319  70.672  1.00  0.00    -0.321 C  
HETATM    2  C   UNL     1     -10.471   8.482  70.730  1.00  0.00    -0.239 C  
HETATM    3  C   UNL     1     -11.683   9.043  70.939  1.00  0.00    -0.327 C  
ENDROOT
BRANCH   2   4
HETATM    4  C   UNL     1     -10.393   7.032  70.561  1.00  0.00    -0.218 C  
HETATM    5  C   UNL     1      -9.284   6.301  70.364  1.00  0.00    -0.160 C  
BRANCH   5   6
HETATM    6  C   UNL     1      -9.274   4.847  70.194  1.00  0.00    -0.185 C  
HETATM    7  C   UNL     1      -7.533   4.831  68.353  1.00  0.00    -0.069 C  
HETATM    8  C   UNL     1      -9.495   4.024  71.239  1.00  0.00    -0.233 C  
HETATM    9  C   UNL     1      -9.469   2.527  71.128  1.00  0.00    -0.222 C  
HETATM   10  C   UNL     1      -9.761   4.475  72.661  1.00  0.00    -0.189 C  
HETATM   11  C   UNL     1      -9.962   4.969  67.765  1.00  0.00    -0.198 C  
HETATM   12  C   UNL     1      -8.950   4.357  68.771  1.00  0.00    -0.152 C  
HETATM   13  C   UNL     1      -9.003   2.816  68.570  1.00  0.00    -0.193 C  
HETATM   14  C   UNL     1      -9.182   1.905  69.775  1.00  0.00    -0.168 C  
ENDBRANCH   5   6
ENDBRANCH   2   4
BRANCH   3  15
HETATM   15  C   UNL     1     -11.930  10.468  71.063  1.00  0.00    -0.466 C  
HETATM   16  C   UNL     1     -12.003  11.312  70.021  1.00  0.00    -0.447 C  
BRANCH  16  17
HETATM   17  C   UNL     1     -12.184  12.761  70.094  1.00  0.00    -0.320 C  
HETATM   18  C   UNL     1     -11.453  13.496  67.703  1.00  0.00    -0.318 C  
HETATM   19  O   UNL     1     -11.744  14.325  66.854  1.00  0.00    -0.371 OA 
HETATM   20  C   UNL     1     -11.937  13.631  69.093  1.00  0.00    -0.394 C  
HETATM   21  C   UNL     1     -12.738  13.385  71.363  1.00  0.00    -0.411 C  
HETATM   22  O   UNL     1     -10.631  12.464  67.463  1.00  0.00    -0.214 OA 
ENDBRANCH  16  17
ENDBRANCH   3  15
TORSDOF 4
ENDMDL
MODEL      115
REMARK 921   NORMALIZED FREE ENERGY PREDICTED BY IDOCK:   -4.56 KCAL/MOL
REMARK 922        TOTAL FREE ENERGY PREDICTED BY IDOCK:   -6.32 KCAL/MOL
REMARK 923 INTER-LIGAND FREE ENERGY PREDICTED BY IDOCK:   -5.77 KCAL/MOL
REMARK 924 INTRA-LIGAND FREE ENERGY PREDICTED BY IDOCK:   -0.55 KCAL/MOL
REMARK 927      BINDING AFFINITY PREDICTED BY RF-SCORE:    0.00 PKD
ROOT
HETATM    1  C   UNL     1      -7.952  10.887  68.617  1.00  0.00    -0.140 C  
HETATM    2  C   UNL     1      -9.260  11.559  68.269  1.00  0.00    -0.186 C  
HETATM    3  C   UNL     1     -10.405  10.851  68.142  1.00  0.00    -0.202 C  
ENDROOT
BRANCH   2   4
HETATM    4  C   UNL     1      -9.306  13.005  68.059  1.00  0.00    -0.213 C  
HETATM    5  C   UNL     1      -8.881  13.677  66.978  1.00  0.00    -0.233 C  
BRANCH   5   6
HETATM    6  C   UNL     1      -8.949  15.132  66.832  1.00  0.00    -0.277 C  
HETATM    7  C   UNL     1     -11.401  15.323  67.442  1.00  0.00    -0.285 C  
HETATM    8  C   UNL     1      -7.883  15.910  67.113  1.00  0.00    -0.249 C  
HETATM    9  C   UNL     1      -7.905  17.407  67.007  1.00  0.00    -0.238 C  
HETATM   10  C   UNL     1      -6.541  15.402  67.601  1.00  0.00    -0.195 C  
HETATM   11  C   UNL     1     -10.735  15.028  65.048  1.00  0.00    -0.448 C  
HETATM   12  C   UNL     1     -10.317  15.682  66.392  1.00  0.00    -0.303 C  
HETATM   13  C   UNL     1     -10.376  17.221  66.172  1.00  0.00    -0.320 C  
HETATM   14  C   UNL     1      -9.186  18.084  66.563  1.00  0.00    -0.286 C  
ENDBRANCH   5   6
ENDBRANCH   2   4
BRANCH   3  15
HETATM   15  C   UNL     1     -10.532   9.425  68.378  1.00  0.00    -0.256 C  
HETATM   16  C   UNL     1     -10.713   8.877  69.591  1.00  0.00    -0.222 C  
BRANCH  16  17
HETATM   17  C   UNL     1     -10.782   7.448  69.891  1.00  0.00    -0.254 C  
HETATM   18  C   UNL     1     -12.803   7.361  71.534  1.00  0.00    -0.375 C  
HETATM   19  O   UNL     1     -13.742   6.631  71.818  1.00  0.00    -0.180 OA 
HETATM   20  C   UNL     1     -11.678   6.865  70.715  1.00  0.00    -0.417 C  
HETATM   21  C   UNL     1      -9.820   6.490  69.210  1.00  0.00    -0.161 C  
HETATM   22  O   UNL     1     -12.689   8.615  71.995  1.00  0.00    -0.332 OA 
ENDBRANCH  16  17
ENDBRANCH   3  15
TORSDOF 4
ENDMDL
MODEL      116
REMARK 921   NORMALIZED FREE ENERGY PREDICTED BY IDOCK:   -4.56 KCAL/MOL
REMARK 922        TOTAL FREE ENERGY PREDICTED BY IDOCK:   -6.32 KCAL/MOL
REMARK 923 INTER-LIGAND FREE ENERGY PREDICTED BY IDOCK:   -5.89 KCAL/MOL
REMARK 924 INTRA-LIGAND FREE ENERGY PREDICTED BY IDOCK:   -0.43 KCAL/MOL
REMARK 927      BINDING AFFINITY PREDICTED BY RF-SCORE:    0.00 PKD
ROOT
HETATM    1  C   UNL     1     -10.913  15.437  64.972  1.00  0.00    -0.450 C  
HETATM    2  C   UNL     1      -9.746  14.960  65.804  1.00  0.00    -0.359 C  
HETATM    3  C   UNL     1      -8.788  15.814  66.232  1.00  0.00    -0.378 C  
ENDROOT
BRANCH   2   4
HETATM    4  C   UNL     1      -9.630  13.547  66.161  1.00  0.00    -0.219 C  
HETATM    5  C   UNL     1     -10.540  12.584  65.946  1.00  0.00    -0.292 C  
BRANCH   5   6
HETATM    6  C   UNL     1     -10.367  11.184  66.337  1.00  0.00    -0.300 C  
HETATM    7  C   UNL     1     -12.075  11.240  68.207  1.00  0.00    -0.058 C  
HETATM    8  C   UNL     1     -10.054  10.241  65.424  1.00  0.00    -0.354 C  
HETATM    9  C   UNL     1      -9.891   8.788  65.763  1.00  0.00    -0.026 C  
HETATM   10  C   UNL     1      -9.859  10.496  63.943  1.00  0.00    -0.373 C  
HETATM   11  C   UNL     1      -9.678  11.764  68.698  1.00  0.00    -0.135 C  
HETATM   12  C   UNL     1     -10.614  10.885  67.826  1.00  0.00    -0.255 C  
HETATM   13  C   UNL     1     -10.367   9.411  68.259  1.00  0.00    -0.251 C  
HETATM   14  C   UNL     1     -10.086   8.353  67.203  1.00  0.00    -0.335 C  
ENDBRANCH   5   6
ENDBRANCH   2   4
BRANCH   3  15
HETATM   15  C   UNL     1      -8.795  17.248  66.011  1.00  0.00    -0.119 C  
HETATM   16  C   UNL     1      -7.899  18.095  66.544  1.00  0.00    -0.287 C  
BRANCH  16  17
HETATM   17  C   UNL     1      -7.898  19.551  66.407  1.00  0.00    -0.317 C  
HETATM   18  C   UNL     1      -6.217  19.886  64.444  1.00  0.00    -0.217 C  
HETATM   19  O   UNL     1      -6.048  20.614  63.477  1.00  0.00    -0.265 OA 
HETATM   20  C   UNL     1      -7.173  20.251  65.510  1.00  0.00    -0.241 C  
HETATM   21  C   UNL     1      -8.806  20.388  67.291  1.00  0.00    -0.444 C  
HETATM   22  O   UNL     1      -5.512  18.763  64.643  1.00  0.00    -0.207 OA 
ENDBRANCH  16  17
ENDBRANCH   3  15
TORSDOF 4
ENDMDL
MODEL      117
REMARK 921   NORMALIZED FREE ENERGY PREDICTED BY IDOCK:   -4.54 KCAL/MOL
REMARK 922        TOTAL FREE ENERGY PREDICTED BY IDOCK:   -6.29 KCAL/MOL
REMARK 923 INTER-LIGAND FREE ENERGY PREDICTED BY IDOCK:   -6.13 KCAL/MOL
REMARK 924 INTRA-LIGAND FREE ENERGY PREDICTED BY IDOCK:   -0.16 KCAL/MOL
REMARK 927      BINDING AFFINITY PREDICTED BY RF-SCORE:    0.00 PKD
ROOT
HETATM    1  C   UNL     1      -9.007   8.415  69.943  1.00  0.00    -0.142 C  
HETATM    2  C   UNL     1     -10.336   8.047  70.560  1.00  0.00    -0.205 C  
HETATM    3  C   UNL     1     -11.337   8.950  70.670  1.00  0.00    -0.299 C  
ENDROOT
BRANCH   2   4
HETATM    4  C   UNL     1     -10.561   6.692  71.059  1.00  0.00    -0.263 C  
HETATM    5  C   UNL     1      -9.643   5.724  71.210  1.00  0.00    -0.198 C  
BRANCH   5   6
HETATM    6  C   UNL     1      -9.935   4.380  71.709  1.00  0.00    -0.257 C  
HETATM    7  C   UNL     1     -11.979   5.057  73.045  1.00  0.00    -0.031 C  
HETATM    8  C   UNL     1      -9.659   3.287  70.968  1.00  0.00    -0.234 C  
HETATM    9  C   UNL     1      -9.963   1.888  71.418  1.00  0.00    -0.131 C  
HETATM   10  C   UNL     1      -9.047   3.310  69.582  1.00  0.00    -0.204 C  
HETATM   11  C   UNL     1      -9.725   5.063  74.133  1.00  0.00    -0.157 C  
HETATM   12  C   UNL     1     -10.610   4.328  73.092  1.00  0.00    -0.270 C  
HETATM   13  C   UNL     1     -10.864   2.901  73.655  1.00  0.00    -0.308 C  
HETATM   14  C   UNL     1     -10.612   1.687  72.773  1.00  0.00    -0.234 C  
ENDBRANCH   5   6
ENDBRANCH   2   4
BRANCH   3  15
HETATM   15  C   UNL     1     -11.287  10.311  70.169  1.00  0.00    -0.388 C  
HETATM   16  C   UNL     1     -12.167  11.268  70.506  1.00  0.00    -0.474 C  
BRANCH  16  17
HETATM   17  C   UNL     1     -12.201  12.633  69.982  1.00  0.00    -0.267 C  
HETATM   18  C   UNL     1     -13.126  13.951  72.031  1.00  0.00    -0.393 C  
HETATM   19  O   UNL     1     -12.995  15.037  72.576  1.00  0.00    -0.323 OA 
HETATM   20  C   UNL     1     -12.614  13.721  70.664  1.00  0.00    -0.386 C  
HETATM   21  C   UNL     1     -11.696  12.911  68.577  1.00  0.00    -0.374 C  
HETATM   22  O   UNL     1     -13.794  12.931  72.589  1.00  0.00    -0.596 OA 
ENDBRANCH  16  17
ENDBRANCH   3  15
TORSDOF 4
ENDMDL
MODEL      118
REMARK 921   NORMALIZED FREE ENERGY PREDICTED BY IDOCK:   -4.52 KCAL/MOL
REMARK 922        TOTAL FREE ENERGY PREDICTED BY IDOCK:   -6.27 KCAL/MOL
REMARK 923 INTER-LIGAND FREE ENERGY PREDICTED BY IDOCK:   -5.75 KCAL/MOL
REMARK 924 INTRA-LIGAND FREE ENERGY PREDICTED BY IDOCK:   -0.52 KCAL/MOL
REMARK 927      BINDING AFFINITY PREDICTED BY RF-SCORE:    0.00 PKD
ROOT
HETATM    1  C   UNL     1      -9.607   9.736  70.621  1.00  0.00    -0.097 C  
HETATM    2  C   UNL     1     -10.833   8.876  70.423  1.00  0.00    -0.269 C  
HETATM    3  C   UNL     1     -12.065   9.315  70.765  1.00  0.00    -0.231 C  
ENDROOT
BRANCH   2   4
HETATM    4  C   UNL     1     -10.703   7.536  69.853  1.00  0.00    -0.254 C  
HETATM    5  C   UNL     1      -9.564   6.871  69.606  1.00  0.00    -0.146 C  
BRANCH   5   6
HETATM    6  C   UNL     1      -9.501   5.529  69.025  1.00  0.00    -0.167 C  
HETATM    7  C   UNL     1      -9.993   4.305  71.189  1.00  0.00    -0.226 C  
HETATM    8  C   UNL     1      -9.881   5.305  67.751  1.00  0.00    -0.187 C  
HETATM    9  C   UNL     1      -9.864   3.946  67.113  1.00  0.00    -0.094 C  
HETATM   10  C   UNL     1     -10.407   6.362  66.801  1.00  0.00    -0.279 C  
HETATM   11  C   UNL     1      -7.623   4.788  70.545  1.00  0.00    -0.058 C  
HETATM   12  C   UNL     1      -9.023   4.423  69.984  1.00  0.00    -0.146 C  
HETATM   13  C   UNL     1      -8.892   3.008  69.353  1.00  0.00    -0.151 C  
HETATM   14  C   UNL     1      -9.395   2.763  67.938  1.00  0.00    -0.251 C  
ENDBRANCH   5   6
ENDBRANCH   2   4
BRANCH   3  15
HETATM   15  C   UNL     1     -12.363  10.638  71.283  1.00  0.00    -0.488 C  
HETATM   16  C   UNL     1     -12.531  11.726  70.514  1.00  0.00    -0.317 C  
BRANCH  16  17
HETATM   17  C   UNL     1     -12.767  13.090  70.986  1.00  0.00    -0.347 C  
HETATM   18  C   UNL     1     -11.672  14.493  69.083  1.00  0.00    -0.314 C  
HETATM   19  O   UNL     1     -11.844  15.545  68.485  1.00  0.00    -0.354 OA 
HETATM   20  C   UNL     1     -12.384  14.215  70.347  1.00  0.00    -0.428 C  
HETATM   21  C   UNL     1     -13.544  13.315  72.271  1.00  0.00    -0.703 C  
HETATM   22  O   UNL     1     -10.790  13.565  68.686  1.00  0.00    -0.248 OA 
ENDBRANCH  16  17
ENDBRANCH   3  15
TORSDOF 4
ENDMDL
MODEL      119
REMARK 921   NORMALIZED FREE ENERGY PREDICTED BY IDOCK:   -4.51 KCAL/MOL
REMARK 922        TOTAL FREE ENERGY PREDICTED BY IDOCK:   -6.26 KCAL/MOL
REMARK 923 INTER-LIGAND FREE ENERGY PREDICTED BY IDOCK:   -5.68 KCAL/MOL
REMARK 924 INTRA-LIGAND FREE ENERGY PREDICTED BY IDOCK:   -0.59 KCAL/MOL
REMARK 927      BINDING AFFINITY PREDICTED BY RF-SCORE:    0.00 PKD
ROOT
HETATM    1  C   UNL     1     -11.724  10.909  70.470  1.00  0.00    -0.441 C  
HETATM    2  C   UNL     1     -10.856  10.425  69.332  1.00  0.00    -0.287 C  
HETATM    3  C   UNL     1     -10.242  11.293  68.496  1.00  0.00    -0.214 C  
ENDROOT
BRANCH   2   4
HETATM    4  C   UNL     1     -10.668   8.993  69.112  1.00  0.00    -0.176 C  
HETATM    5  C   UNL     1      -9.511   8.314  69.160  1.00  0.00    -0.155 C  
BRANCH   5   6
HETATM    6  C   UNL     1      -9.388   6.875  68.922  1.00  0.00    -0.134 C  
HETATM    7  C   UNL     1     -11.365   6.221  70.366  1.00  0.00    -0.440 C  
HETATM    8  C   UNL     1      -8.930   6.402  67.745  1.00  0.00    -0.113 C  
HETATM    9  C   UNL     1      -8.809   4.938  67.437  1.00  0.00    -0.103 C  
HETATM   10  C   UNL     1      -8.511   7.259  66.567  1.00  0.00    -0.125 C  
HETATM   11  C   UNL     1      -9.076   6.337  71.371  1.00  0.00    -0.143 C  
HETATM   12  C   UNL     1      -9.859   5.978  70.081  1.00  0.00    -0.217 C  
HETATM   13  C   UNL     1      -9.670   4.451  69.858  1.00  0.00    -0.291 C  
HETATM   14  C   UNL     1      -9.221   3.937  68.499  1.00  0.00    -0.212 C  
ENDBRANCH   5   6
ENDBRANCH   2   4
BRANCH   3  15
HETATM   15  C   UNL     1     -10.282  12.738  68.621  1.00  0.00    -0.162 C  
HETATM   16  C   UNL     1     -11.160  13.525  67.977  1.00  0.00    -0.283 C  
BRANCH  16  17
HETATM   17  C   UNL     1     -11.202  14.986  68.017  1.00  0.00    -0.324 C  
HETATM   18  C   UNL     1     -12.111  15.412  70.422  1.00  0.00    -0.372 C  
HETATM   19  O   UNL     1     -11.978  16.207  71.341  1.00  0.00    -0.442 OA 
HETATM   20  C   UNL     1     -11.612  15.727  69.068  1.00  0.00    -0.406 C  
HETATM   21  C   UNL     1     -10.712  15.784  66.821  1.00  0.00    -0.293 C  
HETATM   22  O   UNL     1     -12.771  14.251  70.552  1.00  0.00    -0.343 OA 
ENDBRANCH  16  17
ENDBRANCH   3  15
TORSDOF 4
ENDMDL
MODEL      120
REMARK 921   NORMALIZED FREE ENERGY PREDICTED BY IDOCK:   -4.51 KCAL/MOL
REMARK 922        TOTAL FREE ENERGY PREDICTED BY IDOCK:   -6.26 KCAL/MOL
REMARK 923 INTER-LIGAND FREE ENERGY PREDICTED BY IDOCK:   -5.53 KCAL/MOL
REMARK 924 INTRA-LIGAND FREE ENERGY PREDICTED BY IDOCK:   -0.72 KCAL/MOL
REMARK 927      BINDING AFFINITY PREDICTED BY RF-SCORE:    0.00 PKD
ROOT
HETATM    1  C   UNL     1     -12.036  13.265  67.567  1.00  0.00    -0.371 C  
HETATM    2  C   UNL     1     -10.899  12.372  68.005  1.00  0.00    -0.251 C  
HETATM    3  C   UNL     1      -9.620  12.813  68.019  1.00  0.00    -0.217 C  
ENDROOT
BRANCH   2   4
HETATM    4  C   UNL     1     -11.167  10.997  68.423  1.00  0.00    -0.337 C  
HETATM    5  C   UNL     1     -10.352  10.193  69.124  1.00  0.00    -0.237 C  
BRANCH   5   6
HETATM    6  C   UNL     1     -10.678   8.818  69.506  1.00  0.00    -0.196 C  
HETATM    7  C   UNL     1      -8.562   7.796  68.559  1.00  0.00    -0.128 C  
HETATM    8  C   UNL     1     -11.390   8.557  70.621  1.00  0.00    -0.265 C  
HETATM    9  C   UNL     1     -11.730   7.166  71.075  1.00  0.00    -0.358 C  
HETATM   10  C   UNL     1     -11.913   9.603  71.585  1.00  0.00    -0.470 C  
HETATM   11  C   UNL     1     -10.606   7.974  67.126  1.00  0.00    -0.367 C  
HETATM   12  C   UNL     1     -10.112   7.730  68.577  1.00  0.00    -0.216 C  
HETATM   13  C   UNL     1     -10.510   6.271  68.941  1.00  0.00    -0.280 C  
HETATM   14  C   UNL     1     -11.251   5.994  70.240  1.00  0.00    -0.392 C  
ENDBRANCH   5   6
ENDBRANCH   2   4
BRANCH   3  15
HETATM   15  C   UNL     1      -9.203  14.164  67.692  1.00  0.00    -0.193 C  
HETATM   16  C   UNL     1      -9.019  15.134  68.601  1.00  0.00    -0.191 C  
BRANCH  16  17
HETATM   17  C   UNL     1      -8.663  16.525  68.321  1.00  0.00    -0.209 C  
HETATM   18  C   UNL     1      -6.124  16.309  67.773  1.00  0.00    -0.133 C  
HETATM   19  O   UNL     1      -5.286  16.803  67.034  1.00  0.00    -0.140 OA 
HETATM   20  C   UNL     1      -7.433  16.963  67.980  1.00  0.00    -0.177 C  
HETATM   21  C   UNL     1      -9.738  17.597  68.357  1.00  0.00    -0.321 C  
HETATM   22  O   UNL     1      -5.898  15.201  68.494  1.00  0.00    -0.086 OA 
ENDBRANCH  16  17
ENDBRANCH   3  15
TORSDOF 4
ENDMDL
MODEL      121
REMARK 921   NORMALIZED FREE ENERGY PREDICTED BY IDOCK:   -4.43 KCAL/MOL
REMARK 922        TOTAL FREE ENERGY PREDICTED BY IDOCK:   -6.16 KCAL/MOL
REMARK 923 INTER-LIGAND FREE ENERGY PREDICTED BY IDOCK:   -5.60 KCAL/MOL
REMARK 924 INTRA-LIGAND FREE ENERGY PREDICTED BY IDOCK:   -0.57 KCAL/MOL
REMARK 927      BINDING AFFINITY PREDICTED BY RF-SCORE:    0.00 PKD
ROOT
HETATM    1  C   UNL     1     -12.266  11.024  70.212  1.00  0.00    -0.447 C  
HETATM    2  C   UNL     1     -11.031  11.143  69.349  1.00  0.00    -0.298 C  
HETATM    3  C   UNL     1     -10.233  10.078  69.110  1.00  0.00    -0.224 C  
ENDROOT
BRANCH   2   4
HETATM    4  C   UNL     1     -10.675  12.430  68.755  1.00  0.00    -0.242 C  
HETATM    5  C   UNL     1      -9.713  12.661  67.848  1.00  0.00    -0.216 C  
BRANCH   5   6
HETATM    6  C   UNL     1      -9.400  13.980  67.295  1.00  0.00    -0.230 C  
HETATM    7  C   UNL     1     -11.797  14.587  66.744  1.00  0.00    -0.390 C  
HETATM    8  C   UNL     1      -8.368  14.707  67.772  1.00  0.00    -0.168 C  
HETATM    9  C   UNL     1      -8.019  16.075  67.262  1.00  0.00    -0.207 C  
HETATM   10  C   UNL     1      -7.447  14.276  68.896  1.00  0.00    -0.123 C  
HETATM   11  C   UNL     1     -10.381  13.438  65.030  1.00  0.00    -0.361 C  
HETATM   12  C   UNL     1     -10.353  14.469  66.190  1.00  0.00    -0.305 C  
HETATM   13  C   UNL     1      -9.986  15.841  65.555  1.00  0.00    -0.341 C  
HETATM   14  C   UNL     1      -8.864  16.674  66.156  1.00  0.00    -0.323 C  
ENDBRANCH   5   6
ENDBRANCH   2   4
BRANCH   3  15
HETATM   15  C   UNL     1     -10.485   8.728  69.577  1.00  0.00    -0.222 C  
HETATM   16  C   UNL     1      -9.557   7.944  70.149  1.00  0.00    -0.175 C  
BRANCH  16  17
HETATM   17  C   UNL     1      -9.741   6.558  70.578  1.00  0.00    -0.186 C  
HETATM   18  C   UNL     1      -9.809   6.821  73.169  1.00  0.00    -0.179 C  
HETATM   19  O   UNL     1     -10.370   6.336  74.140  1.00  0.00    -0.298 OA 
HETATM   20  C   UNL     1      -9.839   6.143  71.857  1.00  0.00    -0.176 C  
HETATM   21  C   UNL     1      -9.887   5.464  69.535  1.00  0.00    -0.264 C  
HETATM   22  O   UNL     1      -9.078   7.944  73.236  1.00  0.00    -0.222 OA 
ENDBRANCH  16  17
ENDBRANCH   3  15
TORSDOF 4
ENDMDL
MODEL      122
REMARK 921   NORMALIZED FREE ENERGY PREDICTED BY IDOCK:   -4.42 KCAL/MOL
REMARK 922        TOTAL FREE ENERGY PREDICTED BY IDOCK:   -6.14 KCAL/MOL
REMARK 923 INTER-LIGAND FREE ENERGY PREDICTED BY IDOCK:   -5.58 KCAL/MOL
REMARK 924 INTRA-LIGAND FREE ENERGY PREDICTED BY IDOCK:   -0.56 KCAL/MOL
REMARK 927      BINDING AFFINITY PREDICTED BY RF-SCORE:    0.00 PKD
ROOT
HETATM    1  C   UNL     1     -11.651  10.522  69.389  1.00  0.00    -0.318 C  
HETATM    2  C   UNL     1     -10.682   9.898  68.412  1.00  0.00    -0.271 C  
HETATM    3  C   UNL     1     -10.311  10.539  67.280  1.00  0.00    -0.275 C  
ENDROOT
BRANCH   2   4
HETATM    4  C   UNL     1     -10.126   8.573  68.678  1.00  0.00    -0.207 C  
HETATM    5  C   UNL     1     -10.702   7.389  68.418  1.00  0.00    -0.142 C  
BRANCH   5   6
HETATM    6  C   UNL     1     -10.093   6.092  68.717  1.00  0.00    -0.210 C  
HETATM    7  C   UNL     1      -8.288   6.258  66.947  1.00  0.00    -0.109 C  
HETATM    8  C   UNL     1     -10.088   5.599  69.972  1.00  0.00    -0.295 C  
HETATM    9  C   UNL     1      -9.455   4.288  70.340  1.00  0.00    -0.245 C  
HETATM   10  C   UNL     1     -10.677   6.296  71.182  1.00  0.00    -0.301 C  
HETATM   11  C   UNL     1     -10.484   5.195  66.387  1.00  0.00    -0.356 C  
HETATM   12  C   UNL     1      -9.437   5.385  67.517  1.00  0.00    -0.129 C  
HETATM   13  C   UNL     1      -8.846   3.978  67.815  1.00  0.00    -0.134 C  
HETATM   14  C   UNL     1      -8.787   3.474  69.249  1.00  0.00    -0.156 C  
ENDBRANCH   5   6
ENDBRANCH   2   4
BRANCH   3  15
HETATM   15  C   UNL     1     -10.728  11.878  66.908  1.00  0.00    -0.285 C  
HETATM   16  C   UNL     1     -10.253  12.998  67.477  1.00  0.00    -0.221 C  
BRANCH  16  17
HETATM   17  C   UNL     1     -10.684  14.365  67.185  1.00  0.00    -0.283 C  
HETATM   18  C   UNL     1     -11.941  14.990  69.381  1.00  0.00    -0.303 C  
HETATM   19  O   UNL     1     -12.128  15.958  70.103  1.00  0.00    -0.344 OA 
HETATM   20  C   UNL     1     -11.392  15.155  68.019  1.00  0.00    -0.346 C  
HETATM   21  C   UNL     1     -10.289  15.012  65.869  1.00  0.00    -0.329 C  
HETATM   22  O   UNL     1     -12.282  13.742  69.732  1.00  0.00    -0.324 OA 
ENDBRANCH  16  17
ENDBRANCH   3  15
TORSDOF 4
ENDMDL
MODEL      123
REMARK 921   NORMALIZED FREE ENERGY PREDICTED BY IDOCK:   -4.38 KCAL/MOL
REMARK 922        TOTAL FREE ENERGY PREDICTED BY IDOCK:   -6.09 KCAL/MOL
REMARK 923 INTER-LIGAND FREE ENERGY PREDICTED BY IDOCK:   -5.59 KCAL/MOL
REMARK 924 INTRA-LIGAND FREE ENERGY PREDICTED BY IDOCK:   -0.50 KCAL/MOL
REMARK 927      BINDING AFFINITY PREDICTED BY RF-SCORE:    0.00 PKD
ROOT
HETATM    1  C   UNL     1     -10.050   7.693  73.637  1.00  0.00    -0.269 C  
HETATM    2  C   UNL     1     -10.610   7.850  72.242  1.00  0.00    -0.331 C  
HETATM    3  C   UNL     1     -11.071   6.787  71.544  1.00  0.00    -0.289 C  
ENDROOT
BRANCH   2   4
HETATM    4  C   UNL     1     -10.659   9.170  71.618  1.00  0.00    -0.427 C  
HETATM    5  C   UNL     1     -11.505   9.578  70.658  1.00  0.00    -0.362 C  
BRANCH   5   6
HETATM    6  C   UNL     1     -11.498  10.917  70.066  1.00  0.00    -0.411 C  
HETATM    7  C   UNL     1     -11.233  10.123  67.675  1.00  0.00    -0.169 C  
HETATM    8  C   UNL     1     -12.211  11.923  70.613  1.00  0.00    -0.424 C  
HETATM    9  C   UNL     1     -12.261  13.306  70.034  1.00  0.00    -0.345 C  
HETATM   10  C   UNL     1     -13.079  11.801  71.849  1.00  0.00    -0.482 C  
HETATM   11  C   UNL     1      -9.203  10.625  69.050  1.00  0.00    -0.177 C  
HETATM   12  C   UNL     1     -10.668  11.057  68.777  1.00  0.00    -0.240 C  
HETATM   13  C   UNL     1     -10.604  12.492  68.181  1.00  0.00    -0.239 C  
HETATM   14  C   UNL     1     -11.472  13.593  68.771  1.00  0.00    -0.346 C  
ENDBRANCH   5   6
ENDBRANCH   2   4
BRANCH   3  15
HETATM   15  C   UNL     1     -11.145   5.429  72.049  1.00  0.00    -0.204 C  
HETATM   16  C   UNL     1     -10.081   4.623  72.196  1.00  0.00    -0.256 C  
BRANCH  16  17
HETATM   17  C   UNL     1     -10.108   3.229  72.638  1.00  0.00    -0.232 C  
HETATM   18  C   UNL     1      -7.704   2.441  72.013  1.00  0.00    -0.048 C  
HETATM   19  O   UNL     1      -6.827   1.702  72.436  1.00  0.00    -0.018 OA 
HETATM   20  C   UNL     1      -9.084   2.357  72.536  1.00  0.00    -0.114 C  
HETATM   21  C   UNL     1     -11.352   2.680  73.316  1.00  0.00    -0.169 C  
HETATM   22  O   UNL     1      -7.504   3.313  71.015  1.00  0.00    -0.036 OA 
ENDBRANCH  16  17
ENDBRANCH   3  15
TORSDOF 4
ENDMDL
MODEL      124
REMARK 921   NORMALIZED FREE ENERGY PREDICTED BY IDOCK:   -4.37 KCAL/MOL
REMARK 922        TOTAL FREE ENERGY PREDICTED BY IDOCK:   -6.08 KCAL/MOL
REMARK 923 INTER-LIGAND FREE ENERGY PREDICTED BY IDOCK:   -5.74 KCAL/MOL
REMARK 924 INTRA-LIGAND FREE ENERGY PREDICTED BY IDOCK:   -0.34 KCAL/MOL
REMARK 927      BINDING AFFINITY PREDICTED BY RF-SCORE:    0.00 PKD
ROOT
HETATM    1  C   UNL     1      -9.406   7.385  66.542  1.00  0.00    -0.222 C  
HETATM    2  C   UNL     1     -10.064   8.272  67.574  1.00  0.00    -0.287 C  
HETATM    3  C   UNL     1     -10.124   7.913  68.877  1.00  0.00    -0.203 C  
ENDROOT
BRANCH   2   4
HETATM    4  C   UNL     1     -10.658   9.545  67.173  1.00  0.00    -0.295 C  
HETATM    5  C   UNL     1     -10.036  10.570  66.568  1.00  0.00    -0.266 C  
BRANCH   5   6
HETATM    6  C   UNL     1     -10.688  11.828  66.198  1.00  0.00    -0.320 C  
HETATM    7  C   UNL     1      -9.538  13.227  67.970  1.00  0.00    -0.220 C  
HETATM    8  C   UNL     1     -11.024  12.086  64.917  1.00  0.00    -0.356 C  
HETATM    9  C   UNL     1     -11.669  13.368  64.477  1.00  0.00    -0.422 C  
HETATM   10  C   UNL     1     -10.775  11.154  63.748  1.00  0.00    -0.399 C  
HETATM   11  C   UNL     1     -11.734  12.138  68.477  1.00  0.00    -0.382 C  
HETATM   12  C   UNL     1     -10.903  12.818  67.356  1.00  0.00    -0.265 C  
HETATM   13  C   UNL     1     -11.654  14.128  66.980  1.00  0.00    -0.404 C  
HETATM   14  C   UNL     1     -11.959  14.429  65.521  1.00  0.00    -0.358 C  
ENDBRANCH   5   6
ENDBRANCH   2   4
BRANCH   3  15
HETATM   15  C   UNL     1      -9.530   6.714  69.437  1.00  0.00    -0.146 C  
HETATM   16  C   UNL     1     -10.236   5.701  69.965  1.00  0.00    -0.321 C  
BRANCH  16  17
HETATM   17  C   UNL     1      -9.687   4.503  70.599  1.00  0.00    -0.282 C  
HETATM   18  C   UNL     1      -8.136   3.585  68.718  1.00  0.00    -0.061 C  
HETATM   19  O   UNL     1      -7.062   3.015  68.592  1.00  0.00    -0.048 OA 
HETATM   20  C   UNL     1      -8.811   3.650  70.030  1.00  0.00    -0.147 C  
HETATM   21  C   UNL     1     -10.067   4.172  72.032  1.00  0.00    -0.234 C  
HETATM   22  O   UNL     1      -8.803   4.120  67.685  1.00  0.00    -0.104 OA 
ENDBRANCH  16  17
ENDBRANCH   3  15
TORSDOF 4
ENDMDL
MODEL      125
REMARK 921   NORMALIZED FREE ENERGY PREDICTED BY IDOCK:   -4.36 KCAL/MOL
REMARK 922        TOTAL FREE ENERGY PREDICTED BY IDOCK:   -6.08 KCAL/MOL
REMARK 923 INTER-LIGAND FREE ENERGY PREDICTED BY IDOCK:   -5.37 KCAL/MOL
REMARK 924 INTRA-LIGAND FREE ENERGY PREDICTED BY IDOCK:   -0.71 KCAL/MOL
REMARK 927      BINDING AFFINITY PREDICTED BY RF-SCORE:    0.00 PKD
ROOT
HETATM    1  C   UNL     1     -12.357  10.988  69.699  1.00  0.00    -0.303 C  
HETATM    2  C   UNL     1     -11.307  10.811  68.627  1.00  0.00    -0.356 C  
HETATM    3  C   UNL     1     -10.900  11.848  67.861  1.00  0.00    -0.254 C  
ENDROOT
BRANCH   2   4
HETATM    4  C   UNL     1     -10.710   9.497  68.397  1.00  0.00    -0.230 C  
HETATM    5  C   UNL     1      -9.796   8.881  69.164  1.00  0.00    -0.180 C  
BRANCH   5   6
HETATM    6  C   UNL     1      -9.229   7.563  68.873  1.00  0.00    -0.142 C  
HETATM    7  C   UNL     1      -6.813   8.322  68.917  1.00  0.00    -0.061 C  
HETATM    8  C   UNL     1      -9.833   6.436  69.305  1.00  0.00    -0.167 C  
HETATM    9  C   UNL     1      -9.282   5.061  69.060  1.00  0.00    -0.157 C  
HETATM   10  C   UNL     1     -11.111   6.391  70.117  1.00  0.00    -0.428 C  
HETATM   11  C   UNL     1      -8.084   8.346  66.762  1.00  0.00    -0.098 C  
HETATM   12  C   UNL     1      -7.900   7.579  68.098  1.00  0.00    -0.122 C  
HETATM   13  C   UNL     1      -7.328   6.180  67.730  1.00  0.00    -0.084 C  
HETATM   14  C   UNL     1      -7.984   4.926  68.288  1.00  0.00    -0.086 C  
ENDBRANCH   5   6
ENDBRANCH   2   4
BRANCH   3  15
HETATM   15  C   UNL     1     -11.352  13.219  68.009  1.00  0.00    -0.325 C  
HETATM   16  C   UNL     1     -10.764  14.123  68.809  1.00  0.00    -0.265 C  
BRANCH  16  17
HETATM   17  C   UNL     1     -11.216  15.494  69.043  1.00  0.00    -0.304 C  
HETATM   18  C   UNL     1     -12.128  15.330  71.478  1.00  0.00    -0.359 C  
HETATM   19  O   UNL     1     -12.194  16.004  72.496  1.00  0.00    -0.437 OA 
HETATM   20  C   UNL     1     -11.783  15.946  70.181  1.00  0.00    -0.342 C  
HETATM   21  C   UNL     1     -11.010  16.546  67.967  1.00  0.00    -0.320 C  
HETATM   22  O   UNL     1     -12.429  14.023  71.449  1.00  0.00    -0.346 OA 
ENDBRANCH  16  17
ENDBRANCH   3  15
TORSDOF 4
ENDMDL
MODEL      126
REMARK 921   NORMALIZED FREE ENERGY PREDICTED BY IDOCK:   -4.35 KCAL/MOL
REMARK 922        TOTAL FREE ENERGY PREDICTED BY IDOCK:   -6.07 KCAL/MOL
REMARK 923 INTER-LIGAND FREE ENERGY PREDICTED BY IDOCK:   -5.47 KCAL/MOL
REMARK 924 INTRA-LIGAND FREE ENERGY PREDICTED BY IDOCK:   -0.59 KCAL/MOL
REMARK 927      BINDING AFFINITY PREDICTED BY RF-SCORE:    0.00 PKD
ROOT
HETATM    1  C   UNL     1      -6.847  12.074  67.023  1.00  0.00    -0.097 C  
HETATM    2  C   UNL     1      -7.976  12.898  67.600  1.00  0.00    -0.167 C  
HETATM    3  C   UNL     1      -9.036  12.315  68.204  1.00  0.00    -0.192 C  
ENDROOT
BRANCH   2   4
HETATM    4  C   UNL     1      -7.939  14.356  67.507  1.00  0.00    -0.208 C  
HETATM    5  C   UNL     1      -8.468  15.233  68.375  1.00  0.00    -0.158 C  
BRANCH   5   6
HETATM    6  C   UNL     1      -8.403  16.687  68.221  1.00  0.00    -0.198 C  
HETATM    7  C   UNL     1     -10.910  17.047  68.272  1.00  0.00    -0.341 C  
HETATM    8  C   UNL     1      -7.375  17.395  68.732  1.00  0.00    -0.257 C  
HETATM    9  C   UNL     1      -7.272  18.889  68.628  1.00  0.00    -0.333 C  
HETATM   10  C   UNL     1      -6.213  16.806  69.505  1.00  0.00    -0.227 C  
HETATM   11  C   UNL     1      -9.752  16.678  66.085  1.00  0.00    -0.329 C  
HETATM   12  C   UNL     1      -9.600  17.321  67.489  1.00  0.00    -0.259 C  
HETATM   13  C   UNL     1      -9.504  18.857  67.265  1.00  0.00    -0.336 C  
HETATM   14  C   UNL     1      -8.375  19.644  67.911  1.00  0.00    -0.349 C  
ENDBRANCH   5   6
ENDBRANCH   2   4
BRANCH   3  15
HETATM   15  C   UNL     1      -9.187  10.889  68.427  1.00  0.00    -0.168 C  
HETATM   16  C   UNL     1      -9.970  10.355  69.378  1.00  0.00    -0.240 C  
BRANCH  16  17
HETATM   17  C   UNL     1     -10.108   8.932  69.685  1.00  0.00    -0.202 C  
HETATM   18  C   UNL     1     -12.206   8.938  71.231  1.00  0.00    -0.299 C  
HETATM   19  O   UNL     1     -13.185   8.247  71.475  1.00  0.00    -0.325 OA 
HETATM   20  C   UNL     1     -11.064   8.392  70.470  1.00  0.00    -0.267 C  
HETATM   21  C   UNL     1      -9.152   7.933  69.059  1.00  0.00    -0.144 C  
HETATM   22  O   UNL     1     -12.066  10.191  71.687  1.00  0.00    -0.375 OA 
ENDBRANCH  16  17
ENDBRANCH   3  15
TORSDOF 4
ENDMDL
MODEL      127
REMARK 921   NORMALIZED FREE ENERGY PREDICTED BY IDOCK:   -4.35 KCAL/MOL
REMARK 922        TOTAL FREE ENERGY PREDICTED BY IDOCK:   -6.06 KCAL/MOL
REMARK 923 INTER-LIGAND FREE ENERGY PREDICTED BY IDOCK:   -5.38 KCAL/MOL
REMARK 924 INTRA-LIGAND FREE ENERGY PREDICTED BY IDOCK:   -0.69 KCAL/MOL
REMARK 927      BINDING AFFINITY PREDICTED BY RF-SCORE:    0.00 PKD
ROOT
HETATM    1  C   UNL     1     -11.644  11.757  67.708  1.00  0.00    -0.374 C  
HETATM    2  C   UNL     1     -10.252  11.848  67.128  1.00  0.00    -0.230 C  
HETATM    3  C   UNL     1      -9.654  13.042  66.914  1.00  0.00    -0.243 C  
ENDROOT
BRANCH   2   4
HETATM    4  C   UNL     1      -9.522  10.631  66.781  1.00  0.00    -0.189 C  
HETATM    5  C   UNL     1     -10.025   9.522  66.216  1.00  0.00    -0.344 C  
BRANCH   5   6
HETATM    6  C   UNL     1      -9.239   8.328  65.900  1.00  0.00    -0.185 C  
HETATM    7  C   UNL     1     -10.870   6.685  66.931  1.00  0.00    -0.415 C  
HETATM    8  C   UNL     1      -8.477   8.271  64.788  1.00  0.00    -0.089 C  
HETATM    9  C   UNL     1      -7.674   7.064  64.401  1.00  0.00    -0.113 C  
HETATM   10  C   UNL     1      -8.349   9.382  63.765  1.00  0.00    -0.183 C  
HETATM   11  C   UNL     1      -9.020   7.639  68.321  1.00  0.00    -0.127 C  
HETATM   12  C   UNL     1      -9.394   7.161  66.892  1.00  0.00    -0.189 C  
HETATM   13  C   UNL     1      -8.511   5.915  66.596  1.00  0.00    -0.111 C  
HETATM   14  C   UNL     1      -7.716   5.845  65.301  1.00  0.00    -0.095 C  
ENDBRANCH   5   6
ENDBRANCH   2   4
BRANCH   3  15
HETATM   15  C   UNL     1     -10.223  14.331  67.262  1.00  0.00    -0.252 C  
HETATM   16  C   UNL     1      -9.784  15.099  68.273  1.00  0.00    -0.219 C  
BRANCH  16  17
HETATM   17  C   UNL     1     -10.360  16.371  68.705  1.00  0.00    -0.275 C  
HETATM   18  C   UNL     1     -11.504  15.687  70.944  1.00  0.00    -0.390 C  
HETATM   19  O   UNL     1     -11.727  16.147  72.055  1.00  0.00    -0.477 OA 
HETATM   20  C   UNL     1     -11.075  16.562  69.834  1.00  0.00    -0.241 C  
HETATM   21  C   UNL     1     -10.126  17.622  67.876  1.00  0.00    -0.345 C  
HETATM   22  O   UNL     1     -11.700  14.397  70.637  1.00  0.00    -0.292 OA 
ENDBRANCH  16  17
ENDBRANCH   3  15
TORSDOF 4
ENDMDL
MODEL      128
REMARK 921   NORMALIZED FREE ENERGY PREDICTED BY IDOCK:   -4.33 KCAL/MOL
REMARK 922        TOTAL FREE ENERGY PREDICTED BY IDOCK:   -6.03 KCAL/MOL
REMARK 923 INTER-LIGAND FREE ENERGY PREDICTED BY IDOCK:   -5.42 KCAL/MOL
REMARK 924 INTRA-LIGAND FREE ENERGY PREDICTED BY IDOCK:   -0.62 KCAL/MOL
REMARK 927      BINDING AFFINITY PREDICTED BY RF-SCORE:    0.00 PKD
ROOT
HETATM    1  C   UNL     1     -11.447  11.901  66.804  1.00  0.00    -0.384 C  
HETATM    2  C   UNL     1     -10.060  12.490  66.690  1.00  0.00    -0.241 C  
HETATM    3  C   UNL     1      -8.978  11.709  66.466  1.00  0.00    -0.191 C  
ENDROOT
BRANCH   2   4
HETATM    4  C   UNL     1      -9.864  13.932  66.825  1.00  0.00    -0.274 C  
HETATM    5  C   UNL     1     -10.788  14.843  67.167  1.00  0.00    -0.311 C  
BRANCH   5   6
HETATM    6  C   UNL     1     -10.529  16.280  67.278  1.00  0.00    -0.300 C  
HETATM    7  C   UNL     1      -8.727  16.065  69.047  1.00  0.00    -0.245 C  
HETATM    8  C   UNL     1     -10.657  17.094  66.210  1.00  0.00    -0.185 C  
HETATM    9  C   UNL     1     -10.377  18.568  66.259  1.00  0.00    -0.459 C  
HETATM   10  C   UNL     1     -11.059  16.646  64.819  1.00  0.00    -0.120 C  
HETATM   11  C   UNL     1     -11.116  16.356  69.734  1.00  0.00    -0.305 C  
HETATM   12  C   UNL     1     -10.063  16.755  68.666  1.00  0.00    -0.279 C  
HETATM   13  C   UNL     1      -9.850  18.290  68.806  1.00  0.00    -0.377 C  
HETATM   14  C   UNL     1      -9.929  19.177  67.573  1.00  0.00    -0.433 C  
ENDBRANCH   5   6
ENDBRANCH   2   4
BRANCH   3  15
HETATM   15  C   UNL     1      -9.018  10.275  66.251  1.00  0.00    -0.172 C  
HETATM   16  C   UNL     1      -8.384   9.380  67.025  1.00  0.00    -0.127 C  
BRANCH  16  17
HETATM   17  C   UNL     1      -8.338   7.934  66.815  1.00  0.00    -0.120 C  
HETATM   18  C   UNL     1     -10.467   7.156  68.101  1.00  0.00    -0.200 C  
HETATM   19  O   UNL     1     -11.351   6.316  68.018  1.00  0.00    -0.260 OA 
HETATM   20  C   UNL     1      -9.237   7.047  67.290  1.00  0.00    -0.141 C  
HETATM   21  C   UNL     1      -7.236   7.334  65.959  1.00  0.00    -0.074 C  
HETATM   22  O   UNL     1     -10.512   8.178  68.969  1.00  0.00    -0.219 OA 
ENDBRANCH  16  17
ENDBRANCH   3  15
TORSDOF 4
ENDMDL
MODEL      129
REMARK 921   NORMALIZED FREE ENERGY PREDICTED BY IDOCK:   -4.30 KCAL/MOL
REMARK 922        TOTAL FREE ENERGY PREDICTED BY IDOCK:   -5.99 KCAL/MOL
REMARK 923 INTER-LIGAND FREE ENERGY PREDICTED BY IDOCK:   -5.51 KCAL/MOL
REMARK 924 INTRA-LIGAND FREE ENERGY PREDICTED BY IDOCK:   -0.48 KCAL/MOL
REMARK 927      BINDING AFFINITY PREDICTED BY RF-SCORE:    0.00 PKD
ROOT
HETATM    1  C   UNL     1     -11.964  11.728  69.782  1.00  0.00    -0.392 C  
HETATM    2  C   UNL     1     -11.310  10.610  69.003  1.00  0.00    -0.340 C  
HETATM    3  C   UNL     1     -11.142  10.689  67.664  1.00  0.00    -0.385 C  
ENDROOT
BRANCH   2   4
HETATM    4  C   UNL     1     -10.846   9.410  69.695  1.00  0.00    -0.245 C  
HETATM    5  C   UNL     1      -9.594   8.927  69.723  1.00  0.00    -0.175 C  
BRANCH   5   6
HETATM    6  C   UNL     1      -9.194   7.710  70.431  1.00  0.00    -0.156 C  
HETATM    7  C   UNL     1     -10.486   8.227  72.549  1.00  0.00    -0.406 C  
HETATM    8  C   UNL     1      -8.971   6.558  69.765  1.00  0.00    -0.142 C  
HETATM    9  C   UNL     1      -8.587   5.275  70.442  1.00  0.00    -0.120 C  
HETATM   10  C   UNL     1      -9.108   6.381  68.266  1.00  0.00    -0.114 C  
HETATM   11  C   UNL     1      -8.110   8.981  72.327  1.00  0.00     0.365 C  
HETATM   12  C   UNL     1      -9.102   7.845  71.962  1.00  0.00    -0.198 C  
HETATM   13  C   UNL     1      -8.615   6.573  72.713  1.00  0.00    -0.124 C  
HETATM   14  C   UNL     1      -8.439   5.268  71.951  1.00  0.00    -0.126 C  
ENDBRANCH   5   6
ENDBRANCH   2   4
BRANCH   3  15
HETATM   15  C   UNL     1     -11.492  11.837  66.848  1.00  0.00    -0.364 C  
HETATM   16  C   UNL     1     -10.860  12.173  65.712  1.00  0.00    -0.319 C  
BRANCH  16  17
HETATM   17  C   UNL     1     -11.130  13.351  64.889  1.00  0.00    -0.348 C  
HETATM   18  C   UNL     1      -9.664  15.155  66.068  1.00  0.00    -0.330 C  
HETATM   19  O   UNL     1      -8.981  16.128  65.788  1.00  0.00    -0.385 OA 
HETATM   20  C   UNL     1     -10.603  14.578  65.084  1.00  0.00    -0.429 C  
HETATM   21  C   UNL     1     -12.034  13.227  63.675  1.00  0.00    -0.547 C  
HETATM   22  O   UNL     1      -9.669  14.594  67.286  1.00  0.00    -0.225 OA 
ENDBRANCH  16  17
ENDBRANCH   3  15
TORSDOF 4
ENDMDL
MODEL      130
REMARK 921   NORMALIZED FREE ENERGY PREDICTED BY IDOCK:   -4.28 KCAL/MOL
REMARK 922        TOTAL FREE ENERGY PREDICTED BY IDOCK:   -5.98 KCAL/MOL
REMARK 923 INTER-LIGAND FREE ENERGY PREDICTED BY IDOCK:   -5.32 KCAL/MOL
REMARK 924 INTRA-LIGAND FREE ENERGY PREDICTED BY IDOCK:   -0.66 KCAL/MOL
REMARK 927      BINDING AFFINITY PREDICTED BY RF-SCORE:    0.00 PKD
ROOT
HETATM    1  C   UNL     1      -8.166  16.334  68.939  1.00  0.00    -0.231 C  
HETATM    2  C   UNL     1      -8.103  15.683  67.577  1.00  0.00    -0.181 C  
HETATM    3  C   UNL     1      -7.501  16.294  66.531  1.00  0.00    -0.169 C  
ENDROOT
BRANCH   2   4
HETATM    4  C   UNL     1      -8.703  14.367  67.366  1.00  0.00    -0.214 C  
HETATM    5  C   UNL     1      -8.755  13.354  68.245  1.00  0.00    -0.172 C  
BRANCH   5   6
HETATM    6  C   UNL     1      -9.366  12.053  67.968  1.00  0.00    -0.196 C  
HETATM    7  C   UNL     1      -7.643  10.701  69.243  1.00  0.00    -0.138 C  
HETATM    8  C   UNL     1     -10.702  11.926  67.839  1.00  0.00    -0.239 C  
HETATM    9  C   UNL     1     -11.384  10.613  67.583  1.00  0.00    -0.284 C  
HETATM   10  C   UNL     1     -11.700  13.059  67.966  1.00  0.00    -0.397 C  
HETATM   11  C   UNL     1      -7.308  11.158  66.805  1.00  0.00    -0.146 C  
HETATM   12  C   UNL     1      -8.382  10.872  67.890  1.00  0.00    -0.119 C  
HETATM   13  C   UNL     1      -9.018   9.499  67.531  1.00  0.00    -0.133 C  
HETATM   14  C   UNL     1     -10.531   9.365  67.461  1.00  0.00    -0.343 C  
ENDBRANCH   5   6
ENDBRANCH   2   4
BRANCH   3  15
HETATM   15  C   UNL     1      -6.810  17.568  66.597  1.00  0.00    -0.256 C  
HETATM   16  C   UNL     1      -7.352  18.738  66.219  1.00  0.00    -0.282 C  
BRANCH  16  17
HETATM   17  C   UNL     1      -6.680  20.037  66.204  1.00  0.00    -0.248 C  
HETATM   18  C   UNL     1      -6.512  20.562  68.751  1.00  0.00    -0.236 C  
HETATM   19  O   UNL     1      -5.749  21.094  69.544  1.00  0.00    -0.362 OA 
HETATM   20  C   UNL     1      -6.353  20.759  67.295  1.00  0.00    -0.341 C  
HETATM   21  C   UNL     1      -6.252  20.645  64.880  1.00  0.00    -0.319 C  
HETATM   22  O   UNL     1      -7.571  19.834  69.135  1.00  0.00    -0.312 OA 
ENDBRANCH  16  17
ENDBRANCH   3  15
TORSDOF 4
ENDMDL
MODEL      131
REMARK 921   NORMALIZED FREE ENERGY PREDICTED BY IDOCK:   -4.28 KCAL/MOL
REMARK 922        TOTAL FREE ENERGY PREDICTED BY IDOCK:   -5.97 KCAL/MOL
REMARK 923 INTER-LIGAND FREE ENERGY PREDICTED BY IDOCK:   -5.36 KCAL/MOL
REMARK 924 INTRA-LIGAND FREE ENERGY PREDICTED BY IDOCK:   -0.62 KCAL/MOL
REMARK 927      BINDING AFFINITY PREDICTED BY RF-SCORE:    0.00 PKD
ROOT
HETATM    1  C   UNL     1     -10.529   9.527  70.400  1.00  0.00    -0.336 C  
HETATM    2  C   UNL     1     -10.012   9.237  69.010  1.00  0.00    -0.187 C  
HETATM    3  C   UNL     1     -10.328  10.030  67.961  1.00  0.00    -0.238 C  
ENDROOT
BRANCH   2   4
HETATM    4  C   UNL     1      -9.155   8.077  68.776  1.00  0.00    -0.144 C  
HETATM    5  C   UNL     1      -8.961   7.440  67.610  1.00  0.00    -0.126 C  
BRANCH   5   6
HETATM    6  C   UNL     1      -8.092   6.274  67.442  1.00  0.00    -0.109 C  
HETATM    7  C   UNL     1      -9.828   4.844  66.275  1.00  0.00    -0.225 C  
HETATM    8  C   UNL     1      -6.763   6.418  67.257  1.00  0.00    -0.060 C  
HETATM    9  C   UNL     1      -5.830   5.260  67.052  1.00  0.00    -0.018 C  
HETATM   10  C   UNL     1      -6.034   7.744  67.192  1.00  0.00    -0.048 C  
HETATM   11  C   UNL     1      -9.613   4.752  68.767  1.00  0.00    -0.227 C  
HETATM   12  C   UNL     1      -8.813   4.914  67.447  1.00  0.00    -0.103 C  
HETATM   13  C   UNL     1      -7.887   3.670  67.335  1.00  0.00    -0.079 C  
HETATM   14  C   UNL     1      -6.404   3.857  67.054  1.00  0.00    -0.040 C  
ENDBRANCH   5   6
ENDBRANCH   2   4
BRANCH   3  15
HETATM   15  C   UNL     1     -11.114  11.246  68.045  1.00  0.00    -0.325 C  
HETATM   16  C   UNL     1     -10.988  12.283  67.201  1.00  0.00    -0.308 C  
BRANCH  16  17
HETATM   17  C   UNL     1     -11.708  13.554  67.279  1.00  0.00    -0.423 C  
HETATM   18  C   UNL     1     -11.892  14.200  64.761  1.00  0.00    -0.417 C  
HETATM   19  O   UNL     1     -12.672  14.744  63.994  1.00  0.00    -0.786 OA 
HETATM   20  C   UNL     1     -12.060  14.318  66.224  1.00  0.00    -0.433 C  
HETATM   21  C   UNL     1     -12.160  14.078  68.631  1.00  0.00    -0.332 C  
HETATM   22  O   UNL     1     -10.806  13.533  64.344  1.00  0.00    -0.392 OA 
ENDBRANCH  16  17
ENDBRANCH   3  15
TORSDOF 4
ENDMDL
MODEL      132
REMARK 921   NORMALIZED FREE ENERGY PREDICTED BY IDOCK:   -4.26 KCAL/MOL
REMARK 922        TOTAL FREE ENERGY PREDICTED BY IDOCK:   -5.94 KCAL/MOL
REMARK 923 INTER-LIGAND FREE ENERGY PREDICTED BY IDOCK:   -5.35 KCAL/MOL
REMARK 924 INTRA-LIGAND FREE ENERGY PREDICTED BY IDOCK:   -0.60 KCAL/MOL
REMARK 927      BINDING AFFINITY PREDICTED BY RF-SCORE:    0.00 PKD
ROOT
HETATM    1  C   UNL     1     -10.131  10.305  65.330  1.00  0.00    -0.354 C  
HETATM    2  C   UNL     1     -10.533  10.832  66.688  1.00  0.00    -0.302 C  
HETATM    3  C   UNL     1     -10.784   9.997  67.722  1.00  0.00    -0.333 C  
ENDROOT
BRANCH   2   4
HETATM    4  C   UNL     1     -10.661  12.271  66.907  1.00  0.00    -0.249 C  
HETATM    5  C   UNL     1     -10.059  12.999  67.862  1.00  0.00    -0.235 C  
BRANCH   5   6
HETATM    6  C   UNL     1     -10.236  14.442  68.033  1.00  0.00    -0.228 C  
HETATM    7  C   UNL     1      -9.900  15.018  65.588  1.00  0.00    -0.380 C  
HETATM    8  C   UNL     1     -11.068  14.934  68.973  1.00  0.00    -0.260 C  
HETATM    9  C   UNL     1     -11.308  16.402  69.174  1.00  0.00    -0.241 C  
HETATM   10  C   UNL     1     -11.897  14.096  69.925  1.00  0.00    -0.387 C  
HETATM   11  C   UNL     1      -7.936  14.988  67.140  1.00  0.00    -0.238 C  
HETATM   12  C   UNL     1      -9.449  15.319  67.042  1.00  0.00    -0.235 C  
HETATM   13  C   UNL     1      -9.582  16.853  67.261  1.00  0.00    -0.246 C  
HETATM   14  C   UNL     1     -10.580  17.385  68.278  1.00  0.00    -0.366 C  
ENDBRANCH   5   6
ENDBRANCH   2   4
BRANCH   3  15
HETATM   15  C   UNL     1     -10.641   8.553  67.679  1.00  0.00    -0.268 C  
HETATM   16  C   UNL     1      -9.852   7.850  68.508  1.00  0.00    -0.186 C  
BRANCH  16  17
HETATM   17  C   UNL     1      -9.623   6.407  68.466  1.00  0.00    -0.122 C  
HETATM   18  C   UNL     1      -7.612   6.249  66.816  1.00  0.00    -0.099 C  
HETATM   19  O   UNL     1      -6.598   5.589  66.643  1.00  0.00    -0.052 OA 
HETATM   20  C   UNL     1      -8.671   5.788  67.738  1.00  0.00    -0.107 C  
HETATM   21  C   UNL     1     -10.468   5.487  69.331  1.00  0.00    -0.360 C  
HETATM   22  O   UNL     1      -7.870   7.379  66.141  1.00  0.00    -0.100 OA 
ENDBRANCH  16  17
ENDBRANCH   3  15
TORSDOF 4
ENDMDL
MODEL      133
REMARK 921   NORMALIZED FREE ENERGY PREDICTED BY IDOCK:   -4.25 KCAL/MOL
REMARK 922        TOTAL FREE ENERGY PREDICTED BY IDOCK:   -5.93 KCAL/MOL
REMARK 923 INTER-LIGAND FREE ENERGY PREDICTED BY IDOCK:   -5.32 KCAL/MOL
REMARK 924 INTRA-LIGAND FREE ENERGY PREDICTED BY IDOCK:   -0.62 KCAL/MOL
REMARK 927      BINDING AFFINITY PREDICTED BY RF-SCORE:    0.00 PKD
ROOT
HETATM    1  C   UNL     1      -8.365   9.375  68.948  1.00  0.00    -0.120 C  
HETATM    2  C   UNL     1      -8.724   8.080  68.258  1.00  0.00    -0.130 C  
HETATM    3  C   UNL     1      -9.052   8.047  66.946  1.00  0.00    -0.182 C  
ENDROOT
BRANCH   2   4
HETATM    4  C   UNL     1      -8.725   6.826  69.008  1.00  0.00    -0.130 C  
HETATM    5  C   UNL     1      -9.388   5.701  68.699  1.00  0.00    -0.142 C  
BRANCH   5   6
HETATM    6  C   UNL     1      -9.354   4.476  69.500  1.00  0.00    -0.221 C  
HETATM    7  C   UNL     1      -7.196   3.596  68.504  1.00  0.00    -0.051 C  
HETATM    8  C   UNL     1      -9.848   4.451  70.755  1.00  0.00    -0.273 C  
HETATM    9  C   UNL     1      -9.815   3.232  71.630  1.00  0.00    -0.220 C  
HETATM   10  C   UNL     1     -10.468   5.636  71.468  1.00  0.00    -0.298 C  
HETATM   11  C   UNL     1      -9.389   2.964  67.476  1.00  0.00    -0.218 C  
HETATM   12  C   UNL     1      -8.680   3.270  68.822  1.00  0.00    -0.145 C  
HETATM   13  C   UNL     1      -8.699   1.949  69.643  1.00  0.00    -0.111 C  
HETATM   14  C   UNL     1      -9.195   1.962  71.081  1.00  0.00    -0.171 C  
ENDBRANCH   5   6
ENDBRANCH   2   4
BRANCH   3  15
HETATM   15  C   UNL     1      -9.037   9.194  66.057  1.00  0.00    -0.245 C  
HETATM   16  C   UNL     1     -10.141   9.823  65.622  1.00  0.00    -0.282 C  
BRANCH  16  17
HETATM   17  C   UNL     1     -10.185  10.938  64.678  1.00  0.00    -0.411 C  
HETATM   18  C   UNL     1     -11.381  12.770  66.094  1.00  0.00    -0.328 C  
HETATM   19  O   UNL     1     -11.360  13.980  66.259  1.00  0.00    -0.318 OA 
HETATM   20  C   UNL     1     -10.719  12.152  64.926  1.00  0.00    -0.336 C  
HETATM   21  C   UNL     1      -9.551  10.785  63.306  1.00  0.00    -0.384 C  
HETATM   22  O   UNL     1     -12.055  11.935  66.899  1.00  0.00    -0.599 OA 
ENDBRANCH  16  17
ENDBRANCH   3  15
TORSDOF 4
ENDMDL
MODEL      134
REMARK 921   NORMALIZED FREE ENERGY PREDICTED BY IDOCK:   -4.23 KCAL/MOL
REMARK 922        TOTAL FREE ENERGY PREDICTED BY IDOCK:   -5.91 KCAL/MOL
REMARK 923 INTER-LIGAND FREE ENERGY PREDICTED BY IDOCK:   -5.32 KCAL/MOL
REMARK 924 INTRA-LIGAND FREE ENERGY PREDICTED BY IDOCK:   -0.58 KCAL/MOL
REMARK 927      BINDING AFFINITY PREDICTED BY RF-SCORE:    0.00 PKD
ROOT
HETATM    1  C   UNL     1      -7.835  10.821  66.819  1.00  0.00    -0.135 C  
HETATM    2  C   UNL     1      -8.970   9.850  67.047  1.00  0.00    -0.152 C  
HETATM    3  C   UNL     1     -10.162  10.001  66.426  1.00  0.00    -0.290 C  
ENDROOT
BRANCH   2   4
HETATM    4  C   UNL     1      -8.795   8.720  67.956  1.00  0.00    -0.141 C  
HETATM    5  C   UNL     1      -9.102   8.680  69.262  1.00  0.00    -0.149 C  
BRANCH   5   6
HETATM    6  C   UNL     1      -8.894   7.514  70.123  1.00  0.00    -0.147 C  
HETATM    7  C   UNL     1      -7.191   8.629  71.632  1.00  0.00    -0.109 C  
HETATM    8  C   UNL     1      -9.896   6.647  70.374  1.00  0.00    -0.189 C  
HETATM    9  C   UNL     1      -9.746   5.452  71.270  1.00  0.00    -0.215 C  
HETATM   10  C   UNL     1     -11.305   6.766  69.829  1.00  0.00    -0.350 C  
HETATM   11  C   UNL     1      -6.424   7.377  69.606  1.00  0.00    -0.036 C  
HETATM   12  C   UNL     1      -7.487   7.397  70.737  1.00  0.00    -0.078 C  
HETATM   13  C   UNL     1      -7.241   6.127  71.599  1.00  0.00    -0.087 C  
HETATM   14  C   UNL     1      -8.403   5.202  71.927  1.00  0.00    -0.121 C  
ENDBRANCH   5   6
ENDBRANCH   2   4
BRANCH   3  15
HETATM   15  C   UNL     1     -10.469  11.033  65.453  1.00  0.00    -0.306 C  
HETATM   16  C   UNL     1     -11.412  11.973  65.626  1.00  0.00    -0.372 C  
BRANCH  16  17
HETATM   17  C   UNL     1     -11.804  12.993  64.654  1.00  0.00    -0.422 C  
HETATM   18  C   UNL     1     -10.854  15.154  65.758  1.00  0.00    -0.353 C  
HETATM   19  O   UNL     1     -10.339  16.215  65.436  1.00  0.00    -0.461 OA 
HETATM   20  C   UNL     1     -11.545  14.313  64.759  1.00  0.00    -0.404 C  
HETATM   21  C   UNL     1     -12.521  12.579  63.380  1.00  0.00    -0.514 C  
HETATM   22  O   UNL     1     -10.893  14.717  67.025  1.00  0.00    -0.292 OA 
ENDBRANCH  16  17
ENDBRANCH   3  15
TORSDOF 4
ENDMDL
MODEL      135
REMARK 921   NORMALIZED FREE ENERGY PREDICTED BY IDOCK:   -4.21 KCAL/MOL
REMARK 922        TOTAL FREE ENERGY PREDICTED BY IDOCK:   -5.88 KCAL/MOL
REMARK 923 INTER-LIGAND FREE ENERGY PREDICTED BY IDOCK:   -5.24 KCAL/MOL
REMARK 924 INTRA-LIGAND FREE ENERGY PREDICTED BY IDOCK:   -0.64 KCAL/MOL
REMARK 927      BINDING AFFINITY PREDICTED BY RF-SCORE:    0.00 PKD
ROOT
HETATM    1  C   UNL     1      -7.160  10.988  67.594  1.00  0.00    -0.088 C  
HETATM    2  C   UNL     1      -8.213  11.410  68.593  1.00  0.00    -0.142 C  
HETATM    3  C   UNL     1      -8.697  12.672  68.616  1.00  0.00     0.049 C  
ENDROOT
BRANCH   2   4
HETATM    4  C   UNL     1      -8.727  10.446  69.564  1.00  0.00    -0.102 C  
HETATM    5  C   UNL     1      -9.642   9.488  69.343  1.00  0.00    -0.186 C  
BRANCH   5   6
HETATM    6  C   UNL     1     -10.122   8.556  70.365  1.00  0.00    -0.208 C  
HETATM    7  C   UNL     1      -7.962   7.242  70.529  1.00  0.00    -0.104 C  
HETATM    8  C   UNL     1     -11.019   8.945  71.295  1.00  0.00    -0.363 C  
HETATM    9  C   UNL     1     -11.525   8.041  72.380  1.00  0.00    -0.449 C  
HETATM   10  C   UNL     1     -11.610  10.336  71.403  1.00  0.00    -0.227 C  
HETATM   11  C   UNL     1      -9.736   6.523  68.915  1.00  0.00    -0.134 C  
HETATM   12  C   UNL     1      -9.496   7.151  70.314  1.00  0.00    -0.162 C  
HETATM   13  C   UNL     1     -10.051   6.138  71.356  1.00  0.00    -0.230 C  
HETATM   14  C   UNL     1     -11.006   6.617  72.438  1.00  0.00    -0.277 C  
ENDBRANCH   5   6
ENDBRANCH   2   4
BRANCH   3  15
HETATM   15  C   UNL     1      -8.332  13.721  67.682  1.00  0.00    -0.183 C  
HETATM   16  C   UNL     1      -9.077  14.814  67.451  1.00  0.00    -0.202 C  
BRANCH  16  17
HETATM   17  C   UNL     1      -8.789  15.865  66.476  1.00  0.00    -0.340 C  
HETATM   18  C   UNL     1     -10.832  15.660  64.872  1.00  0.00    -0.418 C  
HETATM   19  O   UNL     1     -11.564  16.372  64.200  1.00  0.00    -0.962 OA 
HETATM   20  C   UNL     1      -9.558  16.177  65.412  1.00  0.00     0.120 C  
HETATM   21  C   UNL     1      -7.559  16.739  66.656  1.00  0.00    -0.311 C  
HETATM   22  O   UNL     1     -11.088  14.364  65.104  1.00  0.00    -0.325 OA 
ENDBRANCH  16  17
ENDBRANCH   3  15
TORSDOF 4
ENDMDL
MODEL      136
REMARK 921   NORMALIZED FREE ENERGY PREDICTED BY IDOCK:   -4.20 KCAL/MOL
REMARK 922        TOTAL FREE ENERGY PREDICTED BY IDOCK:   -5.88 KCAL/MOL
REMARK 923 INTER-LIGAND FREE ENERGY PREDICTED BY IDOCK:   -5.19 KCAL/MOL
REMARK 924 INTRA-LIGAND FREE ENERGY PREDICTED BY IDOCK:   -0.69 KCAL/MOL
REMARK 927      BINDING AFFINITY PREDICTED BY RF-SCORE:    0.00 PKD
ROOT
HETATM    1  C   UNL     1      -6.214  15.522  69.500  1.00  0.00    -0.145 C  
HETATM    2  C   UNL     1      -7.065  15.161  68.305  1.00  0.00    -0.114 C  
HETATM    3  C   UNL     1      -7.273  16.039  67.297  1.00  0.00    -0.241 C  
ENDROOT
BRANCH   2   4
HETATM    4  C   UNL     1      -7.688  13.842  68.221  1.00  0.00    -0.138 C  
HETATM    5  C   UNL     1      -8.493  13.390  67.247  1.00  0.00    -0.205 C  
BRANCH   5   6
HETATM    6  C   UNL     1      -9.093  12.055  67.226  1.00  0.00    -0.178 C  
HETATM    7  C   UNL     1     -11.392  12.834  66.502  1.00  0.00    -0.369 C  
HETATM    8  C   UNL     1      -8.361  10.968  66.902  1.00  0.00    -0.138 C  
HETATM    9  C   UNL     1      -8.931   9.581  66.838  1.00  0.00    -0.148 C  
HETATM   10  C   UNL     1      -6.893  10.989  66.528  1.00  0.00    -0.132 C  
HETATM   11  C   UNL     1     -10.853  12.647  68.939  1.00  0.00    -0.238 C  
HETATM   12  C   UNL     1     -10.597  12.009  67.547  1.00  0.00    -0.250 C  
HETATM   13  C   UNL     1     -11.225  10.586  67.590  1.00  0.00    -0.338 C  
HETATM   14  C   UNL     1     -10.401   9.385  67.153  1.00  0.00    -0.326 C  
ENDBRANCH   5   6
ENDBRANCH   2   4
BRANCH   3  15
HETATM   15  C   UNL     1      -6.677  17.358  67.207  1.00  0.00    -0.188 C  
HETATM   16  C   UNL     1      -7.376  18.487  67.003  1.00  0.00    -0.224 C  
BRANCH  16  17
HETATM   17  C   UNL     1      -6.820  19.830  66.840  1.00  0.00    -0.224 C  
HETATM   18  C   UNL     1      -6.240  20.453  69.303  1.00  0.00    -0.300 C  
HETATM   19  O   UNL     1      -5.392  21.067  69.934  1.00  0.00    -0.430 OA 
HETATM   20  C   UNL     1      -6.360  20.611  67.839  1.00  0.00    -0.351 C  
HETATM   21  C   UNL     1      -6.683  20.422  65.448  1.00  0.00    -0.299 C  
HETATM   22  O   UNL     1      -7.154  19.665  69.887  1.00  0.00    -0.212 OA 
ENDBRANCH  16  17
ENDBRANCH   3  15
TORSDOF 4
ENDMDL
MODEL      137
REMARK 921   NORMALIZED FREE ENERGY PREDICTED BY IDOCK:   -4.20 KCAL/MOL
REMARK 922        TOTAL FREE ENERGY PREDICTED BY IDOCK:   -5.87 KCAL/MOL
REMARK 923 INTER-LIGAND FREE ENERGY PREDICTED BY IDOCK:   -5.24 KCAL/MOL
REMARK 924 INTRA-LIGAND FREE ENERGY PREDICTED BY IDOCK:   -0.63 KCAL/MOL
REMARK 927      BINDING AFFINITY PREDICTED BY RF-SCORE:    0.00 PKD
ROOT
HETATM    1  C   UNL     1      -8.030   8.100  64.982  1.00  0.00    -0.139 C  
HETATM    2  C   UNL     1      -9.076   8.549  65.975  1.00  0.00    -0.246 C  
HETATM    3  C   UNL     1      -9.220   7.938  67.173  1.00  0.00    -0.175 C  
ENDROOT
BRANCH   2   4
HETATM    4  C   UNL     1      -9.962   9.665  65.650  1.00  0.00    -0.321 C  
HETATM    5  C   UNL     1      -9.694  10.973  65.781  1.00  0.00    -0.268 C  
BRANCH   5   6
HETATM    6  C   UNL     1     -10.632  12.046  65.443  1.00  0.00    -0.319 C  
HETATM    7  C   UNL     1      -9.905  13.600  67.308  1.00  0.00    -0.241 C  
HETATM    8  C   UNL     1     -10.996  12.273  64.164  1.00  0.00    -0.415 C  
HETATM    9  C   UNL     1     -11.931  13.375  63.758  1.00  0.00    -0.517 C  
HETATM   10  C   UNL     1     -10.498  11.491  62.966  1.00  0.00    -0.255 C  
HETATM   11  C   UNL     1     -11.769  11.976  67.698  1.00  0.00    -0.365 C  
HETATM   12  C   UNL     1     -11.112  12.894  66.634  1.00  0.00    -0.316 C  
HETATM   13  C   UNL     1     -12.158  13.992  66.290  1.00  0.00    -0.482 C  
HETATM   14  C   UNL     1     -12.499  14.279  64.835  1.00  0.00    -0.403 C  
ENDBRANCH   5   6
ENDBRANCH   2   4
BRANCH   3  15
HETATM   15  C   UNL     1      -8.380   6.862  67.664  1.00  0.00    -0.123 C  
HETATM   16  C   UNL     1      -8.852   5.734  68.220  1.00  0.00    -0.109 C  
BRANCH  16  17
HETATM   17  C   UNL     1      -8.051   4.650  68.788  1.00  0.00    -0.082 C  
HETATM   18  C   UNL     1      -8.187   5.184  71.334  1.00  0.00    -0.115 C  
HETATM   19  O   UNL     1      -8.248   4.601  72.407  1.00  0.00    -0.109 OA 
HETATM   20  C   UNL     1      -7.803   4.468  70.101  1.00  0.00    -0.060 C  
HETATM   21  C   UNL     1      -7.467   3.589  67.871  1.00  0.00    -0.061 C  
HETATM   22  O   UNL     1      -8.388   6.504  71.211  1.00  0.00    -0.123 OA 
ENDBRANCH  16  17
ENDBRANCH   3  15
TORSDOF 4
ENDMDL
MODEL      138
REMARK 921   NORMALIZED FREE ENERGY PREDICTED BY IDOCK:   -4.18 KCAL/MOL
REMARK 922        TOTAL FREE ENERGY PREDICTED BY IDOCK:   -5.85 KCAL/MOL
REMARK 923 INTER-LIGAND FREE ENERGY PREDICTED BY IDOCK:   -5.19 KCAL/MOL
REMARK 924 INTRA-LIGAND FREE ENERGY PREDICTED BY IDOCK:   -0.66 KCAL/MOL
REMARK 927      BINDING AFFINITY PREDICTED BY RF-SCORE:    0.00 PKD
ROOT
HETATM    1  C   UNL     1      -7.225  11.070  67.921  1.00  0.00    -0.086 C  
HETATM    2  C   UNL     1      -8.519  10.609  68.551  1.00  0.00    -0.136 C  
HETATM    3  C   UNL     1      -9.621  11.394  68.553  1.00  0.00    -0.190 C  
ENDROOT
BRANCH   2   4
HETATM    4  C   UNL     1      -8.600   9.292  69.179  1.00  0.00    -0.134 C  
HETATM    5  C   UNL     1      -9.715   8.608  69.479  1.00  0.00    -0.179 C  
BRANCH   5   6
HETATM    6  C   UNL     1      -9.728   7.291  70.117  1.00  0.00    -0.172 C  
HETATM    7  C   UNL     1      -8.445   6.117  68.274  1.00  0.00    -0.113 C  
HETATM    8  C   UNL     1      -9.700   7.168  71.460  1.00  0.00    -0.169 C  
HETATM    9  C   UNL     1      -9.684   5.844  72.167  1.00  0.00    -0.175 C  
HETATM   10  C   UNL     1      -9.645   8.325  72.438  1.00  0.00    -0.364 C  
HETATM   11  C   UNL     1     -10.945   6.196  68.192  1.00  0.00    -0.398 C  
HETATM   12  C   UNL     1      -9.727   6.095  69.148  1.00  0.00    -0.164 C  
HETATM   13  C   UNL     1      -9.807   4.695  69.820  1.00  0.00    -0.296 C  
HETATM   14  C   UNL     1      -9.701   4.577  71.333  1.00  0.00    -0.248 C  
ENDBRANCH   5   6
ENDBRANCH   2   4
BRANCH   3  15
HETATM   15  C   UNL     1      -9.716  12.696  67.919  1.00  0.00    -0.216 C  
HETATM   16  C   UNL     1     -10.875  13.319  67.650  1.00  0.00    -0.273 C  
BRANCH  16  17
HETATM   17  C   UNL     1     -11.028  14.597  66.957  1.00  0.00    -0.317 C  
HETATM   18  C   UNL     1     -10.859  16.283  68.937  1.00  0.00    -0.317 C  
HETATM   19  O   UNL     1     -10.419  17.398  69.176  1.00  0.00    -0.341 OA 
HETATM   20  C   UNL     1     -11.016  15.811  67.546  1.00  0.00    -0.293 C  
HETATM   21  C   UNL     1     -11.170  14.619  65.445  1.00  0.00    -0.347 C  
HETATM   22  O   UNL     1     -11.292  15.450  69.895  1.00  0.00    -0.257 OA 
ENDBRANCH  16  17
ENDBRANCH   3  15
TORSDOF 4
ENDMDL
MODEL      139
REMARK 921   NORMALIZED FREE ENERGY PREDICTED BY IDOCK:   -4.17 KCAL/MOL
REMARK 922        TOTAL FREE ENERGY PREDICTED BY IDOCK:   -5.84 KCAL/MOL
REMARK 923 INTER-LIGAND FREE ENERGY PREDICTED BY IDOCK:   -5.30 KCAL/MOL
REMARK 924 INTRA-LIGAND FREE ENERGY PREDICTED BY IDOCK:   -0.53 KCAL/MOL
REMARK 927      BINDING AFFINITY PREDICTED BY RF-SCORE:    0.00 PKD
ROOT
HETATM    1  C   UNL     1     -11.084  14.745  67.201  1.00  0.00    -0.333 C  
HETATM    2  C   UNL     1      -9.687  14.198  67.022  1.00  0.00    -0.258 C  
HETATM    3  C   UNL     1      -8.672  14.981  66.591  1.00  0.00    -0.289 C  
ENDROOT
BRANCH   2   4
HETATM    4  C   UNL     1      -9.409  12.793  67.313  1.00  0.00    -0.200 C  
HETATM    5  C   UNL     1      -9.366  12.212  68.523  1.00  0.00    -0.108 C  
BRANCH   5   6
HETATM    6  C   UNL     1      -9.073  10.796  68.749  1.00  0.00    -0.180 C  
HETATM    7  C   UNL     1     -10.901   9.926  67.225  1.00  0.00    -0.268 C  
HETATM    8  C   UNL     1      -7.813  10.375  68.984  1.00  0.00    -0.120 C  
HETATM    9  C   UNL     1      -7.453   8.933  69.195  1.00  0.00    -0.073 C  
HETATM   10  C   UNL     1      -6.593  11.271  69.035  1.00  0.00    -0.079 C  
HETATM   11  C   UNL     1     -11.381  10.302  69.652  1.00  0.00    -0.315 C  
HETATM   12  C   UNL     1     -10.286   9.854  68.647  1.00  0.00    -0.217 C  
HETATM   13  C   UNL     1      -9.992   8.357  68.950  1.00  0.00    -0.194 C  
HETATM   14  C   UNL     1      -8.556   7.894  69.142  1.00  0.00    -0.138 C  
ENDBRANCH   5   6
ENDBRANCH   2   4
BRANCH   3  15
HETATM   15  C   UNL     1      -8.776  16.403  66.320  1.00  0.00    -0.369 C  
HETATM   16  C   UNL     1      -8.009  17.337  66.905  1.00  0.00    -0.257 C  
BRANCH  16  17
HETATM   17  C   UNL     1      -8.115  18.783  66.717  1.00  0.00    -0.274 C  
HETATM   18  C   UNL     1     -10.175  19.349  68.210  1.00  0.00    -0.433 C  
HETATM   19  O   UNL     1     -10.576  20.240  68.945  1.00  0.00    -0.185 OA 
HETATM   20  C   UNL     1      -9.044  19.579  67.287  1.00  0.00    -0.373 C  
HETATM   21  C   UNL     1      -7.093  19.506  65.857  1.00  0.00    -0.306 C  
HETATM   22  O   UNL     1     -10.764  18.147  68.134  1.00  0.00    -0.339 OA 
ENDBRANCH  16  17
ENDBRANCH   3  15
TORSDOF 4
ENDMDL
MODEL      140
REMARK 921   NORMALIZED FREE ENERGY PREDICTED BY IDOCK:   -4.15 KCAL/MOL
REMARK 922        TOTAL FREE ENERGY PREDICTED BY IDOCK:   -5.81 KCAL/MOL
REMARK 923 INTER-LIGAND FREE ENERGY PREDICTED BY IDOCK:   -5.50 KCAL/MOL
REMARK 924 INTRA-LIGAND FREE ENERGY PREDICTED BY IDOCK:   -0.31 KCAL/MOL
REMARK 927      BINDING AFFINITY PREDICTED BY RF-SCORE:    0.00 PKD
ROOT
HETATM    1  C   UNL     1     -10.098  15.377  67.710  1.00  0.00    -0.227 C  
HETATM    2  C   UNL     1      -8.826  14.564  67.780  1.00  0.00    -0.183 C  
HETATM    3  C   UNL     1      -7.609  15.153  67.747  1.00  0.00    -0.171 C  
ENDROOT
BRANCH   2   4
HETATM    4  C   UNL     1      -8.894  13.108  67.882  1.00  0.00    -0.196 C  
HETATM    5  C   UNL     1      -8.600  12.217  66.922  1.00  0.00    -0.191 C  
BRANCH   5   6
HETATM    6  C   UNL     1      -8.696  10.765  67.086  1.00  0.00    -0.131 C  
HETATM    7  C   UNL     1     -10.102  10.380  65.014  1.00  0.00    -0.379 C  
HETATM    8  C   UNL     1      -7.689  10.060  67.641  1.00  0.00    -0.091 C  
HETATM    9  C   UNL     1      -7.722   8.569  67.808  1.00  0.00    -0.103 C  
HETATM   10  C   UNL     1      -6.384  10.650  68.136  1.00  0.00    -0.058 C  
HETATM   11  C   UNL     1     -11.219  10.789  67.216  1.00  0.00    -0.272 C  
HETATM   12  C   UNL     1      -9.987  10.130  66.540  1.00  0.00    -0.283 C  
HETATM   13  C   UNL     1     -10.123   8.598  66.771  1.00  0.00    -0.366 C  
HETATM   14  C   UNL     1      -8.947   7.813  67.332  1.00  0.00    -0.128 C  
ENDBRANCH   5   6
ENDBRANCH   2   4
BRANCH   3  15
HETATM   15  C   UNL     1      -7.380  16.585  67.710  1.00  0.00    -0.154 C  
HETATM   16  C   UNL     1      -7.934  17.459  68.566  1.00  0.00    -0.266 C  
BRANCH  16  17
HETATM   17  C   UNL     1      -7.787  18.913  68.533  1.00  0.00    -0.373 C  
HETATM   18  C   UNL     1      -9.537  19.568  66.716  1.00  0.00    -0.357 C  
HETATM   19  O   UNL     1     -10.332  20.462  66.468  1.00  0.00    -0.362 OA 
HETATM   20  C   UNL     1      -8.484  19.750  67.736  1.00  0.00    -0.359 C  
HETATM   21  C   UNL     1      -6.819  19.592  69.486  1.00  0.00    -0.350 C  
HETATM   22  O   UNL     1      -9.512  18.408  66.044  1.00  0.00    -0.498 OA 
ENDBRANCH  16  17
ENDBRANCH   3  15
TORSDOF 4
ENDMDL
MODEL      141
REMARK 921   NORMALIZED FREE ENERGY PREDICTED BY IDOCK:   -4.14 KCAL/MOL
REMARK 922        TOTAL FREE ENERGY PREDICTED BY IDOCK:   -5.80 KCAL/MOL
REMARK 923 INTER-LIGAND FREE ENERGY PREDICTED BY IDOCK:   -5.53 KCAL/MOL
REMARK 924 INTRA-LIGAND FREE ENERGY PREDICTED BY IDOCK:   -0.27 KCAL/MOL
REMARK 927      BINDING AFFINITY PREDICTED BY RF-SCORE:    0.00 PKD
ROOT
HETATM    1  C   UNL     1     -10.545  10.200  70.277  1.00  0.00    -0.324 C  
HETATM    2  C   UNL     1     -10.511   9.421  68.982  1.00  0.00    -0.233 C  
HETATM    3  C   UNL     1     -10.565  10.044  67.783  1.00  0.00    -0.311 C  
ENDROOT
BRANCH   2   4
HETATM    4  C   UNL     1     -10.422   7.963  69.008  1.00  0.00    -0.210 C  
HETATM    5  C   UNL     1      -9.460   7.223  69.582  1.00  0.00    -0.155 C  
BRANCH   5   6
HETATM    6  C   UNL     1      -9.424   5.760  69.566  1.00  0.00    -0.168 C  
HETATM    7  C   UNL     1     -10.038   5.474  72.007  1.00  0.00    -0.233 C  
HETATM    8  C   UNL     1      -9.766   5.068  68.459  1.00  0.00    -0.215 C  
HETATM    9  C   UNL     1      -9.774   3.568  68.394  1.00  0.00    -0.050 C  
HETATM   10  C   UNL     1     -10.219   5.688  67.153  1.00  0.00    -0.255 C  
HETATM   11  C   UNL     1      -7.631   5.627  71.341  1.00  0.00    -0.104 C  
HETATM   12  C   UNL     1      -9.022   5.100  70.897  1.00  0.00    -0.162 C  
HETATM   13  C   UNL     1      -8.918   3.549  70.866  1.00  0.00    -0.161 C  
HETATM   14  C   UNL     1      -9.377   2.787  69.632  1.00  0.00    -0.198 C  
ENDBRANCH   5   6
ENDBRANCH   2   4
BRANCH   3  15
HETATM   15  C   UNL     1     -10.594  11.482  67.594  1.00  0.00    -0.235 C  
HETATM   16  C   UNL     1     -11.709  12.228  67.665  1.00  0.00    -0.403 C  
BRANCH  16  17
HETATM   17  C   UNL     1     -11.804  13.666  67.419  1.00  0.00    -0.429 C  
HETATM   18  C   UNL     1     -11.514  14.623  69.826  1.00  0.00    -0.282 C  
HETATM   19  O   UNL     1     -11.011  15.582  70.393  1.00  0.00    -0.296 OA 
HETATM   20  C   UNL     1     -11.717  14.627  68.362  1.00  0.00    -0.352 C  
HETATM   21  C   UNL     1     -11.966  14.176  65.997  1.00  0.00    -0.427 C  
HETATM   22  O   UNL     1     -11.977  13.549  70.482  1.00  0.00    -0.326 OA 
ENDBRANCH  16  17
ENDBRANCH   3  15
TORSDOF 4
ENDMDL
MODEL      142
REMARK 921   NORMALIZED FREE ENERGY PREDICTED BY IDOCK:   -4.12 KCAL/MOL
REMARK 922        TOTAL FREE ENERGY PREDICTED BY IDOCK:   -5.77 KCAL/MOL
REMARK 923 INTER-LIGAND FREE ENERGY PREDICTED BY IDOCK:   -5.04 KCAL/MOL
REMARK 924 INTRA-LIGAND FREE ENERGY PREDICTED BY IDOCK:   -0.74 KCAL/MOL
REMARK 927      BINDING AFFINITY PREDICTED BY RF-SCORE:    0.00 PKD
ROOT
HETATM    1  C   UNL     1      -9.889  11.690  67.050  1.00  0.00    -0.211 C  
HETATM    2  C   UNL     1     -10.575  10.434  67.534  1.00  0.00    -0.312 C  
HETATM    3  C   UNL     1     -11.568  10.483  68.451  1.00  0.00    -0.205 C  
ENDROOT
BRANCH   2   4
HETATM    4  C   UNL     1     -10.169   9.131  67.014  1.00  0.00    -0.333 C  
HETATM    5  C   UNL     1      -9.065   8.440  67.341  1.00  0.00    -0.152 C  
BRANCH   5   6
HETATM    6  C   UNL     1      -8.709   7.138  66.776  1.00  0.00    -0.128 C  
HETATM    7  C   UNL     1      -6.318   7.761  66.216  1.00  0.00    -0.046 C  
HETATM    8  C   UNL     1      -9.262   6.001  67.246  1.00  0.00    -0.114 C  
HETATM    9  C   UNL     1      -8.915   4.638  66.724  1.00  0.00    -0.112 C  
HETATM   10  C   UNL     1     -10.270   5.928  68.375  1.00  0.00    -0.236 C  
HETATM   11  C   UNL     1      -8.122   8.102  64.515  1.00  0.00    -0.142 C  
HETATM   12  C   UNL     1      -7.645   7.175  65.665  1.00  0.00    -0.093 C  
HETATM   13  C   UNL     1      -7.311   5.801  65.016  1.00  0.00    -0.075 C  
HETATM   14  C   UNL     1      -7.892   4.527  65.610  1.00  0.00    -0.094 C  
ENDBRANCH   5   6
ENDBRANCH   2   4
BRANCH   3  15
HETATM   15  C   UNL     1     -12.122  11.700  69.014  1.00  0.00    -0.288 C  
HETATM   16  C   UNL     1     -11.766  12.209  70.204  1.00  0.00    -0.301 C  
BRANCH  16  17
HETATM   17  C   UNL     1     -12.338  13.393  70.844  1.00  0.00    -0.436 C  
HETATM   18  C   UNL     1     -11.267  15.309  69.440  1.00  0.00    -0.285 C  
HETATM   19  O   UNL     1     -11.551  16.415  69.004  1.00  0.00    -0.276 OA 
HETATM   20  C   UNL     1     -12.093  14.670  70.485  1.00  0.00    -0.388 C  
HETATM   21  C   UNL     1     -13.330  13.225  71.982  1.00  0.00    -0.582 C  
HETATM   22  O   UNL     1     -10.167  14.638  69.066  1.00  0.00    -0.229 OA 
ENDBRANCH  16  17
ENDBRANCH   3  15
TORSDOF 4
ENDMDL
MODEL      143
REMARK 921   NORMALIZED FREE ENERGY PREDICTED BY IDOCK:   -4.09 KCAL/MOL
REMARK 922        TOTAL FREE ENERGY PREDICTED BY IDOCK:   -5.74 KCAL/MOL
REMARK 923 INTER-LIGAND FREE ENERGY PREDICTED BY IDOCK:   -5.01 KCAL/MOL
REMARK 924 INTRA-LIGAND FREE ENERGY PREDICTED BY IDOCK:   -0.73 KCAL/MOL
REMARK 927      BINDING AFFINITY PREDICTED BY RF-SCORE:    0.00 PKD
ROOT
HETATM    1  C   UNL     1      -9.301   8.731  68.005  1.00  0.00    -0.153 C  
HETATM    2  C   UNL     1      -9.090  10.044  68.722  1.00  0.00    -0.148 C  
HETATM    3  C   UNL     1      -8.811  10.088  70.044  1.00  0.00    -0.117 C  
ENDROOT
BRANCH   2   4
HETATM    4  C   UNL     1      -9.187  11.303  67.986  1.00  0.00    -0.160 C  
HETATM    5  C   UNL     1      -9.423  12.521  68.499  1.00  0.00    -0.100 C  
BRANCH   5   6
HETATM    6  C   UNL     1      -9.517  13.747  67.704  1.00  0.00    -0.217 C  
HETATM    7  C   UNL     1     -11.778  14.448  68.608  1.00  0.00    -0.367 C  
HETATM    8  C   UNL     1      -8.414  14.451  67.379  1.00  0.00    -0.216 C  
HETATM    9  C   UNL     1      -8.454  15.727  66.590  1.00  0.00    -0.323 C  
HETATM   10  C   UNL     1      -7.000  14.086  67.783  1.00  0.00    -0.188 C  
HETATM   11  C   UNL     1     -11.648  13.024  66.554  1.00  0.00    -0.407 C  
HETATM   12  C   UNL     1     -10.947  14.173  67.327  1.00  0.00    -0.304 C  
HETATM   13  C   UNL     1     -11.049  15.438  66.428  1.00  0.00    -0.230 C  
HETATM   14  C   UNL     1      -9.800  16.256  66.134  1.00  0.00    -0.358 C  
ENDBRANCH   5   6
ENDBRANCH   2   4
BRANCH   3  15
HETATM   15  C   UNL     1      -8.622   8.927  70.894  1.00  0.00    -0.242 C  
HETATM   16  C   UNL     1      -9.590   8.383  71.649  1.00  0.00    -0.288 C  
BRANCH  16  17
HETATM   17  C   UNL     1      -9.438   7.257  72.569  1.00  0.00    -0.180 C  
HETATM   18  C   UNL     1      -9.807   5.230  70.973  1.00  0.00    -0.191 C  
HETATM   19  O   UNL     1      -9.400   4.090  70.806  1.00  0.00    -0.119 OA 
HETATM   20  C   UNL     1      -9.540   5.954  72.233  1.00  0.00    -0.165 C  
HETATM   21  C   UNL     1      -9.089   7.518  74.024  1.00  0.00    -0.295 C  
HETATM   22  O   UNL     1     -10.572   5.870  70.077  1.00  0.00    -0.240 OA 
ENDBRANCH  16  17
ENDBRANCH   3  15
TORSDOF 4
ENDMDL
MODEL      144
REMARK 921   NORMALIZED FREE ENERGY PREDICTED BY IDOCK:   -4.07 KCAL/MOL
REMARK 922        TOTAL FREE ENERGY PREDICTED BY IDOCK:   -5.71 KCAL/MOL
REMARK 923 INTER-LIGAND FREE ENERGY PREDICTED BY IDOCK:   -5.21 KCAL/MOL
REMARK 924 INTRA-LIGAND FREE ENERGY PREDICTED BY IDOCK:   -0.50 KCAL/MOL
REMARK 927      BINDING AFFINITY PREDICTED BY RF-SCORE:    0.00 PKD
ROOT
HETATM    1  C   UNL     1     -10.225  10.143  68.030  1.00  0.00    -0.205 C  
HETATM    2  C   UNL     1      -9.934   9.215  66.874  1.00  0.00    -0.304 C  
HETATM    3  C   UNL     1     -10.015   9.638  65.592  1.00  0.00    -0.321 C  
ENDROOT
BRANCH   2   4
HETATM    4  C   UNL     1      -9.558   7.825  67.127  1.00  0.00    -0.220 C  
HETATM    5  C   UNL     1      -8.692   7.082  66.421  1.00  0.00    -0.148 C  
BRANCH   5   6
HETATM    6  C   UNL     1      -8.364   5.688  66.723  1.00  0.00    -0.108 C  
HETATM    7  C   UNL     1      -8.934   4.800  64.419  1.00  0.00    -0.117 C  
HETATM    8  C   UNL     1      -7.383   5.378  67.596  1.00  0.00    -0.076 C  
HETATM    9  C   UNL     1      -6.986   3.968  67.922  1.00  0.00    -0.055 C  
HETATM   10  C   UNL     1      -6.528   6.386  68.336  1.00  0.00    -0.049 C  
HETATM   11  C   UNL     1     -10.693   4.861  66.199  1.00  0.00    -0.243 C  
HETATM   12  C   UNL     1      -9.178   4.641  65.943  1.00  0.00    -0.144 C  
HETATM   13  C   UNL     1      -8.879   3.159  66.308  1.00  0.00    -0.143 C  
HETATM   14  C   UNL     1      -7.722   2.831  67.240  1.00  0.00    -0.069 C  
ENDBRANCH   5   6
ENDBRANCH   2   4
BRANCH   3  15
HETATM   15  C   UNL     1     -10.315  10.998  65.183  1.00  0.00    -0.346 C  
HETATM   16  C   UNL     1     -11.497  11.602  65.389  1.00  0.00    -0.170 C  
BRANCH  16  17
HETATM   17  C   UNL     1     -11.871  12.943  64.941  1.00  0.00    -0.409 C  
HETATM   18  C   UNL     1     -11.775  14.281  67.175  1.00  0.00    -0.404 C  
HETATM   19  O   UNL     1     -11.470  15.392  67.583  1.00  0.00    -0.326 OA 
HETATM   20  C   UNL     1     -11.974  14.030  65.733  1.00  0.00    -0.417 C  
HETATM   21  C   UNL     1     -12.130  13.197  63.466  1.00  0.00    -0.585 C  
HETATM   22  O   UNL     1     -12.019  13.246  67.992  1.00  0.00    -0.350 OA 
ENDBRANCH  16  17
ENDBRANCH   3  15
TORSDOF 4
ENDMDL
MODEL      145
REMARK 921   NORMALIZED FREE ENERGY PREDICTED BY IDOCK:   -4.05 KCAL/MOL
REMARK 922        TOTAL FREE ENERGY PREDICTED BY IDOCK:   -5.69 KCAL/MOL
REMARK 923 INTER-LIGAND FREE ENERGY PREDICTED BY IDOCK:   -5.13 KCAL/MOL
REMARK 924 INTRA-LIGAND FREE ENERGY PREDICTED BY IDOCK:   -0.56 KCAL/MOL
REMARK 927      BINDING AFFINITY PREDICTED BY RF-SCORE:    0.00 PKD
ROOT
HETATM    1  C   UNL     1      -7.432  11.153  68.698  1.00  0.00    -0.119 C  
HETATM    2  C   UNL     1      -8.815  11.707  68.446  1.00  0.00    -0.161 C  
HETATM    3  C   UNL     1      -9.925  11.029  68.817  1.00  0.00    -0.215 C  
ENDROOT
BRANCH   2   4
HETATM    4  C   UNL     1      -8.976  13.000  67.784  1.00  0.00    -0.191 C  
HETATM    5  C   UNL     1      -8.942  14.211  68.361  1.00  0.00    -0.189 C  
BRANCH   5   6
HETATM    6  C   UNL     1      -9.118  15.473  67.640  1.00  0.00    -0.183 C  
HETATM    7  C   UNL     1     -11.231  16.156  68.862  1.00  0.00    -0.351 C  
HETATM    8  C   UNL     1      -8.056  16.180  67.205  1.00  0.00    -0.223 C  
HETATM    9  C   UNL     1      -8.178  17.492  66.486  1.00  0.00    -0.311 C  
HETATM   10  C   UNL     1      -6.607  15.783  67.403  1.00  0.00    -0.215 C  
HETATM   11  C   UNL     1     -11.392  14.826  66.748  1.00  0.00    -0.347 C  
HETATM   12  C   UNL     1     -10.578  15.931  67.473  1.00  0.00    -0.315 C  
HETATM   13  C   UNL     1     -10.775  17.237  66.651  1.00  0.00    -0.080 C  
HETATM   14  C   UNL     1      -9.563  18.055  66.233  1.00  0.00    -0.246 C  
ENDBRANCH   5   6
ENDBRANCH   2   4
BRANCH   3  15
HETATM   15  C   UNL     1      -9.927   9.767  69.535  1.00  0.00    -0.230 C  
HETATM   16  C   UNL     1     -10.886   8.835  69.414  1.00  0.00    -0.123 C  
BRANCH  16  17
HETATM   17  C   UNL     1     -10.971   7.580  70.159  1.00  0.00    -0.267 C  
HETATM   18  C   UNL     1     -10.541   5.830  68.277  1.00  0.00    -0.217 C  
HETATM   19  O   UNL     1      -9.994   4.748  68.118  1.00  0.00    -0.145 OA 
HETATM   20  C   UNL     1     -10.819   6.347  69.633  1.00  0.00    -0.380 C  
HETATM   21  C   UNL     1     -11.199   7.613  71.661  1.00  0.00    -0.282 C  
HETATM   22  O   UNL     1     -10.986   6.578  67.258  1.00  0.00    -0.344 OA 
ENDBRANCH  16  17
ENDBRANCH   3  15
TORSDOF 4
ENDMDL
MODEL      146
REMARK 921   NORMALIZED FREE ENERGY PREDICTED BY IDOCK:   -4.04 KCAL/MOL
REMARK 922        TOTAL FREE ENERGY PREDICTED BY IDOCK:   -5.68 KCAL/MOL
REMARK 923 INTER-LIGAND FREE ENERGY PREDICTED BY IDOCK:   -5.22 KCAL/MOL
REMARK 924 INTRA-LIGAND FREE ENERGY PREDICTED BY IDOCK:   -0.46 KCAL/MOL
REMARK 927      BINDING AFFINITY PREDICTED BY RF-SCORE:    0.00 PKD
ROOT
HETATM    1  C   UNL     1      -7.706  13.611  68.697  1.00  0.00    -0.107 C  
HETATM    2  C   UNL     1      -9.163  13.428  68.341  1.00  0.00    -0.149 C  
HETATM    3  C   UNL     1      -9.957  14.485  68.056  1.00  0.00    -0.222 C  
ENDROOT
BRANCH   2   4
HETATM    4  C   UNL     1      -9.744  12.088  68.303  1.00  0.00    -0.205 C  
HETATM    5  C   UNL     1      -9.085  10.920  68.379  1.00  0.00    -0.164 C  
BRANCH   5   6
HETATM    6  C   UNL     1      -9.728   9.606  68.326  1.00  0.00    -0.162 C  
HETATM    7  C   UNL     1     -11.350  10.054  70.220  1.00  0.00    -0.376 C  
HETATM    8  C   UNL     1      -9.859   8.942  67.160  1.00  0.00    -0.267 C  
HETATM    9  C   UNL     1     -10.532   7.606  67.043  1.00  0.00    -0.419 C  
HETATM   10  C   UNL     1      -9.387   9.451  65.812  1.00  0.00    -0.301 C  
HETATM   11  C   UNL     1      -9.116   9.038  70.711  1.00  0.00    -0.297 C  
HETATM   12  C   UNL     1     -10.268   9.088  69.672  1.00  0.00    -0.211 C  
HETATM   13  C   UNL     1     -10.892   7.664  69.633  1.00  0.00    -0.195 C  
HETATM   14  C   UNL     1     -11.095   6.965  68.297  1.00  0.00    -0.152 C  
ENDBRANCH   5   6
ENDBRANCH   2   4
BRANCH   3  15
HETATM   15  C   UNL     1      -9.514  15.865  67.993  1.00  0.00    -0.206 C  
HETATM   16  C   UNL     1      -9.560  16.619  66.883  1.00  0.00    -0.259 C  
BRANCH  16  17
HETATM   17  C   UNL     1      -9.069  17.990  66.750  1.00  0.00    -0.280 C  
HETATM   18  C   UNL     1      -6.497  17.606  66.589  1.00  0.00    -0.204 C  
HETATM   19  O   UNL     1      -5.519  18.070  66.021  1.00  0.00    -0.162 OA 
HETATM   20  C   UNL     1      -7.773  18.348  66.631  1.00  0.00    -0.258 C  
HETATM   21  C   UNL     1     -10.060  19.140  66.686  1.00  0.00    -0.469 C  
HETATM   22  O   UNL     1      -6.465  16.448  67.265  1.00  0.00    -0.157 OA 
ENDBRANCH  16  17
ENDBRANCH   3  15
TORSDOF 4
ENDMDL
MODEL      147
REMARK 921   NORMALIZED FREE ENERGY PREDICTED BY IDOCK:   -4.04 KCAL/MOL
REMARK 922        TOTAL FREE ENERGY PREDICTED BY IDOCK:   -5.68 KCAL/MOL
REMARK 923 INTER-LIGAND FREE ENERGY PREDICTED BY IDOCK:   -5.36 KCAL/MOL
REMARK 924 INTRA-LIGAND FREE ENERGY PREDICTED BY IDOCK:   -0.32 KCAL/MOL
REMARK 927      BINDING AFFINITY PREDICTED BY RF-SCORE:    0.00 PKD
ROOT
HETATM    1  C   UNL     1      -9.958   9.758  68.944  1.00  0.00    -0.183 C  
HETATM    2  C   UNL     1     -10.081   9.925  67.448  1.00  0.00    -0.254 C  
HETATM    3  C   UNL     1      -9.792   8.912  66.599  1.00  0.00    -0.332 C  
ENDROOT
BRANCH   2   4
HETATM    4  C   UNL     1     -10.516  11.203  66.887  1.00  0.00    -0.289 C  
HETATM    5  C   UNL     1      -9.746  12.126  66.290  1.00  0.00    -0.251 C  
BRANCH   5   6
HETATM    6  C   UNL     1     -10.244  13.394  65.754  1.00  0.00    -0.300 C  
HETATM    7  C   UNL     1     -12.558  12.527  65.193  1.00  0.00    -0.358 C  
HETATM    8  C   UNL     1      -9.813  14.574  66.246  1.00  0.00    -0.322 C  
HETATM    9  C   UNL     1     -10.310  15.902  65.753  1.00  0.00    -0.396 C  
HETATM   10  C   UNL     1      -8.811  14.733  67.371  1.00  0.00    -0.203 C  
HETATM   11  C   UNL     1     -10.740  12.417  63.477  1.00  0.00    -0.473 C  
HETATM   12  C   UNL     1     -11.306  13.264  64.648  1.00  0.00    -0.372 C  
HETATM   13  C   UNL     1     -11.790  14.607  64.030  1.00  0.00    -0.135 C  
HETATM   14  C   UNL     1     -11.347  15.924  64.647  1.00  0.00    -0.328 C  
ENDBRANCH   5   6
ENDBRANCH   2   4
BRANCH   3  15
HETATM   15  C   UNL     1      -9.408   7.573  67.004  1.00  0.00    -0.186 C  
HETATM   16  C   UNL     1     -10.180   6.486  66.835  1.00  0.00    -0.279 C  
BRANCH  16  17
HETATM   17  C   UNL     1      -9.869   5.129  67.281  1.00  0.00    -0.191 C  
HETATM   18  C   UNL     1      -9.988   3.807  65.038  1.00  0.00    -0.152 C  
HETATM   19  O   UNL     1      -9.436   2.871  64.478  1.00  0.00    -0.142 OA 
HETATM   20  C   UNL     1      -9.804   4.041  66.485  1.00  0.00    -0.175 C  
HETATM   21  C   UNL     1      -9.540   4.875  68.742  1.00  0.00    -0.219 C  
HETATM   22  O   UNL     1     -10.841   4.631  64.412  1.00  0.00     0.180 OA 
ENDBRANCH  16  17
ENDBRANCH   3  15
TORSDOF 4
ENDMDL
MODEL      148
REMARK 921   NORMALIZED FREE ENERGY PREDICTED BY IDOCK:   -4.04 KCAL/MOL
REMARK 922        TOTAL FREE ENERGY PREDICTED BY IDOCK:   -5.68 KCAL/MOL
REMARK 923 INTER-LIGAND FREE ENERGY PREDICTED BY IDOCK:   -6.08 KCAL/MOL
REMARK 924 INTRA-LIGAND FREE ENERGY PREDICTED BY IDOCK:    0.40 KCAL/MOL
REMARK 927      BINDING AFFINITY PREDICTED BY RF-SCORE:    0.00 PKD
ROOT
HETATM    1  C   UNL     1      -8.680   8.701  67.192  1.00  0.00    -0.134 C  
HETATM    2  C   UNL     1      -9.834   8.859  68.155  1.00  0.00    -0.193 C  
HETATM    3  C   UNL     1     -10.805   9.777  67.947  1.00  0.00    -0.298 C  
ENDROOT
BRANCH   2   4
HETATM    4  C   UNL     1      -9.916   8.013  69.344  1.00  0.00    -0.190 C  
HETATM    5  C   UNL     1     -10.898   7.151  69.654  1.00  0.00    -0.254 C  
BRANCH   5   6
HETATM    6  C   UNL     1     -10.925   6.336  70.869  1.00  0.00    -0.344 C  
HETATM    7  C   UNL     1     -13.274   6.997  71.552  1.00  0.00    -0.382 C  
HETATM    8  C   UNL     1     -10.258   5.165  70.936  1.00  0.00    -0.299 C  
HETATM    9  C   UNL     1     -10.274   4.276  72.145  1.00  0.00    -0.234 C  
HETATM   10  C   UNL     1      -9.439   4.566  69.811  1.00  0.00    -0.247 C  
HETATM   11  C   UNL     1     -11.318   8.321  72.382  1.00  0.00    -0.457 C  
HETATM   12  C   UNL     1     -11.795   6.892  72.011  1.00  0.00    -0.345 C  
HETATM   13  C   UNL     1     -11.776   6.063  73.326  1.00  0.00     0.430 C  
HETATM   14  C   UNL     1     -11.077   4.712  73.355  1.00  0.00    -0.418 C  
ENDBRANCH   5   6
ENDBRANCH   2   4
BRANCH   3  15
HETATM   15  C   UNL     1     -10.895  10.645  66.787  1.00  0.00    -0.233 C  
HETATM   16  C   UNL     1     -11.522  11.832  66.783  1.00  0.00    -0.352 C  
BRANCH  16  17
HETATM   17  C   UNL     1     -11.697  12.713  65.629  1.00  0.00    -0.458 C  
HETATM   18  C   UNL     1      -9.960  11.726  63.956  1.00  0.00    -0.293 C  
HETATM   19  O   UNL     1      -9.827  11.534  62.756  1.00  0.00    -0.307 OA 
HETATM   20  C   UNL     1     -11.014  12.625  64.469  1.00  0.00    -0.365 C  
HETATM   21  C   UNL     1     -12.754  13.803  65.670  1.00  0.00    -0.523 C  
HETATM   22  O   UNL     1      -9.132  11.205  64.873  1.00  0.00    -0.179 OA 
ENDBRANCH  16  17
ENDBRANCH   3  15
TORSDOF 4
ENDMDL
MODEL      149
REMARK 921   NORMALIZED FREE ENERGY PREDICTED BY IDOCK:   -4.03 KCAL/MOL
REMARK 922        TOTAL FREE ENERGY PREDICTED BY IDOCK:   -5.66 KCAL/MOL
REMARK 923 INTER-LIGAND FREE ENERGY PREDICTED BY IDOCK:   -5.01 KCAL/MOL
REMARK 924 INTRA-LIGAND FREE ENERGY PREDICTED BY IDOCK:   -0.65 KCAL/MOL
REMARK 927      BINDING AFFINITY PREDICTED BY RF-SCORE:    0.00 PKD
ROOT
HETATM    1  C   UNL     1      -7.670   8.848  64.158  1.00  0.00    -0.127 C  
HETATM    2  C   UNL     1      -8.722   8.937  65.239  1.00  0.00    -0.220 C  
HETATM    3  C   UNL     1      -9.125   7.842  65.923  1.00  0.00    -0.139 C  
ENDROOT
BRANCH   2   4
HETATM    4  C   UNL     1      -9.330  10.226  65.564  1.00  0.00    -0.250 C  
HETATM    5  C   UNL     1     -10.563  10.436  66.053  1.00  0.00    -0.136 C  
BRANCH   5   6
HETATM    6  C   UNL     1     -11.117  11.757  66.351  1.00  0.00    -0.360 C  
HETATM    7  C   UNL     1      -9.409  12.342  68.129  1.00  0.00    -0.205 C  
HETATM    8  C   UNL     1     -11.714  12.494  65.391  1.00  0.00    -0.444 C  
HETATM    9  C   UNL     1     -12.275  13.864  65.634  1.00  0.00    -0.477 C  
HETATM   10  C   UNL     1     -11.871  12.072  63.944  1.00  0.00    -0.543 C  
HETATM   11  C   UNL     1     -11.542  11.205  68.780  1.00  0.00    -0.389 C  
HETATM   12  C   UNL     1     -10.922  12.237  67.800  1.00  0.00    -0.274 C  
HETATM   13  C   UNL     1     -11.566  13.611  68.139  1.00  0.00    -0.367 C  
HETATM   14  C   UNL     1     -12.169  14.455  67.026  1.00  0.00    -0.274 C  
ENDBRANCH   5   6
ENDBRANCH   2   4
BRANCH   3  15
HETATM   15  C   UNL     1      -8.574   6.510  65.759  1.00  0.00    -0.149 C  
HETATM   16  C   UNL     1      -9.221   5.382  66.097  1.00  0.00    -0.162 C  
BRANCH  16  17
HETATM   17  C   UNL     1      -8.688   4.023  66.013  1.00  0.00    -0.116 C  
HETATM   18  C   UNL     1      -7.719   3.697  68.410  1.00  0.00    -0.060 C  
HETATM   19  O   UNL     1      -7.587   2.819  69.250  1.00  0.00    -0.044 OA 
HETATM   20  C   UNL     1      -8.066   3.364  67.013  1.00  0.00    -0.083 C  
HETATM   21  C   UNL     1      -8.866   3.225  64.733  1.00  0.00    -0.119 C  
HETATM   22  O   UNL     1      -7.490   4.993  68.668  1.00  0.00    -0.068 OA 
ENDBRANCH  16  17
ENDBRANCH   3  15
TORSDOF 4
ENDMDL
MODEL      150
REMARK 921   NORMALIZED FREE ENERGY PREDICTED BY IDOCK:   -3.97 KCAL/MOL
REMARK 922        TOTAL FREE ENERGY PREDICTED BY IDOCK:   -5.60 KCAL/MOL
REMARK 923 INTER-LIGAND FREE ENERGY PREDICTED BY IDOCK:   -5.26 KCAL/MOL
REMARK 924 INTRA-LIGAND FREE ENERGY PREDICTED BY IDOCK:   -0.34 KCAL/MOL
REMARK 927      BINDING AFFINITY PREDICTED BY RF-SCORE:    0.00 PKD
ROOT
HETATM    1  C   UNL     1      -8.543  11.801  66.669  1.00  0.00    -0.170 C  
HETATM    2  C   UNL     1      -9.615  10.789  67.000  1.00  0.00    -0.195 C  
HETATM    3  C   UNL     1     -10.880  11.171  67.288  1.00  0.00    -0.326 C  
ENDROOT
BRANCH   2   4
HETATM    4  C   UNL     1      -9.296   9.363  67.019  1.00  0.00    -0.185 C  
HETATM    5  C   UNL     1      -9.443   8.490  66.010  1.00  0.00    -0.256 C  
BRANCH   5   6
HETATM    6  C   UNL     1      -9.110   7.067  66.096  1.00  0.00    -0.149 C  
HETATM    7  C   UNL     1      -6.600   7.400  65.996  1.00  0.00    -0.049 C  
HETATM    8  C   UNL     1      -9.883   6.212  66.797  1.00  0.00    -0.203 C  
HETATM    9  C   UNL     1      -9.574   4.751  66.941  1.00  0.00    -0.185 C  
HETATM   10  C   UNL     1     -11.134   6.599  67.559  1.00  0.00    -0.374 C  
HETATM   11  C   UNL     1      -7.893   7.057  63.881  1.00  0.00    -0.106 C  
HETATM   12  C   UNL     1      -7.812   6.655  65.378  1.00  0.00    -0.111 C  
HETATM   13  C   UNL     1      -7.488   5.134  65.411  1.00  0.00    -0.077 C  
HETATM   14  C   UNL     1      -8.332   4.202  66.266  1.00  0.00    -0.105 C  
ENDBRANCH   5   6
ENDBRANCH   2   4
BRANCH   3  15
HETATM   15  C   UNL     1     -11.365  12.538  67.251  1.00  0.00    -0.373 C  
HETATM   16  C   UNL     1     -10.765  13.566  67.873  1.00  0.00    -0.258 C  
BRANCH  16  17
HETATM   17  C   UNL     1     -11.245  14.946  67.921  1.00  0.00    -0.324 C  
HETATM   18  C   UNL     1     -10.614  15.798  65.540  1.00  0.00    -0.406 C  
HETATM   19  O   UNL     1     -11.046  16.541  64.672  1.00  0.00    -0.699 OA 
HETATM   20  C   UNL     1     -11.155  15.840  66.914  1.00  0.00    -0.133 C  
HETATM   21  C   UNL     1     -11.954  15.452  69.166  1.00  0.00    -0.324 C  
HETATM   22  O   UNL     1      -9.589  14.957  65.336  1.00  0.00    -0.252 OA 
ENDBRANCH  16  17
ENDBRANCH   3  15
TORSDOF 4
ENDMDL
MODEL      151
REMARK 921   NORMALIZED FREE ENERGY PREDICTED BY IDOCK:   -3.96 KCAL/MOL
REMARK 922        TOTAL FREE ENERGY PREDICTED BY IDOCK:   -5.57 KCAL/MOL
REMARK 923 INTER-LIGAND FREE ENERGY PREDICTED BY IDOCK:   -4.95 KCAL/MOL
REMARK 924 INTRA-LIGAND FREE ENERGY PREDICTED BY IDOCK:   -0.63 KCAL/MOL
REMARK 927      BINDING AFFINITY PREDICTED BY RF-SCORE:    0.00 PKD
ROOT
HETATM    1  C   UNL     1      -9.662   9.689  70.334  1.00  0.00    -0.304 C  
HETATM    2  C   UNL     1      -9.498   9.535  68.840  1.00  0.00    -0.155 C  
HETATM    3  C   UNL     1      -9.280   8.326  68.276  1.00  0.00    -0.135 C  
ENDROOT
BRANCH   2   4
HETATM    4  C   UNL     1      -9.570  10.708  67.971  1.00  0.00    -0.167 C  
HETATM    5  C   UNL     1     -10.681  11.316  67.527  1.00  0.00    -0.275 C  
BRANCH   5   6
HETATM    6  C   UNL     1     -10.686  12.487  66.649  1.00  0.00    -0.261 C  
HETATM    7  C   UNL     1      -9.513  14.023  68.288  1.00  0.00    -0.216 C  
HETATM    8  C   UNL     1     -10.596  12.353  65.310  1.00  0.00    -0.322 C  
HETATM    9  C   UNL     1     -10.568  13.519  64.365  1.00  0.00    -0.394 C  
HETATM   10  C   UNL     1     -10.474  11.034  64.575  1.00  0.00    -0.411 C  
HETATM   11  C   UNL     1     -12.013  13.896  68.275  1.00  0.00    -0.392 C  
HETATM   12  C   UNL     1     -10.752  13.845  67.371  1.00  0.00    -0.275 C  
HETATM   13  C   UNL     1     -10.823  15.090  66.441  1.00  0.00    -0.326 C  
HETATM   14  C   UNL     1     -10.647  14.920  64.940  1.00  0.00    -0.417 C  
ENDBRANCH   5   6
ENDBRANCH   2   4
BRANCH   3  15
HETATM   15  C   UNL     1      -9.243   7.066  68.996  1.00  0.00    -0.137 C  
HETATM   16  C   UNL     1      -8.374   6.076  68.735  1.00  0.00    -0.106 C  
BRANCH  16  17
HETATM   17  C   UNL     1      -8.336   4.767  69.385  1.00  0.00    -0.079 C  
HETATM   18  C   UNL     1      -8.789   3.176  67.371  1.00  0.00    -0.137 C  
HETATM   19  O   UNL     1      -8.458   2.073  66.963  1.00  0.00    -0.081 OA 
HETATM   20  C   UNL     1      -8.519   3.582  68.766  1.00  0.00    -0.103 C  
HETATM   21  C   UNL     1      -8.023   4.673  70.868  1.00  0.00    -0.081 C  
HETATM   22  O   UNL     1      -9.473   4.055  66.624  1.00  0.00    -0.171 OA 
ENDBRANCH  16  17
ENDBRANCH   3  15
TORSDOF 4
ENDMDL
MODEL      152
REMARK 921   NORMALIZED FREE ENERGY PREDICTED BY IDOCK:   -3.95 KCAL/MOL
REMARK 922        TOTAL FREE ENERGY PREDICTED BY IDOCK:   -5.57 KCAL/MOL
REMARK 923 INTER-LIGAND FREE ENERGY PREDICTED BY IDOCK:   -4.86 KCAL/MOL
REMARK 924 INTRA-LIGAND FREE ENERGY PREDICTED BY IDOCK:   -0.71 KCAL/MOL
REMARK 927      BINDING AFFINITY PREDICTED BY RF-SCORE:    0.00 PKD
ROOT
HETATM    1  C   UNL     1     -10.673   7.333  66.969  1.00  0.00    -0.406 C  
HETATM    2  C   UNL     1     -10.554   5.978  67.627  1.00  0.00    -0.336 C  
HETATM    3  C   UNL     1     -10.346   4.857  66.900  1.00  0.00    -0.237 C  
ENDROOT
BRANCH   2   4
HETATM    4  C   UNL     1     -10.666   5.857  69.079  1.00  0.00    -0.379 C  
HETATM    5  C   UNL     1      -9.745   6.206  69.992  1.00  0.00    -0.195 C  
BRANCH   5   6
HETATM    6  C   UNL     1      -9.916   6.052  71.437  1.00  0.00    -0.223 C  
HETATM    7  C   UNL     1     -11.608   7.923  71.681  1.00  0.00    -0.311 C  
HETATM    8  C   UNL     1      -9.812   4.842  72.025  1.00  0.00    -0.232 C  
HETATM    9  C   UNL     1     -10.005   4.623  73.497  1.00  0.00    -0.181 C  
HETATM   10  C   UNL     1      -9.527   3.544  71.297  1.00  0.00    -0.229 C  
HETATM   11  C   UNL     1      -9.167   8.413  71.936  1.00  0.00    -0.306 C  
HETATM   12  C   UNL     1     -10.263   7.346  72.196  1.00  0.00    -0.226 C  
HETATM   13  C   UNL     1     -10.381   7.200  73.740  1.00  0.00    -0.390 C  
HETATM   14  C   UNL     1     -10.332   5.817  74.372  1.00  0.00    -0.271 C  
ENDBRANCH   5   6
ENDBRANCH   2   4
BRANCH   3  15
HETATM   15  C   UNL     1     -10.153   4.821  65.463  1.00  0.00    -0.160 C  
HETATM   16  C   UNL     1      -8.954   4.891  64.863  1.00  0.00    -0.138 C  
BRANCH  16  17
HETATM   17  C   UNL     1      -8.709   4.925  63.422  1.00  0.00    -0.111 C  
HETATM   18  C   UNL     1      -7.541   7.238  63.148  1.00  0.00    -0.113 C  
HETATM   19  O   UNL     1      -6.662   7.765  62.483  1.00  0.00    -0.078 OA 
HETATM   20  C   UNL     1      -8.114   5.935  62.754  1.00  0.00    -0.104 C  
HETATM   21  C   UNL     1      -9.094   3.729  62.567  1.00  0.00    -0.096 C  
HETATM   22  O   UNL     1      -8.092   7.824  64.222  1.00  0.00    -0.135 OA 
ENDBRANCH  16  17
ENDBRANCH   3  15
TORSDOF 4
ENDMDL
MODEL      153
REMARK 921   NORMALIZED FREE ENERGY PREDICTED BY IDOCK:   -3.93 KCAL/MOL
REMARK 922        TOTAL FREE ENERGY PREDICTED BY IDOCK:   -5.54 KCAL/MOL
REMARK 923 INTER-LIGAND FREE ENERGY PREDICTED BY IDOCK:   -4.95 KCAL/MOL
REMARK 924 INTRA-LIGAND FREE ENERGY PREDICTED BY IDOCK:   -0.59 KCAL/MOL
REMARK 927      BINDING AFFINITY PREDICTED BY RF-SCORE:    0.00 PKD
ROOT
HETATM    1  C   UNL     1      -6.364  15.329  67.605  1.00  0.00    -0.171 C  
HETATM    2  C   UNL     1      -7.712  14.765  67.219  1.00  0.00    -0.214 C  
HETATM    3  C   UNL     1      -8.699  15.558  66.745  1.00  0.00    -0.302 C  
ENDROOT
BRANCH   2   4
HETATM    4  C   UNL     1      -7.973  13.333  67.357  1.00  0.00    -0.175 C  
HETATM    5  C   UNL     1      -8.130  12.649  68.501  1.00  0.00    -0.082 C  
BRANCH   5   6
HETATM    6  C   UNL     1      -8.383  11.209  68.572  1.00  0.00    -0.154 C  
HETATM    7  C   UNL     1      -6.205  10.638  69.735  1.00  0.00    -0.085 C  
HETATM    8  C   UNL     1      -9.636  10.728  68.709  1.00  0.00    -0.194 C  
HETATM    9  C   UNL     1      -9.950   9.264  68.815  1.00  0.00    -0.193 C  
HETATM   10  C   UNL     1     -10.886  11.578  68.812  1.00  0.00    -0.258 C  
HETATM   11  C   UNL     1      -6.320  10.622  67.235  1.00  0.00    -0.064 C  
HETATM   12  C   UNL     1      -7.126  10.321  68.528  1.00  0.00    -0.074 C  
HETATM   13  C   UNL     1      -7.393   8.789  68.537  1.00  0.00    -0.085 C  
HETATM   14  C   UNL     1      -8.805   8.271  68.765  1.00  0.00    -0.137 C  
ENDBRANCH   5   6
ENDBRANCH   2   4
BRANCH   3  15
HETATM   15  C   UNL     1      -8.574  16.982  66.495  1.00  0.00    -0.305 C  
HETATM   16  C   UNL     1      -9.332  17.919  67.086  1.00  0.00    -0.265 C  
BRANCH  16  17
HETATM   17  C   UNL     1      -9.291  19.357  66.823  1.00  0.00    -0.395 C  
HETATM   18  C   UNL     1      -7.059  20.033  67.986  1.00  0.00    -0.287 C  
HETATM   19  O   UNL     1      -6.126  20.808  67.833  1.00  0.00    -0.255 OA 
HETATM   20  C   UNL     1      -8.315  20.197  67.225  1.00  0.00    -0.394 C  
HETATM   21  C   UNL     1     -10.389  20.000  65.993  1.00  0.00    -0.556 C  
HETATM   22  O   UNL     1      -7.043  19.042  68.889  1.00  0.00    -0.305 OA 
ENDBRANCH  16  17
ENDBRANCH   3  15
TORSDOF 4
ENDMDL
MODEL      154
REMARK 921   NORMALIZED FREE ENERGY PREDICTED BY IDOCK:   -3.93 KCAL/MOL
REMARK 922        TOTAL FREE ENERGY PREDICTED BY IDOCK:   -5.54 KCAL/MOL
REMARK 923 INTER-LIGAND FREE ENERGY PREDICTED BY IDOCK:   -4.97 KCAL/MOL
REMARK 924 INTRA-LIGAND FREE ENERGY PREDICTED BY IDOCK:   -0.57 KCAL/MOL
REMARK 927      BINDING AFFINITY PREDICTED BY RF-SCORE:    0.00 PKD
ROOT
HETATM    1  C   UNL     1      -9.693  15.048  66.557  1.00  0.00    -0.285 C  
HETATM    2  C   UNL     1      -8.646  14.283  67.334  1.00  0.00    -0.223 C  
HETATM    3  C   UNL     1      -7.699  14.921  68.058  1.00  0.00    -0.128 C  
ENDROOT
BRANCH   2   4
HETATM    4  C   UNL     1      -8.639  12.822  67.310  1.00  0.00    -0.197 C  
HETATM    5  C   UNL     1      -9.687  12.007  67.508  1.00  0.00    -0.188 C  
BRANCH   5   6
HETATM    6  C   UNL     1      -9.613  10.545  67.479  1.00  0.00    -0.181 C  
HETATM    7  C   UNL     1     -10.431  10.213  69.854  1.00  0.00    -0.322 C  
HETATM    8  C   UNL     1      -9.839   9.860  66.339  1.00  0.00    -0.288 C  
HETATM    9  C   UNL     1      -9.802   8.362  66.257  1.00  0.00    -0.257 C  
HETATM   10  C   UNL     1     -10.191  10.486  65.004  1.00  0.00    -0.365 C  
HETATM   11  C   UNL     1      -7.979  10.433  69.403  1.00  0.00    -0.161 C  
HETATM   12  C   UNL     1      -9.312   9.878  68.833  1.00  0.00    -0.170 C  
HETATM   13  C   UNL     1      -9.167   8.330  68.794  1.00  0.00    -0.143 C  
HETATM   14  C   UNL     1      -9.496   7.574  67.516  1.00  0.00    -0.165 C  
ENDBRANCH   5   6
ENDBRANCH   2   4
BRANCH   3  15
HETATM   15  C   UNL     1      -7.611  16.360  68.229  1.00  0.00    -0.163 C  
HETATM   16  C   UNL     1      -6.490  17.073  68.038  1.00  0.00    -0.151 C  
BRANCH  16  17
HETATM   17  C   UNL     1      -6.331  18.510  68.258  1.00  0.00    -0.206 C  
HETATM   18  C   UNL     1      -7.841  19.492  66.375  1.00  0.00    -0.306 C  
HETATM   19  O   UNL     1      -8.595  20.435  66.182  1.00  0.00    -0.135 OA 
HETATM   20  C   UNL     1      -6.920  19.481  67.530  1.00  0.00    -0.242 C  
HETATM   21  C   UNL     1      -5.482  19.002  69.417  1.00  0.00    -0.210 C  
HETATM   22  O   UNL     1      -7.743  18.453  65.532  1.00  0.00    -0.484 OA 
ENDBRANCH  16  17
ENDBRANCH   3  15
TORSDOF 4
ENDMDL
MODEL      155
REMARK 921   NORMALIZED FREE ENERGY PREDICTED BY IDOCK:   -3.92 KCAL/MOL
REMARK 922        TOTAL FREE ENERGY PREDICTED BY IDOCK:   -5.53 KCAL/MOL
REMARK 923 INTER-LIGAND FREE ENERGY PREDICTED BY IDOCK:   -4.88 KCAL/MOL
REMARK 924 INTRA-LIGAND FREE ENERGY PREDICTED BY IDOCK:   -0.66 KCAL/MOL
REMARK 927      BINDING AFFINITY PREDICTED BY RF-SCORE:    0.00 PKD
ROOT
HETATM    1  C   UNL     1     -10.461  13.922  68.978  1.00  0.00    -0.147 C  
HETATM    2  C   UNL     1      -9.200  14.384  68.287  1.00  0.00    -0.201 C  
HETATM    3  C   UNL     1      -8.388  13.513  67.646  1.00  0.00    -0.179 C  
ENDROOT
BRANCH   2   4
HETATM    4  C   UNL     1      -8.831  15.798  68.305  1.00  0.00    -0.180 C  
HETATM    5  C   UNL     1      -8.746  16.624  67.250  1.00  0.00    -0.207 C  
BRANCH   5   6
HETATM    6  C   UNL     1      -8.363  18.034  67.335  1.00  0.00    -0.233 C  
HETATM    7  C   UNL     1     -10.386  18.754  68.680  1.00  0.00    -0.261 C  
HETATM    8  C   UNL     1      -7.066  18.400  67.383  1.00  0.00    -0.209 C  
HETATM    9  C   UNL     1      -6.616  19.828  67.498  1.00  0.00    -0.243 C  
HETATM   10  C   UNL     1      -5.891  17.443  67.366  1.00  0.00    -0.159 C  
HETATM   11  C   UNL     1     -10.462  18.836  66.179  1.00  0.00    -0.499 C  
HETATM   12  C   UNL     1      -9.536  19.027  67.410  1.00  0.00    -0.358 C  
HETATM   13  C   UNL     1      -9.135  20.530  67.434  1.00  0.00    -0.457 C  
HETATM   14  C   UNL     1      -7.670  20.916  67.561  1.00  0.00    -0.226 C  
ENDBRANCH   5   6
ENDBRANCH   2   4
BRANCH   3  15
HETATM   15  C   UNL     1      -8.648  12.094  67.489  1.00  0.00    -0.171 C  
HETATM   16  C   UNL     1      -7.778  11.226  66.948  1.00  0.00    -0.152 C  
BRANCH  16  17
HETATM   17  C   UNL     1      -8.014   9.803  66.708  1.00  0.00    -0.105 C  
HETATM   18  C   UNL     1      -8.856   9.826  64.242  1.00  0.00    -0.228 C  
HETATM   19  O   UNL     1      -8.787   9.148  63.228  1.00  0.00    -0.192 OA 
HETATM   20  C   UNL     1      -8.469   9.270  65.555  1.00  0.00    -0.151 C  
HETATM   21  C   UNL     1      -7.693   8.795  67.797  1.00  0.00    -0.102 C  
HETATM   22  O   UNL     1      -9.347  11.074  64.252  1.00  0.00    -0.218 OA 
ENDBRANCH  16  17
ENDBRANCH   3  15
TORSDOF 4
ENDMDL
MODEL      156
REMARK 921   NORMALIZED FREE ENERGY PREDICTED BY IDOCK:   -3.91 KCAL/MOL
REMARK 922        TOTAL FREE ENERGY PREDICTED BY IDOCK:   -5.52 KCAL/MOL
REMARK 923 INTER-LIGAND FREE ENERGY PREDICTED BY IDOCK:   -4.94 KCAL/MOL
REMARK 924 INTRA-LIGAND FREE ENERGY PREDICTED BY IDOCK:   -0.57 KCAL/MOL
REMARK 927      BINDING AFFINITY PREDICTED BY RF-SCORE:    0.00 PKD
ROOT
HETATM    1  C   UNL     1      -7.116  14.083  69.293  1.00  0.00    -0.054 C  
HETATM    2  C   UNL     1      -8.193  13.930  68.243  1.00  0.00    -0.158 C  
HETATM    3  C   UNL     1      -8.926  14.987  67.826  1.00  0.00    -0.179 C  
ENDROOT
BRANCH   2   4
HETATM    4  C   UNL     1      -8.463  12.619  67.658  1.00  0.00    -0.173 C  
HETATM    5  C   UNL     1      -8.311  11.424  68.251  1.00  0.00    -0.152 C  
BRANCH   5   6
HETATM    6  C   UNL     1      -8.594  10.141  67.605  1.00  0.00    -0.118 C  
HETATM    7  C   UNL     1      -6.430   9.030  68.315  1.00  0.00    -0.055 C  
HETATM    8  C   UNL     1      -9.856   9.679  67.498  1.00  0.00    -0.213 C  
HETATM    9  C   UNL     1     -10.201   8.360  66.871  1.00  0.00    -0.383 C  
HETATM   10  C   UNL     1     -11.089  10.391  68.018  1.00  0.00    -0.359 C  
HETATM   11  C   UNL     1      -6.542  10.251  66.133  1.00  0.00    -0.105 C  
HETATM   12  C   UNL     1      -7.355   9.368  67.117  1.00  0.00    -0.087 C  
HETATM   13  C   UNL     1      -7.654   8.036  66.372  1.00  0.00    -0.091 C  
HETATM   14  C   UNL     1      -9.077   7.500  66.327  1.00  0.00    -0.198 C  
ENDBRANCH   5   6
ENDBRANCH   2   4
BRANCH   3  15
HETATM   15  C   UNL     1      -8.735  16.357  68.266  1.00  0.00    -0.201 C  
HETATM   16  C   UNL     1      -7.703  17.131  67.891  1.00  0.00    -0.188 C  
BRANCH  16  17
HETATM   17  C   UNL     1      -7.430  18.491  68.354  1.00  0.00    -0.315 C  
HETATM   18  C   UNL     1      -9.182  19.861  66.997  1.00  0.00    -0.365 C  
HETATM   19  O   UNL     1      -9.904  20.839  67.127  1.00  0.00    -0.463 OA 
HETATM   20  C   UNL     1      -8.079  19.600  67.944  1.00  0.00    -0.339 C  
HETATM   21  C   UNL     1      -6.370  18.723  69.416  1.00  0.00    -0.293 C  
HETATM   22  O   UNL     1      -9.286  19.011  65.965  1.00  0.00    -0.454 OA 
ENDBRANCH  16  17
ENDBRANCH   3  15
TORSDOF 4
ENDMDL
MODEL      157
REMARK 921   NORMALIZED FREE ENERGY PREDICTED BY IDOCK:   -3.91 KCAL/MOL
REMARK 922        TOTAL FREE ENERGY PREDICTED BY IDOCK:   -5.51 KCAL/MOL
REMARK 923 INTER-LIGAND FREE ENERGY PREDICTED BY IDOCK:   -5.35 KCAL/MOL
REMARK 924 INTRA-LIGAND FREE ENERGY PREDICTED BY IDOCK:   -0.16 KCAL/MOL
REMARK 927      BINDING AFFINITY PREDICTED BY RF-SCORE:    0.00 PKD
ROOT
HETATM    1  C   UNL     1      -9.441  10.785  67.852  1.00  0.00    -0.165 C  
HETATM    2  C   UNL     1     -10.202  11.951  68.438  1.00  0.00    -0.205 C  
HETATM    3  C   UNL     1     -11.306  11.764  69.196  1.00  0.00    -0.340 C  
ENDROOT
BRANCH   2   4
HETATM    4  C   UNL     1      -9.752  13.319  68.186  1.00  0.00    -0.227 C  
HETATM    5  C   UNL     1      -8.773  13.706  67.353  1.00  0.00    -0.214 C  
BRANCH   5   6
HETATM    6  C   UNL     1      -8.364  15.097  67.151  1.00  0.00    -0.247 C  
HETATM    7  C   UNL     1      -5.888  14.670  67.477  1.00  0.00     0.102 C  
HETATM    8  C   UNL     1      -9.041  15.906  66.311  1.00  0.00    -0.379 C  
HETATM    9  C   UNL     1      -8.650  17.330  66.045  1.00  0.00    -0.127 C  
HETATM   10  C   UNL     1     -10.252  15.496  65.497  1.00  0.00    -0.415 C  
HETATM   11  C   UNL     1      -7.312  15.284  69.441  1.00  0.00    -0.207 C  
HETATM   12  C   UNL     1      -7.102  15.526  67.922  1.00  0.00    -0.155 C  
HETATM   13  C   UNL     1      -6.701  17.020  67.762  1.00  0.00    -0.163 C  
HETATM   14  C   UNL     1      -7.434  17.893  66.755  1.00  0.00    -0.239 C  
ENDBRANCH   5   6
ENDBRANCH   2   4
BRANCH   3  15
HETATM   15  C   UNL     1     -11.839  10.471  69.583  1.00  0.00    -0.306 C  
HETATM   16  C   UNL     1     -11.798   9.985  70.835  1.00  0.00    -0.459 C  
BRANCH  16  17
HETATM   17  C   UNL     1     -12.260   8.666  71.265  1.00  0.00    -0.320 C  
HETATM   18  C   UNL     1     -10.690   7.095  69.902  1.00  0.00    -0.239 C  
HETATM   19  O   UNL     1     -10.110   6.026  70.021  1.00  0.00    -0.169 OA 
HETATM   20  C   UNL     1     -11.762   7.486  70.841  1.00  0.00    -0.307 C  
HETATM   21  C   UNL     1     -13.359   8.560  72.309  1.00  0.00    -0.357 C  
HETATM   22  O   UNL     1     -10.455   7.943  68.889  1.00  0.00    -0.214 OA 
ENDBRANCH  16  17
ENDBRANCH   3  15
TORSDOF 4
ENDMDL
MODEL      158
REMARK 921   NORMALIZED FREE ENERGY PREDICTED BY IDOCK:   -3.90 KCAL/MOL
REMARK 922        TOTAL FREE ENERGY PREDICTED BY IDOCK:   -5.51 KCAL/MOL
REMARK 923 INTER-LIGAND FREE ENERGY PREDICTED BY IDOCK:   -4.84 KCAL/MOL
REMARK 924 INTRA-LIGAND FREE ENERGY PREDICTED BY IDOCK:   -0.67 KCAL/MOL
REMARK 927      BINDING AFFINITY PREDICTED BY RF-SCORE:    0.00 PKD
ROOT
HETATM    1  C   UNL     1      -6.841  16.138  69.505  1.00  0.00    -0.190 C  
HETATM    2  C   UNL     1      -7.626  15.831  68.251  1.00  0.00    -0.127 C  
HETATM    3  C   UNL     1      -7.697  16.714  67.229  1.00  0.00    -0.198 C  
ENDROOT
BRANCH   2   4
HETATM    4  C   UNL     1      -8.334  14.559  68.124  1.00  0.00    -0.147 C  
HETATM    5  C   UNL     1      -8.262  13.693  67.100  1.00  0.00    -0.123 C  
BRANCH   5   6
HETATM    6  C   UNL     1      -9.006  12.435  67.030  1.00  0.00    -0.209 C  
HETATM    7  C   UNL     1      -7.597  11.225  68.754  1.00  0.00    -0.130 C  
HETATM    8  C   UNL     1     -10.330  12.422  66.773  1.00  0.00    -0.239 C  
HETATM    9  C   UNL     1     -11.147  11.164  66.716  1.00  0.00    -0.280 C  
HETATM   10  C   UNL     1     -11.182  13.654  66.542  1.00  0.00    -0.321 C  
HETATM   11  C   UNL     1      -6.980  11.095  66.332  1.00  0.00    -0.093 C  
HETATM   12  C   UNL     1      -8.178  11.169  67.317  1.00  0.00    -0.136 C  
HETATM   13  C   UNL     1      -8.948   9.825  67.179  1.00  0.00    -0.148 C  
HETATM   14  C   UNL     1     -10.453   9.838  66.959  1.00  0.00    -0.295 C  
ENDBRANCH   5   6
ENDBRANCH   2   4
BRANCH   3  15
HETATM   15  C   UNL     1      -7.002  17.986  67.180  1.00  0.00    -0.211 C  
HETATM   16  C   UNL     1      -7.477  19.079  66.561  1.00  0.00    -0.259 C  
BRANCH  16  17
HETATM   17  C   UNL     1      -6.790  20.363  66.427  1.00  0.00    -0.290 C  
HETATM   18  C   UNL     1      -5.963  20.253  63.958  1.00  0.00    -0.275 C  
HETATM   19  O   UNL     1      -5.793  20.992  62.999  1.00  0.00    -0.238 OA 
HETATM   20  C   UNL     1      -6.170  20.805  65.313  1.00  0.00    -0.279 C  
HETATM   21  C   UNL     1      -6.785  21.337  67.593  1.00  0.00    -0.253 C  
HETATM   22  O   UNL     1      -5.901  18.917  63.869  1.00  0.00    -0.399 OA 
ENDBRANCH  16  17
ENDBRANCH   3  15
TORSDOF 4
ENDMDL
MODEL      159
REMARK 921   NORMALIZED FREE ENERGY PREDICTED BY IDOCK:   -3.87 KCAL/MOL
REMARK 922        TOTAL FREE ENERGY PREDICTED BY IDOCK:   -5.47 KCAL/MOL
REMARK 923 INTER-LIGAND FREE ENERGY PREDICTED BY IDOCK:   -4.93 KCAL/MOL
REMARK 924 INTRA-LIGAND FREE ENERGY PREDICTED BY IDOCK:   -0.54 KCAL/MOL
REMARK 927      BINDING AFFINITY PREDICTED BY RF-SCORE:    0.00 PKD
ROOT
HETATM    1  C   UNL     1      -7.728  10.915  68.583  1.00  0.00    -0.122 C  
HETATM    2  C   UNL     1      -9.073  11.536  68.288  1.00  0.00    -0.185 C  
HETATM    3  C   UNL     1     -10.170  10.774  68.075  1.00  0.00    -0.203 C  
ENDROOT
BRANCH   2   4
HETATM    4  C   UNL     1      -9.211  12.989  68.225  1.00  0.00    -0.191 C  
HETATM    5  C   UNL     1      -8.711  13.807  67.284  1.00  0.00    -0.226 C  
BRANCH   5   6
HETATM    6  C   UNL     1      -8.878  15.261  67.282  1.00  0.00    -0.212 C  
HETATM    7  C   UNL     1     -11.378  15.218  67.694  1.00  0.00    -0.315 C  
HETATM    8  C   UNL     1      -7.900  16.074  67.732  1.00  0.00    -0.155 C  
HETATM    9  C   UNL     1      -8.028  17.569  67.778  1.00  0.00    -0.210 C  
HETATM   10  C   UNL     1      -6.566  15.609  68.280  1.00  0.00    -0.126 C  
HETATM   11  C   UNL     1     -10.504  15.229  65.349  1.00  0.00    -0.422 C  
HETATM   12  C   UNL     1     -10.246  15.761  66.783  1.00  0.00    -0.284 C  
HETATM   13  C   UNL     1     -10.404  17.307  66.718  1.00  0.00    -0.308 C  
HETATM   14  C   UNL     1      -9.319  18.202  67.296  1.00  0.00    -0.252 C  
ENDBRANCH   5   6
ENDBRANCH   2   4
BRANCH   3  15
HETATM   15  C   UNL     1     -10.207   9.326  68.164  1.00  0.00    -0.246 C  
HETATM   16  C   UNL     1     -10.041   8.503  67.115  1.00  0.00    -0.331 C  
BRANCH  16  17
HETATM   17  C   UNL     1     -10.132   7.044  67.138  1.00  0.00    -0.283 C  
HETATM   18  C   UNL     1      -8.273   6.381  65.437  1.00  0.00    -0.142 C  
HETATM   19  O   UNL     1      -7.434   5.508  65.267  1.00  0.00    -0.071 OA 
HETATM   20  C   UNL     1      -9.368   6.202  66.413  1.00  0.00    -0.173 C  
HETATM   21  C   UNL     1     -11.121   6.369  68.073  1.00  0.00    -0.365 C  
HETATM   22  O   UNL     1      -8.306   7.511  64.715  1.00  0.00    -0.108 OA 
ENDBRANCH  16  17
ENDBRANCH   3  15
TORSDOF 4
ENDMDL
MODEL      160
REMARK 921   NORMALIZED FREE ENERGY PREDICTED BY IDOCK:   -3.87 KCAL/MOL
REMARK 922        TOTAL FREE ENERGY PREDICTED BY IDOCK:   -5.47 KCAL/MOL
REMARK 923 INTER-LIGAND FREE ENERGY PREDICTED BY IDOCK:   -4.84 KCAL/MOL
REMARK 924 INTRA-LIGAND FREE ENERGY PREDICTED BY IDOCK:   -0.63 KCAL/MOL
REMARK 927      BINDING AFFINITY PREDICTED BY RF-SCORE:    0.00 PKD
ROOT
HETATM    1  C   UNL     1      -7.329  10.020  68.067  1.00  0.00    -0.087 C  
HETATM    2  C   UNL     1      -8.601  10.786  68.349  1.00  0.00    -0.141 C  
HETATM    3  C   UNL     1      -9.478  10.374  69.293  1.00  0.00    -0.214 C  
ENDROOT
BRANCH   2   4
HETATM    4  C   UNL     1      -8.909  11.997  67.592  1.00  0.00    -0.172 C  
HETATM    5  C   UNL     1     -10.128  12.472  67.290  1.00  0.00    -0.216 C  
BRANCH   5   6
HETATM    6  C   UNL     1     -10.370  13.692  66.519  1.00  0.00    -0.282 C  
HETATM    7  C   UNL     1     -12.518  12.880  65.447  1.00  0.00    -0.511 C  
HETATM    8  C   UNL     1      -9.993  14.899  66.989  1.00  0.00    -0.240 C  
HETATM    9  C   UNL     1     -10.240  16.184  66.254  1.00  0.00    -0.333 C  
HETATM   10  C   UNL     1      -9.309  15.137  68.320  1.00  0.00    -0.193 C  
HETATM   11  C   UNL     1     -10.329  12.485  64.299  1.00  0.00    -0.396 C  
HETATM   12  C   UNL     1     -11.114  13.487  65.187  1.00  0.00    -0.326 C  
HETATM   13  C   UNL     1     -11.316  14.772  64.333  1.00  0.00    -0.224 C  
HETATM   14  C   UNL     1     -10.948  16.128  64.915  1.00  0.00    -0.364 C  
ENDBRANCH   5   6
ENDBRANCH   2   4
BRANCH   3  15
HETATM   15  C   UNL     1      -9.284   9.230  70.165  1.00  0.00    -0.254 C  
HETATM   16  C   UNL     1      -9.614   7.970  69.837  1.00  0.00    -0.171 C  
BRANCH  16  17
HETATM   17  C   UNL     1      -9.501   6.795  70.700  1.00  0.00    -0.171 C  
HETATM   18  C   UNL     1      -7.191   5.836  69.967  1.00  0.00    -0.069 C  
HETATM   19  O   UNL     1      -6.222   5.270  70.451  1.00  0.00    -0.021 OA 
HETATM   20  C   UNL     1      -8.463   5.932  70.712  1.00  0.00    -0.129 C  
HETATM   21  C   UNL     1     -10.591   6.502  71.717  1.00  0.00    -0.245 C  
HETATM   22  O   UNL     1      -7.197   6.336  68.723  1.00  0.00    -0.079 OA 
ENDBRANCH  16  17
ENDBRANCH   3  15
TORSDOF 4
ENDMDL
MODEL      161
REMARK 921   NORMALIZED FREE ENERGY PREDICTED BY IDOCK:   -3.83 KCAL/MOL
REMARK 922        TOTAL FREE ENERGY PREDICTED BY IDOCK:   -5.42 KCAL/MOL
REMARK 923 INTER-LIGAND FREE ENERGY PREDICTED BY IDOCK:   -4.77 KCAL/MOL
REMARK 924 INTRA-LIGAND FREE ENERGY PREDICTED BY IDOCK:   -0.65 KCAL/MOL
REMARK 927      BINDING AFFINITY PREDICTED BY RF-SCORE:    0.00 PKD
ROOT
HETATM    1  C   UNL     1      -7.589  10.337  67.597  1.00  0.00    -0.090 C  
HETATM    2  C   UNL     1      -9.030   9.953  67.838  1.00  0.00    -0.129 C  
HETATM    3  C   UNL     1      -9.628   8.973  67.123  1.00  0.00    -0.218 C  
ENDROOT
BRANCH   2   4
HETATM    4  C   UNL     1      -9.811  10.648  68.859  1.00  0.00    -0.210 C  
HETATM    5  C   UNL     1     -11.148  10.769  68.910  1.00  0.00    -0.307 C  
BRANCH   5   6
HETATM    6  C   UNL     1     -11.872  11.487  69.960  1.00  0.00    -0.435 C  
HETATM    7  C   UNL     1     -11.465   9.754  71.763  1.00  0.00    -0.137 C  
HETATM    8  C   UNL     1     -11.898  12.835  69.989  1.00  0.00    -0.352 C  
HETATM    9  C   UNL     1     -12.601  13.622  71.056  1.00  0.00    -0.441 C  
HETATM   10  C   UNL     1     -11.206  13.740  68.990  1.00  0.00    -0.313 C  
HETATM   11  C   UNL     1     -13.514   9.603  70.334  1.00  0.00     0.422 C  
HETATM   12  C   UNL     1     -12.538  10.594  71.022  1.00  0.00    -0.516 C  
HETATM   13  C   UNL     1     -13.363  11.349  72.103  1.00  0.00    -0.271 C  
HETATM   14  C   UNL     1     -13.320  12.869  72.159  1.00  0.00    -0.615 C  
ENDBRANCH   5   6
ENDBRANCH   2   4
BRANCH   3  15
HETATM   15  C   UNL     1      -8.970   8.154  66.122  1.00  0.00    -0.218 C  
HETATM   16  C   UNL     1      -8.990   6.812  66.117  1.00  0.00    -0.157 C  
BRANCH  16  17
HETATM   17  C   UNL     1      -8.293   5.941  65.172  1.00  0.00    -0.143 C  
HETATM   18  C   UNL     1     -10.153   4.210  64.592  1.00  0.00    -0.175 C  
HETATM   19  O   UNL     1     -10.551   3.554  63.641  1.00  0.00    -0.237 OA 
HETATM   20  C   UNL     1      -8.827   4.862  64.563  1.00  0.00    -0.129 C  
HETATM   21  C   UNL     1      -6.862   6.259  64.773  1.00  0.00    -0.047 C  
HETATM   22  O   UNL     1     -10.841   4.325  65.737  1.00  0.00    -0.052 OA 
ENDBRANCH  16  17
ENDBRANCH   3  15
TORSDOF 4
ENDMDL
MODEL      162
REMARK 921   NORMALIZED FREE ENERGY PREDICTED BY IDOCK:   -3.80 KCAL/MOL
REMARK 922        TOTAL FREE ENERGY PREDICTED BY IDOCK:   -5.39 KCAL/MOL
REMARK 923 INTER-LIGAND FREE ENERGY PREDICTED BY IDOCK:   -4.70 KCAL/MOL
REMARK 924 INTRA-LIGAND FREE ENERGY PREDICTED BY IDOCK:   -0.69 KCAL/MOL
REMARK 927      BINDING AFFINITY PREDICTED BY RF-SCORE:    0.00 PKD
ROOT
HETATM    1  C   UNL     1      -7.874  10.170  69.676  1.00  0.00    -0.181 C  
HETATM    2  C   UNL     1      -8.786   9.544  68.648  1.00  0.00    -0.132 C  
HETATM    3  C   UNL     1     -10.117   9.433  68.859  1.00  0.00    -0.201 C  
ENDROOT
BRANCH   2   4
HETATM    4  C   UNL     1      -8.235   9.037  67.393  1.00  0.00    -0.108 C  
HETATM    5  C   UNL     1      -8.889   8.873  66.232  1.00  0.00    -0.187 C  
BRANCH   5   6
HETATM    6  C   UNL     1      -8.279   8.351  65.008  1.00  0.00    -0.155 C  
HETATM    7  C   UNL     1      -6.869  10.405  64.546  1.00  0.00    -0.006 C  
HETATM    8  C   UNL     1      -8.035   7.033  64.860  1.00  0.00    -0.127 C  
HETATM    9  C   UNL     1      -7.387   6.448  63.639  1.00  0.00    -0.073 C  
HETATM   10  C   UNL     1      -8.338   5.971  65.897  1.00  0.00    -0.138 C  
HETATM   11  C   UNL     1      -9.169  10.233  63.575  1.00  0.00    -0.321 C  
HETATM   12  C   UNL     1      -7.907   9.414  63.958  1.00  0.00    -0.128 C  
HETATM   13  C   UNL     1      -7.319   8.860  62.629  1.00  0.00    -0.099 C  
HETATM   14  C   UNL     1      -6.986   7.380  62.512  1.00  0.00    -0.071 C  
ENDBRANCH   5   6
ENDBRANCH   2   4
BRANCH   3  15
HETATM   15  C   UNL     1     -10.819   9.942  70.023  1.00  0.00    -0.339 C  
HETATM   16  C   UNL     1     -11.978  10.619  69.966  1.00  0.00    -0.408 C  
BRANCH  16  17
HETATM   17  C   UNL     1     -12.691  11.207  71.099  1.00  0.00    -0.510 C  
HETATM   18  C   UNL     1     -13.724   9.091  72.216  1.00  0.00    -0.492 C  
HETATM   19  O   UNL     1     -13.984   8.658  73.329  1.00  0.00    -0.130 OA 
HETATM   20  C   UNL     1     -13.410  10.520  72.011  1.00  0.00    -0.420 C  
HETATM   21  C   UNL     1     -12.611  12.704  71.341  1.00  0.00    -0.304 C  
HETATM   22  O   UNL     1     -13.774   8.334  71.110  1.00  0.00    -0.166 OA 
ENDBRANCH  16  17
ENDBRANCH   3  15
TORSDOF 4
ENDMDL
MODEL      163
REMARK 921   NORMALIZED FREE ENERGY PREDICTED BY IDOCK:   -3.78 KCAL/MOL
REMARK 922        TOTAL FREE ENERGY PREDICTED BY IDOCK:   -5.36 KCAL/MOL
REMARK 923 INTER-LIGAND FREE ENERGY PREDICTED BY IDOCK:   -4.80 KCAL/MOL
REMARK 924 INTRA-LIGAND FREE ENERGY PREDICTED BY IDOCK:   -0.56 KCAL/MOL
REMARK 927      BINDING AFFINITY PREDICTED BY RF-SCORE:    0.00 PKD
ROOT
HETATM    1  C   UNL     1      -7.939  10.094  69.698  1.00  0.00    -0.181 C  
HETATM    2  C   UNL     1      -8.881   9.638  68.608  1.00  0.00    -0.128 C  
HETATM    3  C   UNL     1     -10.223   9.696  68.766  1.00  0.00    -0.213 C  
ENDROOT
BRANCH   2   4
HETATM    4  C   UNL     1      -8.348   9.116  67.352  1.00  0.00    -0.115 C  
HETATM    5  C   UNL     1      -9.039   8.517  66.368  1.00  0.00    -0.229 C  
BRANCH   5   6
HETATM    6  C   UNL     1      -8.442   8.008  65.133  1.00  0.00    -0.117 C  
HETATM    7  C   UNL     1      -8.918   5.567  65.622  1.00  0.00    -0.152 C  
HETATM    8  C   UNL     1      -8.482   8.727  63.993  1.00  0.00    -0.121 C  
HETATM    9  C   UNL     1      -7.911   8.242  62.692  1.00  0.00    -0.141 C  
HETATM   10  C   UNL     1      -9.128  10.090  63.848  1.00  0.00    -0.296 C  
HETATM   11  C   UNL     1      -6.750   6.581  66.353  1.00  0.00    -0.056 C  
HETATM   12  C   UNL     1      -7.827   6.600  65.236  1.00  0.00    -0.110 C  
HETATM   13  C   UNL     1      -7.134   6.081  63.944  1.00  0.00    -0.053 C  
HETATM   14  C   UNL     1      -7.254   6.876  62.653  1.00  0.00    -0.062 C  
ENDBRANCH   5   6
ENDBRANCH   2   4
BRANCH   3  15
HETATM   15  C   UNL     1     -10.901  10.243  69.926  1.00  0.00    -0.355 C  
HETATM   16  C   UNL     1     -12.016  10.989  69.862  1.00  0.00    -0.427 C  
BRANCH  16  17
HETATM   17  C   UNL     1     -12.701  11.617  70.992  1.00  0.00    -0.395 C  
HETATM   18  C   UNL     1     -13.730   9.544  72.190  1.00  0.00    -0.372 C  
HETATM   19  O   UNL     1     -13.972   9.147  73.320  1.00  0.00    -0.227 OA 
HETATM   20  C   UNL     1     -13.407  10.964  71.938  1.00  0.00    -0.429 C  
HETATM   21  C   UNL     1     -12.602  13.120  71.188  1.00  0.00    -0.403 C  
HETATM   22  O   UNL     1     -13.810   8.757  71.108  1.00  0.00    -0.219 OA 
ENDBRANCH  16  17
ENDBRANCH   3  15
TORSDOF 4
ENDMDL
MODEL      164
REMARK 921   NORMALIZED FREE ENERGY PREDICTED BY IDOCK:   -3.78 KCAL/MOL
REMARK 922        TOTAL FREE ENERGY PREDICTED BY IDOCK:   -5.35 KCAL/MOL
REMARK 923 INTER-LIGAND FREE ENERGY PREDICTED BY IDOCK:   -4.75 KCAL/MOL
REMARK 924 INTRA-LIGAND FREE ENERGY PREDICTED BY IDOCK:   -0.60 KCAL/MOL
REMARK 927      BINDING AFFINITY PREDICTED BY RF-SCORE:    0.00 PKD
ROOT
HETATM    1  C   UNL     1     -10.478  15.261  65.821  1.00  0.00    -0.365 C  
HETATM    2  C   UNL     1      -9.195  14.898  66.532  1.00  0.00    -0.314 C  
HETATM    3  C   UNL     1      -8.375  15.848  67.035  1.00  0.00    -0.255 C  
ENDROOT
BRANCH   2   4
HETATM    4  C   UNL     1      -8.815  13.496  66.685  1.00  0.00    -0.080 C  
HETATM    5  C   UNL     1      -9.379  12.592  67.502  1.00  0.00    -0.187 C  
BRANCH   5   6
HETATM    6  C   UNL     1      -8.945  11.198  67.616  1.00  0.00    -0.140 C  
HETATM    7  C   UNL     1     -10.085  10.416  65.492  1.00  0.00    -0.352 C  
HETATM    8  C   UNL     1      -7.759  10.883  68.176  1.00  0.00    -0.103 C  
HETATM    9  C   UNL     1      -7.252   9.475  68.293  1.00  0.00    -0.076 C  
HETATM   10  C   UNL     1      -6.764  11.884  68.728  1.00  0.00    -0.088 C  
HETATM   11  C   UNL     1     -11.307  10.303  67.674  1.00  0.00    -0.088 C  
HETATM   12  C   UNL     1      -9.910  10.162  67.013  1.00  0.00    -0.238 C  
HETATM   13  C   UNL     1      -9.485   8.676  67.188  1.00  0.00    -0.207 C  
HETATM   14  C   UNL     1      -8.113   8.347  67.757  1.00  0.00    -0.122 C  
ENDBRANCH   5   6
ENDBRANCH   2   4
BRANCH   3  15
HETATM   15  C   UNL     1      -8.643  17.274  67.015  1.00  0.00    -0.246 C  
HETATM   16  C   UNL     1      -7.968  18.156  66.260  1.00  0.00    -0.271 C  
BRANCH  16  17
HETATM   17  C   UNL     1      -8.155  19.607  66.250  1.00  0.00    -0.347 C  
HETATM   18  C   UNL     1      -6.157  20.376  64.764  1.00  0.00    -0.271 C  
HETATM   19  O   UNL     1      -5.892  21.227  63.928  1.00  0.00    -0.255 OA 
HETATM   20  C   UNL     1      -7.364  20.491  65.608  1.00  0.00    -0.069 C  
HETATM   21  C   UNL     1      -9.347  20.215  66.968  1.00  0.00    -0.523 C  
HETATM   22  O   UNL     1      -5.353  19.335  65.025  1.00  0.00    -0.153 OA 
ENDBRANCH  16  17
ENDBRANCH   3  15
TORSDOF 4
ENDMDL
MODEL      165
REMARK 921   NORMALIZED FREE ENERGY PREDICTED BY IDOCK:   -3.76 KCAL/MOL
REMARK 922        TOTAL FREE ENERGY PREDICTED BY IDOCK:   -5.34 KCAL/MOL
REMARK 923 INTER-LIGAND FREE ENERGY PREDICTED BY IDOCK:   -5.49 KCAL/MOL
REMARK 924 INTRA-LIGAND FREE ENERGY PREDICTED BY IDOCK:    0.16 KCAL/MOL
REMARK 927      BINDING AFFINITY PREDICTED BY RF-SCORE:    0.00 PKD
ROOT
HETATM    1  C   UNL     1     -10.775  14.891  66.986  1.00  0.00    -0.307 C  
HETATM    2  C   UNL     1      -9.265  14.871  66.970  1.00  0.00    -0.249 C  
HETATM    3  C   UNL     1      -8.575  13.712  66.875  1.00  0.00    -0.121 C  
ENDROOT
BRANCH   2   4
HETATM    4  C   UNL     1      -8.516  16.123  67.062  1.00  0.00    -0.238 C  
HETATM    5  C   UNL     1      -8.976  17.309  67.489  1.00  0.00    -0.222 C  
BRANCH   5   6
HETATM    6  C   UNL     1      -8.174  18.532  67.550  1.00  0.00    -0.262 C  
HETATM    7  C   UNL     1      -6.043  17.466  66.688  1.00  0.00    -0.239 C  
HETATM    8  C   UNL     1      -8.732  19.742  67.337  1.00  0.00    -0.385 C  
HETATM    9  C   UNL     1      -7.952  21.024  67.361  1.00  0.00    -0.085 C  
HETATM   10  C   UNL     1     -10.193  19.980  67.014  1.00  0.00    -0.587 C  
HETATM   11  C   UNL     1      -6.490  17.535  69.149  1.00  0.00    -0.240 C  
HETATM   12  C   UNL     1      -6.674  18.317  67.821  1.00  0.00    -0.206 C  
HETATM   13  C   UNL     1      -5.829  19.616  67.952  1.00  0.00    -0.222 C  
HETATM   14  C   UNL     1      -6.463  20.963  67.637  1.00  0.00    -0.398 C  
ENDBRANCH   5   6
ENDBRANCH   2   4
BRANCH   3  15
HETATM   15  C   UNL     1      -9.173  12.399  66.715  1.00  0.00    -0.212 C  
HETATM   16  C   UNL     1      -8.502  11.312  66.302  1.00  0.00    -0.156 C  
BRANCH  16  17
HETATM   17  C   UNL     1      -9.069   9.986  66.063  1.00  0.00    -0.189 C  
HETATM   18  C   UNL     1      -9.317   9.987  63.469  1.00  0.00    -0.256 C  
HETATM   19  O   UNL     1      -9.222   9.217  62.524  1.00  0.00    -0.195 OA 
HETATM   20  C   UNL     1      -9.394   9.481  64.855  1.00  0.00    -0.264 C  
HETATM   21  C   UNL     1      -9.287   9.041  67.233  1.00  0.00    -0.172 C  
HETATM   22  O   UNL     1      -9.429  11.315  63.320  1.00  0.00    -0.288 OA 
ENDBRANCH  16  17
ENDBRANCH   3  15
TORSDOF 4
ENDMDL
MODEL      166
REMARK 921   NORMALIZED FREE ENERGY PREDICTED BY IDOCK:   -3.75 KCAL/MOL
REMARK 922        TOTAL FREE ENERGY PREDICTED BY IDOCK:   -5.32 KCAL/MOL
REMARK 923 INTER-LIGAND FREE ENERGY PREDICTED BY IDOCK:   -4.69 KCAL/MOL
REMARK 924 INTRA-LIGAND FREE ENERGY PREDICTED BY IDOCK:   -0.64 KCAL/MOL
REMARK 927      BINDING AFFINITY PREDICTED BY RF-SCORE:    0.00 PKD
ROOT
HETATM    1  C   UNL     1      -6.542  11.898  67.088  1.00  0.00    -0.148 C  
HETATM    2  C   UNL     1      -7.626  11.980  68.137  1.00  0.00    -0.120 C  
HETATM    3  C   UNL     1      -8.027  13.168  68.645  1.00  0.00    -0.033 C  
ENDROOT
BRANCH   2   4
HETATM    4  C   UNL     1      -8.263  10.760  68.629  1.00  0.00    -0.139 C  
HETATM    5  C   UNL     1      -9.248  10.068  68.034  1.00  0.00    -0.139 C  
BRANCH   5   6
HETATM    6  C   UNL     1      -9.851   8.853  68.584  1.00  0.00    -0.179 C  
HETATM    7  C   UNL     1      -7.870   7.353  68.086  1.00  0.00    -0.122 C  
HETATM    8  C   UNL     1     -10.703   8.911  69.628  1.00  0.00    -0.222 C  
HETATM    9  C   UNL     1     -11.328   7.696  70.249  1.00  0.00    -0.197 C  
HETATM   10  C   UNL     1     -11.121  10.182  70.339  1.00  0.00    -0.393 C  
HETATM   11  C   UNL     1      -9.700   7.599  66.395  1.00  0.00    -0.197 C  
HETATM   12  C   UNL     1      -9.401   7.541  67.917  1.00  0.00    -0.144 C  
HETATM   13  C   UNL     1     -10.088   6.253  68.454  1.00  0.00    -0.179 C  
HETATM   14  C   UNL     1     -10.989   6.333  69.677  1.00  0.00    -0.440 C  
ENDBRANCH   5   6
ENDBRANCH   2   4
BRANCH   3  15
HETATM   15  C   UNL     1      -7.535  14.464  68.216  1.00  0.00    -0.123 C  
HETATM   16  C   UNL     1      -8.201  15.617  68.394  1.00  0.00    -0.146 C  
BRANCH  16  17
HETATM   17  C   UNL     1      -7.782  16.937  67.926  1.00  0.00    -0.179 C  
HETATM   18  C   UNL     1      -9.661  17.498  66.209  1.00  0.00    -0.237 C  
HETATM   19  O   UNL     1     -10.298  18.461  65.806  1.00  0.00    -0.588 OA 
HETATM   20  C   UNL     1      -8.431  17.682  67.006  1.00  0.00    -0.252 C  
HETATM   21  C   UNL     1      -6.549  17.590  68.525  1.00  0.00    -0.198 C  
HETATM   22  O   UNL     1      -9.981  16.232  65.903  1.00  0.00    -0.313 OA 
ENDBRANCH  16  17
ENDBRANCH   3  15
TORSDOF 4
ENDMDL
MODEL      167
REMARK 921   NORMALIZED FREE ENERGY PREDICTED BY IDOCK:   -3.71 KCAL/MOL
REMARK 922        TOTAL FREE ENERGY PREDICTED BY IDOCK:   -5.27 KCAL/MOL
REMARK 923 INTER-LIGAND FREE ENERGY PREDICTED BY IDOCK:   -4.79 KCAL/MOL
REMARK 924 INTRA-LIGAND FREE ENERGY PREDICTED BY IDOCK:   -0.48 KCAL/MOL
REMARK 927      BINDING AFFINITY PREDICTED BY RF-SCORE:    0.00 PKD
ROOT
HETATM    1  C   UNL     1     -10.575   8.094  68.447  1.00  0.00    -0.148 C  
HETATM    2  C   UNL     1     -10.029   8.711  67.180  1.00  0.00    -0.297 C  
HETATM    3  C   UNL     1      -9.343   7.975  66.276  1.00  0.00    -0.246 C  
ENDROOT
BRANCH   2   4
HETATM    4  C   UNL     1     -10.233  10.132  66.911  1.00  0.00    -0.295 C  
HETATM    5  C   UNL     1     -11.272  10.691  66.270  1.00  0.00     0.241 C  
BRANCH   5   6
HETATM    6  C   UNL     1     -11.414  12.127  66.025  1.00  0.00    -0.427 C  
HETATM    7  C   UNL     1     -12.661  11.876  63.833  1.00  0.00    -0.450 C  
HETATM    8  C   UNL     1     -11.546  12.997  67.047  1.00  0.00    -0.413 C  
HETATM    9  C   UNL     1     -11.723  14.475  66.853  1.00  0.00    -0.399 C  
HETATM   10  C   UNL     1     -11.571  12.617  68.514  1.00  0.00    -0.363 C  
HETATM   11  C   UNL     1     -10.163  12.037  63.831  1.00  0.00    -0.424 C  
HETATM   12  C   UNL     1     -11.449  12.537  64.541  1.00  0.00    -0.391 C  
HETATM   13  C   UNL     1     -11.534  14.067  64.277  1.00  0.00    -0.314 C  
HETATM   14  C   UNL     1     -11.754  15.023  65.440  1.00  0.00    -0.170 C  
ENDBRANCH   5   6
ENDBRANCH   2   4
BRANCH   3  15
HETATM   15  C   UNL     1      -9.111   6.545  66.372  1.00  0.00    -0.172 C  
HETATM   16  C   UNL     1      -8.196   5.984  67.178  1.00  0.00    -0.105 C  
BRANCH  16  17
HETATM   17  C   UNL     1      -7.879   4.559  67.265  1.00  0.00    -0.097 C  
HETATM   18  C   UNL     1      -7.779   4.206  69.845  1.00  0.00    -0.052 C  
HETATM   19  O   UNL     1      -8.056   3.359  70.681  1.00  0.00    -0.052 OA 
HETATM   20  C   UNL     1      -7.713   3.864  68.409  1.00  0.00    -0.065 C  
HETATM   21  C   UNL     1      -7.761   3.737  65.993  1.00  0.00    -0.089 C  
HETATM   22  O   UNL     1      -7.449   5.466  70.166  1.00  0.00    -0.065 OA 
ENDBRANCH  16  17
ENDBRANCH   3  15
TORSDOF 4
ENDMDL
MODEL      168
REMARK 921   NORMALIZED FREE ENERGY PREDICTED BY IDOCK:   -3.67 KCAL/MOL
REMARK 922        TOTAL FREE ENERGY PREDICTED BY IDOCK:   -5.22 KCAL/MOL
REMARK 923 INTER-LIGAND FREE ENERGY PREDICTED BY IDOCK:   -4.96 KCAL/MOL
REMARK 924 INTRA-LIGAND FREE ENERGY PREDICTED BY IDOCK:   -0.26 KCAL/MOL
REMARK 927      BINDING AFFINITY PREDICTED BY RF-SCORE:    0.00 PKD
ROOT
HETATM    1  C   UNL     1     -12.264  15.870  71.391  1.00  0.00    -0.501 C  
HETATM    2  C   UNL     1     -11.484  14.887  70.550  1.00  0.00    -0.310 C  
HETATM    3  C   UNL     1     -10.658  15.303  69.563  1.00  0.00    -0.272 C  
ENDROOT
BRANCH   2   4
HETATM    4  C   UNL     1     -11.614  13.451  70.792  1.00  0.00     0.355 C  
HETATM    5  C   UNL     1     -11.566  12.471  69.876  1.00  0.00    -0.242 C  
BRANCH   5   6
HETATM    6  C   UNL     1     -11.712  11.047  70.183  1.00  0.00    -0.442 C  
HETATM    7  C   UNL     1      -9.283  10.459  69.763  1.00  0.00    -0.004 C  
HETATM    8  C   UNL     1     -12.601  10.622  71.104  1.00  0.00    -0.526 C  
HETATM    9  C   UNL     1     -12.773   9.179  71.478  1.00  0.00    -0.409 C  
HETATM   10  C   UNL     1     -13.515  11.523  71.910  1.00  0.00    -0.275 C  
HETATM   11  C   UNL     1     -10.939  10.313  67.892  1.00  0.00    -0.350 C  
HETATM   12  C   UNL     1     -10.756  10.113  69.420  1.00  0.00    -0.266 C  
HETATM   13  C   UNL     1     -10.951   8.594  69.694  1.00  0.00    -0.099 C  
HETATM   14  C   UNL     1     -11.907   8.143  70.788  1.00  0.00    -0.167 C  
ENDBRANCH   5   6
ENDBRANCH   2   4
BRANCH   3  15
HETATM   15  C   UNL     1     -10.377  16.690  69.243  1.00  0.00    -0.318 C  
HETATM   16  C   UNL     1      -9.189  17.283  69.447  1.00  0.00     0.275 C  
BRANCH  16  17
HETATM   17  C   UNL     1      -8.873  18.690  69.203  1.00  0.00     0.013 C  
HETATM   18  C   UNL     1      -6.272  18.669  69.352  1.00  0.00    -0.265 C  
HETATM   19  O   UNL     1      -5.305  19.210  68.836  1.00  0.00    -0.193 OA 
HETATM   20  C   UNL     1      -7.632  19.218  69.176  1.00  0.00    -0.297 C  
HETATM   21  C   UNL     1      -9.994  19.671  68.904  1.00  0.00    -0.524 C  
HETATM   22  O   UNL     1      -6.166  17.604  70.160  1.00  0.00    -0.141 OA 
ENDBRANCH  16  17
ENDBRANCH   3  15
TORSDOF 4
ENDMDL
MODEL      169
REMARK 921   NORMALIZED FREE ENERGY PREDICTED BY IDOCK:   -3.65 KCAL/MOL
REMARK 922        TOTAL FREE ENERGY PREDICTED BY IDOCK:   -5.20 KCAL/MOL
REMARK 923 INTER-LIGAND FREE ENERGY PREDICTED BY IDOCK:   -4.79 KCAL/MOL
REMARK 924 INTRA-LIGAND FREE ENERGY PREDICTED BY IDOCK:   -0.40 KCAL/MOL
REMARK 927      BINDING AFFINITY PREDICTED BY RF-SCORE:    0.00 PKD
ROOT
HETATM    1  C   UNL     1      -7.580  10.926  69.096  1.00  0.00    -0.133 C  
HETATM    2  C   UNL     1      -9.041  11.188  68.813  1.00  0.00    -0.144 C  
HETATM    3  C   UNL     1      -9.972  10.216  68.950  1.00  0.00    -0.207 C  
ENDROOT
BRANCH   2   4
HETATM    4  C   UNL     1      -9.476  12.514  68.379  1.00  0.00    -0.167 C  
HETATM    5  C   UNL     1      -9.120  13.151  67.252  1.00  0.00    -0.217 C  
BRANCH   5   6
HETATM    6  C   UNL     1      -9.586  14.486  66.877  1.00  0.00    -0.258 C  
HETATM    7  C   UNL     1      -7.400  15.659  67.390  1.00  0.00    -0.235 C  
HETATM    8  C   UNL     1     -10.496  14.655  65.895  1.00  0.00    -0.325 C  
HETATM    9  C   UNL     1     -10.988  16.002  65.451  1.00  0.00    -0.261 C  
HETATM   10  C   UNL     1     -11.118  13.536  65.084  1.00  0.00    -0.326 C  
HETATM   11  C   UNL     1      -9.148  15.455  69.169  1.00  0.00    -0.243 C  
HETATM   12  C   UNL     1      -8.930  15.648  67.645  1.00  0.00    -0.183 C  
HETATM   13  C   UNL     1      -9.469  17.064  67.296  1.00  0.00    -0.240 C  
HETATM   14  C   UNL     1     -10.440  17.237  66.138  1.00  0.00    -0.279 C  
ENDBRANCH   5   6
ENDBRANCH   2   4
BRANCH   3  15
HETATM   15  C   UNL     1      -9.706   8.872  69.429  1.00  0.00    -0.169 C  
HETATM   16  C   UNL     1     -10.447   7.799  69.107  1.00  0.00    -0.219 C  
BRANCH  16  17
HETATM   17  C   UNL     1     -10.263   6.439  69.612  1.00  0.00    -0.229 C  
HETATM   18  C   UNL     1      -9.684   5.149  67.424  1.00  0.00    -0.152 C  
HETATM   19  O   UNL     1      -8.975   4.227  67.045  1.00  0.00    -0.113 OA 
HETATM   20  C   UNL     1      -9.945   5.364  68.862  1.00  0.00    -0.247 C  
HETATM   21  C   UNL     1     -10.381   6.169  71.102  1.00  0.00    -0.257 C  
HETATM   22  O   UNL     1     -10.323   5.970  66.579  1.00  0.00    -0.191 OA 
ENDBRANCH  16  17
ENDBRANCH   3  15
TORSDOF 4
ENDMDL
MODEL      170
REMARK 921   NORMALIZED FREE ENERGY PREDICTED BY IDOCK:   -3.62 KCAL/MOL
REMARK 922        TOTAL FREE ENERGY PREDICTED BY IDOCK:   -5.15 KCAL/MOL
REMARK 923 INTER-LIGAND FREE ENERGY PREDICTED BY IDOCK:   -4.54 KCAL/MOL
REMARK 924 INTRA-LIGAND FREE ENERGY PREDICTED BY IDOCK:   -0.61 KCAL/MOL
REMARK 927      BINDING AFFINITY PREDICTED BY RF-SCORE:    0.00 PKD
ROOT
HETATM    1  C   UNL     1      -6.404  11.065  68.716  1.00  0.00    -0.049 C  
HETATM    2  C   UNL     1      -7.715  10.572  68.149  1.00  0.00    -0.096 C  
HETATM    3  C   UNL     1      -8.170   9.325  68.407  1.00  0.00    -0.115 C  
ENDROOT
BRANCH   2   4
HETATM    4  C   UNL     1      -8.520  11.447  67.299  1.00  0.00    -0.148 C  
HETATM    5  C   UNL     1      -9.818  11.299  66.989  1.00  0.00    -0.217 C  
BRANCH   5   6
HETATM    6  C   UNL     1     -10.568  12.210  66.122  1.00  0.00    -0.290 C  
HETATM    7  C   UNL     1      -9.927  14.318  67.374  1.00  0.00    -0.242 C  
HETATM    8  C   UNL     1     -10.724  11.949  64.808  1.00  0.00    -0.356 C  
HETATM    9  C   UNL     1     -11.458  12.860  63.869  1.00  0.00    -0.504 C  
HETATM   10  C   UNL     1     -10.161  10.739  64.090  1.00  0.00    -0.412 C  
HETATM   11  C   UNL     1     -12.004  13.077  68.012  1.00  0.00    -0.335 C  
HETATM   12  C   UNL     1     -11.104  13.477  66.813  1.00  0.00    -0.311 C  
HETATM   13  C   UNL     1     -11.956  14.415  65.912  1.00  0.00    -0.367 C  
HETATM   14  C   UNL     1     -12.058  14.139  64.420  1.00  0.00    -0.486 C  
ENDBRANCH   5   6
ENDBRANCH   2   4
BRANCH   3  15
HETATM   15  C   UNL     1      -7.518   8.365  69.278  1.00  0.00    -0.084 C  
HETATM   16  C   UNL     1      -8.170   7.434  69.993  1.00  0.00    -0.131 C  
BRANCH  16  17
HETATM   17  C   UNL     1      -7.569   6.488  70.933  1.00  0.00    -0.089 C  
HETATM   18  C   UNL     1      -7.268   4.383  69.426  1.00  0.00    -0.051 C  
HETATM   19  O   UNL     1      -6.485   3.458  69.264  1.00  0.00    -0.032 OA 
HETATM   20  C   UNL     1      -7.211   5.220  70.642  1.00  0.00    -0.068 C  
HETATM   21  C   UNL     1      -7.257   6.934  72.351  1.00  0.00    -0.078 C  
HETATM   22  O   UNL     1      -8.261   4.657  68.568  1.00  0.00    -0.083 OA 
ENDBRANCH  16  17
ENDBRANCH   3  15
TORSDOF 4
ENDMDL
MODEL      171
REMARK 921   NORMALIZED FREE ENERGY PREDICTED BY IDOCK:   -3.61 KCAL/MOL
REMARK 922        TOTAL FREE ENERGY PREDICTED BY IDOCK:   -5.15 KCAL/MOL
REMARK 923 INTER-LIGAND FREE ENERGY PREDICTED BY IDOCK:   -4.56 KCAL/MOL
REMARK 924 INTRA-LIGAND FREE ENERGY PREDICTED BY IDOCK:   -0.59 KCAL/MOL
REMARK 927      BINDING AFFINITY PREDICTED BY RF-SCORE:    0.00 PKD
ROOT
HETATM    1  C   UNL     1      -6.820  11.420  69.302  1.00  0.00    -0.119 C  
HETATM    2  C   UNL     1      -8.071  11.188  68.488  1.00  0.00    -0.146 C  
HETATM    3  C   UNL     1      -8.549   9.941  68.269  1.00  0.00    -0.115 C  
ENDROOT
BRANCH   2   4
HETATM    4  C   UNL     1      -8.793  12.322  67.915  1.00  0.00    -0.178 C  
HETATM    5  C   UNL     1      -8.575  12.898  66.722  1.00  0.00    -0.071 C  
BRANCH   5   6
HETATM    6  C   UNL     1      -9.331  14.041  66.208  1.00  0.00    -0.199 C  
HETATM    7  C   UNL     1     -11.616  13.021  66.610  1.00  0.00    -0.410 C  
HETATM    8  C   UNL     1      -8.865  15.299  66.341  1.00  0.00    -0.311 C  
HETATM    9  C   UNL     1      -9.610  16.510  65.857  1.00  0.00    -0.284 C  
HETATM   10  C   UNL     1      -7.562  15.677  67.017  1.00  0.00    -0.245 C  
HETATM   11  C   UNL     1     -10.471  12.679  64.410  1.00  0.00    -0.398 C  
HETATM   12  C   UNL     1     -10.686  13.693  65.565  1.00  0.00    -0.296 C  
HETATM   13  C   UNL     1     -11.462  14.897  64.959  1.00  0.00    -0.379 C  
HETATM   14  C   UNL     1     -10.954  16.312  65.184  1.00  0.00    -0.285 C  
ENDBRANCH   5   6
ENDBRANCH   2   4
BRANCH   3  15
HETATM   15  C   UNL     1      -7.981   8.725  68.819  1.00  0.00    -0.106 C  
HETATM   16  C   UNL     1      -8.548   8.009  69.804  1.00  0.00    -0.131 C  
BRANCH  16  17
HETATM   17  C   UNL     1      -7.989   6.815  70.437  1.00  0.00    -0.115 C  
HETATM   18  C   UNL     1      -7.979   7.517  72.947  1.00  0.00    -0.105 C  
HETATM   19  O   UNL     1      -8.149   7.024  74.052  1.00  0.00    -0.115 OA 
HETATM   20  C   UNL     1      -7.769   6.663  71.760  1.00  0.00    -0.097 C  
HETATM   21  C   UNL     1      -7.653   5.602  69.587  1.00  0.00    -0.075 C  
HETATM   22  O   UNL     1      -7.897   8.840  72.743  1.00  0.00    -0.377 OA 
ENDBRANCH  16  17
ENDBRANCH   3  15
TORSDOF 4
ENDMDL
MODEL      172
REMARK 921   NORMALIZED FREE ENERGY PREDICTED BY IDOCK:   -3.59 KCAL/MOL
REMARK 922        TOTAL FREE ENERGY PREDICTED BY IDOCK:   -5.12 KCAL/MOL
REMARK 923 INTER-LIGAND FREE ENERGY PREDICTED BY IDOCK:   -4.39 KCAL/MOL
REMARK 924 INTRA-LIGAND FREE ENERGY PREDICTED BY IDOCK:   -0.73 KCAL/MOL
REMARK 927      BINDING AFFINITY PREDICTED BY RF-SCORE:    0.00 PKD
ROOT
HETATM    1  C   UNL     1     -11.784  11.358  67.653  1.00  0.00    -0.246 C  
HETATM    2  C   UNL     1     -10.611  12.206  67.220  1.00  0.00    -0.255 C  
HETATM    3  C   UNL     1      -9.518  11.655  66.644  1.00  0.00    -0.213 C  
ENDROOT
BRANCH   2   4
HETATM    4  C   UNL     1     -10.639  13.653  67.422  1.00  0.00    -0.260 C  
HETATM    5  C   UNL     1      -9.627  14.429  67.840  1.00  0.00    -0.219 C  
BRANCH   5   6
HETATM    6  C   UNL     1      -9.722  15.877  68.030  1.00  0.00    -0.216 C  
HETATM    7  C   UNL     1      -9.810  16.440  65.561  1.00  0.00    -0.108 C  
HETATM    8  C   UNL     1     -10.356  16.398  69.101  1.00  0.00    -0.289 C  
HETATM    9  C   UNL     1     -10.508  17.873  69.331  1.00  0.00     0.230 C  
HETATM   10  C   UNL     1     -11.029  15.588  70.191  1.00  0.00    -0.336 C  
HETATM   11  C   UNL     1      -7.602  16.345  66.737  1.00  0.00    -0.290 C  
HETATM   12  C   UNL     1      -9.097  16.727  66.909  1.00  0.00    -0.248 C  
HETATM   13  C   UNL     1      -9.138  18.264  67.138  1.00  0.00    -0.264 C  
HETATM   14  C   UNL     1      -9.920  18.831  68.313  1.00  0.00    -0.432 C  
ENDBRANCH   5   6
ENDBRANCH   2   4
BRANCH   3  15
HETATM   15  C   UNL     1      -9.366  10.248  66.323  1.00  0.00    -0.206 C  
HETATM   16  C   UNL     1      -8.734   9.361  67.108  1.00  0.00    -0.134 C  
BRANCH  16  17
HETATM   17  C   UNL     1      -8.497   7.951  66.803  1.00  0.00    -0.129 C  
HETATM   18  C   UNL     1     -10.517   6.817  67.998  1.00  0.00    -0.211 C  
HETATM   19  O   UNL     1     -11.282   5.877  67.843  1.00  0.00    -0.155 OA 
HETATM   20  C   UNL     1      -9.276   6.924  67.203  1.00  0.00    -0.153 C  
HETATM   21  C   UNL     1      -7.319   7.559  65.928  1.00  0.00    -0.074 C  
HETATM   22  O   UNL     1     -10.702   7.762  68.931  1.00  0.00    -0.185 OA 
ENDBRANCH  16  17
ENDBRANCH   3  15
TORSDOF 4
ENDMDL
MODEL      173
REMARK 921   NORMALIZED FREE ENERGY PREDICTED BY IDOCK:   -3.59 KCAL/MOL
REMARK 922        TOTAL FREE ENERGY PREDICTED BY IDOCK:   -5.12 KCAL/MOL
REMARK 923 INTER-LIGAND FREE ENERGY PREDICTED BY IDOCK:   -4.82 KCAL/MOL
REMARK 924 INTRA-LIGAND FREE ENERGY PREDICTED BY IDOCK:   -0.31 KCAL/MOL
REMARK 927      BINDING AFFINITY PREDICTED BY RF-SCORE:    0.00 PKD
ROOT
HETATM    1  C   UNL     1      -8.549  11.796  66.673  1.00  0.00    -0.170 C  
HETATM    2  C   UNL     1      -9.621  10.775  66.973  1.00  0.00    -0.195 C  
HETATM    3  C   UNL     1     -10.897  11.145  67.223  1.00  0.00    -0.326 C  
ENDROOT
BRANCH   2   4
HETATM    4  C   UNL     1      -9.289   9.352  67.002  1.00  0.00    -0.185 C  
HETATM    5  C   UNL     1      -9.394   8.478  65.989  1.00  0.00    -0.266 C  
BRANCH   5   6
HETATM    6  C   UNL     1      -9.051   7.058  66.085  1.00  0.00    -0.149 C  
HETATM    7  C   UNL     1      -6.542   7.415  66.083  1.00  0.00    -0.049 C  
HETATM    8  C   UNL     1      -9.842   6.195  66.754  1.00  0.00    -0.203 C  
HETATM    9  C   UNL     1      -9.526   4.736  66.908  1.00  0.00    -0.165 C  
HETATM   10  C   UNL     1     -11.126   6.568  67.468  1.00  0.00    -0.396 C  
HETATM   11  C   UNL     1      -7.749   7.065  63.919  1.00  0.00    -0.119 C  
HETATM   12  C   UNL     1      -7.722   6.660  65.417  1.00  0.00    -0.100 C  
HETATM   13  C   UNL     1      -7.385   5.142  65.460  1.00  0.00    -0.073 C  
HETATM   14  C   UNL     1      -8.253   4.200  66.280  1.00  0.00    -0.105 C  
ENDBRANCH   5   6
ENDBRANCH   2   4
BRANCH   3  15
HETATM   15  C   UNL     1     -11.393  12.508  67.170  1.00  0.00    -0.381 C  
HETATM   16  C   UNL     1     -10.844  13.534  67.840  1.00  0.00    -0.262 C  
BRANCH  16  17
HETATM   17  C   UNL     1     -11.341  14.909  67.873  1.00  0.00    -0.340 C  
HETATM   18  C   UNL     1     -11.963  15.175  70.389  1.00  0.00    -0.320 C  
HETATM   19  O   UNL     1     -11.951  16.025  71.267  1.00  0.00    -0.415 OA 
HETATM   20  C   UNL     1     -11.800  15.548  68.969  1.00  0.00    -0.373 C  
HETATM   21  C   UNL     1     -11.316  15.747  66.606  1.00  0.00     0.109 C  
HETATM   22  O   UNL     1     -12.193  13.877  70.635  1.00  0.00    -0.334 OA 
ENDBRANCH  16  17
ENDBRANCH   3  15
TORSDOF 4
ENDMDL
MODEL      174
REMARK 921   NORMALIZED FREE ENERGY PREDICTED BY IDOCK:   -3.58 KCAL/MOL
REMARK 922        TOTAL FREE ENERGY PREDICTED BY IDOCK:   -5.11 KCAL/MOL
REMARK 923 INTER-LIGAND FREE ENERGY PREDICTED BY IDOCK:   -4.56 KCAL/MOL
REMARK 924 INTRA-LIGAND FREE ENERGY PREDICTED BY IDOCK:   -0.56 KCAL/MOL
REMARK 927      BINDING AFFINITY PREDICTED BY RF-SCORE:    0.00 PKD
ROOT
HETATM    1  C   UNL     1     -10.582  10.985  66.677  1.00  0.00    -0.315 C  
HETATM    2  C   UNL     1     -10.639  10.017  67.836  1.00  0.00    -0.298 C  
HETATM    3  C   UNL     1     -11.204  10.361  69.015  1.00  0.00    -0.289 C  
ENDROOT
BRANCH   2   4
HETATM    4  C   UNL     1     -10.072   8.677  67.698  1.00  0.00    -0.271 C  
HETATM    5  C   UNL     1      -8.807   8.365  67.374  1.00  0.00    -0.140 C  
BRANCH   5   6
HETATM    6  C   UNL     1      -8.302   6.997  67.244  1.00  0.00    -0.122 C  
HETATM    7  C   UNL     1      -9.288   6.167  69.426  1.00  0.00    -0.147 C  
HETATM    8  C   UNL     1      -8.166   6.418  66.033  1.00  0.00    -0.126 C  
HETATM    9  C   UNL     1      -7.680   5.011  65.843  1.00  0.00    -0.091 C  
HETATM   10  C   UNL     1      -8.511   7.075  64.712  1.00  0.00     0.108 C  
HETATM   11  C   UNL     1      -6.972   7.117  69.389  1.00  0.00    -0.062 C  
HETATM   12  C   UNL     1      -7.997   6.284  68.573  1.00  0.00    -0.105 C  
HETATM   13  C   UNL     1      -7.399   4.854  68.439  1.00  0.00    -0.066 C  
HETATM   14  C   UNL     1      -7.322   4.195  67.070  1.00  0.00    -0.073 C  
ENDBRANCH   5   6
ENDBRANCH   2   4
BRANCH   3  15
HETATM   15  C   UNL     1     -11.860  11.627  69.285  1.00  0.00    -0.396 C  
HETATM   16  C   UNL     1     -11.674  12.346  70.404  1.00  0.00    -0.113 C  
BRANCH  16  17
HETATM   17  C   UNL     1     -12.357  13.591  70.754  1.00  0.00    -0.440 C  
HETATM   18  C   UNL     1     -11.057  15.320  69.301  1.00  0.00    -0.274 C  
HETATM   19  O   UNL     1     -11.262  16.344  68.666  1.00  0.00    -0.352 OA 
HETATM   20  C   UNL     1     -12.056  14.811  70.263  1.00  0.00    -0.380 C  
HETATM   21  C   UNL     1     -13.538  13.557  71.708  1.00  0.00    -0.431 C  
HETATM   22  O   UNL     1      -9.905  14.636  69.230  1.00  0.00    -0.174 OA 
ENDBRANCH  16  17
ENDBRANCH   3  15
TORSDOF 4
ENDMDL
MODEL      175
REMARK 921   NORMALIZED FREE ENERGY PREDICTED BY IDOCK:   -3.58 KCAL/MOL
REMARK 922        TOTAL FREE ENERGY PREDICTED BY IDOCK:   -5.10 KCAL/MOL
REMARK 923 INTER-LIGAND FREE ENERGY PREDICTED BY IDOCK:   -4.47 KCAL/MOL
REMARK 924 INTRA-LIGAND FREE ENERGY PREDICTED BY IDOCK:   -0.63 KCAL/MOL
REMARK 927      BINDING AFFINITY PREDICTED BY RF-SCORE:    0.00 PKD
ROOT
HETATM    1  C   UNL     1      -6.301  13.022  68.498  1.00  0.00    -0.081 C  
HETATM    2  C   UNL     1      -7.795  12.841  68.368  1.00  0.00    -0.132 C  
HETATM    3  C   UNL     1      -8.623  13.900  68.214  1.00  0.00    -0.177 C  
ENDROOT
BRANCH   2   4
HETATM    4  C   UNL     1      -8.376  11.501  68.410  1.00  0.00    -0.154 C  
HETATM    5  C   UNL     1      -7.876  10.387  67.853  1.00  0.00    -0.101 C  
BRANCH   5   6
HETATM    6  C   UNL     1      -8.514   9.071  67.925  1.00  0.00    -0.121 C  
HETATM    7  C   UNL     1      -8.186   8.781  70.421  1.00  0.00    -0.127 C  
HETATM    8  C   UNL     1      -9.530   8.744  67.101  1.00  0.00    -0.208 C  
HETATM    9  C   UNL     1     -10.237   7.421  67.150  1.00  0.00    -0.347 C  
HETATM   10  C   UNL     1     -10.123   9.658  66.048  1.00  0.00    -0.318 C  
HETATM   11  C   UNL     1      -6.442   7.944  68.833  1.00  0.00    -0.048 C  
HETATM   12  C   UNL     1      -7.969   8.141  69.024  1.00  0.00    -0.113 C  
HETATM   13  C   UNL     1      -8.598   6.719  69.063  1.00  0.00    -0.131 C  
HETATM   14  C   UNL     1      -9.790   6.397  68.174  1.00  0.00    -0.127 C  
ENDBRANCH   5   6
ENDBRANCH   2   4
BRANCH   3  15
HETATM   15  C   UNL     1      -8.194  15.281  68.093  1.00  0.00    -0.141 C  
HETATM   16  C   UNL     1      -8.606  16.113  67.124  1.00  0.00    -0.211 C  
BRANCH  16  17
HETATM   17  C   UNL     1      -8.156  17.490  66.919  1.00  0.00    -0.254 C  
HETATM   18  C   UNL     1      -9.970  18.827  68.227  1.00  0.00    -0.385 C  
HETATM   19  O   UNL     1     -10.070  19.829  68.919  1.00  0.00    -0.455 OA 
HETATM   20  C   UNL     1      -8.767  18.591  67.402  1.00  0.00    -0.270 C  
HETATM   21  C   UNL     1      -6.877  17.754  66.144  1.00  0.00    -0.329 C  
HETATM   22  O   UNL     1     -10.953  17.923  68.108  1.00  0.00    -0.242 OA 
ENDBRANCH  16  17
ENDBRANCH   3  15
TORSDOF 4
ENDMDL
MODEL      176
REMARK 921   NORMALIZED FREE ENERGY PREDICTED BY IDOCK:   -3.57 KCAL/MOL
REMARK 922        TOTAL FREE ENERGY PREDICTED BY IDOCK:   -5.09 KCAL/MOL
REMARK 923 INTER-LIGAND FREE ENERGY PREDICTED BY IDOCK:   -4.92 KCAL/MOL
REMARK 924 INTRA-LIGAND FREE ENERGY PREDICTED BY IDOCK:   -0.17 KCAL/MOL
REMARK 927      BINDING AFFINITY PREDICTED BY RF-SCORE:    0.00 PKD
ROOT
HETATM    1  C   UNL     1     -11.885  10.498  70.807  1.00  0.00    -0.465 C  
HETATM    2  C   UNL     1     -10.693   9.803  70.193  1.00  0.00    -0.339 C  
HETATM    3  C   UNL     1     -10.316  10.043  68.917  1.00  0.00    -0.217 C  
ENDROOT
BRANCH   2   4
HETATM    4  C   UNL     1      -9.920   8.844  70.980  1.00  0.00    -0.324 C  
HETATM    5  C   UNL     1      -8.603   8.886  71.237  1.00  0.00    -0.259 C  
BRANCH   5   6
HETATM    6  C   UNL     1      -7.885   7.886  72.029  1.00  0.00    -0.123 C  
HETATM    7  C   UNL     1      -5.606   8.963  71.769  1.00  0.00    -0.056 C  
HETATM    8  C   UNL     1      -8.479   7.263  73.067  1.00  0.00    -0.147 C  
HETATM    9  C   UNL     1      -7.782   6.251  73.929  1.00  0.00    -0.092 C  
HETATM   10  C   UNL     1      -9.899   7.513  73.533  1.00  0.00    -0.372 C  
HETATM   11  C   UNL     1      -6.361   7.239  70.119  1.00  0.00    -0.031 C  
HETATM   12  C   UNL     1      -6.421   7.652  71.614  1.00  0.00    -0.039 C  
HETATM   13  C   UNL     1      -5.673   6.544  72.410  1.00  0.00    -0.038 C  
HETATM   14  C   UNL     1      -6.338   5.907  73.621  1.00  0.00    -0.068 C  
ENDBRANCH   5   6
ENDBRANCH   2   4
BRANCH   3  15
HETATM   15  C   UNL     1     -10.942  11.009  68.033  1.00  0.00    -0.312 C  
HETATM   16  C   UNL     1     -10.294  11.667  67.058  1.00  0.00    -0.248 C  
BRANCH  16  17
HETATM   17  C   UNL     1     -10.860  12.694  66.185  1.00  0.00    -0.301 C  
HETATM   18  C   UNL     1      -9.222  14.680  66.590  1.00  0.00    -0.267 C  
HETATM   19  O   UNL     1      -8.707  15.603  65.976  1.00  0.00    -0.292 OA 
HETATM   20  C   UNL     1     -10.371  13.942  66.027  1.00  0.00    -0.310 C  
HETATM   21  C   UNL     1     -12.069  12.366  65.326  1.00  0.00    -0.451 C  
HETATM   22  O   UNL     1      -8.840  14.323  67.825  1.00  0.00    -0.169 OA 
ENDBRANCH  16  17
ENDBRANCH   3  15
TORSDOF 4
ENDMDL
MODEL      177
REMARK 921   NORMALIZED FREE ENERGY PREDICTED BY IDOCK:   -3.56 KCAL/MOL
REMARK 922        TOTAL FREE ENERGY PREDICTED BY IDOCK:   -5.08 KCAL/MOL
REMARK 923 INTER-LIGAND FREE ENERGY PREDICTED BY IDOCK:   -4.53 KCAL/MOL
REMARK 924 INTRA-LIGAND FREE ENERGY PREDICTED BY IDOCK:   -0.55 KCAL/MOL
REMARK 927      BINDING AFFINITY PREDICTED BY RF-SCORE:    0.00 PKD
ROOT
HETATM    1  C   UNL     1      -8.130  13.230  67.441  1.00  0.00    -0.179 C  
HETATM    2  C   UNL     1      -9.107  12.127  67.774  1.00  0.00    -0.189 C  
HETATM    3  C   UNL     1     -10.361  12.400  68.202  1.00  0.00    -0.231 C  
ENDROOT
BRANCH   2   4
HETATM    4  C   UNL     1      -8.705  10.728  67.640  1.00  0.00    -0.126 C  
HETATM    5  C   UNL     1      -8.710   9.792  68.602  1.00  0.00    -0.122 C  
BRANCH   5   6
HETATM    6  C   UNL     1      -8.286   8.405  68.404  1.00  0.00    -0.131 C  
HETATM    7  C   UNL     1     -10.327   7.715  67.070  1.00  0.00    -0.400 C  
HETATM    8  C   UNL     1      -6.980   8.086  68.292  1.00  0.00    -0.073 C  
HETATM    9  C   UNL     1      -6.491   6.685  68.061  1.00  0.00    -0.056 C  
HETATM   10  C   UNL     1      -5.836   9.077  68.344  1.00  0.00    -0.042 C  
HETATM   11  C   UNL     1     -10.322   7.453  69.559  1.00  0.00    -0.218 C  
HETATM   12  C   UNL     1      -9.430   7.381  68.291  1.00  0.00    -0.143 C  
HETATM   13  C   UNL     1      -8.984   5.898  68.147  1.00  0.00    -0.115 C  
HETATM   14  C   UNL     1      -7.512   5.570  67.950  1.00  0.00    -0.080 C  
ENDBRANCH   5   6
ENDBRANCH   2   4
BRANCH   3  15
HETATM   15  C   UNL     1     -10.925  13.732  68.327  1.00  0.00    -0.269 C  
HETATM   16  C   UNL     1     -10.551  14.622  69.259  1.00  0.00    -0.236 C  
BRANCH  16  17
HETATM   17  C   UNL     1     -11.130  15.949  69.469  1.00  0.00    -0.315 C  
HETATM   18  C   UNL     1     -12.281  15.650  71.788  1.00  0.00    -0.421 C  
HETATM   19  O   UNL     1     -12.508  16.290  72.804  1.00  0.00    -0.454 OA 
HETATM   20  C   UNL     1     -11.849  16.326  70.547  1.00  0.00    -0.060 C  
HETATM   21  C   UNL     1     -10.894  17.042  68.441  1.00  0.00    -0.333 C  
HETATM   22  O   UNL     1     -12.475  14.326  71.701  1.00  0.00    -0.338 OA 
ENDBRANCH  16  17
ENDBRANCH   3  15
TORSDOF 4
ENDMDL
MODEL      178
REMARK 921   NORMALIZED FREE ENERGY PREDICTED BY IDOCK:   -3.52 KCAL/MOL
REMARK 922        TOTAL FREE ENERGY PREDICTED BY IDOCK:   -5.04 KCAL/MOL
REMARK 923 INTER-LIGAND FREE ENERGY PREDICTED BY IDOCK:   -4.81 KCAL/MOL
REMARK 924 INTRA-LIGAND FREE ENERGY PREDICTED BY IDOCK:   -0.23 KCAL/MOL
REMARK 927      BINDING AFFINITY PREDICTED BY RF-SCORE:    0.00 PKD
ROOT
HETATM    1  C   UNL     1     -10.658  14.547  68.398  1.00  0.00    -0.244 C  
HETATM    2  C   UNL     1      -9.495  13.733  67.880  1.00  0.00    -0.214 C  
HETATM    3  C   UNL     1      -8.346  14.321  67.479  1.00  0.00    -0.198 C  
ENDROOT
BRANCH   2   4
HETATM    4  C   UNL     1      -9.599  12.277  67.801  1.00  0.00    -0.200 C  
HETATM    5  C   UNL     1      -8.586  11.399  67.732  1.00  0.00    -0.129 C  
BRANCH   5   6
HETATM    6  C   UNL     1      -8.757   9.947  67.647  1.00  0.00    -0.121 C  
HETATM    7  C   UNL     1      -9.127   9.894  65.141  1.00  0.00    -0.257 C  
HETATM    8  C   UNL     1      -8.098   9.119  68.483  1.00  0.00    -0.103 C  
HETATM    9  C   UNL     1      -8.215   7.624  68.423  1.00  0.00    -0.125 C  
HETATM   10  C   UNL     1      -7.133   9.562  69.564  1.00  0.00    -0.068 C  
HETATM   11  C   UNL     1     -11.086  10.121  66.682  1.00  0.00     0.139 C  
HETATM   12  C   UNL     1      -9.689   9.464  66.521  1.00  0.00    -0.299 C  
HETATM   13  C   UNL     1      -9.926   7.928  66.468  1.00  0.00    -0.267 C  
HETATM   14  C   UNL     1      -9.118   7.009  67.372  1.00  0.00    -0.124 C  
ENDBRANCH   5   6
ENDBRANCH   2   4
BRANCH   3  15
HETATM   15  C   UNL     1      -8.069  15.744  67.554  1.00  0.00    -0.179 C  
HETATM   16  C   UNL     1      -8.190  16.588  66.517  1.00  0.00    -0.335 C  
BRANCH  16  17
HETATM   17  C   UNL     1      -7.863  18.014  66.521  1.00  0.00    -0.292 C  
HETATM   18  C   UNL     1      -9.910  19.010  67.790  1.00  0.00    -0.336 C  
HETATM   19  O   UNL     1     -10.169  19.904  68.582  1.00  0.00    -0.447 OA 
HETATM   20  C   UNL     1      -8.621  18.987  67.068  1.00  0.00    -0.308 C  
HETATM   21  C   UNL     1      -6.553  18.486  65.915  1.00  0.00    -0.299 C  
HETATM   22  O   UNL     1     -10.783  18.045  67.468  1.00  0.00    -0.404 OA 
ENDBRANCH  16  17
ENDBRANCH   3  15
TORSDOF 4
ENDMDL
MODEL      179
REMARK 921   NORMALIZED FREE ENERGY PREDICTED BY IDOCK:   -3.52 KCAL/MOL
REMARK 922        TOTAL FREE ENERGY PREDICTED BY IDOCK:   -5.04 KCAL/MOL
REMARK 923 INTER-LIGAND FREE ENERGY PREDICTED BY IDOCK:   -4.50 KCAL/MOL
REMARK 924 INTRA-LIGAND FREE ENERGY PREDICTED BY IDOCK:   -0.54 KCAL/MOL
REMARK 927      BINDING AFFINITY PREDICTED BY RF-SCORE:    0.00 PKD
ROOT
HETATM    1  C   UNL     1     -10.863  14.084  65.995  1.00  0.00    -0.295 C  
HETATM    2  C   UNL     1      -9.545  13.705  66.630  1.00  0.00    -0.289 C  
HETATM    3  C   UNL     1      -8.706  14.643  67.126  1.00  0.00    -0.242 C  
ENDROOT
BRANCH   2   4
HETATM    4  C   UNL     1      -9.150  12.301  66.715  1.00  0.00    -0.211 C  
HETATM    5  C   UNL     1      -9.666  11.274  66.021  1.00  0.00    -0.253 C  
BRANCH   5   6
HETATM    6  C   UNL     1      -9.230   9.884  66.158  1.00  0.00    -0.211 C  
HETATM    7  C   UNL     1      -6.758  10.380  65.911  1.00  0.00    -0.127 C  
HETATM    8  C   UNL     1      -9.906   9.017  66.940  1.00  0.00    -0.288 C  
HETATM    9  C   UNL     1      -9.489   7.589  67.139  1.00  0.00    -0.194 C  
HETATM   10  C   UNL     1     -11.143   9.357  67.747  1.00  0.00     0.024 C  
HETATM   11  C   UNL     1      -8.126   9.841  63.886  1.00  0.00    -0.150 C  
HETATM   12  C   UNL     1      -7.943   9.523  65.394  1.00  0.00    -0.113 C  
HETATM   13  C   UNL     1      -7.512   8.032  65.484  1.00  0.00    -0.081 C  
HETATM   14  C   UNL     1      -8.246   7.090  66.427  1.00  0.00    -0.117 C  
ENDBRANCH   5   6
ENDBRANCH   2   4
BRANCH   3  15
HETATM   15  C   UNL     1      -8.983  16.067  67.171  1.00  0.00    -0.220 C  
HETATM   16  C   UNL     1      -8.500  16.898  68.109  1.00  0.00    -0.217 C  
BRANCH  16  17
HETATM   17  C   UNL     1      -8.800  18.323  68.237  1.00  0.00    -0.301 C  
HETATM   18  C   UNL     1      -7.073  19.365  66.586  1.00  0.00    -0.211 C  
HETATM   19  O   UNL     1      -6.984  20.291  65.793  1.00  0.00    -0.266 OA 
HETATM   20  C   UNL     1      -8.169  19.316  67.576  1.00  0.00    -0.320 C  
HETATM   21  C   UNL     1      -9.935  18.774  69.139  1.00  0.00    -0.257 C  
HETATM   22  O   UNL     1      -6.163  18.383  66.664  1.00  0.00    -0.164 OA 
ENDBRANCH  16  17
ENDBRANCH   3  15
TORSDOF 4
ENDMDL
MODEL      180
REMARK 921   NORMALIZED FREE ENERGY PREDICTED BY IDOCK:   -3.52 KCAL/MOL
REMARK 922        TOTAL FREE ENERGY PREDICTED BY IDOCK:   -5.04 KCAL/MOL
REMARK 923 INTER-LIGAND FREE ENERGY PREDICTED BY IDOCK:   -4.36 KCAL/MOL
REMARK 924 INTRA-LIGAND FREE ENERGY PREDICTED BY IDOCK:   -0.67 KCAL/MOL
REMARK 927      BINDING AFFINITY PREDICTED BY RF-SCORE:    0.00 PKD
ROOT
HETATM    1  C   UNL     1      -8.968   9.255  70.712  1.00  0.00    -0.292 C  
HETATM    2  C   UNL     1      -9.081   9.177  69.207  1.00  0.00    -0.146 C  
HETATM    3  C   UNL     1      -9.666  10.165  68.492  1.00  0.00    -0.161 C  
ENDROOT
BRANCH   2   4
HETATM    4  C   UNL     1      -8.555   8.016  68.492  1.00  0.00    -0.128 C  
HETATM    5  C   UNL     1      -9.055   7.461  67.377  1.00  0.00    -0.129 C  
BRANCH   5   6
HETATM    6  C   UNL     1      -8.484   6.289  66.712  1.00  0.00    -0.111 C  
HETATM    7  C   UNL     1     -10.712   5.214  66.161  1.00  0.00    -0.247 C  
HETATM    8  C   UNL     1      -7.326   6.373  66.026  1.00  0.00    -0.080 C  
HETATM    9  C   UNL     1      -6.709   5.212  65.303  1.00  0.00    -0.048 C  
HETATM   10  C   UNL     1      -6.507   7.637  65.856  1.00  0.00    -0.042 C  
HETATM   11  C   UNL     1      -9.562   4.659  68.314  1.00  0.00    -0.207 C  
HETATM   12  C   UNL     1      -9.323   5.002  66.820  1.00  0.00    -0.136 C  
HETATM   13  C   UNL     1      -8.689   3.739  66.171  1.00  0.00    -0.117 C  
HETATM   14  C   UNL     1      -7.420   3.873  65.342  1.00  0.00    -0.081 C  
ENDBRANCH   5   6
ENDBRANCH   2   4
BRANCH   3  15
HETATM   15  C   UNL     1     -10.178  11.403  69.049  1.00  0.00    -0.137 C  
HETATM   16  C   UNL     1     -11.350  11.958  68.698  1.00  0.00    -0.331 C  
BRANCH  16  17
HETATM   17  C   UNL     1     -11.881  13.233  69.179  1.00  0.00    -0.378 C  
HETATM   18  C   UNL     1     -12.909  12.534  71.469  1.00  0.00    -0.265 C  
HETATM   19  O   UNL     1     -13.062  12.981  72.596  1.00  0.00    -0.327 OA 
HETATM   20  C   UNL     1     -12.528  13.418  70.348  1.00  0.00    -0.322 C  
HETATM   21  C   UNL     1     -11.673  14.491  68.354  1.00  0.00    -0.367 C  
HETATM   22  O   UNL     1     -13.142  11.251  71.155  1.00  0.00    -0.310 OA 
ENDBRANCH  16  17
ENDBRANCH   3  15
TORSDOF 4
ENDMDL
MODEL      181
REMARK 921   NORMALIZED FREE ENERGY PREDICTED BY IDOCK:   -3.43 KCAL/MOL
REMARK 922        TOTAL FREE ENERGY PREDICTED BY IDOCK:   -4.93 KCAL/MOL
REMARK 923 INTER-LIGAND FREE ENERGY PREDICTED BY IDOCK:   -4.48 KCAL/MOL
REMARK 924 INTRA-LIGAND FREE ENERGY PREDICTED BY IDOCK:   -0.45 KCAL/MOL
REMARK 927      BINDING AFFINITY PREDICTED BY RF-SCORE:    0.00 PKD
ROOT
HETATM    1  C   UNL     1      -7.667  14.506  69.365  1.00  0.00    -0.000 C  
HETATM    2  C   UNL     1      -9.096  14.263  68.938  1.00  0.00    -0.031 C  
HETATM    3  C   UNL     1      -9.994  15.272  68.875  1.00  0.00    -0.225 C  
ENDROOT
BRANCH   2   4
HETATM    4  C   UNL     1      -9.535  12.915  68.585  1.00  0.00    -0.002 C  
HETATM    5  C   UNL     1      -8.773  11.916  68.110  1.00  0.00    -0.173 C  
BRANCH   5   6
HETATM    6  C   UNL     1      -9.277  10.586  67.767  1.00  0.00    -0.151 C  
HETATM    7  C   UNL     1      -8.182  10.493  65.484  1.00  0.00    -0.162 C  
HETATM    8  C   UNL     1      -9.469   9.649  68.718  1.00  0.00    -0.148 C  
HETATM    9  C   UNL     1      -9.958   8.261  68.420  1.00  0.00    -0.211 C  
HETATM   10  C   UNL     1      -9.193   9.840  70.196  1.00  0.00    -0.253 C  
HETATM   11  C   UNL     1     -10.501  11.406  65.714  1.00  0.00    -0.314 C  
HETATM   12  C   UNL     1      -9.513  10.343  66.266  1.00  0.00    -0.215 C  
HETATM   13  C   UNL     1     -10.111   8.954  65.903  1.00  0.00     0.046 C  
HETATM   14  C   UNL     1     -10.251   7.889  66.980  1.00  0.00    -0.382 C  
ENDBRANCH   5   6
ENDBRANCH   2   4
BRANCH   3  15
HETATM   15  C   UNL     1      -9.696  16.669  69.134  1.00  0.00    -0.226 C  
HETATM   16  C   UNL     1      -9.024  17.464  68.286  1.00  0.00    -0.268 C  
BRANCH  16  17
HETATM   17  C   UNL     1      -8.642  18.855  68.526  1.00  0.00    -0.383 C  
HETATM   18  C   UNL     1      -6.237  18.574  69.488  1.00  0.00    -0.258 C  
HETATM   19  O   UNL     1      -5.153  19.138  69.465  1.00  0.00    -0.178 OA 
HETATM   20  C   UNL     1      -7.461  19.265  69.033  1.00  0.00    -0.372 C  
HETATM   21  C   UNL     1      -9.599  19.972  68.145  1.00  0.00    -0.423 C  
HETATM   22  O   UNL     1      -6.407  17.340  69.986  1.00  0.00    -0.151 OA 
ENDBRANCH  16  17
ENDBRANCH   3  15
TORSDOF 4
ENDMDL
MODEL      182
REMARK 921   NORMALIZED FREE ENERGY PREDICTED BY IDOCK:   -3.42 KCAL/MOL
REMARK 922        TOTAL FREE ENERGY PREDICTED BY IDOCK:   -4.91 KCAL/MOL
REMARK 923 INTER-LIGAND FREE ENERGY PREDICTED BY IDOCK:   -4.29 KCAL/MOL
REMARK 924 INTRA-LIGAND FREE ENERGY PREDICTED BY IDOCK:   -0.62 KCAL/MOL
REMARK 927      BINDING AFFINITY PREDICTED BY RF-SCORE:    0.00 PKD
ROOT
HETATM    1  C   UNL     1     -10.827  11.814  68.292  1.00  0.00    -0.259 C  
HETATM    2  C   UNL     1      -9.459  11.176  68.351  1.00  0.00    -0.189 C  
HETATM    3  C   UNL     1      -8.332  11.923  68.347  1.00  0.00    -0.157 C  
ENDROOT
BRANCH   2   4
HETATM    4  C   UNL     1      -9.331   9.721  68.410  1.00  0.00    -0.135 C  
HETATM    5  C   UNL     1      -9.246   8.963  69.515  1.00  0.00    -0.150 C  
BRANCH   5   6
HETATM    6  C   UNL     1      -9.111   7.505  69.506  1.00  0.00    -0.143 C  
HETATM    7  C   UNL     1     -10.965   7.101  67.827  1.00  0.00    -0.187 C  
HETATM    8  C   UNL     1      -7.912   6.916  69.691  1.00  0.00    -0.125 C  
HETATM    9  C   UNL     1      -7.712   5.429  69.664  1.00  0.00    -0.074 C  
HETATM   10  C   UNL     1      -6.606   7.653  69.911  1.00  0.00    -0.041 C  
HETATM   11  C   UNL     1     -11.489   7.125  70.275  1.00  0.00    -0.287 C  
HETATM   12  C   UNL     1     -10.412   6.730  69.228  1.00  0.00    -0.241 C  
HETATM   13  C   UNL     1     -10.288   5.181  69.283  1.00  0.00    -0.248 C  
HETATM   14  C   UNL     1      -8.915   4.539  69.420  1.00  0.00    -0.142 C  
ENDBRANCH   5   6
ENDBRANCH   2   4
BRANCH   3  15
HETATM   15  C   UNL     1      -8.296  13.374  68.353  1.00  0.00    -0.137 C  
HETATM   16  C   UNL     1      -8.145  14.126  67.251  1.00  0.00    -0.188 C  
BRANCH  16  17
HETATM   17  C   UNL     1      -8.037  15.584  67.209  1.00  0.00    -0.226 C  
HETATM   18  C   UNL     1     -10.512  16.298  67.602  1.00  0.00    -0.295 C  
HETATM   19  O   UNL     1     -11.150  17.179  68.159  1.00  0.00    -0.315 OA 
HETATM   20  C   UNL     1      -9.063  16.448  67.360  1.00  0.00    -0.206 C  
HETATM   21  C   UNL     1      -6.675  16.232  67.029  1.00  0.00    -0.217 C  
HETATM   22  O   UNL     1     -11.079  15.185  67.113  1.00  0.00    -0.329 OA 
ENDBRANCH  16  17
ENDBRANCH   3  15
TORSDOF 4
ENDMDL
MODEL      183
REMARK 921   NORMALIZED FREE ENERGY PREDICTED BY IDOCK:   -3.42 KCAL/MOL
REMARK 922        TOTAL FREE ENERGY PREDICTED BY IDOCK:   -4.91 KCAL/MOL
REMARK 923 INTER-LIGAND FREE ENERGY PREDICTED BY IDOCK:   -4.24 KCAL/MOL
REMARK 924 INTRA-LIGAND FREE ENERGY PREDICTED BY IDOCK:   -0.67 KCAL/MOL
REMARK 927      BINDING AFFINITY PREDICTED BY RF-SCORE:    0.00 PKD
ROOT
HETATM    1  C   UNL     1      -9.429   7.185  66.456  1.00  0.00    -0.208 C  
HETATM    2  C   UNL     1      -9.867   6.115  67.429  1.00  0.00    -0.151 C  
HETATM    3  C   UNL     1     -10.333   4.920  67.000  1.00  0.00    -0.209 C  
ENDROOT
BRANCH   2   4
HETATM    4  C   UNL     1      -9.796   6.361  68.867  1.00  0.00    -0.152 C  
HETATM    5  C   UNL     1     -10.494   5.735  69.829  1.00  0.00    -0.363 C  
BRANCH   5   6
HETATM    6  C   UNL     1     -10.382   6.034  71.257  1.00  0.00    -0.266 C  
HETATM    7  C   UNL     1      -8.029   5.129  71.511  1.00  0.00    -0.113 C  
HETATM    8  C   UNL     1     -11.004   7.104  71.794  1.00  0.00    -0.258 C  
HETATM    9  C   UNL     1     -10.902   7.473  73.245  1.00  0.00    -0.409 C  
HETATM   10  C   UNL     1     -11.852   8.094  71.022  1.00  0.00    -0.279 C  
HETATM   11  C   UNL     1      -9.989   3.620  71.893  1.00  0.00    -0.223 C  
HETATM   12  C   UNL     1      -9.480   5.077  72.057  1.00  0.00    -0.180 C  
HETATM   13  C   UNL     1      -9.410   5.352  73.586  1.00  0.00    -0.133 C  
HETATM   14  C   UNL     1     -10.059   6.603  74.158  1.00  0.00    -0.390 C  
ENDBRANCH   5   6
ENDBRANCH   2   4
BRANCH   3  15
HETATM   15  C   UNL     1     -10.405   4.505  65.611  1.00  0.00    -0.274 C  
HETATM   16  C   UNL     1      -9.598   3.585  65.058  1.00  0.00    -0.160 C  
BRANCH  16  17
HETATM   17  C   UNL     1      -9.586   3.179  63.653  1.00  0.00    -0.119 C  
HETATM   18  C   UNL     1      -7.029   3.014  63.183  1.00  0.00    -0.039 C  
HETATM   19  O   UNL     1      -6.242   2.339  62.536  1.00  0.00    -0.009 OA 
HETATM   20  C   UNL     1      -8.480   2.955  62.914  1.00  0.00    -0.078 C  
HETATM   21  C   UNL     1     -10.900   2.930  62.933  1.00  0.00    -0.188 C  
HETATM   22  O   UNL     1      -6.637   3.896  64.115  1.00  0.00    -0.040 OA 
ENDBRANCH  16  17
ENDBRANCH   3  15
TORSDOF 4
ENDMDL
MODEL      184
REMARK 921   NORMALIZED FREE ENERGY PREDICTED BY IDOCK:   -3.41 KCAL/MOL
REMARK 922        TOTAL FREE ENERGY PREDICTED BY IDOCK:   -4.90 KCAL/MOL
REMARK 923 INTER-LIGAND FREE ENERGY PREDICTED BY IDOCK:   -4.25 KCAL/MOL
REMARK 924 INTRA-LIGAND FREE ENERGY PREDICTED BY IDOCK:   -0.65 KCAL/MOL
REMARK 927      BINDING AFFINITY PREDICTED BY RF-SCORE:    0.00 PKD
ROOT
HETATM    1  C   UNL     1     -10.621  11.907  66.943  1.00  0.00    -0.264 C  
HETATM    2  C   UNL     1      -9.168  12.285  66.778  1.00  0.00    -0.210 C  
HETATM    3  C   UNL     1      -8.250  11.388  66.351  1.00  0.00    -0.124 C  
ENDROOT
BRANCH   2   4
HETATM    4  C   UNL     1      -8.726  13.643  67.085  1.00  0.00    -0.224 C  
HETATM    5  C   UNL     1      -8.746  14.247  68.284  1.00  0.00    -0.179 C  
BRANCH   5   6
HETATM    6  C   UNL     1      -8.294  15.619  68.524  1.00  0.00    -0.166 C  
HETATM    7  C   UNL     1      -5.904  15.219  67.786  1.00  0.00    -0.144 C  
HETATM    8  C   UNL     1      -9.129  16.665  68.361  1.00  0.00    -0.226 C  
HETATM    9  C   UNL     1      -8.712  18.092  68.566  1.00  0.00    -0.309 C  
HETATM   10  C   UNL     1     -10.575  16.562  67.918  1.00  0.00    -0.329 C  
HETATM   11  C   UNL     1      -6.530  14.912  70.190  1.00  0.00    -0.156 C  
HETATM   12  C   UNL     1      -6.813  15.759  68.920  1.00  0.00    -0.130 C  
HETATM   13  C   UNL     1      -6.345  17.207  69.241  1.00  0.00    -0.231 C  
HETATM   14  C   UNL     1      -7.282  18.377  68.980  1.00  0.00    -0.249 C  
ENDBRANCH   5   6
ENDBRANCH   2   4
BRANCH   3  15
HETATM   15  C   UNL     1      -8.544  10.024  65.950  1.00  0.00    -0.150 C  
HETATM   16  C   UNL     1      -7.835   8.955  66.348  1.00  0.00    -0.103 C  
BRANCH  16  17
HETATM   17  C   UNL     1      -8.047   7.572  65.924  1.00  0.00    -0.127 C  
HETATM   18  C   UNL     1     -10.127   6.908  67.347  1.00  0.00    -0.183 C  
HETATM   19  O   UNL     1     -11.139   6.229  67.256  1.00  0.00    -0.353 OA 
HETATM   20  C   UNL     1      -9.023   6.757  66.377  1.00  0.00    -0.165 C  
HETATM   21  C   UNL     1      -7.153   6.969  64.854  1.00  0.00    -0.064 C  
HETATM   22  O   UNL     1      -9.914   7.768  68.353  1.00  0.00    -0.167 OA 
ENDBRANCH  16  17
ENDBRANCH   3  15
TORSDOF 4
ENDMDL
MODEL      185
REMARK 921   NORMALIZED FREE ENERGY PREDICTED BY IDOCK:   -3.41 KCAL/MOL
REMARK 922        TOTAL FREE ENERGY PREDICTED BY IDOCK:   -4.90 KCAL/MOL
REMARK 923 INTER-LIGAND FREE ENERGY PREDICTED BY IDOCK:   -4.26 KCAL/MOL
REMARK 924 INTRA-LIGAND FREE ENERGY PREDICTED BY IDOCK:   -0.64 KCAL/MOL
REMARK 927      BINDING AFFINITY PREDICTED BY RF-SCORE:    0.00 PKD
ROOT
HETATM    1  C   UNL     1      -6.665  13.709  69.057  1.00  0.00    -0.111 C  
HETATM    2  C   UNL     1      -7.570  13.417  67.882  1.00  0.00    -0.151 C  
HETATM    3  C   UNL     1      -8.135  14.413  67.163  1.00  0.00    -0.171 C  
ENDROOT
BRANCH   2   4
HETATM    4  C   UNL     1      -7.853  12.035  67.503  1.00  0.00    -0.155 C  
HETATM    5  C   UNL     1      -7.106  11.244  66.717  1.00  0.00    -0.143 C  
BRANCH   5   6
HETATM    6  C   UNL     1      -7.451   9.865  66.367  1.00  0.00    -0.101 C  
HETATM    7  C   UNL     1      -6.771  10.055  63.933  1.00  0.00    -0.128 C  
HETATM    8  C   UNL     1      -7.327   8.868  67.267  1.00  0.00    -0.080 C  
HETATM    9  C   UNL     1      -7.640   7.433  66.955  1.00  0.00    -0.106 C  
HETATM   10  C   UNL     1      -6.829   9.037  68.688  1.00  0.00    -0.063 C  
HETATM   11  C   UNL     1      -9.127  10.564  64.610  1.00  0.00    -0.248 C  
HETATM   12  C   UNL     1      -7.906   9.654  64.912  1.00  0.00    -0.123 C  
HETATM   13  C   UNL     1      -8.336   8.202  64.554  1.00  0.00    -0.067 C  
HETATM   14  C   UNL     1      -8.120   7.082  65.560  1.00  0.00    -0.132 C  
ENDBRANCH   5   6
ENDBRANCH   2   4
BRANCH   3  15
HETATM   15  C   UNL     1      -7.902  15.829  67.377  1.00  0.00    -0.203 C  
HETATM   16  C   UNL     1      -8.385  16.799  66.584  1.00  0.00    -0.296 C  
BRANCH  16  17
HETATM   17  C   UNL     1      -8.128  18.233  66.717  1.00  0.00    -0.268 C  
HETATM   18  C   UNL     1     -10.049  18.957  68.322  1.00  0.00    -0.388 C  
HETATM   19  O   UNL     1     -10.252  19.740  69.238  1.00  0.00    -0.381 OA 
HETATM   20  C   UNL     1      -8.858  19.092  67.457  1.00  0.00    -0.316 C  
HETATM   21  C   UNL     1      -6.925  18.847  66.022  1.00  0.00    -0.294 C  
HETATM   22  O   UNL     1     -10.909  17.982  67.993  1.00  0.00    -0.336 OA 
ENDBRANCH  16  17
ENDBRANCH   3  15
TORSDOF 4
ENDMDL
MODEL      186
REMARK 921   NORMALIZED FREE ENERGY PREDICTED BY IDOCK:   -3.37 KCAL/MOL
REMARK 922        TOTAL FREE ENERGY PREDICTED BY IDOCK:   -4.86 KCAL/MOL
REMARK 923 INTER-LIGAND FREE ENERGY PREDICTED BY IDOCK:   -4.19 KCAL/MOL
REMARK 924 INTRA-LIGAND FREE ENERGY PREDICTED BY IDOCK:   -0.66 KCAL/MOL
REMARK 927      BINDING AFFINITY PREDICTED BY RF-SCORE:    0.00 PKD
ROOT
HETATM    1  C   UNL     1      -9.975  13.211  65.650  1.00  0.00    -0.237 C  
HETATM    2  C   UNL     1      -9.682  12.343  66.852  1.00  0.00    -0.217 C  
HETATM    3  C   UNL     1      -9.952  12.764  68.109  1.00  0.00    -0.229 C  
ENDROOT
BRANCH   2   4
HETATM    4  C   UNL     1      -9.091  11.019  66.672  1.00  0.00    -0.177 C  
HETATM    5  C   UNL     1      -8.780  10.136  67.635  1.00  0.00    -0.121 C  
BRANCH   5   6
HETATM    6  C   UNL     1      -8.180   8.824  67.388  1.00  0.00    -0.109 C  
HETATM    7  C   UNL     1      -6.271   9.118  69.028  1.00  0.00    -0.043 C  
HETATM    8  C   UNL     1      -8.944   7.759  67.069  1.00  0.00    -0.145 C  
HETATM    9  C   UNL     1      -8.386   6.386  66.832  1.00  0.00    -0.110 C  
HETATM   10  C   UNL     1     -10.454   7.780  66.939  1.00  0.00    -0.388 C  
HETATM   11  C   UNL     1      -5.973   9.799  66.638  1.00  0.00    -0.059 C  
HETATM   12  C   UNL     1      -6.653   8.759  67.568  1.00  0.00    -0.062 C  
HETATM   13  C   UNL     1      -6.003   7.383  67.243  1.00  0.00    -0.045 C  
HETATM   14  C   UNL     1      -6.889   6.180  66.956  1.00  0.00    -0.066 C  
ENDBRANCH   5   6
ENDBRANCH   2   4
BRANCH   3  15
HETATM   15  C   UNL     1     -10.593  14.022  68.444  1.00  0.00    -0.259 C  
HETATM   16  C   UNL     1     -10.181  14.835  69.431  1.00  0.00    -0.141 C  
BRANCH  16  17
HETATM   17  C   UNL     1     -10.826  16.078  69.852  1.00  0.00    -0.351 C  
HETATM   18  C   UNL     1     -10.227  17.668  67.875  1.00  0.00    -0.357 C  
HETATM   19  O   UNL     1     -10.719  18.588  67.238  1.00  0.00    -0.419 OA 
HETATM   20  C   UNL     1     -10.813  17.238  69.162  1.00  0.00     0.017 C  
HETATM   21  C   UNL     1     -11.630  16.108  71.140  1.00  0.00    -0.453 C  
HETATM   22  O   UNL     1      -9.102  17.041  67.501  1.00  0.00    -0.220 OA 
ENDBRANCH  16  17
ENDBRANCH   3  15
TORSDOF 4
ENDMDL
MODEL      187
REMARK 921   NORMALIZED FREE ENERGY PREDICTED BY IDOCK:   -3.36 KCAL/MOL
REMARK 922        TOTAL FREE ENERGY PREDICTED BY IDOCK:   -4.84 KCAL/MOL
REMARK 923 INTER-LIGAND FREE ENERGY PREDICTED BY IDOCK:   -4.22 KCAL/MOL
REMARK 924 INTRA-LIGAND FREE ENERGY PREDICTED BY IDOCK:   -0.63 KCAL/MOL
REMARK 927      BINDING AFFINITY PREDICTED BY RF-SCORE:    0.00 PKD
ROOT
HETATM    1  C   UNL     1      -6.674   9.516  66.701  1.00  0.00    -0.072 C  
HETATM    2  C   UNL     1      -8.176   9.676  66.684  1.00  0.00    -0.120 C  
HETATM    3  C   UNL     1      -8.999   8.603  66.656  1.00  0.00    -0.174 C  
ENDROOT
BRANCH   2   4
HETATM    4  C   UNL     1      -8.771  11.011  66.694  1.00  0.00    -0.160 C  
HETATM    5  C   UNL     1      -9.088  11.745  67.772  1.00  0.00    -0.178 C  
BRANCH   5   6
HETATM    6  C   UNL     1      -9.690  13.078  67.714  1.00  0.00    -0.218 C  
HETATM    7  C   UNL     1     -11.620  12.539  69.265  1.00  0.00    -0.378 C  
HETATM    8  C   UNL     1      -8.927  14.180  67.567  1.00  0.00    -0.198 C  
HETATM    9  C   UNL     1      -9.488  15.572  67.529  1.00  0.00    -0.208 C  
HETATM   10  C   UNL     1      -7.416  14.183  67.457  1.00  0.00    -0.192 C  
HETATM   11  C   UNL     1     -11.882  12.219  66.796  1.00  0.00    -0.349 C  
HETATM   12  C   UNL     1     -11.220  13.112  67.880  1.00  0.00    -0.300 C  
HETATM   13  C   UNL     1     -11.872  14.518  67.753  1.00  0.00    -0.390 C  
HETATM   14  C   UNL     1     -10.988  15.753  67.661  1.00  0.00    -0.302 C  
ENDBRANCH   5   6
ENDBRANCH   2   4
BRANCH   3  15
HETATM   15  C   UNL     1      -8.564   7.219  66.705  1.00  0.00    -0.128 C  
HETATM   16  C   UNL     1      -9.393   6.167  66.616  1.00  0.00    -0.161 C  
BRANCH  16  17
HETATM   17  C   UNL     1      -9.015   4.758  66.724  1.00  0.00    -0.111 C  
HETATM   18  C   UNL     1      -7.740   4.391  64.481  1.00  0.00    -0.081 C  
HETATM   19  O   UNL     1      -6.784   3.767  64.045  1.00  0.00    -0.041 OA 
HETATM   20  C   UNL     1      -8.324   4.062  65.798  1.00  0.00    -0.109 C  
HETATM   21  C   UNL     1      -9.366   3.981  67.981  1.00  0.00    -0.220 C  
HETATM   22  O   UNL     1      -8.365   5.350  63.782  1.00  0.00    -0.128 OA 
ENDBRANCH  16  17
ENDBRANCH   3  15
TORSDOF 4
ENDMDL
MODEL      188
REMARK 921   NORMALIZED FREE ENERGY PREDICTED BY IDOCK:   -3.35 KCAL/MOL
REMARK 922        TOTAL FREE ENERGY PREDICTED BY IDOCK:   -4.83 KCAL/MOL
REMARK 923 INTER-LIGAND FREE ENERGY PREDICTED BY IDOCK:   -4.39 KCAL/MOL
REMARK 924 INTRA-LIGAND FREE ENERGY PREDICTED BY IDOCK:   -0.44 KCAL/MOL
REMARK 927      BINDING AFFINITY PREDICTED BY RF-SCORE:    0.00 PKD
ROOT
HETATM    1  C   UNL     1      -6.975   9.968  66.183  1.00  0.00    -0.107 C  
HETATM    2  C   UNL     1      -8.469  10.102  66.365  1.00  0.00    -0.133 C  
HETATM    3  C   UNL     1      -9.273   9.016  66.420  1.00  0.00    -0.239 C  
ENDROOT
BRANCH   2   4
HETATM    4  C   UNL     1      -9.077  11.426  66.482  1.00  0.00    -0.193 C  
HETATM    5  C   UNL     1      -8.924  12.297  67.492  1.00  0.00    -0.180 C  
BRANCH   5   6
HETATM    6  C   UNL     1      -9.569  13.610  67.554  1.00  0.00    -0.220 C  
HETATM    7  C   UNL     1     -11.319  12.941  69.260  1.00  0.00    -0.303 C  
HETATM    8  C   UNL     1      -8.857  14.743  67.383  1.00  0.00    -0.203 C  
HETATM    9  C   UNL     1      -9.461  16.115  67.462  1.00  0.00    -0.223 C  
HETATM   10  C   UNL     1      -7.365  14.801  67.126  1.00  0.00    -0.020 C  
HETATM   11  C   UNL     1     -11.815  12.716  66.817  1.00  0.00    -0.440 C  
HETATM   12  C   UNL     1     -11.075  13.584  67.870  1.00  0.00    -0.288 C  
HETATM   13  C   UNL     1     -11.778  14.972  67.871  1.00  0.00    -0.310 C  
HETATM   14  C   UNL     1     -10.945  16.239  67.748  1.00  0.00    -0.281 C  
ENDBRANCH   5   6
ENDBRANCH   2   4
BRANCH   3  15
HETATM   15  C   UNL     1      -8.815   7.639  66.380  1.00  0.00    -0.179 C  
HETATM   16  C   UNL     1      -9.625   6.574  66.493  1.00  0.00    -0.184 C  
BRANCH  16  17
HETATM   17  C   UNL     1      -9.209   5.172  66.524  1.00  0.00    -0.136 C  
HETATM   18  C   UNL     1      -9.440   4.619  69.060  1.00  0.00    -0.155 C  
HETATM   19  O   UNL     1      -9.761   3.689  69.785  1.00  0.00    -0.185 OA 
HETATM   20  C   UNL     1      -9.148   4.400  67.628  1.00  0.00    -0.145 C  
HETATM   21  C   UNL     1      -8.851   4.467  65.227  1.00  0.00    -0.135 C  
HETATM   22  O   UNL     1      -9.260   5.868  69.513  1.00  0.00    -0.133 OA 
ENDBRANCH  16  17
ENDBRANCH   3  15
TORSDOF 4
ENDMDL
MODEL      189
REMARK 921   NORMALIZED FREE ENERGY PREDICTED BY IDOCK:   -3.35 KCAL/MOL
REMARK 922        TOTAL FREE ENERGY PREDICTED BY IDOCK:   -4.83 KCAL/MOL
REMARK 923 INTER-LIGAND FREE ENERGY PREDICTED BY IDOCK:   -5.21 KCAL/MOL
REMARK 924 INTRA-LIGAND FREE ENERGY PREDICTED BY IDOCK:    0.38 KCAL/MOL
REMARK 927      BINDING AFFINITY PREDICTED BY RF-SCORE:    0.00 PKD
ROOT
HETATM    1  C   UNL     1     -10.644   8.890  67.963  1.00  0.00    -0.226 C  
HETATM    2  C   UNL     1      -9.490   7.960  67.671  1.00  0.00    -0.170 C  
HETATM    3  C   UNL     1      -8.637   8.195  66.648  1.00  0.00    -0.140 C  
ENDROOT
BRANCH   2   4
HETATM    4  C   UNL     1      -9.278   6.774  68.498  1.00  0.00    -0.128 C  
HETATM    5  C   UNL     1      -9.787   6.540  69.718  1.00  0.00    -0.182 C  
BRANCH   5   6
HETATM    6  C   UNL     1      -9.529   5.331  70.501  1.00  0.00    -0.222 C  
HETATM    7  C   UNL     1     -10.676   6.155  72.605  1.00  0.00    -0.261 C  
HETATM    8  C   UNL     1      -9.480   4.118  69.913  1.00  0.00    -0.265 C  
HETATM    9  C   UNL     1      -9.247   2.843  70.670  1.00  0.00    -0.207 C  
HETATM   10  C   UNL     1      -9.685   3.861  68.433  1.00  0.00    -0.115 C  
HETATM   11  C   UNL     1      -8.229   6.570  72.279  1.00  0.00    -0.106 C  
HETATM   12  C   UNL     1      -9.373   5.554  72.016  1.00  0.00    -0.164 C  
HETATM   13  C   UNL     1      -9.034   4.281  72.844  1.00  0.00    -0.119 C  
HETATM   14  C   UNL     1      -9.055   2.917  72.172  1.00  0.00    -0.140 C  
ENDBRANCH   5   6
ENDBRANCH   2   4
BRANCH   3  15
HETATM   15  C   UNL     1      -8.679   9.356  65.779  1.00  0.00    -0.183 C  
HETATM   16  C   UNL     1      -9.810   9.987  65.422  1.00  0.00    -0.384 C  
BRANCH  16  17
HETATM   17  C   UNL     1      -9.914  11.118  64.501  1.00  0.00    -0.350 C  
HETATM   18  C   UNL     1     -11.394  12.768  65.872  1.00  0.00    -0.324 C  
HETATM   19  O   UNL     1     -11.518  13.968  66.065  1.00  0.00    -0.323 OA 
HETATM   20  C   UNL     1     -10.593  12.260  64.740  1.00  0.00    -0.332 C  
HETATM   21  C   UNL     1      -9.177  11.075  63.174  1.00  0.00    -0.309 C  
HETATM   22  O   UNL     1     -12.023  11.842  66.611  1.00  0.00    -0.561 OA 
ENDBRANCH  16  17
ENDBRANCH   3  15
TORSDOF 4
ENDMDL
MODEL      190
REMARK 921   NORMALIZED FREE ENERGY PREDICTED BY IDOCK:   -3.33 KCAL/MOL
REMARK 922        TOTAL FREE ENERGY PREDICTED BY IDOCK:   -4.80 KCAL/MOL
REMARK 923 INTER-LIGAND FREE ENERGY PREDICTED BY IDOCK:   -6.12 KCAL/MOL
REMARK 924 INTRA-LIGAND FREE ENERGY PREDICTED BY IDOCK:    1.33 KCAL/MOL
REMARK 927      BINDING AFFINITY PREDICTED BY RF-SCORE:    0.00 PKD
ROOT
HETATM    1  C   UNL     1      -9.198  14.679  68.038  1.00  0.00    -0.197 C  
HETATM    2  C   UNL     1      -9.058  15.700  66.933  1.00  0.00    -0.260 C  
HETATM    3  C   UNL     1      -9.473  15.437  65.673  1.00  0.00    -0.255 C  
ENDROOT
BRANCH   2   4
HETATM    4  C   UNL     1      -8.461  17.004  67.213  1.00  0.00    -0.210 C  
HETATM    5  C   UNL     1      -7.183  17.366  67.015  1.00  0.00    -0.214 C  
BRANCH   5   6
HETATM    6  C   UNL     1      -6.644  18.690  67.324  1.00  0.00    -0.205 C  
HETATM    7  C   UNL     1      -5.910  18.108  69.679  1.00  0.00    -0.243 C  
HETATM    8  C   UNL     1      -6.084  19.455  66.365  1.00  0.00    -0.175 C  
HETATM    9  C   UNL     1      -5.491  20.808  66.631  1.00  0.00    -0.222 C  
HETATM   10  C   UNL     1      -5.941  19.057  64.909  1.00  0.00    -0.318 C  
HETATM   11  C   UNL     1      -8.199  19.039  69.285  1.00  0.00     0.006 C  
HETATM   12  C   UNL     1      -6.724  19.099  68.806  1.00  0.00    -0.330 C  
HETATM   13  C   UNL     1      -6.212  20.532  69.130  1.00  0.00    -0.310 C  
HETATM   14  C   UNL     1      -5.521  21.347  68.048  1.00  0.00    -0.270 C  
ENDBRANCH   5   6
ENDBRANCH   2   4
BRANCH   3  15
HETATM   15  C   UNL     1     -10.139  14.217  65.254  1.00  0.00    -0.378 C  
HETATM   16  C   UNL     1      -9.725  12.983  65.585  1.00  0.00    -0.110 C  
BRANCH  16  17
HETATM   17  C   UNL     1     -10.319  11.724  65.138  1.00  0.00    -0.323 C  
HETATM   18  C   UNL     1     -12.543  12.553  64.064  1.00  0.00    -0.387 C  
HETATM   19  O   UNL     1     -13.281  12.286  63.127  1.00  0.00    -0.506 OA 
HETATM   20  C   UNL     1     -11.504  11.600  64.507  1.00  0.00    -0.272 C  
HETATM   21  C   UNL     1      -9.558  10.424  65.335  1.00  0.00    -0.303 C  
HETATM   22  O   UNL     1     -12.666  13.672  64.793  1.00  0.00    -0.642 OA 
ENDBRANCH  16  17
ENDBRANCH   3  15
TORSDOF 4
ENDMDL
MODEL      191
REMARK 921   NORMALIZED FREE ENERGY PREDICTED BY IDOCK:   -3.29 KCAL/MOL
REMARK 922        TOTAL FREE ENERGY PREDICTED BY IDOCK:   -4.75 KCAL/MOL
REMARK 923 INTER-LIGAND FREE ENERGY PREDICTED BY IDOCK:   -4.53 KCAL/MOL
REMARK 924 INTRA-LIGAND FREE ENERGY PREDICTED BY IDOCK:   -0.22 KCAL/MOL
REMARK 927      BINDING AFFINITY PREDICTED BY RF-SCORE:    0.00 PKD
ROOT
HETATM    1  C   UNL     1     -10.119  10.164  69.606  1.00  0.00    -0.265 C  
HETATM    2  C   UNL     1      -9.360  10.852  68.495  1.00  0.00    -0.181 C  
HETATM    3  C   UNL     1      -8.297  10.266  67.899  1.00  0.00    -0.114 C  
ENDROOT
BRANCH   2   4
HETATM    4  C   UNL     1      -9.768  12.181  68.045  1.00  0.00    -0.203 C  
HETATM    5  C   UNL     1      -9.235  12.891  67.038  1.00  0.00    -0.226 C  
BRANCH   5   6
HETATM    6  C   UNL     1      -9.685  14.225  66.640  1.00  0.00    -0.297 C  
HETATM    7  C   UNL     1      -7.622  15.436  67.476  1.00  0.00    -0.207 C  
HETATM    8  C   UNL     1     -10.459  14.402  65.550  1.00  0.00    -0.366 C  
HETATM    9  C   UNL     1     -10.927  15.749  65.081  1.00  0.00    -0.394 C  
HETATM   10  C   UNL     1     -10.934  13.294  64.632  1.00  0.00    -0.384 C  
HETATM   11  C   UNL     1      -9.587  15.132  68.997  1.00  0.00    -0.229 C  
HETATM   12  C   UNL     1      -9.172  15.378  67.522  1.00  0.00    -0.201 C  
HETATM   13  C   UNL     1      -9.701  16.791  67.142  1.00  0.00    -0.251 C  
HETATM   14  C   UNL     1     -10.512  16.976  65.869  1.00  0.00    -0.282 C  
ENDBRANCH   5   6
ENDBRANCH   2   4
BRANCH   3  15
HETATM   15  C   UNL     1      -7.811   8.931  68.192  1.00  0.00    -0.101 C  
HETATM   16  C   UNL     1      -8.569   7.824  68.127  1.00  0.00    -0.123 C  
BRANCH  16  17
HETATM   17  C   UNL     1      -8.147   6.467  68.473  1.00  0.00    -0.110 C  
HETATM   18  C   UNL     1      -8.593   6.425  71.041  1.00  0.00    -0.131 C  
HETATM   19  O   UNL     1      -8.969   5.650  71.908  1.00  0.00    -0.138 OA 
HETATM   20  C   UNL     1      -8.177   5.932  69.712  1.00  0.00    -0.113 C  
HETATM   21  C   UNL     1      -7.673   5.526  67.379  1.00  0.00    -0.100 C  
HETATM   22  O   UNL     1      -8.462   7.743  71.248  1.00  0.00    -0.114 OA 
ENDBRANCH  16  17
ENDBRANCH   3  15
TORSDOF 4
ENDMDL
MODEL      192
REMARK 921   NORMALIZED FREE ENERGY PREDICTED BY IDOCK:   -3.25 KCAL/MOL
REMARK 922        TOTAL FREE ENERGY PREDICTED BY IDOCK:   -4.71 KCAL/MOL
REMARK 923 INTER-LIGAND FREE ENERGY PREDICTED BY IDOCK:   -4.10 KCAL/MOL
REMARK 924 INTRA-LIGAND FREE ENERGY PREDICTED BY IDOCK:   -0.60 KCAL/MOL
REMARK 927      BINDING AFFINITY PREDICTED BY RF-SCORE:    0.00 PKD
ROOT
HETATM    1  C   UNL     1      -7.628   9.649  67.639  1.00  0.00    -0.091 C  
HETATM    2  C   UNL     1      -8.779   9.044  66.870  1.00  0.00    -0.132 C  
HETATM    3  C   UNL     1      -9.979   9.664  66.793  1.00  0.00    -0.289 C  
ENDROOT
BRANCH   2   4
HETATM    4  C   UNL     1      -8.611   7.761  66.191  1.00  0.00    -0.164 C  
HETATM    5  C   UNL     1      -7.959   6.683  66.653  1.00  0.00    -0.105 C  
BRANCH   5   6
HETATM    6  C   UNL     1      -7.820   5.425  65.917  1.00  0.00    -0.103 C  
HETATM    7  C   UNL     1      -5.357   5.118  66.426  1.00  0.00    -0.009 C  
HETATM    8  C   UNL     1      -8.844   4.551  65.834  1.00  0.00    -0.121 C  
HETATM    9  C   UNL     1      -8.748   3.236  65.117  1.00  0.00    -0.117 C  
HETATM   10  C   UNL     1     -10.205   4.744  66.471  1.00  0.00    -0.294 C  
HETATM   11  C   UNL     1      -6.055   6.349  64.361  1.00  0.00    -0.030 C  
HETATM   12  C   UNL     1      -6.429   5.175  65.306  1.00  0.00    -0.036 C  
HETATM   13  C   UNL     1      -6.295   3.872  64.468  1.00  0.00    -0.030 C  
HETATM   14  C   UNL     1      -7.437   2.868  64.449  1.00  0.00    -0.074 C  
ENDBRANCH   5   6
ENDBRANCH   2   4
BRANCH   3  15
HETATM   15  C   UNL     1     -10.281  10.965  67.360  1.00  0.00    -0.236 C  
HETATM   16  C   UNL     1     -10.754  12.003  66.651  1.00  0.00    -0.280 C  
BRANCH  16  17
HETATM   17  C   UNL     1     -11.013  13.349  67.159  1.00  0.00    -0.292 C  
HETATM   18  C   UNL     1     -10.920  14.756  64.967  1.00  0.00    -0.414 C  
HETATM   19  O   UNL     1     -11.460  15.728  64.461  1.00  0.00    -0.417 OA 
HETATM   20  C   UNL     1     -11.070  14.469  66.409  1.00  0.00    -0.331 C  
HETATM   21  C   UNL     1     -11.294  13.553  68.638  1.00  0.00    -0.323 C  
HETATM   22  O   UNL     1     -10.108  13.935  64.284  1.00  0.00    -0.214 OA 
ENDBRANCH  16  17
ENDBRANCH   3  15
TORSDOF 4
ENDMDL
MODEL      193
REMARK 921   NORMALIZED FREE ENERGY PREDICTED BY IDOCK:   -3.24 KCAL/MOL
REMARK 922        TOTAL FREE ENERGY PREDICTED BY IDOCK:   -4.69 KCAL/MOL
REMARK 923 INTER-LIGAND FREE ENERGY PREDICTED BY IDOCK:   -4.01 KCAL/MOL
REMARK 924 INTRA-LIGAND FREE ENERGY PREDICTED BY IDOCK:   -0.68 KCAL/MOL
REMARK 927      BINDING AFFINITY PREDICTED BY RF-SCORE:    0.00 PKD
ROOT
HETATM    1  C   UNL     1      -7.478   8.624  70.693  1.00  0.00    -0.074 C  
HETATM    2  C   UNL     1      -8.248   8.146  69.484  1.00  0.00    -0.121 C  
HETATM    3  C   UNL     1      -9.561   8.429  69.328  1.00  0.00    -0.164 C  
ENDROOT
BRANCH   2   4
HETATM    4  C   UNL     1      -7.576   7.358  68.452  1.00  0.00    -0.114 C  
HETATM    5  C   UNL     1      -8.036   7.079  67.222  1.00  0.00    -0.115 C  
BRANCH   5   6
HETATM    6  C   UNL     1      -7.315   6.274  66.235  1.00  0.00    -0.081 C  
HETATM    7  C   UNL     1      -9.322   4.892  65.538  1.00  0.00    -0.163 C  
HETATM    8  C   UNL     1      -6.285   6.791  65.535  1.00  0.00    -0.039 C  
HETATM    9  C   UNL     1      -5.528   6.021  64.493  1.00  0.00    -0.017 C  
HETATM   10  C   UNL     1      -5.768   8.210  65.668  1.00  0.00    -0.040 C  
HETATM   11  C   UNL     1      -7.846   4.093  67.395  1.00  0.00    -0.091 C  
HETATM   12  C   UNL     1      -7.853   4.846  66.038  1.00  0.00    -0.099 C  
HETATM   13  C   UNL     1      -7.051   3.965  65.038  1.00  0.00    -0.066 C  
HETATM   14  C   UNL     1      -5.939   4.589  64.208  1.00  0.00    -0.018 C  
ENDBRANCH   5   6
ENDBRANCH   2   4
BRANCH   3  15
HETATM   15  C   UNL     1     -10.349   9.248  70.230  1.00  0.00    -0.272 C  
HETATM   16  C   UNL     1     -11.490   9.865  69.883  1.00  0.00    -0.234 C  
BRANCH  16  17
HETATM   17  C   UNL     1     -12.286  10.751  70.732  1.00  0.00    -0.480 C  
HETATM   18  C   UNL     1     -13.496   9.039  72.279  1.00  0.00    -0.475 C  
HETATM   19  O   UNL     1     -13.877   8.935  73.436  1.00  0.00    -0.102 OA 
HETATM   20  C   UNL     1     -13.112  10.351  71.721  1.00  0.00    -0.567 C  
HETATM   21  C   UNL     1     -12.174  12.256  70.558  1.00  0.00    -0.387 C  
HETATM   22  O   UNL     1     -13.469   8.005  71.425  1.00  0.00    -0.297 OA 
ENDBRANCH  16  17
ENDBRANCH   3  15
TORSDOF 4
ENDMDL
MODEL      194
REMARK 921   NORMALIZED FREE ENERGY PREDICTED BY IDOCK:   -3.22 KCAL/MOL
REMARK 922        TOTAL FREE ENERGY PREDICTED BY IDOCK:   -4.66 KCAL/MOL
REMARK 923 INTER-LIGAND FREE ENERGY PREDICTED BY IDOCK:   -4.12 KCAL/MOL
REMARK 924 INTRA-LIGAND FREE ENERGY PREDICTED BY IDOCK:   -0.54 KCAL/MOL
REMARK 927      BINDING AFFINITY PREDICTED BY RF-SCORE:    0.00 PKD
ROOT
HETATM    1  C   UNL     1     -10.956  12.451  68.089  1.00  0.00    -0.263 C  
HETATM    2  C   UNL     1      -9.747  13.168  67.534  1.00  0.00    -0.213 C  
HETATM    3  C   UNL     1      -8.791  12.507  66.844  1.00  0.00    -0.203 C  
ENDROOT
BRANCH   2   4
HETATM    4  C   UNL     1      -9.591  14.606  67.740  1.00  0.00    -0.213 C  
HETATM    5  C   UNL     1      -8.954  15.472  66.936  1.00  0.00    -0.272 C  
BRANCH   5   6
HETATM    6  C   UNL     1      -8.825  16.906  67.205  1.00  0.00    -0.221 C  
HETATM    7  C   UNL     1     -11.253  17.250  67.843  1.00  0.00     0.109 C  
HETATM    8  C   UNL     1      -7.679  17.422  67.692  1.00  0.00    -0.203 C  
HETATM    9  C   UNL     1      -7.501  18.878  68.011  1.00  0.00    -0.277 C  
HETATM   10  C   UNL     1      -6.434  16.621  68.018  1.00  0.00    -0.143 C  
HETATM   11  C   UNL     1     -10.540  17.545  65.462  1.00  0.00    -0.097 C  
HETATM   12  C   UNL     1     -10.093  17.737  66.936  1.00  0.00    -0.342 C  
HETATM   13  C   UNL     1      -9.942  19.269  67.157  1.00  0.00    -0.452 C  
HETATM   14  C   UNL     1      -8.666  19.820  67.774  1.00  0.00    -0.380 C  
ENDBRANCH   5   6
ENDBRANCH   2   4
BRANCH   3  15
HETATM   15  C   UNL     1      -8.833  11.096  66.506  1.00  0.00    -0.174 C  
HETATM   16  C   UNL     1      -7.835  10.233  66.754  1.00  0.00    -0.114 C  
BRANCH  16  17
HETATM   17  C   UNL     1      -7.801   8.821  66.377  1.00  0.00    -0.099 C  
HETATM   18  C   UNL     1      -8.163   7.661  68.682  1.00  0.00    -0.128 C  
HETATM   19  O   UNL     1      -8.714   6.677  69.153  1.00  0.00    -0.129 OA 
HETATM   20  C   UNL     1      -7.942   7.782  67.226  1.00  0.00    -0.118 C  
HETATM   21  C   UNL     1      -7.643   8.437  64.915  1.00  0.00    -0.100 C  
HETATM   22  O   UNL     1      -7.661   8.648  69.438  1.00  0.00    -0.088 OA 
ENDBRANCH  16  17
ENDBRANCH   3  15
TORSDOF 4
ENDMDL
MODEL      195
REMARK 921   NORMALIZED FREE ENERGY PREDICTED BY IDOCK:   -3.22 KCAL/MOL
REMARK 922        TOTAL FREE ENERGY PREDICTED BY IDOCK:   -4.66 KCAL/MOL
REMARK 923 INTER-LIGAND FREE ENERGY PREDICTED BY IDOCK:   -4.00 KCAL/MOL
REMARK 924 INTRA-LIGAND FREE ENERGY PREDICTED BY IDOCK:   -0.66 KCAL/MOL
REMARK 927      BINDING AFFINITY PREDICTED BY RF-SCORE:    0.00 PKD
ROOT
HETATM    1  C   UNL     1      -8.428   7.325  68.558  1.00  0.00    -0.125 C  
HETATM    2  C   UNL     1      -8.157   8.661  69.208  1.00  0.00    -0.112 C  
HETATM    3  C   UNL     1      -7.770   8.751  70.500  1.00  0.00    -0.089 C  
ENDROOT
BRANCH   2   4
HETATM    4  C   UNL     1      -8.314   9.894  68.439  1.00  0.00    -0.107 C  
HETATM    5  C   UNL     1      -9.139  10.917  68.714  1.00  0.00    -0.174 C  
BRANCH   5   6
HETATM    6  C   UNL     1      -9.256  12.126  67.897  1.00  0.00    -0.188 C  
HETATM    7  C   UNL     1     -11.785  12.241  67.995  1.00  0.00    -0.417 C  
HETATM    8  C   UNL     1      -8.304  13.080  67.927  1.00  0.00    -0.170 C  
HETATM    9  C   UNL     1      -8.385  14.351  67.131  1.00  0.00    -0.214 C  
HETATM   10  C   UNL     1      -7.051  13.032  68.779  1.00  0.00    -0.097 C  
HETATM   11  C   UNL     1     -10.670  10.988  66.138  1.00  0.00    -0.257 C  
HETATM   12  C   UNL     1     -10.545  12.229  67.063  1.00  0.00    -0.248 C  
HETATM   13  C   UNL     1     -10.644  13.479  66.143  1.00  0.00    -0.290 C  
HETATM   14  C   UNL     1      -9.596  14.576  66.247  1.00  0.00    -0.328 C  
ENDBRANCH   5   6
ENDBRANCH   2   4
BRANCH   3  15
HETATM   15  C   UNL     1      -7.512   7.620  71.372  1.00  0.00    -0.079 C  
HETATM   16  C   UNL     1      -8.160   7.398  72.527  1.00  0.00    -0.117 C  
BRANCH  16  17
HETATM   17  C   UNL     1      -7.895   6.313  73.471  1.00  0.00    -0.097 C  
HETATM   18  C   UNL     1     -10.297   5.394  73.890  1.00  0.00    -0.259 C  
HETATM   19  O   UNL     1     -10.866   4.330  74.091  1.00  0.00    -0.251 OA 
HETATM   20  C   UNL     1      -8.829   5.505  74.013  1.00  0.00    -0.119 C  
HETATM   21  C   UNL     1      -6.464   5.999  73.872  1.00  0.00    -0.070 C  
HETATM   22  O   UNL     1     -10.954   6.532  73.621  1.00  0.00    -0.194 OA 
ENDBRANCH  16  17
ENDBRANCH   3  15
TORSDOF 4
ENDMDL
MODEL      196
REMARK 921   NORMALIZED FREE ENERGY PREDICTED BY IDOCK:   -3.20 KCAL/MOL
REMARK 922        TOTAL FREE ENERGY PREDICTED BY IDOCK:   -4.64 KCAL/MOL
REMARK 923 INTER-LIGAND FREE ENERGY PREDICTED BY IDOCK:   -4.00 KCAL/MOL
REMARK 924 INTRA-LIGAND FREE ENERGY PREDICTED BY IDOCK:   -0.64 KCAL/MOL
REMARK 927      BINDING AFFINITY PREDICTED BY RF-SCORE:    0.00 PKD
ROOT
HETATM    1  C   UNL     1      -8.569   6.246  68.639  1.00  0.00    -0.121 C  
HETATM    2  C   UNL     1      -8.958   7.409  69.523  1.00  0.00    -0.144 C  
HETATM    3  C   UNL     1      -8.925   7.311  70.871  1.00  0.00    -0.150 C  
ENDROOT
BRANCH   2   4
HETATM    4  C   UNL     1      -9.385   8.672  68.925  1.00  0.00    -0.145 C  
HETATM    5  C   UNL     1      -9.063   9.909  69.334  1.00  0.00    -0.216 C  
BRANCH   5   6
HETATM    6  C   UNL     1      -9.532  11.138  68.694  1.00  0.00    -0.196 C  
HETATM    7  C   UNL     1      -8.063  10.917  66.641  1.00  0.00    -0.147 C  
HETATM    8  C   UNL     1     -10.800  11.568  68.858  1.00  0.00    -0.263 C  
HETATM    9  C   UNL     1     -11.341  12.806  68.204  1.00  0.00    -0.329 C  
HETATM   10  C   UNL     1     -11.857  10.862  69.682  1.00  0.00    -0.416 C  
HETATM   11  C   UNL     1      -7.227  12.174  68.638  1.00  0.00    -0.109 C  
HETATM   12  C   UNL     1      -8.495  11.849  67.804  1.00  0.00    -0.154 C  
HETATM   13  C   UNL     1      -8.968  13.190  67.174  1.00  0.00    -0.228 C  
HETATM   14  C   UNL     1     -10.421  13.617  67.313  1.00  0.00    -0.260 C  
ENDBRANCH   5   6
ENDBRANCH   2   4
BRANCH   3  15
HETATM   15  C   UNL     1      -8.467   6.150  71.610  1.00  0.00    -0.130 C  
HETATM   16  C   UNL     1      -9.171   5.554  72.587  1.00  0.00    -0.143 C  
BRANCH  16  17
HETATM   17  C   UNL     1      -8.730   4.424  73.404  1.00  0.00    -0.099 C  
HETATM   18  C   UNL     1     -10.937   3.058  73.632  1.00  0.00    -0.228 C  
HETATM   19  O   UNL     1     -11.311   1.896  73.687  1.00  0.00    -0.179 OA 
HETATM   20  C   UNL     1      -9.513   3.406  73.816  1.00  0.00    -0.119 C  
HETATM   21  C   UNL     1      -7.271   4.317  73.811  1.00  0.00    -0.067 C  
HETATM   22  O   UNL     1     -11.781   4.089  73.478  1.00  0.00    -0.157 OA 
ENDBRANCH  16  17
ENDBRANCH   3  15
TORSDOF 4
ENDMDL
MODEL      197
REMARK 921   NORMALIZED FREE ENERGY PREDICTED BY IDOCK:   -3.13 KCAL/MOL
REMARK 922        TOTAL FREE ENERGY PREDICTED BY IDOCK:   -4.55 KCAL/MOL
REMARK 923 INTER-LIGAND FREE ENERGY PREDICTED BY IDOCK:   -4.45 KCAL/MOL
REMARK 924 INTRA-LIGAND FREE ENERGY PREDICTED BY IDOCK:   -0.10 KCAL/MOL
REMARK 927      BINDING AFFINITY PREDICTED BY RF-SCORE:    0.00 PKD
ROOT
HETATM    1  C   UNL     1      -9.507  13.853  65.659  1.00  0.00     0.049 C  
HETATM    2  C   UNL     1      -9.556  12.712  66.649  1.00  0.00    -0.249 C  
HETATM    3  C   UNL     1     -10.028  12.887  67.904  1.00  0.00    -0.233 C  
ENDROOT
BRANCH   2   4
HETATM    4  C   UNL     1      -9.083  11.385  66.260  1.00  0.00    -0.211 C  
HETATM    5  C   UNL     1      -9.734  10.221  66.408  1.00  0.00    -0.252 C  
BRANCH   5   6
HETATM    6  C   UNL     1      -9.200   8.919  66.003  1.00  0.00    -0.287 C  
HETATM    7  C   UNL     1     -10.843   7.550  67.362  1.00  0.00    -0.272 C  
HETATM    8  C   UNL     1      -8.666   8.738  64.778  1.00  0.00    -0.133 C  
HETATM    9  C   UNL     1      -8.129   7.420  64.301  1.00  0.00    -0.055 C  
HETATM   10  C   UNL     1      -8.561   9.806  63.709  1.00  0.00    -0.208 C  
HETATM   11  C   UNL     1      -8.656   8.229  68.372  1.00  0.00    -0.133 C  
HETATM   12  C   UNL     1      -9.344   7.799  67.049  1.00  0.00    -0.196 C  
HETATM   13  C   UNL     1      -8.720   6.432  66.649  1.00  0.00    -0.127 C  
HETATM   14  C   UNL     1      -8.188   6.230  65.238  1.00  0.00    -0.138 C  
ENDBRANCH   5   6
ENDBRANCH   2   4
BRANCH   3  15
HETATM   15  C   UNL     1     -10.587  14.124  68.418  1.00  0.00    -0.263 C  
HETATM   16  C   UNL     1     -10.491  14.517  69.698  1.00  0.00    -0.020 C  
BRANCH  16  17
HETATM   17  C   UNL     1     -11.089  15.718  70.280  1.00  0.00    -0.372 C  
HETATM   18  C   UNL     1     -10.373  17.539  68.559  1.00  0.00    -0.380 C  
HETATM   19  O   UNL     1     -10.808  18.562  68.050  1.00  0.00    -0.299 OA 
HETATM   20  C   UNL     1     -11.007  16.961  69.761  1.00  0.00     0.035 C  
HETATM   21  C   UNL     1     -11.920  15.605  71.546  1.00  0.00    -0.482 C  
HETATM   22  O   UNL     1      -9.269  16.918  68.118  1.00  0.00    -0.223 OA 
ENDBRANCH  16  17
ENDBRANCH   3  15
TORSDOF 4
ENDMDL
MODEL      198
REMARK 921   NORMALIZED FREE ENERGY PREDICTED BY IDOCK:   -3.00 KCAL/MOL
REMARK 922        TOTAL FREE ENERGY PREDICTED BY IDOCK:   -4.40 KCAL/MOL
REMARK 923 INTER-LIGAND FREE ENERGY PREDICTED BY IDOCK:   -4.52 KCAL/MOL
REMARK 924 INTRA-LIGAND FREE ENERGY PREDICTED BY IDOCK:    0.13 KCAL/MOL
REMARK 927      BINDING AFFINITY PREDICTED BY RF-SCORE:    0.00 PKD
ROOT
HETATM    1  C   UNL     1     -11.503  11.447  67.839  1.00  0.00    -0.361 C  
HETATM    2  C   UNL     1     -10.366  12.251  67.251  1.00  0.00    -0.228 C  
HETATM    3  C   UNL     1      -9.471  11.691  66.405  1.00  0.00    -0.232 C  
ENDROOT
BRANCH   2   4
HETATM    4  C   UNL     1     -10.213  13.663  67.595  1.00  0.00    -0.239 C  
HETATM    5  C   UNL     1      -9.062  14.324  67.797  1.00  0.00    -0.195 C  
BRANCH   5   6
HETATM    6  C   UNL     1      -8.977  15.742  68.148  1.00  0.00    -0.180 C  
HETATM    7  C   UNL     1      -6.700  16.115  67.099  1.00  0.00    -0.227 C  
HETATM    8  C   UNL     1     -10.083  16.512  68.208  1.00  0.00    -0.259 C  
HETATM    9  C   UNL     1     -10.051  17.976  68.536  1.00  0.00    -0.399 C  
HETATM   10  C   UNL     1     -11.492  16.032  67.925  1.00  0.00    -0.140 C  
HETATM   11  C   UNL     1      -6.866  15.441  69.504  1.00  0.00    -0.181 C  
HETATM   12  C   UNL     1      -7.551  16.272  68.387  1.00  0.00    -0.166 C  
HETATM   13  C   UNL     1      -7.460  17.762  68.824  1.00  0.00    -0.263 C  
HETATM   14  C   UNL     1      -8.710  18.628  68.815  1.00  0.00    -0.290 C  
ENDBRANCH   5   6
ENDBRANCH   2   4
BRANCH   3  15
HETATM   15  C   UNL     1      -9.525  10.324  65.923  1.00  0.00    -0.241 C  
HETATM   16  C   UNL     1      -8.692   9.351  66.327  1.00  0.00    -0.157 C  
BRANCH  16  17
HETATM   17  C   UNL     1      -8.661   7.977  65.827  1.00  0.00    -0.175 C  
HETATM   18  C   UNL     1      -7.229   8.244  63.667  1.00  0.00    -0.093 C  
HETATM   19  O   UNL     1      -6.392   7.629  63.022  1.00  0.00    -0.061 OA 
HETATM   20  C   UNL     1      -8.034   7.568  64.705  1.00  0.00    -0.133 C  
HETATM   21  C   UNL     1      -9.335   6.873  66.623  1.00  0.00    -0.198 C  
HETATM   22  O   UNL     1      -7.525   9.531  63.436  1.00  0.00    -0.104 OA 
ENDBRANCH  16  17
ENDBRANCH   3  15
TORSDOF 4
ENDMDL
MODEL      199
REMARK 921   NORMALIZED FREE ENERGY PREDICTED BY IDOCK:   -3.00 KCAL/MOL
REMARK 922        TOTAL FREE ENERGY PREDICTED BY IDOCK:   -4.39 KCAL/MOL
REMARK 923 INTER-LIGAND FREE ENERGY PREDICTED BY IDOCK:   -3.75 KCAL/MOL
REMARK 924 INTRA-LIGAND FREE ENERGY PREDICTED BY IDOCK:   -0.64 KCAL/MOL
REMARK 927      BINDING AFFINITY PREDICTED BY RF-SCORE:    0.00 PKD
ROOT
HETATM    1  C   UNL     1      -6.639   7.254  69.471  1.00  0.00    -0.040 C  
HETATM    2  C   UNL     1      -7.643   6.369  68.772  1.00  0.00    -0.093 C  
HETATM    3  C   UNL     1      -8.767   5.948  69.395  1.00  0.00    -0.116 C  
ENDROOT
BRANCH   2   4
HETATM    4  C   UNL     1      -7.410   5.945  67.393  1.00  0.00    -0.077 C  
HETATM    5  C   UNL     1      -8.340   5.622  66.480  1.00  0.00    -0.110 C  
BRANCH   5   6
HETATM    6  C   UNL     1      -8.040   5.197  65.112  1.00  0.00    -0.118 C  
HETATM    7  C   UNL     1      -9.340   3.026  65.243  1.00  0.00    -0.122 C  
HETATM    8  C   UNL     1      -7.881   6.099  64.121  1.00  0.00    -0.117 C  
HETATM    9  C   UNL     1      -7.599   5.717  62.697  1.00  0.00    -0.074 C  
HETATM   10  C   UNL     1      -7.996   7.600  64.287  1.00  0.00    -0.112 C  
HETATM   11  C   UNL     1      -6.914   3.060  65.857  1.00  0.00    -0.057 C  
HETATM   12  C   UNL     1      -7.972   3.673  64.901  1.00  0.00    -0.090 C  
HETATM   13  C   UNL     1      -7.589   3.217  63.464  1.00  0.00    -0.063 C  
HETATM   14  C   UNL     1      -7.486   4.246  62.349  1.00  0.00    -0.044 C  
ENDBRANCH   5   6
ENDBRANCH   2   4
BRANCH   3  15
HETATM   15  C   UNL     1      -9.168   6.332  70.737  1.00  0.00    -0.160 C  
HETATM   16  C   UNL     1     -10.381   6.815  71.050  1.00  0.00    -0.228 C  
BRANCH  16  17
HETATM   17  C   UNL     1     -10.813   7.276  72.369  1.00  0.00    -0.293 C  
HETATM   18  C   UNL     1     -12.283   9.334  71.742  1.00  0.00    -0.385 C  
HETATM   19  O   UNL     1     -13.299   9.901  72.115  1.00  0.00    -0.438 OA 
HETATM   20  C   UNL     1     -11.610   8.339  72.602  1.00  0.00    -0.419 C  
HETATM   21  C   UNL     1     -10.398   6.501  73.607  1.00  0.00    -0.323 C  
HETATM   22  O   UNL     1     -11.673   9.619  70.582  1.00  0.00    -0.269 OA 
ENDBRANCH  16  17
ENDBRANCH   3  15
TORSDOF 4
ENDMDL
MODEL      200
REMARK 921   NORMALIZED FREE ENERGY PREDICTED BY IDOCK:   -2.99 KCAL/MOL
REMARK 922        TOTAL FREE ENERGY PREDICTED BY IDOCK:   -4.39 KCAL/MOL
REMARK 923 INTER-LIGAND FREE ENERGY PREDICTED BY IDOCK:   -3.83 KCAL/MOL
REMARK 924 INTRA-LIGAND FREE ENERGY PREDICTED BY IDOCK:   -0.56 KCAL/MOL
REMARK 927      BINDING AFFINITY PREDICTED BY RF-SCORE:    0.00 PKD
ROOT
HETATM    1  C   UNL     1     -10.664   8.681  70.561  1.00  0.00    -0.252 C  
HETATM    2  C   UNL     1      -9.499   7.999  69.881  1.00  0.00    -0.160 C  
HETATM    3  C   UNL     1      -8.601   8.698  69.152  1.00  0.00    -0.129 C  
ENDROOT
BRANCH   2   4
HETATM    4  C   UNL     1      -9.326   6.553  70.002  1.00  0.00    -0.160 C  
HETATM    5  C   UNL     1      -8.487   5.906  70.827  1.00  0.00    -0.129 C  
BRANCH   5   6
HETATM    6  C   UNL     1      -8.355   4.450  70.894  1.00  0.00    -0.096 C  
HETATM    7  C   UNL     1     -10.166   4.123  72.635  1.00  0.00    -0.231 C  
HETATM    8  C   UNL     1      -8.004   3.733  69.807  1.00  0.00    -0.055 C  
HETATM    9  C   UNL     1      -7.880   2.237  69.811  1.00  0.00    -0.050 C  
HETATM   10  C   UNL     1      -7.722   4.314  68.436  1.00  0.00    -0.070 C  
HETATM   11  C   UNL     1      -7.794   4.457  73.358  1.00  0.00    -0.090 C  
HETATM   12  C   UNL     1      -8.691   3.825  72.260  1.00  0.00    -0.112 C  
HETATM   13  C   UNL     1      -8.489   2.286  72.355  1.00  0.00    -0.064 C  
HETATM   14  C   UNL     1      -8.163   1.490  71.100  1.00  0.00    -0.055 C  
ENDBRANCH   5   6
ENDBRANCH   2   4
BRANCH   3  15
HETATM   15  C   UNL     1      -8.603  10.140  68.990  1.00  0.00    -0.156 C  
HETATM   16  C   UNL     1      -9.126  10.777  67.930  1.00  0.00    -0.150 C  
BRANCH  16  17
HETATM   17  C   UNL     1      -9.098  12.219  67.688  1.00  0.00    -0.184 C  
HETATM   18  C   UNL     1     -11.581  12.869  68.135  1.00  0.00    -0.336 C  
HETATM   19  O   UNL     1     -12.233  13.789  68.608  1.00  0.00    -0.347 OA 
HETATM   20  C   UNL     1     -10.157  13.049  67.786  1.00  0.00    -0.229 C  
HETATM   21  C   UNL     1      -7.783  12.896  67.340  1.00  0.00    -0.160 C  
HETATM   22  O   UNL     1     -12.116  11.677  67.834  1.00  0.00    -0.613 OA 
ENDBRANCH  16  17
ENDBRANCH   3  15
TORSDOF 4
ENDMDL
MODEL      201
REMARK 921   NORMALIZED FREE ENERGY PREDICTED BY IDOCK:   -2.89 KCAL/MOL
REMARK 922        TOTAL FREE ENERGY PREDICTED BY IDOCK:   -4.26 KCAL/MOL
REMARK 923 INTER-LIGAND FREE ENERGY PREDICTED BY IDOCK:   -3.90 KCAL/MOL
REMARK 924 INTRA-LIGAND FREE ENERGY PREDICTED BY IDOCK:   -0.36 KCAL/MOL
REMARK 927      BINDING AFFINITY PREDICTED BY RF-SCORE:    0.00 PKD
ROOT
HETATM    1  C   UNL     1     -11.736  13.087  67.032  1.00  0.00    -0.441 C  
HETATM    2  C   UNL     1     -10.603  12.500  67.842  1.00  0.00    -0.233 C  
HETATM    3  C   UNL     1      -9.661  13.287  68.410  1.00  0.00    -0.185 C  
ENDROOT
BRANCH   2   4
HETATM    4  C   UNL     1     -10.505  11.053  68.022  1.00  0.00    -0.219 C  
HETATM    5  C   UNL     1      -9.416  10.357  68.387  1.00  0.00    -0.151 C  
BRANCH   5   6
HETATM    6  C   UNL     1      -9.381   8.902  68.543  1.00  0.00    -0.141 C  
HETATM    7  C   UNL     1      -8.469   8.432  66.226  1.00  0.00    -0.132 C  
HETATM    8  C   UNL     1      -9.139   8.337  69.743  1.00  0.00    -0.147 C  
HETATM    9  C   UNL     1      -9.065   6.853  69.955  1.00  0.00    -0.145 C  
HETATM   10  C   UNL     1      -8.875   9.100  71.025  1.00  0.00    -0.267 C  
HETATM   11  C   UNL     1     -10.944   8.499  66.598  1.00  0.00     0.601 C  
HETATM   12  C   UNL     1      -9.591   8.101  67.245  1.00  0.00    -0.211 C  
HETATM   13  C   UNL     1      -9.620   6.555  67.416  1.00  0.00    -0.142 C  
HETATM   14  C   UNL     1      -9.273   5.939  68.763  1.00  0.00    -0.120 C  
ENDBRANCH   5   6
ENDBRANCH   2   4
BRANCH   3  15
HETATM   15  C   UNL     1      -9.656  14.738  68.372  1.00  0.00    -0.213 C  
HETATM   16  C   UNL     1      -8.969  15.464  67.476  1.00  0.00    -0.191 C  
BRANCH  16  17
HETATM   17  C   UNL     1      -8.878  16.923  67.434  1.00  0.00    -0.212 C  
HETATM   18  C   UNL     1     -10.328  17.472  65.339  1.00  0.00     0.122 C  
HETATM   19  O   UNL     1     -11.108  18.327  64.944  1.00  0.00    -0.615 OA 
HETATM   20  C   UNL     1      -9.467  17.716  66.514  1.00  0.00    -0.294 C  
HETATM   21  C   UNL     1      -8.109  17.659  68.517  1.00  0.00    -0.283 C  
HETATM   22  O   UNL     1     -10.147  16.303  64.708  1.00  0.00    -0.282 OA 
ENDBRANCH  16  17
ENDBRANCH   3  15
TORSDOF 4
ENDMDL
MODEL      202
REMARK 921   NORMALIZED FREE ENERGY PREDICTED BY IDOCK:   -2.86 KCAL/MOL
REMARK 922        TOTAL FREE ENERGY PREDICTED BY IDOCK:   -4.22 KCAL/MOL
REMARK 923 INTER-LIGAND FREE ENERGY PREDICTED BY IDOCK:   -3.64 KCAL/MOL
REMARK 924 INTRA-LIGAND FREE ENERGY PREDICTED BY IDOCK:   -0.58 KCAL/MOL
REMARK 927      BINDING AFFINITY PREDICTED BY RF-SCORE:    0.00 PKD
ROOT
HETATM    1  C   UNL     1      -5.495   9.917  67.485  1.00  0.00    -0.035 C  
HETATM    2  C   UNL     1      -6.928  10.382  67.603  1.00  0.00    -0.083 C  
HETATM    3  C   UNL     1      -7.888   9.581  68.118  1.00  0.00    -0.083 C  
ENDROOT
BRANCH   2   4
HETATM    4  C   UNL     1      -7.302  11.721  67.153  1.00  0.00    -0.146 C  
HETATM    5  C   UNL     1      -8.207  12.537  67.716  1.00  0.00    -0.166 C  
BRANCH   5   6
HETATM    6  C   UNL     1      -8.544  13.869  67.211  1.00  0.00    -0.221 C  
HETATM    7  C   UNL     1     -10.955  13.821  67.988  1.00  0.00    -0.268 C  
HETATM    8  C   UNL     1      -7.623  14.854  67.177  1.00  0.00    -0.145 C  
HETATM    9  C   UNL     1      -7.920  16.244  66.695  1.00  0.00    -0.324 C  
HETATM   10  C   UNL     1      -6.188  14.718  67.645  1.00  0.00    -0.114 C  
HETATM   11  C   UNL     1     -10.372  13.003  65.695  1.00  0.00    -0.294 C  
HETATM   12  C   UNL     1     -10.010  14.053  66.780  1.00  0.00    -0.268 C  
HETATM   13  C   UNL     1     -10.357  15.446  66.181  1.00  0.00    -0.325 C  
HETATM   14  C   UNL     1      -9.324  16.562  66.219  1.00  0.00    -0.334 C  
ENDBRANCH   5   6
ENDBRANCH   2   4
BRANCH   3  15
HETATM   15  C   UNL     1      -7.662   8.254  68.661  1.00  0.00    -0.114 C  
HETATM   16  C   UNL     1      -8.438   7.191  68.396  1.00  0.00    -0.124 C  
BRANCH  16  17
HETATM   17  C   UNL     1      -8.293   5.852  68.965  1.00  0.00    -0.106 C  
HETATM   18  C   UNL     1      -7.988   4.406  66.819  1.00  0.00    -0.098 C  
HETATM   19  O   UNL     1      -7.373   3.421  66.439  1.00  0.00    -0.073 OA 
HETATM   20  C   UNL     1      -8.108   4.718  68.258  1.00  0.00    -0.085 C  
HETATM   21  C   UNL     1      -8.298   5.673  70.474  1.00  0.00    -0.117 C  
HETATM   22  O   UNL     1      -8.648   5.220  65.982  1.00  0.00    -0.117 OA 
ENDBRANCH  16  17
ENDBRANCH   3  15
TORSDOF 4
ENDMDL
MODEL      203
REMARK 921   NORMALIZED FREE ENERGY PREDICTED BY IDOCK:   -2.79 KCAL/MOL
REMARK 922        TOTAL FREE ENERGY PREDICTED BY IDOCK:   -4.14 KCAL/MOL
REMARK 923 INTER-LIGAND FREE ENERGY PREDICTED BY IDOCK:   -3.69 KCAL/MOL
REMARK 924 INTRA-LIGAND FREE ENERGY PREDICTED BY IDOCK:   -0.45 KCAL/MOL
REMARK 927      BINDING AFFINITY PREDICTED BY RF-SCORE:    0.00 PKD
ROOT
HETATM    1  C   UNL     1      -7.673   9.158  68.248  1.00  0.00    -0.091 C  
HETATM    2  C   UNL     1      -8.901   8.628  67.545  1.00  0.00    -0.139 C  
HETATM    3  C   UNL     1     -10.137   9.089  67.842  1.00  0.00    -0.246 C  
ENDROOT
BRANCH   2   4
HETATM    4  C   UNL     1      -8.769   7.593  66.522  1.00  0.00    -0.161 C  
HETATM    5  C   UNL     1      -8.211   6.381  66.668  1.00  0.00    -0.111 C  
BRANCH   5   6
HETATM    6  C   UNL     1      -8.102   5.388  65.598  1.00  0.00    -0.115 C  
HETATM    7  C   UNL     1      -5.599   5.634  65.293  1.00  0.00    -0.016 C  
HETATM    8  C   UNL     1      -8.918   4.315  65.559  1.00  0.00    -0.132 C  
HETATM    9  C   UNL     1      -8.834   3.254  64.501  1.00  0.00    -0.108 C  
HETATM   10  C   UNL     1      -9.998   4.007  66.577  1.00  0.00    -0.099 C  
HETATM   11  C   UNL     1      -7.160   7.048  63.941  1.00  0.00    -0.061 C  
HETATM   12  C   UNL     1      -6.977   5.645  64.580  1.00  0.00    -0.052 C  
HETATM   13  C   UNL     1      -6.899   4.630  63.404  1.00  0.00    -0.043 C  
HETATM   14  C   UNL     1      -7.780   3.390  63.419  1.00  0.00    -0.068 C  
ENDBRANCH   5   6
ENDBRANCH   2   4
BRANCH   3  15
HETATM   15  C   UNL     1     -10.424  10.153  68.786  1.00  0.00    -0.223 C  
HETATM   16  C   UNL     1     -11.235  11.191  68.525  1.00  0.00    -0.318 C  
BRANCH  16  17
HETATM   17  C   UNL     1     -11.507  12.320  69.414  1.00  0.00    -0.341 C  
HETATM   18  C   UNL     1     -12.980  11.195  71.245  1.00  0.00    -0.357 C  
HETATM   19  O   UNL     1     -13.176  11.256  72.450  1.00  0.00    -0.243 OA 
HETATM   20  C   UNL     1     -12.246  12.267  70.541  1.00  0.00    -0.387 C  
HETATM   21  C   UNL     1     -10.890  13.676  69.115  1.00  0.00    -0.189 C  
HETATM   22  O   UNL     1     -13.469  10.211  70.476  1.00  0.00    -0.185 OA 
ENDBRANCH  16  17
ENDBRANCH   3  15
TORSDOF 4
ENDMDL
MODEL      204
REMARK 921   NORMALIZED FREE ENERGY PREDICTED BY IDOCK:   -2.74 KCAL/MOL
REMARK 922        TOTAL FREE ENERGY PREDICTED BY IDOCK:   -4.08 KCAL/MOL
REMARK 923 INTER-LIGAND FREE ENERGY PREDICTED BY IDOCK:   -3.45 KCAL/MOL
REMARK 924 INTRA-LIGAND FREE ENERGY PREDICTED BY IDOCK:   -0.63 KCAL/MOL
REMARK 927      BINDING AFFINITY PREDICTED BY RF-SCORE:    0.00 PKD
ROOT
HETATM    1  C   UNL     1      -6.736   6.743  69.375  1.00  0.00    -0.050 C  
HETATM    2  C   UNL     1      -7.765   5.850  68.722  1.00  0.00    -0.091 C  
HETATM    3  C   UNL     1      -8.958   5.603  69.310  1.00  0.00    -0.122 C  
ENDROOT
BRANCH   2   4
HETATM    4  C   UNL     1      -7.481   5.228  67.431  1.00  0.00    -0.084 C  
HETATM    5  C   UNL     1      -8.257   5.252  66.335  1.00  0.00    -0.109 C  
BRANCH   5   6
HETATM    6  C   UNL     1      -7.918   4.600  65.070  1.00  0.00    -0.096 C  
HETATM    7  C   UNL     1      -5.711   5.806  64.761  1.00  0.00    -0.024 C  
HETATM    8  C   UNL     1      -8.300   3.332  64.816  1.00  0.00    -0.090 C  
HETATM    9  C   UNL     1      -7.957   2.606  63.548  1.00  0.00    -0.073 C  
HETATM   10  C   UNL     1      -9.088   2.454  65.768  1.00  0.00    -0.088 C  
HETATM   11  C   UNL     1      -7.804   6.780  63.797  1.00  0.00    -0.107 C  
HETATM   12  C   UNL     1      -7.070   5.448  64.104  1.00  0.00    -0.049 C  
HETATM   13  C   UNL     1      -6.762   4.785  62.732  1.00  0.00    -0.030 C  
HETATM   14  C   UNL     1      -7.140   3.331  62.496  1.00  0.00    -0.032 C  
ENDBRANCH   5   6
ENDBRANCH   2   4
BRANCH   3  15
HETATM   15  C   UNL     1      -9.409   6.192  70.556  1.00  0.00    -0.173 C  
HETATM   16  C   UNL     1     -10.022   7.384  70.646  1.00  0.00    -0.186 C  
BRANCH  16  17
HETATM   17  C   UNL     1     -10.438   8.051  71.880  1.00  0.00    -0.296 C  
HETATM   18  C   UNL     1     -11.846  10.035  70.946  1.00  0.00    -0.368 C  
HETATM   19  O   UNL     1     -12.844  10.682  71.227  1.00  0.00    -0.370 OA 
HETATM   20  C   UNL     1     -11.202   9.161  71.948  1.00  0.00    -0.400 C  
HETATM   21  C   UNL     1     -10.044   7.459  73.222  1.00  0.00    -0.367 C  
HETATM   22  O   UNL     1     -11.230  10.123  69.758  1.00  0.00    -0.246 OA 
ENDBRANCH  16  17
ENDBRANCH   3  15
TORSDOF 4
ENDMDL
MODEL      205
REMARK 921   NORMALIZED FREE ENERGY PREDICTED BY IDOCK:   -2.72 KCAL/MOL
REMARK 922        TOTAL FREE ENERGY PREDICTED BY IDOCK:   -4.05 KCAL/MOL
REMARK 923 INTER-LIGAND FREE ENERGY PREDICTED BY IDOCK:   -3.99 KCAL/MOL
REMARK 924 INTRA-LIGAND FREE ENERGY PREDICTED BY IDOCK:   -0.06 KCAL/MOL
REMARK 927      BINDING AFFINITY PREDICTED BY RF-SCORE:    0.00 PKD
ROOT
HETATM    1  C   UNL     1      -9.272   9.119  70.783  1.00  0.00    -0.321 C  
HETATM    2  C   UNL     1      -8.971   9.258  69.309  1.00  0.00    -0.147 C  
HETATM    3  C   UNL     1      -9.129   8.220  68.457  1.00  0.00    -0.136 C  
ENDROOT
BRANCH   2   4
HETATM    4  C   UNL     1      -8.495  10.532  68.776  1.00  0.00    -0.141 C  
HETATM    5  C   UNL     1      -9.213  11.654  68.603  1.00  0.00    -0.112 C  
BRANCH   5   6
HETATM    6  C   UNL     1      -8.676  12.900  68.055  1.00  0.00    -0.191 C  
HETATM    7  C   UNL     1     -10.771  14.266  68.463  1.00  0.00    -0.262 C  
HETATM    8  C   UNL     1      -7.365  13.199  68.161  1.00  0.00    -0.119 C  
HETATM    9  C   UNL     1      -6.766  14.474  67.642  1.00  0.00    -0.194 C  
HETATM   10  C   UNL     1      -6.327  12.327  68.838  1.00  0.00    -0.084 C  
HETATM   11  C   UNL     1     -10.469  13.076  66.282  1.00  0.00    -0.285 C  
HETATM   12  C   UNL     1      -9.718  13.833  67.410  1.00  0.00    -0.235 C  
HETATM   13  C   UNL     1      -9.143  15.128  66.768  1.00  0.00    -0.282 C  
HETATM   14  C   UNL     1      -7.676  15.479  66.962  1.00  0.00    -0.246 C  
ENDBRANCH   5   6
ENDBRANCH   2   4
BRANCH   3  15
HETATM   15  C   UNL     1      -9.650   6.915  68.822  1.00  0.00    -0.134 C  
HETATM   16  C   UNL     1      -8.883   5.878  69.194  1.00  0.00    -0.117 C  
BRANCH  16  17
HETATM   17  C   UNL     1      -9.350   4.528  69.509  1.00  0.00    -0.221 C  
HETATM   18  C   UNL     1      -8.714   3.240  67.335  1.00  0.00    -0.119 C  
HETATM   19  O   UNL     1      -8.316   2.138  66.988  1.00  0.00    -0.077 OA 
HETATM   20  C   UNL     1      -9.256   3.459  68.692  1.00  0.00    -0.229 C  
HETATM   21  C   UNL     1      -9.955   4.242  70.873  1.00  0.00    -0.225 C  
HETATM   22  O   UNL     1      -8.758   4.293  66.506  1.00  0.00    -0.112 OA 
ENDBRANCH  16  17
ENDBRANCH   3  15
TORSDOF 4
ENDMDL
MODEL      206
REMARK 921   NORMALIZED FREE ENERGY PREDICTED BY IDOCK:   -2.70 KCAL/MOL
REMARK 922        TOTAL FREE ENERGY PREDICTED BY IDOCK:   -4.02 KCAL/MOL
REMARK 923 INTER-LIGAND FREE ENERGY PREDICTED BY IDOCK:   -4.71 KCAL/MOL
REMARK 924 INTRA-LIGAND FREE ENERGY PREDICTED BY IDOCK:    0.69 KCAL/MOL
REMARK 927      BINDING AFFINITY PREDICTED BY RF-SCORE:    0.00 PKD
ROOT
HETATM    1  C   UNL     1      -8.958  16.075  66.163  1.00  0.00    -0.381 C  
HETATM    2  C   UNL     1      -8.440  15.338  67.376  1.00  0.00    -0.197 C  
HETATM    3  C   UNL     1      -7.621  15.939  68.269  1.00  0.00    -0.135 C  
ENDROOT
BRANCH   2   4
HETATM    4  C   UNL     1      -8.819  13.945  67.603  1.00  0.00    -0.191 C  
HETATM    5  C   UNL     1      -8.693  12.924  66.740  1.00  0.00    -0.112 C  
BRANCH   5   6
HETATM    6  C   UNL     1      -9.101  11.548  67.027  1.00  0.00    -0.175 C  
HETATM    7  C   UNL     1      -7.266  11.099  68.716  1.00  0.00    -0.098 C  
HETATM    8  C   UNL     1     -10.398  11.182  66.981  1.00  0.00    -0.263 C  
HETATM    9  C   UNL     1     -10.874   9.793  67.292  1.00  0.00    -0.247 C  
HETATM   10  C   UNL     1     -11.551  12.109  66.650  1.00  0.00    -0.416 C  
HETATM   11  C   UNL     1      -6.885  10.574  66.299  1.00  0.00    -0.127 C  
HETATM   12  C   UNL     1      -7.957  10.596  67.421  1.00  0.00    -0.111 C  
HETATM   13  C   UNL     1      -8.375   9.118  67.663  1.00  0.00    -0.116 C  
HETATM   14  C   UNL     1      -9.849   8.744  67.677  1.00  0.00    -0.228 C  
ENDBRANCH   5   6
ENDBRANCH   2   4
BRANCH   3  15
HETATM   15  C   UNL     1      -7.207  17.328  68.214  1.00  0.00    -0.211 C  
HETATM   16  C   UNL     1      -6.538  17.953  69.197  1.00  0.00    -0.240 C  
BRANCH  16  17
HETATM   17  C   UNL     1      -6.154  19.364  69.221  1.00  0.00    -0.309 C  
HETATM   18  C   UNL     1      -7.576  20.319  67.257  1.00  0.00    -0.311 C  
HETATM   19  O   UNL     1      -8.186  21.335  66.957  1.00  0.00    -0.027 OA 
HETATM   20  C   UNL     1      -6.619  20.313  68.383  1.00  0.00    -0.335 C  
HETATM   21  C   UNL     1      -5.192  19.862  70.285  1.00  0.00    -0.241 C  
HETATM   22  O   UNL     1      -7.672  19.179  66.558  1.00  0.00    -0.242 OA 
ENDBRANCH  16  17
ENDBRANCH   3  15
TORSDOF 4
ENDMDL
MODEL      207
REMARK 921   NORMALIZED FREE ENERGY PREDICTED BY IDOCK:   -2.69 KCAL/MOL
REMARK 922        TOTAL FREE ENERGY PREDICTED BY IDOCK:   -4.01 KCAL/MOL
REMARK 923 INTER-LIGAND FREE ENERGY PREDICTED BY IDOCK:   -3.38 KCAL/MOL
REMARK 924 INTRA-LIGAND FREE ENERGY PREDICTED BY IDOCK:   -0.62 KCAL/MOL
REMARK 927      BINDING AFFINITY PREDICTED BY RF-SCORE:    0.00 PKD
ROOT
HETATM    1  C   UNL     1      -6.194   8.403  67.544  1.00  0.00    -0.053 C  
HETATM    2  C   UNL     1      -7.447   7.694  68.003  1.00  0.00    -0.104 C  
HETATM    3  C   UNL     1      -8.253   7.050  67.129  1.00  0.00    -0.118 C  
ENDROOT
BRANCH   2   4
HETATM    4  C   UNL     1      -7.814   7.697  69.418  1.00  0.00    -0.123 C  
HETATM    5  C   UNL     1      -8.683   6.876  70.028  1.00  0.00    -0.142 C  
BRANCH   5   6
HETATM    6  C   UNL     1      -9.014   6.936  71.453  1.00  0.00    -0.141 C  
HETATM    7  C   UNL     1     -11.508   6.627  71.136  1.00  0.00    -0.370 C  
HETATM    8  C   UNL     1      -8.155   6.476  72.386  1.00  0.00    -0.101 C  
HETATM    9  C   UNL     1      -8.454   6.488  73.857  1.00  0.00    -0.129 C  
HETATM   10  C   UNL     1      -6.803   5.858  72.093  1.00  0.00    -0.073 C  
HETATM   11  C   UNL     1     -10.537   8.933  71.175  1.00  0.00    -0.335 C  
HETATM   12  C   UNL     1     -10.405   7.509  71.777  1.00  0.00    -0.221 C  
HETATM   13  C   UNL     1     -10.735   7.635  73.292  1.00  0.00    -0.409 C  
HETATM   14  C   UNL     1      -9.785   7.045  74.322  1.00  0.00    -0.263 C  
ENDBRANCH   5   6
ENDBRANCH   2   4
BRANCH   3  15
HETATM   15  C   UNL     1      -7.993   6.907  65.708  1.00  0.00    -0.116 C  
HETATM   16  C   UNL     1      -8.320   5.820  64.990  1.00  0.00    -0.138 C  
BRANCH  16  17
HETATM   17  C   UNL     1      -8.024   5.599  63.575  1.00  0.00    -0.108 C  
HETATM   18  C   UNL     1      -8.640   3.081  63.305  1.00  0.00    -0.086 C  
HETATM   19  O   UNL     1      -9.129   2.325  62.478  1.00  0.00    -0.083 OA 
HETATM   20  C   UNL     1      -8.175   4.429  62.919  1.00  0.00    -0.087 C  
HETATM   21  C   UNL     1      -7.550   6.759  62.717  1.00  0.00    -0.096 C  
HETATM   22  O   UNL     1      -8.426   2.726  64.580  1.00  0.00    -0.086 OA 
ENDBRANCH  16  17
ENDBRANCH   3  15
TORSDOF 4
ENDMDL
MODEL      208
REMARK 921   NORMALIZED FREE ENERGY PREDICTED BY IDOCK:   -2.68 KCAL/MOL
REMARK 922        TOTAL FREE ENERGY PREDICTED BY IDOCK:   -3.99 KCAL/MOL
REMARK 923 INTER-LIGAND FREE ENERGY PREDICTED BY IDOCK:   -3.32 KCAL/MOL
REMARK 924 INTRA-LIGAND FREE ENERGY PREDICTED BY IDOCK:   -0.67 KCAL/MOL
REMARK 927      BINDING AFFINITY PREDICTED BY RF-SCORE:    0.00 PKD
ROOT
HETATM    1  C   UNL     1      -6.869   7.583  68.625  1.00  0.00    -0.066 C  
HETATM    2  C   UNL     1      -8.093   6.971  67.985  1.00  0.00    -0.119 C  
HETATM    3  C   UNL     1      -9.305   7.029  68.584  1.00  0.00    -0.136 C  
ENDROOT
BRANCH   2   4
HETATM    4  C   UNL     1      -7.984   6.296  66.694  1.00  0.00    -0.108 C  
HETATM    5  C   UNL     1      -7.695   5.002  66.483  1.00  0.00    -0.092 C  
BRANCH   5   6
HETATM    6  C   UNL     1      -7.593   4.385  65.159  1.00  0.00    -0.077 C  
HETATM    7  C   UNL     1     -10.090   4.127  64.818  1.00  0.00    -0.204 C  
HETATM    8  C   UNL     1      -6.593   4.712  64.315  1.00  0.00    -0.043 C  
HETATM    9  C   UNL     1      -6.455   4.132  62.937  1.00  0.00    -0.022 C  
HETATM   10  C   UNL     1      -5.500   5.720  64.611  1.00  0.00    -0.016 C  
HETATM   11  C   UNL     1      -8.782   2.275  65.877  1.00  0.00    -0.119 C  
HETATM   12  C   UNL     1      -8.721   3.398  64.808  1.00  0.00    -0.111 C  
HETATM   13  C   UNL     1      -8.582   2.692  63.430  1.00  0.00    -0.086 C  
HETATM   14  C   UNL     1      -7.488   3.128  62.466  1.00  0.00    -0.052 C  
ENDBRANCH   5   6
ENDBRANCH   2   4
BRANCH   3  15
HETATM   15  C   UNL     1      -9.584   7.715  69.832  1.00  0.00    -0.160 C  
HETATM   16  C   UNL     1      -9.854   7.090  70.989  1.00  0.00    -0.185 C  
BRANCH  16  17
HETATM   17  C   UNL     1     -10.205   7.731  72.256  1.00  0.00    -0.285 C  
HETATM   18  C   UNL     1      -7.866   7.971  73.380  1.00  0.00    -0.175 C  
HETATM   19  O   UNL     1      -7.253   8.747  74.099  1.00  0.00    -0.377 OA 
HETATM   20  C   UNL     1      -9.331   8.078  73.224  1.00  0.00    -0.344 C  
HETATM   21  C   UNL     1     -11.651   8.102  72.534  1.00  0.00    -0.468 C  
HETATM   22  O   UNL     1      -7.280   6.942  72.751  1.00  0.00    -0.074 OA 
ENDBRANCH  16  17
ENDBRANCH   3  15
TORSDOF 4
ENDMDL
MODEL      209
REMARK 921   NORMALIZED FREE ENERGY PREDICTED BY IDOCK:   -2.60 KCAL/MOL
REMARK 922        TOTAL FREE ENERGY PREDICTED BY IDOCK:   -3.91 KCAL/MOL
REMARK 923 INTER-LIGAND FREE ENERGY PREDICTED BY IDOCK:   -3.26 KCAL/MOL
REMARK 924 INTRA-LIGAND FREE ENERGY PREDICTED BY IDOCK:   -0.65 KCAL/MOL
REMARK 927      BINDING AFFINITY PREDICTED BY RF-SCORE:    0.00 PKD
ROOT
HETATM    1  C   UNL     1      -6.349   8.279  67.323  1.00  0.00    -0.057 C  
HETATM    2  C   UNL     1      -7.665   7.602  67.626  1.00  0.00    -0.122 C  
HETATM    3  C   UNL     1      -8.392   7.007  66.653  1.00  0.00    -0.118 C  
ENDROOT
BRANCH   2   4
HETATM    4  C   UNL     1      -8.181   7.583  68.993  1.00  0.00    -0.128 C  
HETATM    5  C   UNL     1      -9.312   6.999  69.421  1.00  0.00    -0.146 C  
BRANCH   5   6
HETATM    6  C   UNL     1      -9.778   7.023  70.808  1.00  0.00    -0.170 C  
HETATM    7  C   UNL     1      -7.747   5.851  71.767  1.00  0.00    -0.101 C  
HETATM    8  C   UNL     1     -10.541   8.036  71.268  1.00  0.00    -0.245 C  
HETATM    9  C   UNL     1     -11.024   8.126  72.686  1.00  0.00    -0.440 C  
HETATM   10  C   UNL     1     -10.985   9.231  70.448  1.00  0.00    -0.302 C  
HETATM   11  C   UNL     1      -9.726   4.507  71.034  1.00  0.00    -0.259 C  
HETATM   12  C   UNL     1      -9.296   5.850  71.681  1.00  0.00    -0.162 C  
HETATM   13  C   UNL     1      -9.842   5.836  73.137  1.00  0.00    -0.178 C  
HETATM   14  C   UNL     1     -10.639   7.024  73.654  1.00  0.00    -0.383 C  
ENDBRANCH   5   6
ENDBRANCH   2   4
BRANCH   3  15
HETATM   15  C   UNL     1      -7.986   6.890  65.265  1.00  0.00    -0.127 C  
HETATM   16  C   UNL     1      -7.717   5.723  64.656  1.00  0.00    -0.098 C  
BRANCH  16  17
HETATM   17  C   UNL     1      -7.243   5.554  63.283  1.00  0.00    -0.048 C  
HETATM   18  C   UNL     1      -6.843   2.981  63.186  1.00  0.00    -0.031 C  
HETATM   19  O   UNL     1      -6.941   2.052  62.398  1.00  0.00    -0.024 OA 
HETATM   20  C   UNL     1      -6.889   4.381  62.718  1.00  0.00    -0.031 C  
HETATM   21  C   UNL     1      -7.171   6.759  62.361  1.00  0.00    -0.055 C  
HETATM   22  O   UNL     1      -6.618   2.804  64.497  1.00  0.00    -0.033 OA 
ENDBRANCH  16  17
ENDBRANCH   3  15
TORSDOF 4
ENDMDL
MODEL      210
REMARK 921   NORMALIZED FREE ENERGY PREDICTED BY IDOCK:   -2.60 KCAL/MOL
REMARK 922        TOTAL FREE ENERGY PREDICTED BY IDOCK:   -3.90 KCAL/MOL
REMARK 923 INTER-LIGAND FREE ENERGY PREDICTED BY IDOCK:   -4.00 KCAL/MOL
REMARK 924 INTRA-LIGAND FREE ENERGY PREDICTED BY IDOCK:    0.10 KCAL/MOL
REMARK 927      BINDING AFFINITY PREDICTED BY RF-SCORE:    0.00 PKD
ROOT
HETATM    1  C   UNL     1      -8.014   7.879  71.078  1.00  0.00    -0.090 C  
HETATM    2  C   UNL     1      -8.725   7.629  69.768  1.00  0.00    -0.140 C  
HETATM    3  C   UNL     1      -9.944   8.157  69.516  1.00  0.00    -0.187 C  
ENDROOT
BRANCH   2   4
HETATM    4  C   UNL     1      -8.099   6.797  68.743  1.00  0.00    -0.120 C  
HETATM    5  C   UNL     1      -8.658   5.768  68.085  1.00  0.00    -0.108 C  
BRANCH   5   6
HETATM    6  C   UNL     1      -7.972   4.967  67.071  1.00  0.00    -0.103 C  
HETATM    7  C   UNL     1      -6.322   3.907  68.675  1.00  0.00    -0.033 C  
HETATM    8  C   UNL     1      -8.636   4.482  66.002  1.00  0.00    -0.114 C  
HETATM    9  C   UNL     1      -7.989   3.633  64.946  1.00  0.00    -0.090 C  
HETATM   10  C   UNL     1     -10.113   4.685  65.730  1.00  0.00    -0.264 C  
HETATM   11  C   UNL     1      -5.728   6.043  67.513  1.00  0.00    -0.016 C  
HETATM   12  C   UNL     1      -6.482   4.696  67.349  1.00  0.00    -0.045 C  
HETATM   13  C   UNL     1      -5.733   3.902  66.242  1.00  0.00    -0.018 C  
HETATM   14  C   UNL     1      -6.516   3.303  65.083  1.00  0.00    -0.035 C  
ENDBRANCH   5   6
ENDBRANCH   2   4
BRANCH   3  15
HETATM   15  C   UNL     1     -10.665   9.049  70.405  1.00  0.00    -0.267 C  
HETATM   16  C   UNL     1     -11.644   9.878  70.008  1.00  0.00    -0.235 C  
BRANCH  16  17
HETATM   17  C   UNL     1     -12.355  10.840  70.848  1.00  0.00    -0.497 C  
HETATM   18  C   UNL     1     -13.836   9.263  72.301  1.00  0.00    -0.426 C  
HETATM   19  O   UNL     1     -14.275   9.184  73.439  1.00  0.00    -0.107 OA 
HETATM   20  C   UNL     1     -13.266  10.528  71.793  1.00  0.00    -0.522 C  
HETATM   21  C   UNL     1     -12.047  12.322  70.720  1.00  0.00    -0.259 C  
HETATM   22  O   UNL     1     -13.905   8.253  71.422  1.00  0.00    -0.323 OA 
ENDBRANCH  16  17
ENDBRANCH   3  15
TORSDOF 4
ENDMDL
MODEL      211
REMARK 921   NORMALIZED FREE ENERGY PREDICTED BY IDOCK:   -2.50 KCAL/MOL
REMARK 922        TOTAL FREE ENERGY PREDICTED BY IDOCK:   -3.77 KCAL/MOL
REMARK 923 INTER-LIGAND FREE ENERGY PREDICTED BY IDOCK:   -3.34 KCAL/MOL
REMARK 924 INTRA-LIGAND FREE ENERGY PREDICTED BY IDOCK:   -0.43 KCAL/MOL
REMARK 927      BINDING AFFINITY PREDICTED BY RF-SCORE:    0.00 PKD
ROOT
HETATM    1  C   UNL     1      -7.462   7.474  68.274  1.00  0.00    -0.109 C  
HETATM    2  C   UNL     1      -8.642   7.184  67.376  1.00  0.00    -0.121 C  
HETATM    3  C   UNL     1      -9.875   7.663  67.655  1.00  0.00    -0.207 C  
ENDROOT
BRANCH   2   4
HETATM    4  C   UNL     1      -8.465   6.366  66.177  1.00  0.00    -0.140 C  
HETATM    5  C   UNL     1      -8.121   5.069  66.128  1.00  0.00    -0.108 C  
BRANCH   5   6
HETATM    6  C   UNL     1      -7.952   4.307  64.890  1.00  0.00    -0.093 C  
HETATM    7  C   UNL     1     -10.429   3.961  64.480  1.00  0.00    -0.221 C  
HETATM    8  C   UNL     1      -6.922   4.554  64.056  1.00  0.00    -0.045 C  
HETATM    9  C   UNL     1      -6.716   3.823  62.762  1.00  0.00    -0.034 C  
HETATM   10  C   UNL     1      -5.859   5.611  64.277  1.00  0.00    -0.021 C  
HETATM   11  C   UNL     1      -9.139   2.269  65.799  1.00  0.00    -0.076 C  
HETATM   12  C   UNL     1      -9.049   3.264  64.611  1.00  0.00    -0.135 C  
HETATM   13  C   UNL     1      -8.840   2.406  63.330  1.00  0.00    -0.085 C  
HETATM   14  C   UNL     1      -7.713   2.750  62.368  1.00  0.00    -0.054 C  
ENDBRANCH   5   6
ENDBRANCH   2   4
BRANCH   3  15
HETATM   15  C   UNL     1     -10.196   8.535  68.769  1.00  0.00    -0.217 C  
HETATM   16  C   UNL     1     -11.056   9.564  68.695  1.00  0.00    -0.034 C  
BRANCH  16  17
HETATM   17  C   UNL     1     -11.365  10.511  69.766  1.00  0.00    -0.367 C  
HETATM   18  C   UNL     1     -12.148   8.907  71.664  1.00  0.00    -0.346 C  
HETATM   19  O   UNL     1     -12.094   8.807  72.881  1.00  0.00    -0.159 OA 
HETATM   20  C   UNL     1     -11.822  10.181  70.991  1.00  0.00    -0.475 C  
HETATM   21  C   UNL     1     -11.126  11.995  69.548  1.00  0.00    -0.140 C  
HETATM   22  O   UNL     1     -12.569   7.911  70.870  1.00  0.00    -0.152 OA 
ENDBRANCH  16  17
ENDBRANCH   3  15
TORSDOF 4
ENDMDL
MODEL      212
REMARK 921   NORMALIZED FREE ENERGY PREDICTED BY IDOCK:   -2.47 KCAL/MOL
REMARK 922        TOTAL FREE ENERGY PREDICTED BY IDOCK:   -3.74 KCAL/MOL
REMARK 923 INTER-LIGAND FREE ENERGY PREDICTED BY IDOCK:   -3.91 KCAL/MOL
REMARK 924 INTRA-LIGAND FREE ENERGY PREDICTED BY IDOCK:    0.16 KCAL/MOL
REMARK 927      BINDING AFFINITY PREDICTED BY RF-SCORE:    0.00 PKD
ROOT
HETATM    1  C   UNL     1      -6.426  12.294  69.226  1.00  0.00    -0.109 C  
HETATM    2  C   UNL     1      -7.138  12.883  68.030  1.00  0.00    -0.111 C  
HETATM    3  C   UNL     1      -7.569  12.104  67.012  1.00  0.00    -0.093 C  
ENDROOT
BRANCH   2   4
HETATM    4  C   UNL     1      -7.372  14.323  67.954  1.00  0.00    -0.163 C  
HETATM    5  C   UNL     1      -8.241  15.039  68.686  1.00  0.00    -0.156 C  
BRANCH   5   6
HETATM    6  C   UNL     1      -8.434  16.485  68.556  1.00  0.00    -0.226 C  
HETATM    7  C   UNL     1      -6.825  16.770  66.619  1.00  0.00    -0.255 C  
HETATM    8  C   UNL     1      -9.623  17.056  68.837  1.00  0.00    -0.248 C  
HETATM    9  C   UNL     1      -9.884  18.527  68.695  1.00  0.00    -0.419 C  
HETATM   10  C   UNL     1     -10.859  16.308  69.295  1.00  0.00    -0.318 C  
HETATM   11  C   UNL     1      -5.996  17.006  68.968  1.00  0.00    -0.172 C  
HETATM   12  C   UNL     1      -7.211  17.264  68.038  1.00  0.00    -0.192 C  
HETATM   13  C   UNL     1      -7.390  18.807  67.960  1.00  0.00    -0.269 C  
HETATM   14  C   UNL     1      -8.759  19.420  68.213  1.00  0.00    -0.376 C  
ENDBRANCH   5   6
ENDBRANCH   2   4
BRANCH   3  15
HETATM   15  C   UNL     1      -7.465  10.657  66.970  1.00  0.00    -0.106 C  
HETATM   16  C   UNL     1      -6.608   9.987  66.183  1.00  0.00    -0.088 C  
BRANCH  16  17
HETATM   17  C   UNL     1      -6.508   8.534  66.055  1.00  0.00    -0.053 C  
HETATM   18  C   UNL     1      -7.752   8.126  63.801  1.00  0.00    -0.142 C  
HETATM   19  O   UNL     1      -7.691   7.395  62.823  1.00  0.00    -0.114 OA 
HETATM   20  C   UNL     1      -7.007   7.803  65.036  1.00  0.00    -0.059 C  
HETATM   21  C   UNL     1      -5.750   7.738  67.103  1.00  0.00    -0.036 C  
HETATM   22  O   UNL     1      -8.538   9.211  63.853  1.00  0.00    -0.200 OA 
ENDBRANCH  16  17
ENDBRANCH   3  15
TORSDOF 4
ENDMDL
MODEL      213
REMARK 921   NORMALIZED FREE ENERGY PREDICTED BY IDOCK:   -2.47 KCAL/MOL
REMARK 922        TOTAL FREE ENERGY PREDICTED BY IDOCK:   -3.74 KCAL/MOL
REMARK 923 INTER-LIGAND FREE ENERGY PREDICTED BY IDOCK:   -4.28 KCAL/MOL
REMARK 924 INTRA-LIGAND FREE ENERGY PREDICTED BY IDOCK:    0.54 KCAL/MOL
REMARK 927      BINDING AFFINITY PREDICTED BY RF-SCORE:    0.00 PKD
ROOT
HETATM    1  C   UNL     1      -6.574  12.537  69.167  1.00  0.00    -0.100 C  
HETATM    2  C   UNL     1      -7.698  13.040  68.292  1.00  0.00    -0.141 C  
HETATM    3  C   UNL     1      -8.389  12.206  67.482  1.00  0.00    -0.166 C  
ENDROOT
BRANCH   2   4
HETATM    4  C   UNL     1      -8.059  14.457  68.306  1.00  0.00    -0.139 C  
HETATM    5  C   UNL     1      -7.219  15.503  68.342  1.00  0.00    -0.114 C  
BRANCH   5   6
HETATM    6  C   UNL     1      -7.645  16.903  68.362  1.00  0.00    -0.209 C  
HETATM    7  C   UNL     1     -10.126  16.398  68.463  1.00  0.00    -0.248 C  
HETATM    8  C   UNL     1      -6.889  17.852  68.951  1.00  0.00    -0.250 C  
HETATM    9  C   UNL     1      -7.291  19.297  69.025  1.00  0.00    -0.380 C  
HETATM   10  C   UNL     1      -5.565  17.602  69.644  1.00  0.00    -0.222 C  
HETATM   11  C   UNL     1      -9.005  16.682  66.244  1.00  0.00    -0.340 C  
HETATM   12  C   UNL     1      -9.014  17.179  67.714  1.00  0.00    -0.226 C  
HETATM   13  C   UNL     1      -9.442  18.673  67.674  1.00  0.00    -0.316 C  
HETATM   14  C   UNL     1      -8.610  19.715  68.407  1.00  0.00    -0.357 C  
ENDBRANCH   5   6
ENDBRANCH   2   4
BRANCH   3  15
HETATM   15  C   UNL     1      -8.191  10.771  67.403  1.00  0.00    -0.116 C  
HETATM   16  C   UNL     1      -8.117   9.962  68.473  1.00  0.00    -0.101 C  
BRANCH  16  17
HETATM   17  C   UNL     1      -7.855   8.523  68.451  1.00  0.00    -0.106 C  
HETATM   18  C   UNL     1     -10.105   7.600  67.514  1.00  0.00    -0.202 C  
HETATM   19  O   UNL     1     -10.514   6.707  66.787  1.00  0.00    -0.240 OA 
HETATM   20  C   UNL     1      -8.725   7.577  68.041  1.00  0.00    -0.121 C  
HETATM   21  C   UNL     1      -6.491   8.003  68.871  1.00  0.00    -0.048 C  
HETATM   22  O   UNL     1     -10.881   8.608  67.939  1.00  0.00    -0.138 OA 
ENDBRANCH  16  17
ENDBRANCH   3  15
TORSDOF 4
ENDMDL
MODEL      214
REMARK 921   NORMALIZED FREE ENERGY PREDICTED BY IDOCK:   -2.33 KCAL/MOL
REMARK 922        TOTAL FREE ENERGY PREDICTED BY IDOCK:   -3.57 KCAL/MOL
REMARK 923 INTER-LIGAND FREE ENERGY PREDICTED BY IDOCK:   -3.01 KCAL/MOL
REMARK 924 INTRA-LIGAND FREE ENERGY PREDICTED BY IDOCK:   -0.56 KCAL/MOL
REMARK 927      BINDING AFFINITY PREDICTED BY RF-SCORE:    0.00 PKD
ROOT
HETATM    1  C   UNL     1      -7.399   6.921  69.500  1.00  0.00    -0.091 C  
HETATM    2  C   UNL     1      -8.207   7.689  68.480  1.00  0.00    -0.125 C  
HETATM    3  C   UNL     1      -8.879   7.056  67.491  1.00  0.00    -0.119 C  
ENDROOT
BRANCH   2   4
HETATM    4  C   UNL     1      -8.271   9.147  68.545  1.00  0.00    -0.115 C  
HETATM    5  C   UNL     1      -8.966   9.962  67.735  1.00  0.00    -0.134 C  
BRANCH   5   6
HETATM    6  C   UNL     1      -8.983  11.421  67.849  1.00  0.00    -0.153 C  
HETATM    7  C   UNL     1     -11.065  11.527  69.289  1.00  0.00    -0.305 C  
HETATM    8  C   UNL     1      -7.836  12.131  67.861  1.00  0.00    -0.147 C  
HETATM    9  C   UNL     1      -7.793  13.625  68.003  1.00  0.00    -0.150 C  
HETATM   10  C   UNL     1      -6.445  11.537  67.771  1.00  0.00    -0.064 C  
HETATM   11  C   UNL     1     -11.270  11.634  66.797  1.00  0.00    -0.371 C  
HETATM   12  C   UNL     1     -10.380  12.049  67.999  1.00  0.00    -0.206 C  
HETATM   13  C   UNL     1     -10.408  13.603  68.055  1.00  0.00    -0.250 C  
HETATM   14  C   UNL     1      -9.102  14.378  68.140  1.00  0.00    -0.194 C  
ENDBRANCH   5   6
ENDBRANCH   2   4
BRANCH   3  15
HETATM   15  C   UNL     1      -8.961   5.617  67.330  1.00  0.00    -0.107 C  
HETATM   16  C   UNL     1      -8.318   4.929  66.373  1.00  0.00    -0.107 C  
BRANCH  16  17
HETATM   17  C   UNL     1      -8.417   3.491  66.128  1.00  0.00    -0.112 C  
HETATM   18  C   UNL     1      -6.635   2.559  67.785  1.00  0.00    -0.036 C  
HETATM   19  O   UNL     1      -6.454   1.593  68.512  1.00  0.00    -0.028 OA 
HETATM   20  C   UNL     1      -7.686   2.541  66.747  1.00  0.00    -0.071 C  
HETATM   21  C   UNL     1      -9.443   2.967  65.138  1.00  0.00    -0.103 C  
HETATM   22  O   UNL     1      -5.863   3.654  67.824  1.00  0.00    -0.021 OA 
ENDBRANCH  16  17
ENDBRANCH   3  15
TORSDOF 4
ENDMDL
MODEL      215
REMARK 921   NORMALIZED FREE ENERGY PREDICTED BY IDOCK:   -2.25 KCAL/MOL
REMARK 922        TOTAL FREE ENERGY PREDICTED BY IDOCK:   -3.47 KCAL/MOL
REMARK 923 INTER-LIGAND FREE ENERGY PREDICTED BY IDOCK:   -2.84 KCAL/MOL
REMARK 924 INTRA-LIGAND FREE ENERGY PREDICTED BY IDOCK:   -0.62 KCAL/MOL
REMARK 927      BINDING AFFINITY PREDICTED BY RF-SCORE:    0.00 PKD
ROOT
HETATM    1  C   UNL     1      -7.738   7.722  68.335  1.00  0.00    -0.119 C  
HETATM    2  C   UNL     1      -8.718   6.583  68.182  1.00  0.00    -0.117 C  
HETATM    3  C   UNL     1      -9.617   6.292  69.150  1.00  0.00    -0.148 C  
ENDROOT
BRANCH   2   4
HETATM    4  C   UNL     1      -8.708   5.765  66.971  1.00  0.00    -0.109 C  
HETATM    5  C   UNL     1      -7.638   5.203  66.386  1.00  0.00    -0.088 C  
BRANCH   5   6
HETATM    6  C   UNL     1      -7.693   4.399  65.165  1.00  0.00    -0.085 C  
HETATM    7  C   UNL     1      -5.484   5.221  64.234  1.00  0.00    -0.016 C  
HETATM    8  C   UNL     1      -8.285   3.187  65.156  1.00  0.00    -0.094 C  
HETATM    9  C   UNL     1      -8.346   2.309  63.940  1.00  0.00    -0.082 C  
HETATM   10  C   UNL     1      -8.931   2.527  66.357  1.00  0.00    -0.127 C  
HETATM   11  C   UNL     1      -7.603   6.416  63.645  1.00  0.00    -0.091 C  
HETATM   12  C   UNL     1      -6.994   5.019  63.941  1.00  0.00    -0.048 C  
HETATM   13  C   UNL     1      -7.107   4.199  62.625  1.00  0.00    -0.039 C  
HETATM   14  C   UNL     1      -7.714   2.805  62.655  1.00  0.00    -0.058 C  
ENDBRANCH   5   6
ENDBRANCH   2   4
BRANCH   3  15
HETATM   15  C   UNL     1      -9.792   7.046  70.377  1.00  0.00    -0.184 C  
HETATM   16  C   UNL     1      -9.527   6.561  71.601  1.00  0.00    -0.160 C  
BRANCH  16  17
HETATM   17  C   UNL     1      -9.745   7.253  72.871  1.00  0.00    -0.212 C  
HETATM   18  C   UNL     1      -7.341   8.091  73.424  1.00  0.00    -0.137 C  
HETATM   19  O   UNL     1      -6.784   9.051  73.936  1.00  0.00    -0.347 OA 
HETATM   20  C   UNL     1      -8.793   7.877  73.594  1.00  0.00    -0.336 C  
HETATM   21  C   UNL     1     -11.150   7.348  73.442  1.00  0.00    -0.181 C  
HETATM   22  O   UNL     1      -6.680   7.141  72.747  1.00  0.00    -0.066 OA 
ENDBRANCH  16  17
ENDBRANCH   3  15
TORSDOF 4
ENDMDL
MODEL      216
REMARK 921   NORMALIZED FREE ENERGY PREDICTED BY IDOCK:   -1.87 KCAL/MOL
REMARK 922        TOTAL FREE ENERGY PREDICTED BY IDOCK:   -3.00 KCAL/MOL
REMARK 923 INTER-LIGAND FREE ENERGY PREDICTED BY IDOCK:   -3.62 KCAL/MOL
REMARK 924 INTRA-LIGAND FREE ENERGY PREDICTED BY IDOCK:    0.62 KCAL/MOL
REMARK 927      BINDING AFFINITY PREDICTED BY RF-SCORE:    0.00 PKD
ROOT
HETATM    1  C   UNL     1      -6.666  12.044  68.287  1.00  0.00    -0.061 C  
HETATM    2  C   UNL     1      -8.145  11.748  68.195  1.00  0.00    -0.150 C  
HETATM    3  C   UNL     1      -9.055  12.739  68.064  1.00  0.00    -0.207 C  
ENDROOT
BRANCH   2   4
HETATM    4  C   UNL     1      -8.620  10.367  68.251  1.00  0.00    -0.128 C  
HETATM    5  C   UNL     1      -7.885   9.254  68.097  1.00  0.00    -0.095 C  
BRANCH   5   6
HETATM    6  C   UNL     1      -8.424   7.895  68.158  1.00  0.00    -0.124 C  
HETATM    7  C   UNL     1      -7.787   7.276  65.784  1.00  0.00    -0.108 C  
HETATM    8  C   UNL     1      -8.415   7.193  69.310  1.00  0.00    -0.133 C  
HETATM    9  C   UNL     1      -8.929   5.788  69.422  1.00  0.00    -0.121 C  
HETATM   10  C   UNL     1      -7.863   7.695  70.628  1.00  0.00    -0.097 C  
HETATM   11  C   UNL     1     -10.033   8.280  66.247  1.00  0.00    -0.179 C  
HETATM   12  C   UNL     1      -8.941   7.337  66.819  1.00  0.00    -0.154 C  
HETATM   13  C   UNL     1      -9.575   5.918  66.891  1.00  0.00    -0.156 C  
HETATM   14  C   UNL     1      -9.489   5.118  68.182  1.00  0.00    -0.160 C  
ENDBRANCH   5   6
ENDBRANCH   2   4
BRANCH   3  15
HETATM   15  C   UNL     1      -8.737  14.149  67.932  1.00  0.00    -0.182 C  
HETATM   16  C   UNL     1      -9.459  15.137  68.486  1.00  0.00    -0.203 C  
BRANCH  16  17
HETATM   17  C   UNL     1      -9.221  16.572  68.332  1.00  0.00    -0.222 C  
HETATM   18  C   UNL     1      -6.922  16.586  67.104  1.00  0.00    -0.194 C  
HETATM   19  O   UNL     1      -6.325  17.226  66.251  1.00  0.00    -0.219 OA 
HETATM   20  C   UNL     1      -8.139  17.125  67.746  1.00  0.00    -0.197 C  
HETATM   21  C   UNL     1     -10.267  17.562  68.811  1.00  0.00    -0.373 C  
HETATM   22  O   UNL     1      -6.487  15.404  67.566  1.00  0.00    -0.161 OA 
ENDBRANCH  16  17
ENDBRANCH   3  15
TORSDOF 4
ENDMDL
MODEL      217
REMARK 921   NORMALIZED FREE ENERGY PREDICTED BY IDOCK:   -1.86 KCAL/MOL
REMARK 922        TOTAL FREE ENERGY PREDICTED BY IDOCK:   -2.99 KCAL/MOL
REMARK 923 INTER-LIGAND FREE ENERGY PREDICTED BY IDOCK:   -2.55 KCAL/MOL
REMARK 924 INTRA-LIGAND FREE ENERGY PREDICTED BY IDOCK:   -0.44 KCAL/MOL
REMARK 927      BINDING AFFINITY PREDICTED BY RF-SCORE:    0.00 PKD
ROOT
HETATM    1  C   UNL     1      -6.665   5.932  68.844  1.00  0.00    -0.060 C  
HETATM    2  C   UNL     1      -7.716   6.885  68.326  1.00  0.00    -0.113 C  
HETATM    3  C   UNL     1      -8.900   6.438  67.851  1.00  0.00    -0.113 C  
ENDROOT
BRANCH   2   4
HETATM    4  C   UNL     1      -7.463   8.324  68.326  1.00  0.00    -0.097 C  
HETATM    5  C   UNL     1      -8.355   9.300  68.556  1.00  0.00    -0.119 C  
BRANCH   5   6
HETATM    6  C   UNL     1      -8.039  10.729  68.534  1.00  0.00    -0.133 C  
HETATM    7  C   UNL     1     -10.363  11.482  67.863  1.00  0.00    -0.203 C  
HETATM    8  C   UNL     1      -7.126  11.252  69.379  1.00  0.00    -0.090 C  
HETATM    9  C   UNL     1      -6.783  12.713  69.419  1.00  0.00    -0.022 C  
HETATM   10  C   UNL     1      -6.352  10.466  70.417  1.00  0.00    -0.127 C  
HETATM   11  C   UNL     1      -8.658  10.990  66.098  1.00  0.00    -0.175 C  
HETATM   12  C   UNL     1      -8.851  11.564  67.527  1.00  0.00    -0.155 C  
HETATM   13  C   UNL     1      -8.472  13.070  67.454  1.00  0.00    -0.200 C  
HETATM   14  C   UNL     1      -7.494  13.652  68.463  1.00  0.00    -0.119 C  
ENDBRANCH   5   6
ENDBRANCH   2   4
BRANCH   3  15
HETATM   15  C   UNL     1      -9.322   5.049  67.841  1.00  0.00    -0.147 C  
HETATM   16  C   UNL     1      -8.819   4.117  67.015  1.00  0.00    -0.125 C  
BRANCH  16  17
HETATM   17  C   UNL     1      -9.252   2.723  66.920  1.00  0.00    -0.141 C  
HETATM   18  C   UNL     1      -9.486   2.428  64.342  1.00  0.00    -0.139 C  
HETATM   19  O   UNL     1      -9.312   1.577  63.482  1.00  0.00    -0.091 OA 
HETATM   20  C   UNL     1      -9.520   2.065  65.773  1.00  0.00     0.199 C  
HETATM   21  C   UNL     1      -9.382   1.889  68.183  1.00  0.00    -0.241 C  
HETATM   22  O   UNL     1      -9.728   3.715  64.054  1.00  0.00    -0.142 OA 
ENDBRANCH  16  17
ENDBRANCH   3  15
TORSDOF 4
ENDMDL
MODEL      218
REMARK 921   NORMALIZED FREE ENERGY PREDICTED BY IDOCK:   -1.85 KCAL/MOL
REMARK 922        TOTAL FREE ENERGY PREDICTED BY IDOCK:   -2.98 KCAL/MOL
REMARK 923 INTER-LIGAND FREE ENERGY PREDICTED BY IDOCK:   -2.48 KCAL/MOL
REMARK 924 INTRA-LIGAND FREE ENERGY PREDICTED BY IDOCK:   -0.49 KCAL/MOL
REMARK 927      BINDING AFFINITY PREDICTED BY RF-SCORE:    0.00 PKD
ROOT
HETATM    1  C   UNL     1      -6.554   6.394  68.749  1.00  0.00    -0.051 C  
HETATM    2  C   UNL     1      -7.248   5.068  68.544  1.00  0.00    -0.062 C  
HETATM    3  C   UNL     1      -8.002   4.509  69.518  1.00  0.00    -0.061 C  
ENDROOT
BRANCH   2   4
HETATM    4  C   UNL     1      -7.110   4.357  67.275  1.00  0.00    -0.068 C  
HETATM    5  C   UNL     1      -7.644   4.704  66.093  1.00  0.00    -0.090 C  
BRANCH   5   6
HETATM    6  C   UNL     1      -7.473   3.943  64.855  1.00  0.00    -0.076 C  
HETATM    7  C   UNL     1      -9.950   3.633  64.418  1.00  0.00    -0.197 C  
HETATM    8  C   UNL     1      -6.431   4.178  64.032  1.00  0.00    -0.041 C  
HETATM    9  C   UNL     1      -6.222   3.446  62.738  1.00  0.00    -0.014 C  
HETATM   10  C   UNL     1      -5.356   5.219  64.267  1.00  0.00    -0.010 C  
HETATM   11  C   UNL     1      -8.698   1.920  65.746  1.00  0.00    -0.119 C  
HETATM   12  C   UNL     1      -8.582   2.916  64.561  1.00  0.00    -0.095 C  
HETATM   13  C   UNL     1      -8.371   2.058  63.281  1.00  0.00    -0.073 C  
HETATM   14  C   UNL     1      -7.229   2.389  62.331  1.00  0.00    -0.036 C  
ENDBRANCH   5   6
ENDBRANCH   2   4
BRANCH   3  15
HETATM   15  C   UNL     1      -8.284   5.119  70.804  1.00  0.00    -0.105 C  
HETATM   16  C   UNL     1      -9.480   5.072  71.413  1.00  0.00    -0.206 C  
BRANCH  16  17
HETATM   17  C   UNL     1      -9.834   5.721  72.674  1.00  0.00    -0.183 C  
HETATM   18  C   UNL     1      -9.994   8.218  71.945  1.00  0.00    -0.231 C  
HETATM   19  O   UNL     1     -10.649   9.220  72.190  1.00  0.00    -0.177 OA 
HETATM   20  C   UNL     1     -10.036   7.045  72.842  1.00  0.00    -0.225 C  
HETATM   21  C   UNL     1     -10.050   4.877  73.918  1.00  0.00    -0.219 C  
HETATM   22  O   UNL     1      -9.149   8.136  70.906  1.00  0.00    -0.143 OA 
ENDBRANCH  16  17
ENDBRANCH   3  15
TORSDOF 4
ENDMDL
MODEL      219
REMARK 921   NORMALIZED FREE ENERGY PREDICTED BY IDOCK:   -1.66 KCAL/MOL
REMARK 922        TOTAL FREE ENERGY PREDICTED BY IDOCK:   -2.74 KCAL/MOL
REMARK 923 INTER-LIGAND FREE ENERGY PREDICTED BY IDOCK:   -3.99 KCAL/MOL
REMARK 924 INTRA-LIGAND FREE ENERGY PREDICTED BY IDOCK:    1.25 KCAL/MOL
REMARK 927      BINDING AFFINITY PREDICTED BY RF-SCORE:    0.00 PKD
ROOT
HETATM    1  C   UNL     1      -6.545  12.927  68.029  1.00  0.00    -0.107 C  
HETATM    2  C   UNL     1      -7.618  11.870  67.908  1.00  0.00    -0.128 C  
HETATM    3  C   UNL     1      -8.928  12.200  67.838  1.00  0.00    -0.184 C  
ENDROOT
BRANCH   2   4
HETATM    4  C   UNL     1      -7.251  10.456  67.870  1.00  0.00    -0.085 C  
HETATM    5  C   UNL     1      -8.006   9.438  67.425  1.00  0.00    -0.106 C  
BRANCH   5   6
HETATM    6  C   UNL     1      -7.581   8.037  67.420  1.00  0.00    -0.097 C  
HETATM    7  C   UNL     1      -8.150   7.621  64.986  1.00  0.00    -0.133 C  
HETATM    8  C   UNL     1      -6.562   7.617  68.197  1.00  0.00    -0.054 C  
HETATM    9  C   UNL     1      -6.068   6.200  68.211  1.00  0.00    -0.021 C  
HETATM   10  C   UNL     1      -5.755   8.501  69.126  1.00  0.00    -0.039 C  
HETATM   11  C   UNL     1      -9.865   7.184  66.756  1.00  0.00    -0.272 C  
HETATM   12  C   UNL     1      -8.346   7.126  66.444  1.00  0.00    -0.125 C  
HETATM   13  C   UNL     1      -7.944   5.624  66.482  1.00  0.00    -0.101 C  
HETATM   14  C   UNL     1      -6.746   5.186  67.310  1.00  0.00    -0.055 C  
ENDBRANCH   5   6
ENDBRANCH   2   4
BRANCH   3  15
HETATM   15  C   UNL     1      -9.443  13.556  67.803  1.00  0.00    -0.216 C  
HETATM   16  C   UNL     1     -10.326  14.047  68.687  1.00  0.00    -0.238 C  
BRANCH  16  17
HETATM   17  C   UNL     1     -10.925  15.381  68.660  1.00  0.00    -0.273 C  
HETATM   18  C   UNL     1      -9.832  16.396  66.523  1.00  0.00    -0.274 C  
HETATM   19  O   UNL     1     -10.113  17.145  65.599  1.00  0.00    -0.561 OA 
HETATM   20  C   UNL     1     -10.681  16.328  67.730  1.00  0.00    -0.325 C  
HETATM   21  C   UNL     1     -11.947  15.767  69.715  1.00  0.00    -0.337 C  
HETATM   22  O   UNL     1      -8.717  15.651  66.544  1.00  0.00    -0.260 OA 
ENDBRANCH  16  17
ENDBRANCH   3  15
TORSDOF 4
ENDMDL
MODEL      220
REMARK 921   NORMALIZED FREE ENERGY PREDICTED BY IDOCK:   -1.59 KCAL/MOL
REMARK 922        TOTAL FREE ENERGY PREDICTED BY IDOCK:   -2.65 KCAL/MOL
REMARK 923 INTER-LIGAND FREE ENERGY PREDICTED BY IDOCK:   -2.77 KCAL/MOL
REMARK 924 INTRA-LIGAND FREE ENERGY PREDICTED BY IDOCK:    0.12 KCAL/MOL
REMARK 927      BINDING AFFINITY PREDICTED BY RF-SCORE:    0.00 PKD
ROOT
HETATM    1  C   UNL     1     -10.760  17.830  70.775  1.00  0.00     1.906 C  
HETATM    2  C   UNL     1     -11.108  16.701  69.834  1.00  0.00    -0.125 C  
HETATM    3  C   UNL     1     -11.066  16.862  68.492  1.00  0.00    -0.213 C  
ENDROOT
BRANCH   2   4
HETATM    4  C   UNL     1     -11.506  15.400  70.368  1.00  0.00    -0.355 C  
HETATM    5  C   UNL     1     -11.722  14.273  69.671  1.00  0.00    -0.362 C  
BRANCH   5   6
HETATM    6  C   UNL     1     -12.127  12.999  70.268  1.00  0.00    -0.388 C  
HETATM    7  C   UNL     1     -14.367  13.830  71.114  1.00  0.00     0.747 C  
HETATM    8  C   UNL     1     -11.742  11.825  69.728  1.00  0.00    -0.408 C  
HETATM    9  C   UNL     1     -12.150  10.490  70.281  1.00  0.00    -0.402 C  
HETATM   10  C   UNL     1     -10.887  11.678  68.486  1.00  0.00    -0.257 C  
HETATM   11  C   UNL     1     -12.349  13.976  72.588  1.00  0.00     0.027 C  
HETATM   12  C   UNL     1     -13.044  13.116  71.499  1.00  0.00    -0.404 C  
HETATM   13  C   UNL     1     -13.424  11.768  72.175  1.00  0.00    -0.273 C  
HETATM   14  C   UNL     1     -13.040  10.456  71.509  1.00  0.00    -0.532 C  
ENDBRANCH   5   6
ENDBRANCH   2   4
BRANCH   3  15
HETATM   15  C   UNL     1     -10.634  18.069  67.813  1.00  0.00    -0.409 C  
HETATM   16  C   UNL     1      -9.784  18.084  66.773  1.00  0.00    -0.323 C  
BRANCH  16  17
HETATM   17  C   UNL     1      -9.268  19.272  66.095  1.00  0.00    -0.287 C  
HETATM   18  C   UNL     1      -6.735  19.151  66.694  1.00  0.00    -0.192 C  
HETATM   19  O   UNL     1      -5.647  19.397  66.195  1.00  0.00    -0.159 OA 
HETATM   20  C   UNL     1      -7.980  19.675  66.096  1.00  0.00    -0.352 C  
HETATM   21  C   UNL     1     -10.209  20.134  65.270  1.00  0.00     0.200 C  
HETATM   22  O   UNL     1      -6.873  18.465  67.838  1.00  0.00    -0.211 OA 
ENDBRANCH  16  17
ENDBRANCH   3  15
TORSDOF 4
ENDMDL
MODEL      221
REMARK 921   NORMALIZED FREE ENERGY PREDICTED BY IDOCK:   -1.46 KCAL/MOL
REMARK 922        TOTAL FREE ENERGY PREDICTED BY IDOCK:   -2.50 KCAL/MOL
REMARK 923 INTER-LIGAND FREE ENERGY PREDICTED BY IDOCK:   -2.43 KCAL/MOL
REMARK 924 INTRA-LIGAND FREE ENERGY PREDICTED BY IDOCK:   -0.07 KCAL/MOL
REMARK 927      BINDING AFFINITY PREDICTED BY RF-SCORE:    0.00 PKD
ROOT
HETATM    1  C   UNL     1     -10.746  17.810  70.764  1.00  0.00     1.906 C  
HETATM    2  C   UNL     1     -10.807  16.769  69.671  1.00  0.00    -0.205 C  
HETATM    3  C   UNL     1     -10.617  17.097  68.373  1.00  0.00    -0.371 C  
ENDROOT
BRANCH   2   4
HETATM    4  C   UNL     1     -11.080  15.372  70.005  1.00  0.00    -0.317 C  
HETATM    5  C   UNL     1     -10.910  14.304  69.210  1.00  0.00    -0.241 C  
BRANCH   5   6
HETATM    6  C   UNL     1     -11.210  12.927  69.604  1.00  0.00    -0.072 C  
HETATM    7  C   UNL     1      -8.888  12.028  69.133  1.00  0.00     0.527 C  
HETATM    8  C   UNL     1     -12.103  12.661  70.579  1.00  0.00    -0.360 C  
HETATM    9  C   UNL     1     -12.430  11.271  71.041  1.00  0.00    -0.503 C  
HETATM   10  C   UNL     1     -12.870  13.707  71.364  1.00  0.00    -0.442 C  
HETATM   11  C   UNL     1     -10.627  11.984  67.333  1.00  0.00    -0.253 C  
HETATM   12  C   UNL     1     -10.405  11.844  68.863  1.00  0.00    -0.131 C  
HETATM   13  C   UNL     1     -10.768  10.377  69.231  1.00  0.00    -0.270 C  
HETATM   14  C   UNL     1     -11.723  10.103  70.382  1.00  0.00    -0.390 C  
ENDBRANCH   5   6
ENDBRANCH   2   4
BRANCH   3  15
HETATM   15  C   UNL     1     -10.278  18.423  67.891  1.00  0.00    -0.404 C  
HETATM   16  C   UNL     1      -9.321  18.671  66.983  1.00  0.00    -0.301 C  
BRANCH  16  17
HETATM   17  C   UNL     1      -8.897  19.989  66.512  1.00  0.00    -0.414 C  
HETATM   18  C   UNL     1      -6.445  20.088  67.390  1.00  0.00    -0.206 C  
HETATM   19  O   UNL     1      -5.353  20.522  67.055  1.00  0.00    -0.166 OA 
HETATM   20  C   UNL     1      -7.680  20.535  66.712  1.00  0.00    -0.279 C  
HETATM   21  C   UNL     1      -9.851  20.834  65.686  1.00  0.00     0.702 C  
HETATM   22  O   UNL     1      -6.611  19.249  68.423  1.00  0.00    -0.240 OA 
ENDBRANCH  16  17
ENDBRANCH   3  15
TORSDOF 4
ENDMDL
MODEL      222
REMARK 921   NORMALIZED FREE ENERGY PREDICTED BY IDOCK:   -1.31 KCAL/MOL
REMARK 922        TOTAL FREE ENERGY PREDICTED BY IDOCK:   -2.30 KCAL/MOL
REMARK 923 INTER-LIGAND FREE ENERGY PREDICTED BY IDOCK:   -2.24 KCAL/MOL
REMARK 924 INTRA-LIGAND FREE ENERGY PREDICTED BY IDOCK:   -0.06 KCAL/MOL
REMARK 927      BINDING AFFINITY PREDICTED BY RF-SCORE:    0.00 PKD
ROOT
HETATM    1  C   UNL     1      -6.383   9.165  66.752  1.00  0.00    -0.066 C  
HETATM    2  C   UNL     1      -7.382   8.269  67.446  1.00  0.00    -0.092 C  
HETATM    3  C   UNL     1      -8.094   7.345  66.763  1.00  0.00    -0.123 C  
ENDROOT
BRANCH   2   4
HETATM    4  C   UNL     1      -7.598   8.392  68.886  1.00  0.00    -0.096 C  
HETATM    5  C   UNL     1      -8.081   7.451  69.713  1.00  0.00    -0.127 C  
BRANCH   5   6
HETATM    6  C   UNL     1      -8.282   7.640  71.150  1.00  0.00    -0.100 C  
HETATM    7  C   UNL     1      -6.829   9.707  71.328  1.00  0.00     0.140 C  
HETATM    8  C   UNL     1      -9.446   7.297  71.741  1.00  0.00    -0.162 C  
HETATM    9  C   UNL     1      -9.716   7.494  73.204  1.00  0.00    -0.301 C  
HETATM   10  C   UNL     1     -10.643   6.707  71.025  1.00  0.00    -0.263 C  
HETATM   11  C   UNL     1      -5.819   7.444  71.680  1.00  0.00    -0.036 C  
HETATM   12  C   UNL     1      -7.103   8.290  71.896  1.00  0.00    -0.095 C  
HETATM   13  C   UNL     1      -7.285   8.433  73.433  1.00  0.00    -0.116 C  
HETATM   14  C   UNL     1      -8.630   8.108  74.066  1.00  0.00    -0.253 C  
ENDBRANCH   5   6
ENDBRANCH   2   4
BRANCH   3  15
HETATM   15  C   UNL     1      -7.948   7.062  65.347  1.00  0.00    -0.129 C  
HETATM   16  C   UNL     1      -8.635   6.110  64.695  1.00  0.00     0.108 C  
BRANCH  16  17
HETATM   17  C   UNL     1      -8.480   5.742  63.288  1.00  0.00     0.046 C  
HETATM   18  C   UNL     1      -9.706   3.444  63.215  1.00  0.00    -0.117 C  
HETATM   19  O   UNL     1     -10.409   2.787  62.462  1.00  0.00    -0.106 OA 
HETATM   20  C   UNL     1      -8.947   4.611  62.721  1.00  0.00    -0.120 C  
HETATM   21  C   UNL     1      -7.784   6.698  62.335  1.00  0.00    -0.097 C  
HETATM   22  O   UNL     1      -9.516   3.120  64.503  1.00  0.00    -0.138 OA 
ENDBRANCH  16  17
ENDBRANCH   3  15
TORSDOF 4
ENDMDL
MODEL      223
REMARK 921   NORMALIZED FREE ENERGY PREDICTED BY IDOCK:   -1.00 KCAL/MOL
REMARK 922        TOTAL FREE ENERGY PREDICTED BY IDOCK:   -1.93 KCAL/MOL
REMARK 923 INTER-LIGAND FREE ENERGY PREDICTED BY IDOCK:   -2.14 KCAL/MOL
REMARK 924 INTRA-LIGAND FREE ENERGY PREDICTED BY IDOCK:    0.21 KCAL/MOL
REMARK 927      BINDING AFFINITY PREDICTED BY RF-SCORE:    0.00 PKD
ROOT
HETATM    1  C   UNL     1      -9.739   6.885  69.534  1.00  0.00    -0.159 C  
HETATM    2  C   UNL     1      -9.929   8.133  68.703  1.00  0.00    -0.201 C  
HETATM    3  C   UNL     1      -9.632   8.153  67.383  1.00  0.00    -0.204 C  
ENDROOT
BRANCH   2   4
HETATM    4  C   UNL     1     -10.441   9.354  69.322  1.00  0.00    -0.230 C  
HETATM    5  C   UNL     1     -11.709   9.794  69.309  1.00  0.00     0.216 C  
BRANCH   5   6
HETATM    6  C   UNL     1     -12.157  11.034  69.945  1.00  0.00    -0.435 C  
HETATM    7  C   UNL     1     -11.988  10.165  72.319  1.00  0.00     0.812 C  
HETATM    8  C   UNL     1     -11.880  12.236  69.398  1.00  0.00    -0.370 C  
HETATM    9  C   UNL     1     -12.290  13.539  70.020  1.00  0.00    -0.315 C  
HETATM   10  C   UNL     1     -11.096  12.448  68.119  1.00  0.00    -0.288 C  
HETATM   11  C   UNL     1     -14.138   9.931  71.060  1.00  0.00     0.429 C  
HETATM   12  C   UNL     1     -12.908  10.853  71.276  1.00  0.00    -0.536 C  
HETATM   13  C   UNL     1     -13.444  12.163  71.922  1.00  0.00    -0.318 C  
HETATM   14  C   UNL     1     -13.057  13.508  71.327  1.00  0.00    -0.339 C  
ENDBRANCH   5   6
ENDBRANCH   2   4
BRANCH   3  15
HETATM   15  C   UNL     1      -9.175   7.010  66.616  1.00  0.00    -0.189 C  
HETATM   16  C   UNL     1      -9.995   6.125  66.024  1.00  0.00     0.135 C  
BRANCH  16  17
HETATM   17  C   UNL     1      -9.588   4.924  65.296  1.00  0.00    -0.079 C  
HETATM   18  C   UNL     1      -7.577   4.102  66.734  1.00  0.00    -0.088 C  
HETATM   19  O   UNL     1      -7.063   3.057  67.106  1.00  0.00    -0.052 OA 
HETATM   20  C   UNL     1      -8.566   4.113  65.637  1.00  0.00    -0.114 C  
HETATM   21  C   UNL     1     -10.378   4.483  64.076  1.00  0.00     0.260 C  
HETATM   22  O   UNL     1      -7.235   5.300  67.231  1.00  0.00    -0.072 OA 
ENDBRANCH  16  17
ENDBRANCH   3  15
TORSDOF 4
ENDMDL
MODEL      224
REMARK 921   NORMALIZED FREE ENERGY PREDICTED BY IDOCK:   -0.55 KCAL/MOL
REMARK 922        TOTAL FREE ENERGY PREDICTED BY IDOCK:   -1.37 KCAL/MOL
REMARK 923 INTER-LIGAND FREE ENERGY PREDICTED BY IDOCK:   -1.51 KCAL/MOL
REMARK 924 INTRA-LIGAND FREE ENERGY PREDICTED BY IDOCK:    0.14 KCAL/MOL
REMARK 927      BINDING AFFINITY PREDICTED BY RF-SCORE:    0.00 PKD
ROOT
HETATM    1  C   UNL     1      -6.253   9.123  66.704  1.00  0.00    -0.065 C  
HETATM    2  C   UNL     1      -6.899   7.977  67.447  1.00  0.00    -0.070 C  
HETATM    3  C   UNL     1      -7.461   6.938  66.789  1.00  0.00    -0.082 C  
ENDROOT
BRANCH   2   4
HETATM    4  C   UNL     1      -6.929   7.977  68.908  1.00  0.00    -0.062 C  
HETATM    5  C   UNL     1      -6.934   6.904  69.715  1.00  0.00    -0.062 C  
BRANCH   5   6
HETATM    6  C   UNL     1      -6.972   6.972  71.177  1.00  0.00    -0.062 C  
HETATM    7  C   UNL     1      -5.458   4.975  71.552  1.00  0.00    -0.005 C  
HETATM    8  C   UNL     1      -7.087   8.154  71.816  1.00  0.00    -0.080 C  
HETATM    9  C   UNL     1      -7.104   8.285  73.311  1.00  0.00    -0.147 C  
HETATM   10  C   UNL     1      -7.177   9.505  71.134  1.00  0.00     0.073 C  
HETATM   11  C   UNL     1      -7.936   4.648  71.415  1.00  0.00    -0.096 C  
HETATM   12  C   UNL     1      -6.826   5.620  71.898  1.00  0.00    -0.067 C  
HETATM   13  C   UNL     1      -6.933   5.678  73.449  1.00  0.00    -0.085 C  
HETATM   14  C   UNL     1      -6.989   7.027  74.150  1.00  0.00    -0.086 C  
ENDBRANCH   5   6
ENDBRANCH   2   4
BRANCH   3  15
HETATM   15  C   UNL     1      -7.457   6.765  65.349  1.00  0.00    -0.084 C  
HETATM   16  C   UNL     1      -7.773   5.616  64.728  1.00  0.00    -0.101 C  
BRANCH  16  17
HETATM   17  C   UNL     1      -7.723   5.370  63.288  1.00  0.00    -0.081 C  
HETATM   18  C   UNL     1      -8.012   2.782  63.194  1.00  0.00    -0.069 C  
HETATM   19  O   UNL     1      -8.535   1.928  62.493  1.00  0.00    -0.070 OA 
HETATM   20  C   UNL     1      -7.826   4.161  62.698  1.00  0.00    -0.065 C  
HETATM   21  C   UNL     1      -7.591   6.542  62.330  1.00  0.00    -0.084 C  
HETATM   22  O   UNL     1      -7.510   2.521  64.410  1.00  0.00    -0.064 OA 
ENDBRANCH  16  17
ENDBRANCH   3  15
TORSDOF 4
ENDMDL
