MODEL        1
REMARK 921   NORMALIZED FREE ENERGY PREDICTED BY IDOCK:   -8.04 KCAL/MOL
REMARK 922        TOTAL FREE ENERGY PREDICTED BY IDOCK:  -10.44 KCAL/MOL
REMARK 923 INTER-LIGAND FREE ENERGY PREDICTED BY IDOCK:   -9.92 KCAL/MOL
REMARK 924 INTRA-LIGAND FREE ENERGY PREDICTED BY IDOCK:   -0.52 KCAL/MOL
REMARK 927      BINDING AFFINITY PREDICTED BY RF-SCORE:    0.00 PKD
ROOT
HETATM    1  C   UNL     1     -11.235  15.318  64.863  1.00  0.00    -0.415 A  
HETATM    2  N   UNL     1     -11.627  16.253  63.998  1.00  0.00    -1.007 NA 
HETATM    3  O   UNL     1     -11.182  17.448  64.528  1.00  0.00    -1.018 OA 
HETATM    4  C   UNL     1     -10.506  17.214  65.689  1.00  0.00    -0.197 A  
HETATM    5  C   UNL     1     -10.506  15.850  65.954  1.00  0.00    -0.373 A  
ENDROOT
BRANCH   4   6
HETATM    6  C   UNL     1      -9.859  18.323  66.517  1.00  0.00    -0.363 C  
HETATM    7  C   UNL     1     -10.174  19.766  66.177  1.00  0.00    -0.618 C  
HETATM    8  C   UNL     1     -10.754  19.159  67.407  1.00  0.00    -0.578 C  
ENDBRANCH   4   6
BRANCH   5   9
HETATM    9  C   UNL     1      -9.917  15.201  67.119  1.00  0.00    -0.237 C  
HETATM   10  O   UNL     1      -8.787  14.737  67.065  1.00  0.00    -0.211 OA 
BRANCH   9  11
HETATM   11  C   UNL     1     -10.691  14.978  68.382  1.00  0.00    -0.245 A  
HETATM   12  C   UNL     1     -11.437  13.803  68.629  1.00  0.00    -0.301 A  
HETATM   13  C   UNL     1     -12.254  13.707  69.770  1.00  0.00    -0.350 A  
HETATM   14  C   UNL     1     -10.821  16.047  69.289  1.00  0.00    -0.300 A  
HETATM   15  C   UNL     1     -12.377  14.779  70.665  1.00  0.00    -0.401 A  
HETATM   16  F   UNL     1     -13.922  13.483  71.969  1.00  0.00    -0.464 F  
HETATM   17  F   UNL     1     -12.663  14.896  73.037  1.00  0.00    -0.397 F  
HETATM   18  F   UNL     1     -14.303  15.617  71.803  1.00  0.00    -0.535 F  
HETATM   19  C   UNL     1     -13.307  14.694  71.858  1.00  0.00    -0.363 C  
HETATM   20  C   UNL     1     -11.647  15.946  70.418  1.00  0.00    -0.387 A  
BRANCH  12  21
HETATM   21  S   UNL     1     -11.325  12.393  67.532  1.00  0.00    -0.337 S  
HETATM   22  C   UNL     1     -11.965  10.983  68.389  1.00  0.00    -0.086 C  
HETATM   23  O   UNL     1     -12.260  12.614  66.445  1.00  0.00    -0.550 OA 
HETATM   24  O   UNL     1      -9.907  12.159  67.337  1.00  0.00    -0.188 OA 
ENDBRANCH  12  21
ENDBRANCH   9  11
ENDBRANCH   5   9
TORSDOF 4
ENDMDL
MODEL        2
REMARK 921   NORMALIZED FREE ENERGY PREDICTED BY IDOCK:   -7.82 KCAL/MOL
REMARK 922        TOTAL FREE ENERGY PREDICTED BY IDOCK:  -10.17 KCAL/MOL
REMARK 923 INTER-LIGAND FREE ENERGY PREDICTED BY IDOCK:   -9.55 KCAL/MOL
REMARK 924 INTRA-LIGAND FREE ENERGY PREDICTED BY IDOCK:   -0.62 KCAL/MOL
REMARK 927      BINDING AFFINITY PREDICTED BY RF-SCORE:    0.00 PKD
ROOT
HETATM    1  C   UNL     1     -10.707  16.062  65.315  1.00  0.00    -0.399 A  
HETATM    2  N   UNL     1     -11.480  16.350  64.268  1.00  0.00    -0.921 NA 
HETATM    3  O   UNL     1     -12.090  15.159  63.928  1.00  0.00    -0.507 OA 
HETATM    4  C   UNL     1     -11.699  14.178  64.791  1.00  0.00    -0.410 A  
HETATM    5  C   UNL     1     -10.805  14.707  65.714  1.00  0.00    -0.326 A  
ENDROOT
BRANCH   4   6
HETATM    6  C   UNL     1     -12.212  12.742  64.710  1.00  0.00    -0.517 C  
HETATM    7  C   UNL     1     -12.648  12.197  63.365  1.00  0.00    -0.584 C  
HETATM    8  C   UNL     1     -11.370  11.726  63.966  1.00  0.00    -0.461 C  
ENDBRANCH   4   6
BRANCH   5   9
HETATM    9  C   UNL     1     -10.133  13.971  66.777  1.00  0.00    -0.264 C  
HETATM   10  O   UNL     1      -8.913  13.879  66.793  1.00  0.00    -0.237 OA 
BRANCH   9  11
HETATM   11  C   UNL     1     -10.891  13.215  67.825  1.00  0.00    -0.261 A  
HETATM   12  C   UNL     1     -11.279  13.789  69.057  1.00  0.00    -0.272 A  
HETATM   13  C   UNL     1     -11.868  12.993  70.057  1.00  0.00    -0.355 A  
HETATM   14  C   UNL     1     -11.081  11.831  67.650  1.00  0.00    -0.312 A  
HETATM   15  C   UNL     1     -12.049  11.615  69.872  1.00  0.00    -0.373 A  
HETATM   16  F   UNL     1     -12.978  11.465  72.081  1.00  0.00    -0.556 F  
HETATM   17  F   UNL     1     -13.743  10.084  70.587  1.00  0.00    -0.396 F  
HETATM   18  F   UNL     1     -11.746   9.807  71.404  1.00  0.00    -0.380 F  
HETATM   19  C   UNL     1     -12.625  10.751  70.976  1.00  0.00    -0.420 C  
HETATM   20  C   UNL     1     -11.658  11.044  68.657  1.00  0.00    -0.385 A  
BRANCH  12  21
HETATM   21  S   UNL     1     -11.081  15.541  69.360  1.00  0.00    -0.320 S  
HETATM   22  C   UNL     1     -11.597  15.869  71.021  1.00  0.00    -0.424 C  
HETATM   23  O   UNL     1      -9.659  15.824  69.357  1.00  0.00    -0.256 OA 
HETATM   24  O   UNL     1     -12.034  16.200  68.487  1.00  0.00    -0.214 OA 
ENDBRANCH  12  21
ENDBRANCH   9  11
ENDBRANCH   5   9
TORSDOF 4
ENDMDL
MODEL        3
REMARK 921   NORMALIZED FREE ENERGY PREDICTED BY IDOCK:   -7.31 KCAL/MOL
REMARK 922        TOTAL FREE ENERGY PREDICTED BY IDOCK:   -9.54 KCAL/MOL
REMARK 923 INTER-LIGAND FREE ENERGY PREDICTED BY IDOCK:   -9.94 KCAL/MOL
REMARK 924 INTRA-LIGAND FREE ENERGY PREDICTED BY IDOCK:    0.40 KCAL/MOL
REMARK 927      BINDING AFFINITY PREDICTED BY RF-SCORE:    0.00 PKD
ROOT
HETATM    1  C   UNL     1     -10.937  16.259  65.288  1.00  0.00    -0.236 A  
HETATM    2  N   UNL     1     -11.624  16.494  64.170  1.00  0.00    -1.080 NA 
HETATM    3  O   UNL     1     -12.194  15.282  63.833  1.00  0.00    -0.604 OA 
HETATM    4  C   UNL     1     -11.866  14.343  64.766  1.00  0.00    -0.433 A  
HETATM    5  C   UNL     1     -11.055  14.921  65.735  1.00  0.00    -0.342 A  
ENDROOT
BRANCH   4   6
HETATM    6  C   UNL     1     -12.358  12.898  64.705  1.00  0.00    -0.516 C  
HETATM    7  C   UNL     1     -12.559  12.252  63.349  1.00  0.00    -0.545 C  
HETATM    8  C   UNL     1     -11.401  11.842  64.192  1.00  0.00    -0.455 C  
ENDBRANCH   4   6
BRANCH   5   9
HETATM    9  C   UNL     1     -10.466  14.239  66.881  1.00  0.00    -0.272 C  
HETATM   10  O   UNL     1      -9.570  13.422  66.723  1.00  0.00    -0.247 OA 
BRANCH   9  11
HETATM   11  C   UNL     1     -10.992  14.421  68.272  1.00  0.00    -0.259 A  
HETATM   12  C   UNL     1     -11.449  13.345  69.067  1.00  0.00    -0.301 A  
HETATM   13  C   UNL     1     -12.059  13.590  70.311  1.00  0.00    -0.425 A  
HETATM   14  C   UNL     1     -11.198  15.729  68.749  1.00  0.00    -0.342 A  
HETATM   15  C   UNL     1     -12.261  14.898  70.773  1.00  0.00    -0.387 A  
HETATM   16  F   UNL     1     -13.317  14.014  72.740  1.00  0.00    -0.512 F  
HETATM   17  F   UNL     1     -12.221  15.879  72.955  1.00  0.00    -0.431 F  
HETATM   18  F   UNL     1     -14.131  15.852  71.913  1.00  0.00    -0.495 F  
HETATM   19  C   UNL     1     -12.975  15.158  72.084  1.00  0.00    -0.353 C  
HETATM   20  C   UNL     1     -11.818  15.964  69.984  1.00  0.00    -0.322 A  
BRANCH  12  21
HETATM   21  S   UNL     1     -11.221  11.649  68.541  1.00  0.00    -0.285 S  
HETATM   22  C   UNL     1     -11.947  10.597  69.766  1.00  0.00    -0.291 C  
HETATM   23  O   UNL     1     -12.035  11.448  67.359  1.00  0.00    -0.606 OA 
HETATM   24  O   UNL     1      -9.790  11.416  68.582  1.00  0.00    -0.200 OA 
ENDBRANCH  12  21
ENDBRANCH   9  11
ENDBRANCH   5   9
TORSDOF 4
ENDMDL
MODEL        4
REMARK 921   NORMALIZED FREE ENERGY PREDICTED BY IDOCK:   -7.29 KCAL/MOL
REMARK 922        TOTAL FREE ENERGY PREDICTED BY IDOCK:   -9.52 KCAL/MOL
REMARK 923 INTER-LIGAND FREE ENERGY PREDICTED BY IDOCK:   -8.83 KCAL/MOL
REMARK 924 INTRA-LIGAND FREE ENERGY PREDICTED BY IDOCK:   -0.69 KCAL/MOL
REMARK 927      BINDING AFFINITY PREDICTED BY RF-SCORE:    0.00 PKD
ROOT
HETATM    1  C   UNL     1      -8.239  15.439  66.706  1.00  0.00    -0.217 A  
HETATM    2  N   UNL     1      -7.315  16.352  66.407  1.00  0.00    -0.138 NA 
HETATM    3  O   UNL     1      -8.020  17.513  66.155  1.00  0.00    -0.396 OA 
HETATM    4  C   UNL     1      -9.354  17.290  66.334  1.00  0.00    -0.258 A  
HETATM    5  C   UNL     1      -9.554  15.964  66.695  1.00  0.00    -0.265 A  
ENDROOT
BRANCH   4   6
HETATM    6  C   UNL     1     -10.412  18.378  66.162  1.00  0.00    -0.422 C  
HETATM    7  C   UNL     1     -10.812  19.204  67.368  1.00  0.00    -0.533 C  
HETATM    8  C   UNL     1      -9.977  19.822  66.301  1.00  0.00    -0.581 C  
ENDBRANCH   4   6
BRANCH   5   9
HETATM    9  C   UNL     1     -10.841  15.325  66.940  1.00  0.00    -0.317 C  
HETATM   10  O   UNL     1     -11.623  15.131  66.019  1.00  0.00    -0.236 OA 
BRANCH   9  11
HETATM   11  C   UNL     1     -11.308  14.979  68.321  1.00  0.00    -0.331 A  
HETATM   12  C   UNL     1     -11.612  13.657  68.720  1.00  0.00    -0.324 A  
HETATM   13  C   UNL     1     -12.177  13.410  69.985  1.00  0.00    -0.367 A  
HETATM   14  C   UNL     1     -11.619  16.026  69.209  1.00  0.00    -0.331 A  
HETATM   15  C   UNL     1     -12.484  14.462  70.859  1.00  0.00    -0.424 A  
HETATM   16  F   UNL     1     -13.341  12.869  72.438  1.00  0.00    -0.569 F  
HETATM   17  F   UNL     1     -12.427  14.669  73.242  1.00  0.00    -0.456 F  
HETATM   18  F   UNL     1     -14.378  14.773  72.282  1.00  0.00    -0.488 F  
HETATM   19  C   UNL     1     -13.150  14.195  72.194  1.00  0.00    -0.401 C  
HETATM   20  C   UNL     1     -12.192  15.770  70.462  1.00  0.00    -0.399 A  
BRANCH  12  21
HETATM   21  S   UNL     1     -11.243  12.266  67.657  1.00  0.00    -0.312 S  
HETATM   22  C   UNL     1     -11.481  10.784  68.596  1.00  0.00    -0.295 C  
HETATM   23  O   UNL     1     -12.270  12.217  66.634  1.00  0.00    -0.574 OA 
HETATM   24  O   UNL     1      -9.825  12.357  67.369  1.00  0.00    -0.196 OA 
ENDBRANCH  12  21
ENDBRANCH   9  11
ENDBRANCH   5   9
TORSDOF 4
ENDMDL
MODEL        5
REMARK 921   NORMALIZED FREE ENERGY PREDICTED BY IDOCK:   -7.19 KCAL/MOL
REMARK 922        TOTAL FREE ENERGY PREDICTED BY IDOCK:   -9.39 KCAL/MOL
REMARK 923 INTER-LIGAND FREE ENERGY PREDICTED BY IDOCK:   -9.14 KCAL/MOL
REMARK 924 INTRA-LIGAND FREE ENERGY PREDICTED BY IDOCK:   -0.26 KCAL/MOL
REMARK 927      BINDING AFFINITY PREDICTED BY RF-SCORE:    0.00 PKD
ROOT
HETATM    1  C   UNL     1     -11.533  16.150  64.812  1.00  0.00    -0.168 A  
HETATM    2  N   UNL     1     -12.274  16.029  63.711  1.00  0.00    -0.676 NA 
HETATM    3  O   UNL     1     -12.542  14.678  63.601  1.00  0.00    -0.773 OA 
HETATM    4  C   UNL     1     -11.983  14.010  64.650  1.00  0.00    -0.430 A  
HETATM    5  C   UNL     1     -11.318  14.915  65.469  1.00  0.00    -0.339 A  
ENDROOT
BRANCH   4   6
HETATM    6  C   UNL     1     -12.114  12.501  64.844  1.00  0.00    -0.499 C  
HETATM    7  C   UNL     1     -12.304  11.622  63.624  1.00  0.00    -0.338 C  
HETATM    8  C   UNL     1     -10.995  11.618  64.334  1.00  0.00    -0.399 C  
ENDBRANCH   4   6
BRANCH   5   9
HETATM    9  C   UNL     1     -10.564  14.590  66.673  1.00  0.00    -0.283 C  
HETATM   10  O   UNL     1      -9.592  13.849  66.615  1.00  0.00    -0.270 OA 
BRANCH   9  11
HETATM   11  C   UNL     1     -10.996  15.049  68.032  1.00  0.00    -0.285 A  
HETATM   12  C   UNL     1     -10.564  16.267  68.605  1.00  0.00    -0.297 A  
HETATM   13  C   UNL     1     -10.891  16.581  69.937  1.00  0.00    -0.285 A  
HETATM   14  C   UNL     1     -11.727  14.160  68.843  1.00  0.00    -0.369 A  
HETATM   15  C   UNL     1     -11.618  15.686  70.734  1.00  0.00    -0.412 A  
HETATM   16  F   UNL     1     -11.457  17.227  72.569  1.00  0.00    -0.326 F  
HETATM   17  F   UNL     1     -13.244  15.994  72.462  1.00  0.00    -0.491 F  
HETATM   18  F   UNL     1     -11.341  15.107  73.036  1.00  0.00    -0.507 F  
HETATM   19  C   UNL     1     -11.913  16.001  72.187  1.00  0.00    -0.538 C  
HETATM   20  C   UNL     1     -12.038  14.477  70.172  1.00  0.00    -0.394 A  
BRANCH  12  21
HETATM   21  S   UNL     1      -9.637  17.459  67.644  1.00  0.00    -0.267 S  
HETATM   22  C   UNL     1      -8.975  18.663  68.761  1.00  0.00    -0.259 C  
HETATM   23  O   UNL     1      -8.472  16.776  67.113  1.00  0.00    -0.175 OA 
HETATM   24  O   UNL     1     -10.614  18.143  66.819  1.00  0.00    -0.357 OA 
ENDBRANCH  12  21
ENDBRANCH   9  11
ENDBRANCH   5   9
TORSDOF 4
ENDMDL
MODEL        6
REMARK 921   NORMALIZED FREE ENERGY PREDICTED BY IDOCK:   -7.13 KCAL/MOL
REMARK 922        TOTAL FREE ENERGY PREDICTED BY IDOCK:   -9.31 KCAL/MOL
REMARK 923 INTER-LIGAND FREE ENERGY PREDICTED BY IDOCK:   -8.65 KCAL/MOL
REMARK 924 INTRA-LIGAND FREE ENERGY PREDICTED BY IDOCK:   -0.66 KCAL/MOL
REMARK 927      BINDING AFFINITY PREDICTED BY RF-SCORE:    0.00 PKD
ROOT
HETATM    1  C   UNL     1     -12.232  14.303  65.125  1.00  0.00    -0.421 A  
HETATM    2  N   UNL     1     -12.468  14.116  63.826  1.00  0.00    -0.806 NA 
HETATM    3  O   UNL     1     -11.544  13.172  63.423  1.00  0.00    -0.420 OA 
HETATM    4  C   UNL     1     -10.784  12.785  64.487  1.00  0.00    -0.358 A  
HETATM    5  C   UNL     1     -11.189  13.483  65.619  1.00  0.00    -0.304 A  
ENDROOT
BRANCH   4   6
HETATM    6  C   UNL     1      -9.684  11.730  64.389  1.00  0.00    -0.166 C  
HETATM    7  C   UNL     1     -10.006  10.301  64.779  1.00  0.00    -0.392 C  
HETATM    8  C   UNL     1      -9.831  10.646  63.341  1.00  0.00    -0.376 C  
ENDBRANCH   4   6
BRANCH   5   9
HETATM    9  C   UNL     1     -10.601  13.379  66.948  1.00  0.00    -0.273 C  
HETATM   10  O   UNL     1      -9.460  13.769  67.155  1.00  0.00    -0.226 OA 
BRANCH   9  11
HETATM   11  C   UNL     1     -11.311  12.704  68.082  1.00  0.00    -0.334 A  
HETATM   12  C   UNL     1     -11.663  13.373  69.276  1.00  0.00    -0.330 A  
HETATM   13  C   UNL     1     -12.204  12.657  70.360  1.00  0.00    -0.368 A  
HETATM   14  C   UNL     1     -11.487  11.308  68.030  1.00  0.00    -0.369 A  
HETATM   15  C   UNL     1     -12.372  11.266  70.296  1.00  0.00    -0.389 A  
HETATM   16  F   UNL     1     -13.218  11.290  72.543  1.00  0.00    -0.469 F  
HETATM   17  F   UNL     1     -14.017   9.781  71.197  1.00  0.00    -0.344 F  
HETATM   18  F   UNL     1     -11.987   9.596  71.960  1.00  0.00    -0.435 F  
HETATM   19  C   UNL     1     -12.895  10.490  71.488  1.00  0.00    -0.463 C  
HETATM   20  C   UNL     1     -12.015  10.601  69.119  1.00  0.00    -0.230 A  
BRANCH  12  21
HETATM   21  S   UNL     1     -11.480  15.147  69.425  1.00  0.00    -0.330 S  
HETATM   22  C   UNL     1     -12.473  15.685  70.789  1.00  0.00    -0.435 C  
HETATM   23  O   UNL     1     -10.116  15.409  69.843  1.00  0.00    -0.277 OA 
HETATM   24  O   UNL     1     -12.076  15.705  68.226  1.00  0.00    -0.139 OA 
ENDBRANCH  12  21
ENDBRANCH   9  11
ENDBRANCH   5   9
TORSDOF 4
ENDMDL
MODEL        7
REMARK 921   NORMALIZED FREE ENERGY PREDICTED BY IDOCK:   -6.95 KCAL/MOL
REMARK 922        TOTAL FREE ENERGY PREDICTED BY IDOCK:   -9.10 KCAL/MOL
REMARK 923 INTER-LIGAND FREE ENERGY PREDICTED BY IDOCK:   -8.49 KCAL/MOL
REMARK 924 INTRA-LIGAND FREE ENERGY PREDICTED BY IDOCK:   -0.60 KCAL/MOL
REMARK 927      BINDING AFFINITY PREDICTED BY RF-SCORE:    0.00 PKD
ROOT
HETATM    1  C   UNL     1     -11.335  15.276  64.709  1.00  0.00    -0.391 A  
HETATM    2  N   UNL     1     -11.777  16.329  64.021  1.00  0.00    -0.975 NA 
HETATM    3  O   UNL     1     -11.253  17.430  64.668  1.00  0.00    -0.992 OA 
HETATM    4  C   UNL     1     -10.482  17.025  65.718  1.00  0.00    -0.251 A  
HETATM    5  C   UNL     1     -10.497  15.637  65.790  1.00  0.00    -0.383 A  
ENDROOT
BRANCH   4   6
HETATM    6  C   UNL     1      -9.733  17.996  66.628  1.00  0.00    -0.332 C  
HETATM    7  C   UNL     1      -9.479  19.407  66.138  1.00  0.00    -0.361 C  
HETATM    8  C   UNL     1     -10.499  19.172  67.197  1.00  0.00    -0.539 C  
ENDBRANCH   4   6
BRANCH   5   9
HETATM    9  C   UNL     1      -9.826  14.822  66.795  1.00  0.00    -0.255 C  
HETATM   10  O   UNL     1      -8.605  14.816  66.874  1.00  0.00    -0.228 OA 
BRANCH   9  11
HETATM   11  C   UNL     1     -10.576  13.886  67.692  1.00  0.00    -0.247 A  
HETATM   12  C   UNL     1     -11.014  14.248  68.986  1.00  0.00    -0.260 A  
HETATM   13  C   UNL     1     -11.592  13.286  69.836  1.00  0.00    -0.260 A  
HETATM   14  C   UNL     1     -10.706  12.539  67.302  1.00  0.00    -0.259 A  
HETATM   15  C   UNL     1     -11.713  11.948  69.437  1.00  0.00    -0.401 A  
HETATM   16  F   UNL     1     -12.683  11.425  71.570  1.00  0.00    -0.457 F  
HETATM   17  F   UNL     1     -13.360  10.265  69.862  1.00  0.00    -0.139 F  
HETATM   18  F   UNL     1     -11.371   9.938  70.682  1.00  0.00    -0.291 F  
HETATM   19  C   UNL     1     -12.278  10.904  70.379  1.00  0.00    -0.365 C  
HETATM   20  C   UNL     1     -11.272  11.586  68.160  1.00  0.00    -0.335 A  
BRANCH  12  21
HETATM   21  S   UNL     1     -10.893  15.939  69.560  1.00  0.00    -0.335 S  
HETATM   22  C   UNL     1     -11.327  15.965  71.276  1.00  0.00    -0.365 C  
HETATM   23  O   UNL     1      -9.491  16.308  69.533  1.00  0.00    -0.203 OA 
HETATM   24  O   UNL     1     -11.930  16.668  68.854  1.00  0.00     0.130 OA 
ENDBRANCH  12  21
ENDBRANCH   9  11
ENDBRANCH   5   9
TORSDOF 4
ENDMDL
MODEL        8
REMARK 921   NORMALIZED FREE ENERGY PREDICTED BY IDOCK:   -6.78 KCAL/MOL
REMARK 922        TOTAL FREE ENERGY PREDICTED BY IDOCK:   -8.89 KCAL/MOL
REMARK 923 INTER-LIGAND FREE ENERGY PREDICTED BY IDOCK:   -8.71 KCAL/MOL
REMARK 924 INTRA-LIGAND FREE ENERGY PREDICTED BY IDOCK:   -0.18 KCAL/MOL
REMARK 927      BINDING AFFINITY PREDICTED BY RF-SCORE:    0.00 PKD
ROOT
HETATM    1  C   UNL     1     -12.504  13.892  66.110  1.00  0.00    -0.436 A  
HETATM    2  N   UNL     1     -12.978  13.260  65.036  1.00  0.00    -0.732 NA 
HETATM    3  O   UNL     1     -12.244  12.094  64.947  1.00  0.00    -0.358 OA 
HETATM    4  C   UNL     1     -11.358  12.027  65.982  1.00  0.00    -0.343 A  
HETATM    5  C   UNL     1     -11.484  13.164  66.770  1.00  0.00    -0.386 A  
ENDROOT
BRANCH   4   6
HETATM    6  C   UNL     1     -10.410  10.848  66.194  1.00  0.00    -0.305 C  
HETATM    7  C   UNL     1      -9.967  10.041  64.990  1.00  0.00    -0.320 C  
HETATM    8  C   UNL     1      -9.001  10.963  65.649  1.00  0.00    -0.209 C  
ENDBRANCH   4   6
BRANCH   5   9
HETATM    9  C   UNL     1     -10.691  13.485  67.949  1.00  0.00    -0.247 C  
HETATM   10  O   UNL     1      -9.510  13.172  68.006  1.00  0.00    -0.207 OA 
BRANCH   9  11
HETATM   11  C   UNL     1     -11.296  14.105  69.172  1.00  0.00    -0.318 A  
HETATM   12  C   UNL     1     -10.937  15.390  69.639  1.00  0.00    -0.284 A  
HETATM   13  C   UNL     1     -11.435  15.864  70.867  1.00  0.00    -0.444 A  
HETATM   14  C   UNL     1     -12.131  13.315  69.984  1.00  0.00    -0.385 A  
HETATM   15  C   UNL     1     -12.264  15.066  71.668  1.00  0.00    -0.411 A  
HETATM   16  F   UNL     1     -12.339  16.825  73.300  1.00  0.00    -0.472 F  
HETATM   17  F   UNL     1     -14.101  15.567  73.116  1.00  0.00    -0.492 F  
HETATM   18  F   UNL     1     -12.294  14.782  74.040  1.00  0.00    -0.618 F  
HETATM   19  C   UNL     1     -12.746  15.556  73.018  1.00  0.00    -0.454 C  
HETATM   20  C   UNL     1     -12.613  13.791  71.212  1.00  0.00    -0.444 A  
BRANCH  12  21
HETATM   21  S   UNL     1      -9.887  16.464  68.666  1.00  0.00    -0.245 S  
HETATM   22  C   UNL     1     -10.123  18.122  69.239  1.00  0.00    -0.066 C  
HETATM   23  O   UNL     1      -8.512  16.153  69.009  1.00  0.00    -0.232 OA 
HETATM   24  O   UNL     1     -10.411  16.406  67.315  1.00  0.00    -0.299 OA 
ENDBRANCH  12  21
ENDBRANCH   9  11
ENDBRANCH   5   9
TORSDOF 4
ENDMDL
MODEL        9
REMARK 921   NORMALIZED FREE ENERGY PREDICTED BY IDOCK:   -6.77 KCAL/MOL
REMARK 922        TOTAL FREE ENERGY PREDICTED BY IDOCK:   -8.87 KCAL/MOL
REMARK 923 INTER-LIGAND FREE ENERGY PREDICTED BY IDOCK:   -8.50 KCAL/MOL
REMARK 924 INTRA-LIGAND FREE ENERGY PREDICTED BY IDOCK:   -0.37 KCAL/MOL
REMARK 927      BINDING AFFINITY PREDICTED BY RF-SCORE:    0.00 PKD
ROOT
HETATM    1  C   UNL     1     -12.374  11.595  70.704  1.00  0.00    -0.344 A  
HETATM    2  N   UNL     1     -13.142  11.524  71.792  1.00  0.00    -0.459 NA 
HETATM    3  O   UNL     1     -13.421  12.835  72.124  1.00  0.00    -0.530 OA 
HETATM    4  C   UNL     1     -12.841  13.674  71.219  1.00  0.00    -0.344 A  
HETATM    5  C   UNL     1     -12.152  12.924  70.273  1.00  0.00    -0.377 A  
ENDROOT
BRANCH   4   6
HETATM    6  C   UNL     1     -12.979  15.194  71.281  1.00  0.00    -0.478 C  
HETATM    7  C   UNL     1     -13.461  15.831  72.570  1.00  0.00    -0.584 C  
HETATM    8  C   UNL     1     -12.029  15.956  72.181  1.00  0.00    -0.612 C  
ENDBRANCH   4   6
BRANCH   5   9
HETATM    9  C   UNL     1     -11.371  13.452  69.162  1.00  0.00    -0.280 C  
HETATM   10  O   UNL     1     -10.569  14.358  69.342  1.00  0.00    -0.212 OA 
BRANCH   9  11
HETATM   11  C   UNL     1     -11.584  12.996  67.751  1.00  0.00    -0.385 A  
HETATM   12  C   UNL     1     -10.731  12.072  67.105  1.00  0.00    -0.239 A  
HETATM   13  C   UNL     1     -10.900  11.785  65.738  1.00  0.00    -0.341 A  
HETATM   14  C   UNL     1     -12.572  13.635  66.979  1.00  0.00     0.070 A  
HETATM   15  C   UNL     1     -11.887  12.430  64.979  1.00  0.00    -0.440 A  
HETATM   16  F   UNL     1     -11.149  11.225  63.038  1.00  0.00    -0.344 F  
HETATM   17  F   UNL     1     -13.261  11.722  63.154  1.00  0.00    -0.592 F  
HETATM   18  F   UNL     1     -11.797  13.279  62.748  1.00  0.00    -0.384 F  
HETATM   19  C   UNL     1     -12.023  12.165  63.494  1.00  0.00    -0.524 C  
HETATM   20  C   UNL     1     -12.725  13.352  65.614  1.00  0.00    -0.432 A  
BRANCH  12  21
HETATM   21  S   UNL     1      -9.454  11.207  68.013  1.00  0.00    -0.180 S  
HETATM   22  C   UNL     1      -8.617  10.130  66.884  1.00  0.00    -0.126 C  
HETATM   23  O   UNL     1      -8.453  12.186  68.392  1.00  0.00    -0.169 OA 
HETATM   24  O   UNL     1     -10.152  10.361  68.962  1.00  0.00    -0.192 OA 
ENDBRANCH  12  21
ENDBRANCH   9  11
ENDBRANCH   5   9
TORSDOF 4
ENDMDL
MODEL       10
REMARK 921   NORMALIZED FREE ENERGY PREDICTED BY IDOCK:   -6.71 KCAL/MOL
REMARK 922        TOTAL FREE ENERGY PREDICTED BY IDOCK:   -8.80 KCAL/MOL
REMARK 923 INTER-LIGAND FREE ENERGY PREDICTED BY IDOCK:   -8.34 KCAL/MOL
REMARK 924 INTRA-LIGAND FREE ENERGY PREDICTED BY IDOCK:   -0.46 KCAL/MOL
REMARK 927      BINDING AFFINITY PREDICTED BY RF-SCORE:    0.00 PKD
ROOT
HETATM    1  C   UNL     1      -9.377  10.417  69.142  1.00  0.00    -0.199 A  
HETATM    2  N   UNL     1      -8.613   9.500  69.736  1.00  0.00    -0.173 NA 
HETATM    3  O   UNL     1      -9.372   9.020  70.785  1.00  0.00    -0.205 OA 
HETATM    4  C   UNL     1     -10.590   9.634  70.792  1.00  0.00    -0.322 A  
HETATM    5  C   UNL     1     -10.650  10.547  69.746  1.00  0.00    -0.274 A  
ENDROOT
BRANCH   4   6
HETATM    6  C   UNL     1     -11.682   9.311  71.809  1.00  0.00    -0.456 C  
HETATM    7  C   UNL     1     -12.468   8.024  71.654  1.00  0.00    -0.347 C  
HETATM    8  C   UNL     1     -11.460   8.140  72.744  1.00  0.00    -0.397 C  
ENDBRANCH   4   6
BRANCH   5   9
HETATM    9  C   UNL     1     -11.770  11.427  69.438  1.00  0.00    -0.338 C  
HETATM   10  O   UNL     1     -12.432  11.256  68.423  1.00  0.00    -0.403 OA 
BRANCH   9  11
HETATM   11  C   UNL     1     -12.094  12.627  70.274  1.00  0.00    -0.372 A  
HETATM   12  C   UNL     1     -11.546  13.907  70.026  1.00  0.00    -0.212 A  
HETATM   13  C   UNL     1     -11.777  14.965  70.925  1.00  0.00    -0.374 A  
HETATM   14  C   UNL     1     -12.841  12.445  71.453  1.00  0.00    -0.360 A  
HETATM   15  C   UNL     1     -12.521  14.769  72.098  1.00  0.00    -0.409 A  
HETATM   16  F   UNL     1     -12.152  17.067  72.686  1.00  0.00    -0.330 F  
HETATM   17  F   UNL     1     -14.024  16.167  73.325  1.00  0.00    -0.673 F  
HETATM   18  F   UNL     1     -12.160  15.614  74.303  1.00  0.00    -0.570 F  
HETATM   19  C   UNL     1     -12.713  15.895  73.093  1.00  0.00    -0.524 C  
HETATM   20  C   UNL     1     -13.056  13.502  72.348  1.00  0.00    -0.494 A  
BRANCH  12  21
HETATM   21  S   UNL     1     -10.591  14.229  68.548  1.00  0.00    -0.263 S  
HETATM   22  C   UNL     1     -10.296  15.972  68.458  1.00  0.00    -0.241 C  
HETATM   23  O   UNL     1      -9.277  13.648  68.744  1.00  0.00    -0.097 OA 
HETATM   24  O   UNL     1     -11.462  13.893  67.437  1.00  0.00    -0.313 OA 
ENDBRANCH  12  21
ENDBRANCH   9  11
ENDBRANCH   5   9
TORSDOF 4
ENDMDL
MODEL       11
REMARK 921   NORMALIZED FREE ENERGY PREDICTED BY IDOCK:   -6.70 KCAL/MOL
REMARK 922        TOTAL FREE ENERGY PREDICTED BY IDOCK:   -8.78 KCAL/MOL
REMARK 923 INTER-LIGAND FREE ENERGY PREDICTED BY IDOCK:   -8.29 KCAL/MOL
REMARK 924 INTRA-LIGAND FREE ENERGY PREDICTED BY IDOCK:   -0.49 KCAL/MOL
REMARK 927      BINDING AFFINITY PREDICTED BY RF-SCORE:    0.00 PKD
ROOT
HETATM    1  C   UNL     1      -9.244  10.920  68.744  1.00  0.00    -0.183 A  
HETATM    2  N   UNL     1      -8.599   9.844  69.196  1.00  0.00    -0.145 NA 
HETATM    3  O   UNL     1      -9.497   9.206  70.028  1.00  0.00    -0.173 OA 
HETATM    4  C   UNL     1     -10.677   9.890  70.044  1.00  0.00    -0.292 A  
HETATM    5  C   UNL     1     -10.572  11.009  69.226  1.00  0.00    -0.236 A  
ENDROOT
BRANCH   4   6
HETATM    6  C   UNL     1     -11.895   9.436  70.847  1.00  0.00    -0.365 C  
HETATM    7  C   UNL     1     -12.027   7.969  71.205  1.00  0.00    -0.297 C  
HETATM    8  C   UNL     1     -11.671   8.953  72.265  1.00  0.00    -0.351 C  
ENDBRANCH   4   6
BRANCH   5   9
HETATM    9  C   UNL     1     -11.605  12.012  69.006  1.00  0.00    -0.313 C  
HETATM   10  O   UNL     1     -12.196  12.070  67.936  1.00  0.00    -0.470 OA 
BRANCH   9  11
HETATM   11  C   UNL     1     -11.915  13.072  70.018  1.00  0.00    -0.383 A  
HETATM   12  C   UNL     1     -11.293  14.341  70.017  1.00  0.00    -0.165 A  
HETATM   13  C   UNL     1     -11.520  15.246  71.071  1.00  0.00    -0.396 A  
HETATM   14  C   UNL     1     -12.732  12.738  71.115  1.00  0.00    -0.355 A  
HETATM   15  C   UNL     1     -12.335  14.899  72.159  1.00  0.00    -0.430 A  
HETATM   16  F   UNL     1     -11.886  17.042  73.145  1.00  0.00    -0.541 F  
HETATM   17  F   UNL     1     -13.832  16.156  73.537  1.00  0.00    -0.607 F  
HETATM   18  F   UNL     1     -12.053  15.342  74.489  1.00  0.00    -0.674 F  
HETATM   19  C   UNL     1     -12.526  15.852  73.322  1.00  0.00    -0.523 C  
HETATM   20  C   UNL     1     -12.944  13.641  72.166  1.00  0.00    -0.421 A  
BRANCH  12  21
HETATM   21  S   UNL     1     -10.244  14.852  68.659  1.00  0.00    -0.242 S  
HETATM   22  C   UNL     1      -9.661  16.486  69.006  1.00  0.00    -0.255 C  
HETATM   23  O   UNL     1      -9.054  14.024  68.695  1.00  0.00    -0.179 OA 
HETATM   24  O   UNL     1     -11.118  14.953  67.506  1.00  0.00    -0.297 OA 
ENDBRANCH  12  21
ENDBRANCH   9  11
ENDBRANCH   5   9
TORSDOF 4
ENDMDL
MODEL       12
REMARK 921   NORMALIZED FREE ENERGY PREDICTED BY IDOCK:   -6.57 KCAL/MOL
REMARK 922        TOTAL FREE ENERGY PREDICTED BY IDOCK:   -8.63 KCAL/MOL
REMARK 923 INTER-LIGAND FREE ENERGY PREDICTED BY IDOCK:   -7.99 KCAL/MOL
REMARK 924 INTRA-LIGAND FREE ENERGY PREDICTED BY IDOCK:   -0.64 KCAL/MOL
REMARK 927      BINDING AFFINITY PREDICTED BY RF-SCORE:    0.00 PKD
ROOT
HETATM    1  C   UNL     1     -10.371  14.848  69.241  1.00  0.00    -0.234 A  
HETATM    2  N   UNL     1     -10.413  15.996  69.917  1.00  0.00    -0.298 NA 
HETATM    3  O   UNL     1     -11.583  15.942  70.650  1.00  0.00    -0.344 OA 
HETATM    4  C   UNL     1     -12.213  14.754  70.426  1.00  0.00    -0.336 A  
HETATM    5  C   UNL     1     -11.470  14.002  69.523  1.00  0.00    -0.331 A  
ENDROOT
BRANCH   4   6
HETATM    6  C   UNL     1     -13.524  14.362  71.105  1.00  0.00    -0.368 C  
HETATM    7  C   UNL     1     -13.520  14.087  72.596  1.00  0.00    -0.650 C  
HETATM    8  C   UNL     1     -14.137  15.342  72.084  1.00  0.00    -0.651 C  
ENDBRANCH   4   6
BRANCH   5   9
HETATM    9  C   UNL     1     -11.826  12.688  69.002  1.00  0.00    -0.294 C  
HETATM   10  O   UNL     1     -12.388  12.581  67.921  1.00  0.00    -0.245 OA 
BRANCH   9  11
HETATM   11  C   UNL     1     -11.621  11.435  69.797  1.00  0.00    -0.407 A  
HETATM   12  C   UNL     1     -10.670  10.449  69.446  1.00  0.00    -0.244 A  
HETATM   13  C   UNL     1     -10.617   9.231  70.148  1.00  0.00    -0.266 A  
HETATM   14  C   UNL     1     -12.523  11.142  70.837  1.00  0.00    -0.509 A  
HETATM   15  C   UNL     1     -11.524   8.951  71.182  1.00  0.00    -0.364 A  
HETATM   16  F   UNL     1     -10.505   6.794  71.457  1.00  0.00    -0.218 F  
HETATM   17  F   UNL     1     -11.330   7.737  73.234  1.00  0.00    -0.448 F  
HETATM   18  F   UNL     1     -12.660   6.919  71.718  1.00  0.00    -0.353 F  
HETATM   19  C   UNL     1     -11.504   7.613  71.892  1.00  0.00    -0.272 C  
HETATM   20  C   UNL     1     -12.471   9.921  71.523  1.00  0.00    -0.506 A  
BRANCH  12  21
HETATM   21  S   UNL     1      -9.480  10.740  68.141  1.00  0.00    -0.163 S  
HETATM   22  C   UNL     1      -8.330   9.395  68.143  1.00  0.00    -0.119 C  
HETATM   23  O   UNL     1     -10.182  10.618  66.879  1.00  0.00    -0.205 OA 
HETATM   24  O   UNL     1      -8.743  11.924  68.540  1.00  0.00    -0.165 OA 
ENDBRANCH  12  21
ENDBRANCH   9  11
ENDBRANCH   5   9
TORSDOF 4
ENDMDL
MODEL       13
REMARK 921   NORMALIZED FREE ENERGY PREDICTED BY IDOCK:   -6.54 KCAL/MOL
REMARK 922        TOTAL FREE ENERGY PREDICTED BY IDOCK:   -8.59 KCAL/MOL
REMARK 923 INTER-LIGAND FREE ENERGY PREDICTED BY IDOCK:   -8.58 KCAL/MOL
REMARK 924 INTRA-LIGAND FREE ENERGY PREDICTED BY IDOCK:   -0.00 KCAL/MOL
REMARK 927      BINDING AFFINITY PREDICTED BY RF-SCORE:    0.00 PKD
ROOT
HETATM    1  C   UNL     1     -10.993  11.738  67.139  1.00  0.00    -0.276 A  
HETATM    2  N   UNL     1     -11.943  11.111  67.832  1.00  0.00    -0.620 NA 
HETATM    3  O   UNL     1     -12.168  11.904  68.940  1.00  0.00    -0.273 OA 
HETATM    4  C   UNL     1     -11.371  13.010  68.884  1.00  0.00    -0.287 A  
HETATM    5  C   UNL     1     -10.590  12.957  67.736  1.00  0.00    -0.231 A  
ENDROOT
BRANCH   4   6
HETATM    6  C   UNL     1     -11.391  14.108  69.945  1.00  0.00    -0.232 C  
HETATM    7  C   UNL     1     -12.597  15.024  70.025  1.00  0.00    -0.257 C  
HETATM    8  C   UNL     1     -12.394  13.987  71.074  1.00  0.00    -0.443 C  
ENDBRANCH   4   6
BRANCH   5   9
HETATM    9  C   UNL     1      -9.586  13.933  67.334  1.00  0.00    -0.235 C  
HETATM   10  O   UNL     1      -8.466  13.570  67.001  1.00  0.00    -0.194 OA 
BRANCH   9  11
HETATM   11  C   UNL     1      -9.834  15.409  67.411  1.00  0.00    -0.216 A  
HETATM   12  C   UNL     1     -10.419  16.145  66.355  1.00  0.00    -0.301 A  
HETATM   13  C   UNL     1     -10.502  17.548  66.428  1.00  0.00    -0.277 A  
HETATM   14  C   UNL     1      -9.314  16.123  68.507  1.00  0.00    -0.209 A  
HETATM   15  C   UNL     1      -9.978  18.248  67.525  1.00  0.00    -0.345 A  
HETATM   16  F   UNL     1     -10.641  20.312  66.493  1.00  0.00    -0.525 F  
HETATM   17  F   UNL     1     -10.660  20.237  68.665  1.00  0.00    -0.517 F  
HETATM   18  F   UNL     1      -8.767  20.306  67.594  1.00  0.00    -0.359 F  
HETATM   19  C   UNL     1     -10.012  19.762  67.569  1.00  0.00    -0.409 C  
HETATM   20  C   UNL     1      -9.390  17.522  68.565  1.00  0.00    -0.286 A  
BRANCH  12  21
HETATM   21  S   UNL     1     -11.113  15.317  64.929  1.00  0.00    -0.399 S  
HETATM   22  C   UNL     1     -12.602  14.508  65.439  1.00  0.00    -0.232 C  
HETATM   23  O   UNL     1     -11.554  16.343  64.003  1.00  0.00    -1.071 OA 
HETATM   24  O   UNL     1     -10.166  14.274  64.582  1.00  0.00    -0.387 OA 
ENDBRANCH  12  21
ENDBRANCH   9  11
ENDBRANCH   5   9
TORSDOF 4
ENDMDL
MODEL       14
REMARK 921   NORMALIZED FREE ENERGY PREDICTED BY IDOCK:   -6.50 KCAL/MOL
REMARK 922        TOTAL FREE ENERGY PREDICTED BY IDOCK:   -8.54 KCAL/MOL
REMARK 923 INTER-LIGAND FREE ENERGY PREDICTED BY IDOCK:   -8.04 KCAL/MOL
REMARK 924 INTRA-LIGAND FREE ENERGY PREDICTED BY IDOCK:   -0.50 KCAL/MOL
REMARK 927      BINDING AFFINITY PREDICTED BY RF-SCORE:    0.00 PKD
ROOT
HETATM    1  C   UNL     1      -8.592  14.318  68.811  1.00  0.00    -0.101 A  
HETATM    2  N   UNL     1      -7.569  15.146  69.025  1.00  0.00    -0.148 NA 
HETATM    3  O   UNL     1      -8.124  16.411  69.046  1.00  0.00    -0.225 OA 
HETATM    4  C   UNL     1      -9.474  16.325  68.872  1.00  0.00    -0.252 A  
HETATM    5  C   UNL     1      -9.834  14.991  68.718  1.00  0.00    -0.233 A  
ENDROOT
BRANCH   4   6
HETATM    6  C   UNL     1     -10.395  17.543  68.872  1.00  0.00    -0.338 C  
HETATM    7  C   UNL     1      -9.801  18.907  68.585  1.00  0.00    -0.463 C  
HETATM    8  C   UNL     1     -10.645  18.244  67.553  1.00  0.00    -0.432 C  
ENDBRANCH   4   6
BRANCH   5   9
HETATM    9  C   UNL     1     -11.180  14.487  68.475  1.00  0.00    -0.266 C  
HETATM   10  O   UNL     1     -11.931  15.069  67.705  1.00  0.00    -0.277 OA 
BRANCH   9  11
HETATM   11  C   UNL     1     -11.738  13.316  69.224  1.00  0.00    -0.380 A  
HETATM   12  C   UNL     1     -12.241  13.415  70.541  1.00  0.00    -0.352 A  
HETATM   13  C   UNL     1     -12.626  12.257  71.244  1.00  0.00    -0.336 A  
HETATM   14  C   UNL     1     -11.606  12.032  68.661  1.00  0.00    -0.372 A  
HETATM   15  C   UNL     1     -12.486  10.984  70.673  1.00  0.00    -0.465 A  
HETATM   16  F   UNL     1     -13.343  10.011  72.693  1.00  0.00    -0.404 F  
HETATM   17  F   UNL     1     -13.779   8.978  70.832  1.00  0.00    -0.250 F  
HETATM   18  F   UNL     1     -11.767   8.930  71.658  1.00  0.00    -0.316 F  
HETATM   19  C   UNL     1     -12.842   9.737  71.457  1.00  0.00    -0.405 C  
HETATM   20  C   UNL     1     -11.980  10.884  69.373  1.00  0.00    -0.393 A  
BRANCH  12  21
HETATM   21  S   UNL     1     -12.450  15.007  71.330  1.00  0.00    -0.364 S  
HETATM   22  C   UNL     1     -13.324  14.753  72.849  1.00  0.00    -0.484 C  
HETATM   23  O   UNL     1     -11.136  15.465  71.738  1.00  0.00    -0.366 OA 
HETATM   24  O   UNL     1     -13.331  15.763  70.460  1.00  0.00    -0.418 OA 
ENDBRANCH  12  21
ENDBRANCH   9  11
ENDBRANCH   5   9
TORSDOF 4
ENDMDL
MODEL       15
REMARK 921   NORMALIZED FREE ENERGY PREDICTED BY IDOCK:   -6.48 KCAL/MOL
REMARK 922        TOTAL FREE ENERGY PREDICTED BY IDOCK:   -8.51 KCAL/MOL
REMARK 923 INTER-LIGAND FREE ENERGY PREDICTED BY IDOCK:   -8.22 KCAL/MOL
REMARK 924 INTRA-LIGAND FREE ENERGY PREDICTED BY IDOCK:   -0.29 KCAL/MOL
REMARK 927      BINDING AFFINITY PREDICTED BY RF-SCORE:    0.00 PKD
ROOT
HETATM    1  C   UNL     1     -12.037  14.432  64.602  1.00  0.00    -0.471 A  
HETATM    2  N   UNL     1     -12.619  13.838  63.560  1.00  0.00    -0.808 NA 
HETATM    3  O   UNL     1     -11.757  12.822  63.195  1.00  0.00    -0.472 OA 
HETATM    4  C   UNL     1     -10.685  12.802  64.038  1.00  0.00    -0.426 A  
HETATM    5  C   UNL     1     -10.815  13.822  64.973  1.00  0.00    -0.377 A  
ENDROOT
BRANCH   4   6
HETATM    6  C   UNL     1      -9.555  11.780  63.927  1.00  0.00    -0.145 C  
HETATM    7  C   UNL     1      -9.798  10.368  64.424  1.00  0.00    -0.395 C  
HETATM    8  C   UNL     1      -9.731  10.628  62.959  1.00  0.00    -0.362 C  
ENDBRANCH   4   6
BRANCH   5   9
HETATM    9  C   UNL     1      -9.859  14.152  66.022  1.00  0.00    -0.309 C  
HETATM   10  O   UNL     1      -9.163  13.281  66.524  1.00  0.00    -0.240 OA 
BRANCH   9  11
HETATM   11  C   UNL     1      -9.760  15.530  66.603  1.00  0.00    -0.264 A  
HETATM   12  C   UNL     1     -10.452  15.923  67.771  1.00  0.00    -0.287 A  
HETATM   13  C   UNL     1     -10.429  17.265  68.193  1.00  0.00    -0.382 A  
HETATM   14  C   UNL     1      -9.085  16.523  65.868  1.00  0.00    -0.188 A  
HETATM   15  C   UNL     1      -9.756  18.246  67.450  1.00  0.00    -0.300 A  
HETATM   16  F   UNL     1     -10.467  19.901  69.037  1.00  0.00    -0.496 F  
HETATM   17  F   UNL     1      -8.546  20.214  68.071  1.00  0.00    -0.341 F  
HETATM   18  F   UNL     1     -10.388  20.494  66.947  1.00  0.00    -0.546 F  
HETATM   19  C   UNL     1      -9.788  19.700  67.873  1.00  0.00    -0.399 C  
HETATM   20  C   UNL     1      -9.079  17.860  66.289  1.00  0.00    -0.198 A  
BRANCH  12  21
HETATM   21  S   UNL     1     -11.328  14.724  68.770  1.00  0.00    -0.299 S  
HETATM   22  C   UNL     1     -12.005  15.570  70.170  1.00  0.00    -0.366 C  
HETATM   23  O   UNL     1     -12.486  14.290  68.012  1.00  0.00    -0.098 OA 
HETATM   24  O   UNL     1     -10.314  13.819  69.276  1.00  0.00    -0.052 OA 
ENDBRANCH  12  21
ENDBRANCH   9  11
ENDBRANCH   5   9
TORSDOF 4
ENDMDL
MODEL       16
REMARK 921   NORMALIZED FREE ENERGY PREDICTED BY IDOCK:   -6.47 KCAL/MOL
REMARK 922        TOTAL FREE ENERGY PREDICTED BY IDOCK:   -8.50 KCAL/MOL
REMARK 923 INTER-LIGAND FREE ENERGY PREDICTED BY IDOCK:   -7.83 KCAL/MOL
REMARK 924 INTRA-LIGAND FREE ENERGY PREDICTED BY IDOCK:   -0.67 KCAL/MOL
REMARK 927      BINDING AFFINITY PREDICTED BY RF-SCORE:    0.00 PKD
ROOT
HETATM    1  C   UNL     1     -10.467  19.072  67.460  1.00  0.00    -0.454 A  
HETATM    2  N   UNL     1     -10.499  19.926  68.483  1.00  0.00    -0.345 NA 
HETATM    3  O   UNL     1      -9.256  19.825  69.078  1.00  0.00    -0.274 OA 
HETATM    4  C   UNL     1      -8.486  18.934  68.390  1.00  0.00    -0.350 A  
HETATM    5  C   UNL     1      -9.219  18.417  67.328  1.00  0.00    -0.271 A  
ENDROOT
BRANCH   4   6
HETATM    6  C   UNL     1      -7.043  18.610  68.770  1.00  0.00    -0.326 C  
HETATM    7  C   UNL     1      -5.938  19.529  68.289  1.00  0.00    -0.241 C  
HETATM    8  C   UNL     1      -6.332  19.546  69.725  1.00  0.00    -0.345 C  
ENDBRANCH   4   6
BRANCH   5   9
HETATM    9  C   UNL     1      -8.762  17.410  66.379  1.00  0.00    -0.242 C  
HETATM   10  O   UNL     1      -7.763  17.605  65.701  1.00  0.00    -0.527 OA 
BRANCH   9  11
HETATM   11  C   UNL     1      -9.538  16.156  66.113  1.00  0.00    -0.359 A  
HETATM   12  C   UNL     1      -9.181  14.902  66.658  1.00  0.00    -0.276 A  
HETATM   13  C   UNL     1      -9.863  13.736  66.264  1.00  0.00    -0.314 A  
HETATM   14  C   UNL     1     -10.564  16.191  65.150  1.00  0.00    -0.366 A  
HETATM   15  C   UNL     1     -10.882  13.784  65.302  1.00  0.00    -0.326 A  
HETATM   16  F   UNL     1     -11.133  11.403  65.484  1.00  0.00    -0.339 F  
HETATM   17  F   UNL     1     -12.916  12.556  65.021  1.00  0.00    -0.557 F  
HETATM   18  F   UNL     1     -11.374  12.281  63.511  1.00  0.00    -0.414 F  
HETATM   19  C   UNL     1     -11.571  12.517  64.835  1.00  0.00    -0.341 C  
HETATM   20  C   UNL     1     -11.230  15.022  64.755  1.00  0.00    -0.393 A  
BRANCH  12  21
HETATM   21  S   UNL     1      -7.893  14.767  67.893  1.00  0.00    -0.152 S  
HETATM   22  C   UNL     1      -7.747  13.061  68.345  1.00  0.00    -0.137 C  
HETATM   23  O   UNL     1      -6.634  15.081  67.245  1.00  0.00    -0.292 OA 
HETATM   24  O   UNL     1      -8.394  15.469  69.060  1.00  0.00    -0.188 OA 
ENDBRANCH  12  21
ENDBRANCH   9  11
ENDBRANCH   5   9
TORSDOF 4
ENDMDL
MODEL       17
REMARK 921   NORMALIZED FREE ENERGY PREDICTED BY IDOCK:   -6.44 KCAL/MOL
REMARK 922        TOTAL FREE ENERGY PREDICTED BY IDOCK:   -8.46 KCAL/MOL
REMARK 923 INTER-LIGAND FREE ENERGY PREDICTED BY IDOCK:   -8.11 KCAL/MOL
REMARK 924 INTRA-LIGAND FREE ENERGY PREDICTED BY IDOCK:   -0.35 KCAL/MOL
REMARK 927      BINDING AFFINITY PREDICTED BY RF-SCORE:    0.00 PKD
ROOT
HETATM    1  C   UNL     1      -9.001  13.213  66.993  1.00  0.00    -0.228 A  
HETATM    2  N   UNL     1      -8.168  12.172  66.992  1.00  0.00    -0.176 NA 
HETATM    3  O   UNL     1      -8.876  11.140  67.577  1.00  0.00    -0.137 OA 
HETATM    4  C   UNL     1     -10.132  11.566  67.897  1.00  0.00    -0.189 A  
HETATM    5  C   UNL     1     -10.270  12.902  67.538  1.00  0.00    -0.213 A  
ENDROOT
BRANCH   4   6
HETATM    6  C   UNL     1     -11.183  10.661  68.537  1.00  0.00    -0.342 C  
HETATM    7  C   UNL     1     -10.721   9.483  69.372  1.00  0.00    -0.244 C  
HETATM    8  C   UNL     1     -11.309  10.674  70.046  1.00  0.00    -0.400 C  
ENDBRANCH   4   6
BRANCH   5   9
HETATM    9  C   UNL     1     -11.451  13.730  67.747  1.00  0.00    -0.322 C  
HETATM   10  O   UNL     1     -12.212  13.971  66.820  1.00  0.00    -0.439 OA 
BRANCH   9  11
HETATM   11  C   UNL     1     -11.729  14.403  69.056  1.00  0.00    -0.345 A  
HETATM   12  C   UNL     1     -11.088  15.597  69.458  1.00  0.00    -0.298 A  
HETATM   13  C   UNL     1     -11.286  16.109  70.754  1.00  0.00    -0.397 A  
HETATM   14  C   UNL     1     -12.536  13.736  69.998  1.00  0.00    -0.301 A  
HETATM   15  C   UNL     1     -12.090  15.433  71.684  1.00  0.00    -0.449 A  
HETATM   16  F   UNL     1     -11.595  17.131  73.308  1.00  0.00    -0.437 F  
HETATM   17  F   UNL     1     -13.548  16.185  73.425  1.00  0.00    -0.639 F  
HETATM   18  F   UNL     1     -11.767  15.087  74.025  1.00  0.00    -0.540 F  
HETATM   19  C   UNL     1     -12.249  15.955  73.097  1.00  0.00    -0.516 C  
HETATM   20  C   UNL     1     -12.718  14.248  71.291  1.00  0.00    -0.427 A  
BRANCH  12  21
HETATM   21  S   UNL     1     -10.052  16.513  68.322  1.00  0.00    -0.272 S  
HETATM   22  C   UNL     1      -9.987  18.193  68.877  1.00  0.00    -0.338 C  
HETATM   23  O   UNL     1      -8.696  16.024  68.480  1.00  0.00    -0.179 OA 
HETATM   24  O   UNL     1     -10.764  16.516  67.058  1.00  0.00    -0.286 OA 
ENDBRANCH  12  21
ENDBRANCH   9  11
ENDBRANCH   5   9
TORSDOF 4
ENDMDL
MODEL       18
REMARK 921   NORMALIZED FREE ENERGY PREDICTED BY IDOCK:   -6.44 KCAL/MOL
REMARK 922        TOTAL FREE ENERGY PREDICTED BY IDOCK:   -8.46 KCAL/MOL
REMARK 923 INTER-LIGAND FREE ENERGY PREDICTED BY IDOCK:   -8.09 KCAL/MOL
REMARK 924 INTRA-LIGAND FREE ENERGY PREDICTED BY IDOCK:   -0.37 KCAL/MOL
REMARK 927      BINDING AFFINITY PREDICTED BY RF-SCORE:    0.00 PKD
ROOT
HETATM    1  C   UNL     1     -11.168  15.398  64.556  1.00  0.00    -0.299 A  
HETATM    2  N   UNL     1     -11.768  16.413  63.933  1.00  0.00    -1.024 NA 
HETATM    3  O   UNL     1     -11.364  17.545  64.611  1.00  0.00    -0.810 OA 
HETATM    4  C   UNL     1     -10.506  17.201  65.614  1.00  0.00    -0.197 A  
HETATM    5  C   UNL     1     -10.339  15.821  65.623  1.00  0.00    -0.411 A  
ENDROOT
BRANCH   4   6
HETATM    6  C   UNL     1      -9.850  18.223  66.540  1.00  0.00    -0.363 C  
HETATM    7  C   UNL     1      -9.807  19.676  66.110  1.00  0.00    -0.523 C  
HETATM    8  C   UNL     1     -10.738  19.260  67.196  1.00  0.00    -0.584 C  
ENDBRANCH   4   6
BRANCH   5   9
HETATM    9  C   UNL     1      -9.528  15.060  66.564  1.00  0.00    -0.282 C  
HETATM   10  O   UNL     1      -8.440  15.483  66.930  1.00  0.00    -0.212 OA 
BRANCH   9  11
HETATM   11  C   UNL     1      -9.929  13.696  67.039  1.00  0.00    -0.248 A  
HETATM   12  C   UNL     1     -10.579  13.473  68.274  1.00  0.00    -0.250 A  
HETATM   13  C   UNL     1     -10.807  12.162  68.731  1.00  0.00    -0.265 A  
HETATM   14  C   UNL     1      -9.494  12.574  66.309  1.00  0.00    -0.210 A  
HETATM   15  C   UNL     1     -10.367  11.053  67.995  1.00  0.00    -0.209 A  
HETATM   16  F   UNL     1     -11.232   9.606  69.704  1.00  0.00    -0.234 F  
HETATM   17  F   UNL     1     -11.261   8.859  67.664  1.00  0.00    -0.180 F  
HETATM   18  F   UNL     1      -9.376   9.011  68.741  1.00  0.00    -0.138 F  
HETATM   19  C   UNL     1     -10.558   9.645  68.521  1.00  0.00    -0.220 C  
HETATM   20  C   UNL     1      -9.715  11.272  66.777  1.00  0.00    -0.218 A  
BRANCH  12  21
HETATM   21  S   UNL     1     -11.172  14.842  69.263  1.00  0.00    -0.301 S  
HETATM   22  C   UNL     1     -12.213  14.185  70.535  1.00  0.00    -0.361 C  
HETATM   23  O   UNL     1     -10.033  15.391  69.973  1.00  0.00    -0.271 OA 
HETATM   24  O   UNL     1     -12.023  15.621  68.384  1.00  0.00    -0.283 OA 
ENDBRANCH  12  21
ENDBRANCH   9  11
ENDBRANCH   5   9
TORSDOF 4
ENDMDL
MODEL       19
REMARK 921   NORMALIZED FREE ENERGY PREDICTED BY IDOCK:   -6.43 KCAL/MOL
REMARK 922        TOTAL FREE ENERGY PREDICTED BY IDOCK:   -8.45 KCAL/MOL
REMARK 923 INTER-LIGAND FREE ENERGY PREDICTED BY IDOCK:   -8.30 KCAL/MOL
REMARK 924 INTRA-LIGAND FREE ENERGY PREDICTED BY IDOCK:   -0.15 KCAL/MOL
REMARK 927      BINDING AFFINITY PREDICTED BY RF-SCORE:    0.00 PKD
ROOT
HETATM    1  C   UNL     1      -8.724  13.313  67.757  1.00  0.00    -0.194 A  
HETATM    2  N   UNL     1      -7.921  12.356  67.290  1.00  0.00    -0.177 NA 
HETATM    3  O   UNL     1      -8.656  11.709  66.316  1.00  0.00    -0.175 OA 
HETATM    4  C   UNL     1      -9.878  12.302  66.191  1.00  0.00    -0.243 A  
HETATM    5  C   UNL     1      -9.976  13.350  67.099  1.00  0.00    -0.242 A  
ENDROOT
BRANCH   4   6
HETATM    6  C   UNL     1     -10.928  11.846  65.180  1.00  0.00    -0.365 C  
HETATM    7  C   UNL     1     -10.938  12.478  63.803  1.00  0.00    -0.496 C  
HETATM    8  C   UNL     1     -10.456  11.078  63.963  1.00  0.00    -0.433 C  
ENDBRANCH   4   6
BRANCH   5   9
HETATM    9  C   UNL     1     -11.138  14.206  67.300  1.00  0.00    -0.305 C  
HETATM   10  O   UNL     1     -11.802  14.586  66.346  1.00  0.00    -0.383 OA 
BRANCH   9  11
HETATM   11  C   UNL     1     -11.508  14.742  68.650  1.00  0.00    -0.325 A  
HETATM   12  C   UNL     1     -10.976  15.943  69.171  1.00  0.00    -0.284 A  
HETATM   13  C   UNL     1     -11.252  16.326  70.497  1.00  0.00    -0.327 A  
HETATM   14  C   UNL     1     -12.286  13.937  69.504  1.00  0.00    -0.356 A  
HETATM   15  C   UNL     1     -12.026  15.514  71.338  1.00  0.00    -0.455 A  
HETATM   16  F   UNL     1     -11.716  17.101  73.114  1.00  0.00    -0.505 F  
HETATM   17  F   UNL     1     -13.590  16.000  73.083  1.00  0.00    -0.590 F  
HETATM   18  F   UNL     1     -11.746  14.995  73.653  1.00  0.00    -0.484 F  
HETATM   19  C   UNL     1     -12.268  15.900  72.784  1.00  0.00    -0.500 C  
HETATM   20  C   UNL     1     -12.546  14.321  70.827  1.00  0.00    -0.427 A  
BRANCH  12  21
HETATM   21  S   UNL     1      -9.984  17.030  68.153  1.00  0.00    -0.304 S  
HETATM   22  C   UNL     1      -9.830  18.578  68.997  1.00  0.00    -0.277 C  
HETATM   23  O   UNL     1      -8.637  16.493  68.129  1.00  0.00    -0.184 OA 
HETATM   24  O   UNL     1     -10.772  17.278  66.961  1.00  0.00    -0.270 OA 
ENDBRANCH  12  21
ENDBRANCH   9  11
ENDBRANCH   5   9
TORSDOF 4
ENDMDL
MODEL       20
REMARK 921   NORMALIZED FREE ENERGY PREDICTED BY IDOCK:   -6.35 KCAL/MOL
REMARK 922        TOTAL FREE ENERGY PREDICTED BY IDOCK:   -8.36 KCAL/MOL
REMARK 923 INTER-LIGAND FREE ENERGY PREDICTED BY IDOCK:   -8.14 KCAL/MOL
REMARK 924 INTRA-LIGAND FREE ENERGY PREDICTED BY IDOCK:   -0.21 KCAL/MOL
REMARK 927      BINDING AFFINITY PREDICTED BY RF-SCORE:    0.00 PKD
ROOT
HETATM    1  C   UNL     1     -12.562  12.702  65.119  1.00  0.00    -0.386 A  
HETATM    2  N   UNL     1     -12.917  12.367  63.878  1.00  0.00    -0.776 NA 
HETATM    3  O   UNL     1     -11.795  11.779  63.326  1.00  0.00    -0.401 OA 
HETATM    4  C   UNL     1     -10.792  11.744  64.250  1.00  0.00    -0.349 A  
HETATM    5  C   UNL     1     -11.234  12.326  65.432  1.00  0.00    -0.372 A  
ENDROOT
BRANCH   4   6
HETATM    6  C   UNL     1      -9.421  11.131  63.970  1.00  0.00    -0.241 C  
HETATM    7  C   UNL     1      -9.342   9.875  63.126  1.00  0.00    -0.217 C  
HETATM    8  C   UNL     1      -8.900  11.174  62.548  1.00  0.00    -0.331 C  
ENDBRANCH   4   6
BRANCH   5   9
HETATM    9  C   UNL     1     -10.447  12.512  66.644  1.00  0.00    -0.233 C  
HETATM   10  O   UNL     1      -9.378  11.933  66.785  1.00  0.00    -0.189 OA 
BRANCH   9  11
HETATM   11  C   UNL     1     -10.948  13.319  67.802  1.00  0.00    -0.278 A  
HETATM   12  C   UNL     1     -10.636  14.687  67.977  1.00  0.00    -0.240 A  
HETATM   13  C   UNL     1     -11.019  15.359  69.153  1.00  0.00    -0.252 A  
HETATM   14  C   UNL     1     -11.616  12.655  68.848  1.00  0.00    -0.363 A  
HETATM   15  C   UNL     1     -11.682  14.684  70.188  1.00  0.00    -0.353 A  
HETATM   16  F   UNL     1     -11.698  16.716  71.468  1.00  0.00    -0.453 F  
HETATM   17  F   UNL     1     -13.367  15.352  71.750  1.00  0.00    -0.390 F  
HETATM   18  F   UNL     1     -11.407  14.856  72.555  1.00  0.00    -0.435 F  
HETATM   19  C   UNL     1     -12.036  15.396  71.478  1.00  0.00    -0.371 C  
HETATM   20  C   UNL     1     -11.983  13.330  70.021  1.00  0.00    -0.399 A  
BRANCH  12  21
HETATM   21  S   UNL     1      -9.796  15.611  66.695  1.00  0.00    -0.258 S  
HETATM   22  C   UNL     1      -9.699  17.301  67.215  1.00  0.00    -0.262 C  
HETATM   23  O   UNL     1      -8.418  15.160  66.667  1.00  0.00    -0.257 OA 
HETATM   24  O   UNL     1     -10.677  15.576  65.544  1.00  0.00    -0.337 OA 
ENDBRANCH  12  21
ENDBRANCH   9  11
ENDBRANCH   5   9
TORSDOF 4
ENDMDL
MODEL       21
REMARK 921   NORMALIZED FREE ENERGY PREDICTED BY IDOCK:   -6.35 KCAL/MOL
REMARK 922        TOTAL FREE ENERGY PREDICTED BY IDOCK:   -8.35 KCAL/MOL
REMARK 923 INTER-LIGAND FREE ENERGY PREDICTED BY IDOCK:   -7.65 KCAL/MOL
REMARK 924 INTRA-LIGAND FREE ENERGY PREDICTED BY IDOCK:   -0.71 KCAL/MOL
REMARK 927      BINDING AFFINITY PREDICTED BY RF-SCORE:    0.00 PKD
ROOT
HETATM    1  C   UNL     1     -10.571   7.189  69.114  1.00  0.00    -0.214 A  
HETATM    2  N   UNL     1     -11.351   6.338  69.782  1.00  0.00    -0.434 NA 
HETATM    3  O   UNL     1     -11.909   7.083  70.803  1.00  0.00    -0.337 OA 
HETATM    4  C   UNL     1     -11.480   8.375  70.719  1.00  0.00    -0.255 A  
HETATM    5  C   UNL     1     -10.613   8.502  69.640  1.00  0.00    -0.221 A  
ENDROOT
BRANCH   4   6
HETATM    6  C   UNL     1     -11.931   9.469  71.684  1.00  0.00    -0.474 C  
HETATM    7  C   UNL     1     -13.154  10.293  71.332  1.00  0.00    -0.512 C  
HETATM    8  C   UNL     1     -13.243   9.275  72.415  1.00  0.00    -0.501 C  
ENDBRANCH   4   6
BRANCH   5   9
HETATM    9  C   UNL     1      -9.915   9.717  69.238  1.00  0.00    -0.191 C  
HETATM   10  O   UNL     1      -8.840  10.011  69.743  1.00  0.00    -0.203 OA 
BRANCH   9  11
HETATM   11  C   UNL     1     -10.517  10.702  68.284  1.00  0.00    -0.214 A  
HETATM   12  C   UNL     1     -10.208  10.723  66.904  1.00  0.00    -0.227 A  
HETATM   13  C   UNL     1     -10.696  11.755  66.082  1.00  0.00    -0.320 A  
HETATM   14  C   UNL     1     -11.291  11.756  68.804  1.00  0.00    -0.325 A  
HETATM   15  C   UNL     1     -11.465  12.801  66.613  1.00  0.00    -0.404 A  
HETATM   16  F   UNL     1     -11.582  13.792  64.429  1.00  0.00    -0.358 F  
HETATM   17  F   UNL     1     -13.286  14.088  65.746  1.00  0.00    -0.537 F  
HETATM   18  F   UNL     1     -11.419  15.140  66.127  1.00  0.00    -0.344 F  
HETATM   19  C   UNL     1     -11.935  13.944  65.736  1.00  0.00    -0.400 C  
HETATM   20  C   UNL     1     -11.763  12.787  67.979  1.00  0.00    -0.405 A  
BRANCH  12  21
HETATM   21  S   UNL     1      -9.237   9.418  66.158  1.00  0.00    -0.208 S  
HETATM   22  C   UNL     1      -9.036   9.801  64.441  1.00  0.00    -0.248 C  
HETATM   23  O   UNL     1      -7.898   9.504  66.709  1.00  0.00    -0.100 OA 
HETATM   24  O   UNL     1     -10.061   8.226  66.229  1.00  0.00    -0.215 OA 
ENDBRANCH  12  21
ENDBRANCH   9  11
ENDBRANCH   5   9
TORSDOF 4
ENDMDL
MODEL       22
REMARK 921   NORMALIZED FREE ENERGY PREDICTED BY IDOCK:   -6.33 KCAL/MOL
REMARK 922        TOTAL FREE ENERGY PREDICTED BY IDOCK:   -8.32 KCAL/MOL
REMARK 923 INTER-LIGAND FREE ENERGY PREDICTED BY IDOCK:   -7.70 KCAL/MOL
REMARK 924 INTRA-LIGAND FREE ENERGY PREDICTED BY IDOCK:   -0.62 KCAL/MOL
REMARK 927      BINDING AFFINITY PREDICTED BY RF-SCORE:    0.00 PKD
ROOT
HETATM    1  C   UNL     1     -10.526  16.008  66.697  1.00  0.00    -0.304 A  
HETATM    2  N   UNL     1     -10.270  16.984  67.568  1.00  0.00    -0.313 NA 
HETATM    3  O   UNL     1     -11.016  16.676  68.688  1.00  0.00    -0.339 OA 
HETATM    4  C   UNL     1     -11.689  15.507  68.487  1.00  0.00    -0.337 A  
HETATM    5  C   UNL     1     -11.406  15.027  67.214  1.00  0.00    -0.337 A  
ENDROOT
BRANCH   4   6
HETATM    6  C   UNL     1     -12.588  14.868  69.544  1.00  0.00    -0.028 C  
HETATM    7  C   UNL     1     -11.943  14.201  70.743  1.00  0.00    -0.377 C  
HETATM    8  C   UNL     1     -12.636  15.508  70.916  1.00  0.00    -0.512 C  
ENDBRANCH   4   6
BRANCH   5   9
HETATM    9  C   UNL     1     -11.958  13.822  66.608  1.00  0.00    -0.431 C  
HETATM   10  O   UNL     1     -13.032  13.857  66.024  1.00  0.00    -0.378 OA 
BRANCH   9  11
HETATM   11  C   UNL     1     -11.303  12.483  66.761  1.00  0.00    -0.390 A  
HETATM   12  C   UNL     1     -10.847  11.721  65.661  1.00  0.00    -0.292 A  
HETATM   13  C   UNL     1     -10.366  10.412  65.853  1.00  0.00    -0.261 A  
HETATM   14  C   UNL     1     -11.290  11.880  68.033  1.00  0.00    -0.352 A  
HETATM   15  C   UNL     1     -10.361   9.823  67.126  1.00  0.00    -0.311 A  
HETATM   16  F   UNL     1      -9.462   7.814  66.165  1.00  0.00    -0.224 F  
HETATM   17  F   UNL     1      -8.876   8.288  68.204  1.00  0.00    -0.135 F  
HETATM   18  F   UNL     1     -10.894   7.590  67.785  1.00  0.00    -0.277 F  
HETATM   19  C   UNL     1      -9.901   8.392  67.318  1.00  0.00    -0.203 C  
HETATM   20  C   UNL     1     -10.820  10.572  68.213  1.00  0.00    -0.293 A  
BRANCH  12  21
HETATM   21  S   UNL     1     -10.820  12.411  64.010  1.00  0.00    -0.436 S  
HETATM   22  C   UNL     1      -9.732  11.424  63.024  1.00  0.00    -0.371 C  
HETATM   23  O   UNL     1     -12.132  12.198  63.429  1.00  0.00    -0.503 OA 
HETATM   24  O   UNL     1     -10.201  13.716  64.141  1.00  0.00    -0.297 OA 
ENDBRANCH  12  21
ENDBRANCH   9  11
ENDBRANCH   5   9
TORSDOF 4
ENDMDL
MODEL       23
REMARK 921   NORMALIZED FREE ENERGY PREDICTED BY IDOCK:   -6.32 KCAL/MOL
REMARK 922        TOTAL FREE ENERGY PREDICTED BY IDOCK:   -8.32 KCAL/MOL
REMARK 923 INTER-LIGAND FREE ENERGY PREDICTED BY IDOCK:   -7.89 KCAL/MOL
REMARK 924 INTRA-LIGAND FREE ENERGY PREDICTED BY IDOCK:   -0.43 KCAL/MOL
REMARK 927      BINDING AFFINITY PREDICTED BY RF-SCORE:    0.00 PKD
ROOT
HETATM    1  C   UNL     1     -10.496  10.225  70.043  1.00  0.00    -0.241 A  
HETATM    2  N   UNL     1      -9.490   9.376  69.829  1.00  0.00    -0.188 NA 
HETATM    3  O   UNL     1      -9.026   9.677  68.563  1.00  0.00    -0.123 OA 
HETATM    4  C   UNL     1      -9.739  10.718  68.045  1.00  0.00    -0.162 A  
HETATM    5  C   UNL     1     -10.704  11.116  68.963  1.00  0.00    -0.265 A  
ENDROOT
BRANCH   4   6
HETATM    6  C   UNL     1      -9.461  11.317  66.668  1.00  0.00    -0.204 C  
HETATM    7  C   UNL     1      -8.573  10.554  65.706  1.00  0.00    -0.180 C  
HETATM    8  C   UNL     1     -10.040  10.615  65.458  1.00  0.00    -0.343 C  
ENDBRANCH   4   6
BRANCH   5   9
HETATM    9  C   UNL     1     -11.688  12.173  68.770  1.00  0.00    -0.321 C  
HETATM   10  O   UNL     1     -12.279  12.284  67.705  1.00  0.00    -0.442 OA 
BRANCH   9  11
HETATM   11  C   UNL     1     -11.943  13.223  69.808  1.00  0.00    -0.391 A  
HETATM   12  C   UNL     1     -11.259  14.460  69.834  1.00  0.00    -0.177 A  
HETATM   13  C   UNL     1     -11.440  15.349  70.910  1.00  0.00    -0.396 A  
HETATM   14  C   UNL     1     -12.773  12.903  70.900  1.00  0.00    -0.291 A  
HETATM   15  C   UNL     1     -12.268  15.017  71.992  1.00  0.00    -0.436 A  
HETATM   16  F   UNL     1     -11.713  17.112  73.027  1.00  0.00    -0.508 F  
HETATM   17  F   UNL     1     -13.699  16.313  73.405  1.00  0.00    -0.662 F  
HETATM   18  F   UNL     1     -11.959  15.390  74.332  1.00  0.00    -0.612 F  
HETATM   19  C   UNL     1     -12.409  15.950  73.178  1.00  0.00    -0.511 C  
HETATM   20  C   UNL     1     -12.937  13.790  71.972  1.00  0.00    -0.437 A  
BRANCH  12  21
HETATM   21  S   UNL     1     -10.191  14.950  68.485  1.00  0.00    -0.241 S  
HETATM   22  C   UNL     1      -9.618  16.593  68.812  1.00  0.00    -0.254 C  
HETATM   23  O   UNL     1      -8.998  14.128  68.555  1.00  0.00    -0.189 OA 
HETATM   24  O   UNL     1     -11.046  15.028  67.316  1.00  0.00    -0.318 OA 
ENDBRANCH  12  21
ENDBRANCH   9  11
ENDBRANCH   5   9
TORSDOF 4
ENDMDL
MODEL       24
REMARK 921   NORMALIZED FREE ENERGY PREDICTED BY IDOCK:   -6.28 KCAL/MOL
REMARK 922        TOTAL FREE ENERGY PREDICTED BY IDOCK:   -8.27 KCAL/MOL
REMARK 923 INTER-LIGAND FREE ENERGY PREDICTED BY IDOCK:   -7.72 KCAL/MOL
REMARK 924 INTRA-LIGAND FREE ENERGY PREDICTED BY IDOCK:   -0.55 KCAL/MOL
REMARK 927      BINDING AFFINITY PREDICTED BY RF-SCORE:    0.00 PKD
ROOT
HETATM    1  C   UNL     1      -7.712  13.173  67.488  1.00  0.00    -0.166 A  
HETATM    2  N   UNL     1      -6.524  13.778  67.512  1.00  0.00    -0.290 NA 
HETATM    3  O   UNL     1      -6.783  15.098  67.201  1.00  0.00    -0.279 OA 
HETATM    4  C   UNL     1      -8.123  15.276  67.022  1.00  0.00    -0.218 A  
HETATM    5  C   UNL     1      -8.776  14.062  67.199  1.00  0.00    -0.234 A  
ENDROOT
BRANCH   4   6
HETATM    6  C   UNL     1      -8.750  16.629  66.693  1.00  0.00    -0.280 C  
HETATM    7  C   UNL     1      -8.555  17.778  67.662  1.00  0.00    -0.230 C  
HETATM    8  C   UNL     1      -7.822  17.781  66.366  1.00  0.00    -0.312 C  
ENDBRANCH   4   6
BRANCH   5   9
HETATM    9  C   UNL     1     -10.207  13.827  67.057  1.00  0.00    -0.254 C  
HETATM   10  O   UNL     1     -10.831  14.335  66.136  1.00  0.00    -0.301 OA 
BRANCH   9  11
HETATM   11  C   UNL     1     -10.992  13.056  68.074  1.00  0.00    -0.274 A  
HETATM   12  C   UNL     1     -11.413  13.613  69.303  1.00  0.00    -0.291 A  
HETATM   13  C   UNL     1     -12.027  12.803  70.277  1.00  0.00    -0.358 A  
HETATM   14  C   UNL     1     -11.175  11.674  67.877  1.00  0.00    -0.334 A  
HETATM   15  C   UNL     1     -12.201  11.427  70.069  1.00  0.00    -0.377 A  
HETATM   16  F   UNL     1     -13.187  11.247  72.251  1.00  0.00    -0.590 F  
HETATM   17  F   UNL     1     -13.911   9.886  70.719  1.00  0.00    -0.378 F  
HETATM   18  F   UNL     1     -11.935   9.600  71.585  1.00  0.00    -0.395 F  
HETATM   19  C   UNL     1     -12.804  10.548  71.146  1.00  0.00    -0.416 C  
HETATM   20  C   UNL     1     -11.777  10.873  68.858  1.00  0.00    -0.376 A  
BRANCH  12  21
HETATM   21  S   UNL     1     -11.226  15.361  69.634  1.00  0.00    -0.311 S  
HETATM   22  C   UNL     1     -12.156  15.743  71.092  1.00  0.00    -0.427 C  
HETATM   23  O   UNL     1      -9.845  15.586  70.015  1.00  0.00    -0.283 OA 
HETATM   24  O   UNL     1     -11.877  16.041  68.531  1.00  0.00    -0.343 OA 
ENDBRANCH  12  21
ENDBRANCH   9  11
ENDBRANCH   5   9
TORSDOF 4
ENDMDL
MODEL       25
REMARK 921   NORMALIZED FREE ENERGY PREDICTED BY IDOCK:   -6.27 KCAL/MOL
REMARK 922        TOTAL FREE ENERGY PREDICTED BY IDOCK:   -8.25 KCAL/MOL
REMARK 923 INTER-LIGAND FREE ENERGY PREDICTED BY IDOCK:   -8.42 KCAL/MOL
REMARK 924 INTRA-LIGAND FREE ENERGY PREDICTED BY IDOCK:    0.17 KCAL/MOL
REMARK 927      BINDING AFFINITY PREDICTED BY RF-SCORE:    0.00 PKD
ROOT
HETATM    1  C   UNL     1     -11.426  13.028  68.523  1.00  0.00    -0.304 A  
HETATM    2  N   UNL     1     -12.156  11.913  68.490  1.00  0.00    -0.410 NA 
HETATM    3  O   UNL     1     -11.634  11.168  67.451  1.00  0.00    -0.522 OA 
HETATM    4  C   UNL     1     -10.581  11.831  66.892  1.00  0.00    -0.235 A  
HETATM    5  C   UNL     1     -10.399  13.042  67.550  1.00  0.00    -0.224 A  
ENDROOT
BRANCH   4   6
HETATM    6  C   UNL     1      -9.760  11.269  65.734  1.00  0.00    -0.263 C  
HETATM    7  C   UNL     1      -9.809   9.779  65.460  1.00  0.00    -0.378 C  
HETATM    8  C   UNL     1     -10.506  10.717  64.536  1.00  0.00    -0.351 C  
ENDBRANCH   4   6
BRANCH   5   9
HETATM    9  C   UNL     1      -9.400  14.053  67.227  1.00  0.00    -0.230 C  
HETATM   10  O   UNL     1      -8.252  13.726  66.956  1.00  0.00    -0.144 OA 
BRANCH   9  11
HETATM   11  C   UNL     1      -9.693  15.519  67.316  1.00  0.00    -0.218 A  
HETATM   12  C   UNL     1     -10.328  16.240  66.279  1.00  0.00    -0.326 A  
HETATM   13  C   UNL     1     -10.453  17.639  66.360  1.00  0.00    -0.286 A  
HETATM   14  C   UNL     1      -9.168  16.246  68.402  1.00  0.00    -0.203 A  
HETATM   15  C   UNL     1      -9.924  18.352  67.445  1.00  0.00    -0.347 A  
HETATM   16  F   UNL     1     -10.678  20.397  66.439  1.00  0.00    -0.429 F  
HETATM   17  F   UNL     1     -10.641  20.314  68.610  1.00  0.00    -0.517 F  
HETATM   18  F   UNL     1      -8.778  20.447  67.493  1.00  0.00    -0.370 F  
HETATM   19  C   UNL     1     -10.006  19.864  67.497  1.00  0.00    -0.417 C  
HETATM   20  C   UNL     1      -9.288  17.641  68.467  1.00  0.00    -0.291 A  
BRANCH  12  21
HETATM   21  S   UNL     1     -11.030  15.394  64.867  1.00  0.00    -0.401 S  
HETATM   22  C   UNL     1     -12.449  14.492  65.421  1.00  0.00    -0.260 C  
HETATM   23  O   UNL     1     -11.568  16.407  63.978  1.00  0.00    -1.071 OA 
HETATM   24  O   UNL     1     -10.040  14.414  64.463  1.00  0.00    -0.224 OA 
ENDBRANCH  12  21
ENDBRANCH   9  11
ENDBRANCH   5   9
TORSDOF 4
ENDMDL
MODEL       26
REMARK 921   NORMALIZED FREE ENERGY PREDICTED BY IDOCK:   -6.25 KCAL/MOL
REMARK 922        TOTAL FREE ENERGY PREDICTED BY IDOCK:   -8.23 KCAL/MOL
REMARK 923 INTER-LIGAND FREE ENERGY PREDICTED BY IDOCK:   -8.24 KCAL/MOL
REMARK 924 INTRA-LIGAND FREE ENERGY PREDICTED BY IDOCK:    0.01 KCAL/MOL
REMARK 927      BINDING AFFINITY PREDICTED BY RF-SCORE:    0.00 PKD
ROOT
HETATM    1  C   UNL     1      -8.898  14.947  68.730  1.00  0.00    -0.183 A  
HETATM    2  N   UNL     1      -7.892  15.039  67.860  1.00  0.00    -0.128 NA 
HETATM    3  O   UNL     1      -8.490  15.045  66.615  1.00  0.00    -0.248 OA 
HETATM    4  C   UNL     1      -9.846  14.986  66.754  1.00  0.00    -0.243 A  
HETATM    5  C   UNL     1     -10.167  14.924  68.105  1.00  0.00    -0.226 A  
ENDROOT
BRANCH   4   6
HETATM    6  C   UNL     1     -10.809  15.003  65.569  1.00  0.00    -0.360 C  
HETATM    7  C   UNL     1     -10.809  13.828  64.611  1.00  0.00    -0.416 C  
HETATM    8  C   UNL     1     -11.944  14.000  65.560  1.00  0.00    -0.393 C  
ENDBRANCH   4   6
BRANCH   5   9
HETATM    9  C   UNL     1     -11.508  14.815  68.665  1.00  0.00    -0.302 C  
HETATM   10  O   UNL     1     -12.277  15.766  68.625  1.00  0.00    -0.170 OA 
BRANCH   9  11
HETATM   11  C   UNL     1     -11.967  13.592  69.399  1.00  0.00    -0.394 A  
HETATM   12  C   UNL     1     -12.413  13.624  70.740  1.00  0.00    -0.359 A  
HETATM   13  C   UNL     1     -12.701  12.427  71.422  1.00  0.00    -0.346 A  
HETATM   14  C   UNL     1     -11.791  12.335  68.791  1.00  0.00    -0.356 A  
HETATM   15  C   UNL     1     -12.519  11.181  70.805  1.00  0.00    -0.479 A  
HETATM   16  F   UNL     1     -13.228  10.103  72.830  1.00  0.00    -0.260 F  
HETATM   17  F   UNL     1     -13.692   9.102  70.957  1.00  0.00    -0.346 F  
HETATM   18  F   UNL     1     -11.644   9.143  71.692  1.00  0.00    -0.352 F  
HETATM   19  C   UNL     1     -12.770   9.894  71.564  1.00  0.00    -0.415 C  
HETATM   20  C   UNL     1     -12.069  11.148  69.482  1.00  0.00    -0.396 A  
BRANCH  12  21
HETATM   21  S   UNL     1     -12.672  15.179  71.588  1.00  0.00    -0.393 S  
HETATM   22  C   UNL     1     -12.909  14.830  73.307  1.00  0.00    -0.507 C  
HETATM   23  O   UNL     1     -11.424  15.916  71.535  1.00  0.00    -0.402 OA 
HETATM   24  O   UNL     1     -13.932  15.694  71.087  1.00  0.00    -0.564 OA 
ENDBRANCH  12  21
ENDBRANCH   9  11
ENDBRANCH   5   9
TORSDOF 4
ENDMDL
MODEL       27
REMARK 921   NORMALIZED FREE ENERGY PREDICTED BY IDOCK:   -6.24 KCAL/MOL
REMARK 922        TOTAL FREE ENERGY PREDICTED BY IDOCK:   -8.22 KCAL/MOL
REMARK 923 INTER-LIGAND FREE ENERGY PREDICTED BY IDOCK:   -7.72 KCAL/MOL
REMARK 924 INTRA-LIGAND FREE ENERGY PREDICTED BY IDOCK:   -0.50 KCAL/MOL
REMARK 927      BINDING AFFINITY PREDICTED BY RF-SCORE:    0.00 PKD
ROOT
HETATM    1  C   UNL     1      -8.727  13.648  67.504  1.00  0.00    -0.198 A  
HETATM    2  N   UNL     1      -7.710  13.017  66.916  1.00  0.00     0.089 NA 
HETATM    3  O   UNL     1      -8.295  12.061  66.110  1.00  0.00     0.046 OA 
HETATM    4  C   UNL     1      -9.653  12.148  66.202  1.00  0.00    -0.240 A  
HETATM    5  C   UNL     1      -9.990  13.163  67.090  1.00  0.00    -0.236 A  
ENDROOT
BRANCH   4   6
HETATM    6  C   UNL     1     -10.603  11.249  65.413  1.00  0.00    -0.312 C  
HETATM    7  C   UNL     1     -11.012  11.669  64.015  1.00  0.00    -0.456 C  
HETATM    8  C   UNL     1     -10.058  10.539  64.191  1.00  0.00    -0.351 C  
ENDBRANCH   4   6
BRANCH   5   9
HETATM    9  C   UNL     1     -11.339  13.545  67.486  1.00  0.00    -0.308 C  
HETATM   10  O   UNL     1     -12.235  13.609  66.655  1.00  0.00    -0.415 OA 
BRANCH   9  11
HETATM   11  C   UNL     1     -11.667  13.975  68.883  1.00  0.00    -0.375 A  
HETATM   12  C   UNL     1     -11.917  13.059  69.930  1.00  0.00    -0.311 A  
HETATM   13  C   UNL     1     -12.355  13.517  71.186  1.00  0.00    -0.377 A  
HETATM   14  C   UNL     1     -11.903  15.341  69.129  1.00  0.00    -0.345 A  
HETATM   15  C   UNL     1     -12.588  14.881  71.418  1.00  0.00    -0.402 A  
HETATM   16  F   UNL     1     -13.271  14.357  73.659  1.00  0.00    -0.462 F  
HETATM   17  F   UNL     1     -12.304  16.277  73.339  1.00  0.00    -0.492 F  
HETATM   18  F   UNL     1     -14.339  15.952  72.639  1.00  0.00    -0.645 F  
HETATM   19  C   UNL     1     -13.120  15.362  72.752  1.00  0.00    -0.466 C  
HETATM   20  C   UNL     1     -12.350  15.787  70.380  1.00  0.00    -0.367 A  
BRANCH  12  21
HETATM   21  S   UNL     1     -11.637  11.305  69.706  1.00  0.00    -0.349 S  
HETATM   22  C   UNL     1     -12.302  10.463  71.113  1.00  0.00    -0.400 C  
HETATM   23  O   UNL     1     -12.465  10.871  68.597  1.00  0.00    -0.418 OA 
HETATM   24  O   UNL     1     -10.197  11.129  69.752  1.00  0.00     0.067 OA 
ENDBRANCH  12  21
ENDBRANCH   9  11
ENDBRANCH   5   9
TORSDOF 4
ENDMDL
MODEL       28
REMARK 921   NORMALIZED FREE ENERGY PREDICTED BY IDOCK:   -6.15 KCAL/MOL
REMARK 922        TOTAL FREE ENERGY PREDICTED BY IDOCK:   -8.10 KCAL/MOL
REMARK 923 INTER-LIGAND FREE ENERGY PREDICTED BY IDOCK:   -7.71 KCAL/MOL
REMARK 924 INTRA-LIGAND FREE ENERGY PREDICTED BY IDOCK:   -0.39 KCAL/MOL
REMARK 927      BINDING AFFINITY PREDICTED BY RF-SCORE:    0.00 PKD
ROOT
HETATM    1  C   UNL     1     -10.176  11.534  66.064  1.00  0.00    -0.242 A  
HETATM    2  N   UNL     1      -8.891  11.243  65.855  1.00  0.00    -0.191 NA 
HETATM    3  O   UNL     1      -8.186  12.268  66.455  1.00  0.00    -0.046 OA 
HETATM    4  C   UNL     1      -9.053  13.144  67.039  1.00  0.00    -0.231 A  
HETATM    5  C   UNL     1     -10.357  12.717  66.820  1.00  0.00    -0.246 A  
ENDROOT
BRANCH   4   6
HETATM    6  C   UNL     1      -8.597  14.380  67.813  1.00  0.00    -0.171 C  
HETATM    7  C   UNL     1      -7.222  14.952  67.529  1.00  0.00    -0.227 C  
HETATM    8  C   UNL     1      -8.431  15.676  67.048  1.00  0.00    -0.257 C  
ENDBRANCH   4   6
BRANCH   5   9
HETATM    9  C   UNL     1     -11.569  13.399  67.254  1.00  0.00    -0.360 C  
HETATM   10  O   UNL     1     -12.442  13.687  66.446  1.00  0.00    -0.399 OA 
BRANCH   9  11
HETATM   11  C   UNL     1     -11.757  13.870  68.663  1.00  0.00    -0.396 A  
HETATM   12  C   UNL     1     -11.909  12.985  69.755  1.00  0.00    -0.311 A  
HETATM   13  C   UNL     1     -12.220  13.482  71.035  1.00  0.00    -0.348 A  
HETATM   14  C   UNL     1     -11.959  15.244  68.893  1.00  0.00    -0.292 A  
HETATM   15  C   UNL     1     -12.420  14.853  71.249  1.00  0.00    -0.396 A  
HETATM   16  F   UNL     1     -12.886  14.398  73.561  1.00  0.00    -0.586 F  
HETATM   17  F   UNL     1     -11.943  16.300  73.094  1.00  0.00    -0.520 F  
HETATM   18  F   UNL     1     -14.038  15.973  72.604  1.00  0.00    -0.612 F  
HETATM   19  C   UNL     1     -12.817  15.376  72.615  1.00  0.00    -0.402 C  
HETATM   20  C   UNL     1     -12.280  15.728  70.169  1.00  0.00    -0.340 A  
BRANCH  12  21
HETATM   21  S   UNL     1     -11.662  11.224  69.554  1.00  0.00    -0.377 S  
HETATM   22  C   UNL     1     -12.331  10.414  70.980  1.00  0.00    -0.387 C  
HETATM   23  O   UNL     1     -12.507  10.789  68.459  1.00  0.00    -0.289 OA 
HETATM   24  O   UNL     1     -10.226  11.022  69.592  1.00  0.00    -0.083 OA 
ENDBRANCH  12  21
ENDBRANCH   9  11
ENDBRANCH   5   9
TORSDOF 4
ENDMDL
MODEL       29
REMARK 921   NORMALIZED FREE ENERGY PREDICTED BY IDOCK:   -6.13 KCAL/MOL
REMARK 922        TOTAL FREE ENERGY PREDICTED BY IDOCK:   -8.08 KCAL/MOL
REMARK 923 INTER-LIGAND FREE ENERGY PREDICTED BY IDOCK:   -7.62 KCAL/MOL
REMARK 924 INTRA-LIGAND FREE ENERGY PREDICTED BY IDOCK:   -0.46 KCAL/MOL
REMARK 927      BINDING AFFINITY PREDICTED BY RF-SCORE:    0.00 PKD
ROOT
HETATM    1  C   UNL     1     -12.675  15.381  70.445  1.00  0.00    -0.362 A  
HETATM    2  N   UNL     1     -13.632  15.119  71.336  1.00  0.00    -0.454 NA 
HETATM    3  O   UNL     1     -13.526  13.766  71.594  1.00  0.00    -0.349 OA 
HETATM    4  C   UNL     1     -12.492  13.239  70.877  1.00  0.00    -0.342 A  
HETATM    5  C   UNL     1     -11.902  14.242  70.117  1.00  0.00    -0.379 A  
ENDROOT
BRANCH   4   6
HETATM    6  C   UNL     1     -12.086  11.769  70.954  1.00  0.00    -0.271 C  
HETATM    7  C   UNL     1     -12.909  10.829  71.813  1.00  0.00    -0.528 C  
HETATM    8  C   UNL     1     -13.009  10.743  70.329  1.00  0.00    -0.132 C  
ENDBRANCH   4   6
BRANCH   5   9
HETATM    9  C   UNL     1     -10.789  14.075  69.191  1.00  0.00    -0.206 C  
HETATM   10  O   UNL     1      -9.652  14.379  69.526  1.00  0.00     0.130 OA 
BRANCH   9  11
HETATM   11  C   UNL     1     -10.991  13.632  67.774  1.00  0.00    -0.276 A  
HETATM   12  C   UNL     1     -10.913  14.517  66.674  1.00  0.00    -0.321 A  
HETATM   13  C   UNL     1     -11.247  14.075  65.381  1.00  0.00    -0.319 A  
HETATM   14  C   UNL     1     -11.443  12.320  67.536  1.00  0.00    -0.414 A  
HETATM   15  C   UNL     1     -11.698  12.766  65.158  1.00  0.00    -0.396 A  
HETATM   16  F   UNL     1     -11.947  13.275  62.825  1.00  0.00    -0.459 F  
HETATM   17  F   UNL     1     -11.415  11.233  63.343  1.00  0.00    -0.452 F  
HETATM   18  F   UNL     1     -13.429  11.963  63.721  1.00  0.00    -0.454 F  
HETATM   19  C   UNL     1     -12.117  12.313  63.774  1.00  0.00    -0.532 C  
HETATM   20  C   UNL     1     -11.785  11.892  66.246  1.00  0.00    -0.223 A  
BRANCH  12  21
HETATM   21  S   UNL     1     -10.341  16.200  66.885  1.00  0.00    -0.297 S  
HETATM   22  C   UNL     1     -10.753  17.103  65.419  1.00  0.00    -0.088 C  
HETATM   23  O   UNL     1     -11.150  16.806  67.925  1.00  0.00    -0.302 OA 
HETATM   24  O   UNL     1      -8.894  16.119  66.936  1.00  0.00    -0.190 OA 
ENDBRANCH  12  21
ENDBRANCH   9  11
ENDBRANCH   5   9
TORSDOF 4
ENDMDL
MODEL       30
REMARK 921   NORMALIZED FREE ENERGY PREDICTED BY IDOCK:   -6.07 KCAL/MOL
REMARK 922        TOTAL FREE ENERGY PREDICTED BY IDOCK:   -8.01 KCAL/MOL
REMARK 923 INTER-LIGAND FREE ENERGY PREDICTED BY IDOCK:   -7.48 KCAL/MOL
REMARK 924 INTRA-LIGAND FREE ENERGY PREDICTED BY IDOCK:   -0.53 KCAL/MOL
REMARK 927      BINDING AFFINITY PREDICTED BY RF-SCORE:    0.00 PKD
ROOT
HETATM    1  C   UNL     1     -12.020  14.413  69.448  1.00  0.00    -0.328 A  
HETATM    2  N   UNL     1     -11.853  15.724  69.276  1.00  0.00    -0.371 NA 
HETATM    3  O   UNL     1     -11.394  15.865  67.981  1.00  0.00    -0.342 OA 
HETATM    4  C   UNL     1     -11.317  14.641  67.384  1.00  0.00    -0.356 A  
HETATM    5  C   UNL     1     -11.715  13.663  68.288  1.00  0.00    -0.398 A  
ENDROOT
BRANCH   4   6
HETATM    6  C   UNL     1     -10.870  14.444  65.937  1.00  0.00    -0.304 C  
HETATM    7  C   UNL     1     -11.899  14.570  64.832  1.00  0.00    -0.417 C  
HETATM    8  C   UNL     1     -10.888  15.648  65.018  1.00  0.00    -0.468 C  
ENDBRANCH   4   6
BRANCH   5   9
HETATM    9  C   UNL     1     -11.739  12.226  68.043  1.00  0.00    -0.356 C  
HETATM   10  O   UNL     1     -12.148  11.785  66.977  1.00  0.00    -0.575 OA 
BRANCH   9  11
HETATM   11  C   UNL     1     -11.374  11.232  69.102  1.00  0.00    -0.349 A  
HETATM   12  C   UNL     1     -10.101  10.621  69.177  1.00  0.00    -0.216 A  
HETATM   13  C   UNL     1      -9.860   9.594  70.108  1.00  0.00    -0.310 A  
HETATM   14  C   UNL     1     -12.387  10.757  69.958  1.00  0.00    -0.371 A  
HETATM   15  C   UNL     1     -10.878   9.129  70.953  1.00  0.00    -0.345 A  
HETATM   16  F   UNL     1      -9.344   7.531  71.880  1.00  0.00    -0.148 F  
HETATM   17  F   UNL     1     -10.881   8.314  73.202  1.00  0.00    -0.389 F  
HETATM   18  F   UNL     1     -11.410   6.901  71.633  1.00  0.00    -0.256 F  
HETATM   19  C   UNL     1     -10.630   7.980  71.909  1.00  0.00    -0.245 C  
HETATM   20  C   UNL     1     -12.139   9.725  70.874  1.00  0.00    -0.407 A  
BRANCH  12  21
HETATM   21  S   UNL     1      -8.755  11.167  68.132  1.00  0.00    -0.150 S  
HETATM   22  C   UNL     1      -7.339  10.171  68.501  1.00  0.00    -0.081 C  
HETATM   23  O   UNL     1      -9.098  10.821  66.766  1.00  0.00    -0.151 OA 
HETATM   24  O   UNL     1      -8.444  12.516  68.566  1.00  0.00    -0.146 OA 
ENDBRANCH  12  21
ENDBRANCH   9  11
ENDBRANCH   5   9
TORSDOF 4
ENDMDL
MODEL       31
REMARK 921   NORMALIZED FREE ENERGY PREDICTED BY IDOCK:   -6.07 KCAL/MOL
REMARK 922        TOTAL FREE ENERGY PREDICTED BY IDOCK:   -8.01 KCAL/MOL
REMARK 923 INTER-LIGAND FREE ENERGY PREDICTED BY IDOCK:   -7.47 KCAL/MOL
REMARK 924 INTRA-LIGAND FREE ENERGY PREDICTED BY IDOCK:   -0.53 KCAL/MOL
REMARK 927      BINDING AFFINITY PREDICTED BY RF-SCORE:    0.00 PKD
ROOT
HETATM    1  C   UNL     1      -9.945  11.218  65.268  1.00  0.00    -0.253 A  
HETATM    2  N   UNL     1     -10.724  11.106  64.192  1.00  0.00    -0.374 NA 
HETATM    3  O   UNL     1     -11.479  12.262  64.169  1.00  0.00    -0.333 OA 
HETATM    4  C   UNL     1     -11.126  13.064  65.213  1.00  0.00    -0.286 A  
HETATM    5  C   UNL     1     -10.133  12.440  65.958  1.00  0.00    -0.269 A  
ENDROOT
BRANCH   4   6
HETATM    6  C   UNL     1     -11.753  14.435  65.462  1.00  0.00    -0.352 C  
HETATM    7  C   UNL     1     -11.038  15.669  64.948  1.00  0.00    -0.414 C  
HETATM    8  C   UNL     1     -12.279  15.203  64.268  1.00  0.00    -0.257 C  
ENDBRANCH   4   6
BRANCH   5   9
HETATM    9  C   UNL     1      -9.516  12.958  67.173  1.00  0.00    -0.229 C  
HETATM   10  O   UNL     1      -8.300  12.951  67.302  1.00  0.00    -0.178 OA 
BRANCH   9  11
HETATM   11  C   UNL     1     -10.328  13.416  68.345  1.00  0.00    -0.253 A  
HETATM   12  C   UNL     1     -11.064  12.528  69.164  1.00  0.00    -0.196 A  
HETATM   13  C   UNL     1     -11.917  13.028  70.165  1.00  0.00    -0.374 A  
HETATM   14  C   UNL     1     -10.504  14.798  68.544  1.00  0.00    -0.249 A  
HETATM   15  C   UNL     1     -12.085  14.408  70.351  1.00  0.00    -0.399 A  
HETATM   16  F   UNL     1     -13.653  13.955  72.113  1.00  0.00    -0.413 F  
HETATM   17  F   UNL     1     -12.451  15.757  72.292  1.00  0.00    -0.377 F  
HETATM   18  F   UNL     1     -14.061  15.662  70.831  1.00  0.00    -0.478 F  
HETATM   19  C   UNL     1     -13.053  14.940  71.388  1.00  0.00    -0.369 C  
HETATM   20  C   UNL     1     -11.365  15.286  69.536  1.00  0.00    -0.299 A  
BRANCH  12  21
HETATM   21  S   UNL     1     -10.895  10.756  68.985  1.00  0.00    -0.254 S  
HETATM   22  C   UNL     1     -11.581   9.995  70.429  1.00  0.00    -0.302 C  
HETATM   23  O   UNL     1     -11.769  10.343  67.905  1.00  0.00    -0.377 OA 
HETATM   24  O   UNL     1      -9.468  10.494  69.010  1.00  0.00    -0.187 OA 
ENDBRANCH  12  21
ENDBRANCH   9  11
ENDBRANCH   5   9
TORSDOF 4
ENDMDL
MODEL       32
REMARK 921   NORMALIZED FREE ENERGY PREDICTED BY IDOCK:   -6.03 KCAL/MOL
REMARK 922        TOTAL FREE ENERGY PREDICTED BY IDOCK:   -7.96 KCAL/MOL
REMARK 923 INTER-LIGAND FREE ENERGY PREDICTED BY IDOCK:   -7.54 KCAL/MOL
REMARK 924 INTRA-LIGAND FREE ENERGY PREDICTED BY IDOCK:   -0.42 KCAL/MOL
REMARK 927      BINDING AFFINITY PREDICTED BY RF-SCORE:    0.00 PKD
ROOT
HETATM    1  C   UNL     1      -8.052  16.236  68.447  1.00  0.00    -0.183 A  
HETATM    2  N   UNL     1      -7.026  17.079  68.559  1.00  0.00    -0.187 NA 
HETATM    3  O   UNL     1      -7.578  18.339  68.442  1.00  0.00    -0.271 OA 
HETATM    4  C   UNL     1      -8.929  18.239  68.289  1.00  0.00    -0.305 A  
HETATM    5  C   UNL     1      -9.293  16.898  68.289  1.00  0.00    -0.248 A  
ENDROOT
BRANCH   4   6
HETATM    6  C   UNL     1      -9.847  19.452  68.159  1.00  0.00    -0.485 C  
HETATM    7  C   UNL     1      -9.518  20.509  67.124  1.00  0.00    -0.544 C  
HETATM    8  C   UNL     1     -10.667  19.591  66.893  1.00  0.00    -0.576 C  
ENDBRANCH   4   6
BRANCH   5   9
HETATM    9  C   UNL     1     -10.642  16.374  68.115  1.00  0.00    -0.318 C  
HETATM   10  O   UNL     1     -11.522  16.644  68.921  1.00  0.00    -0.212 OA 
BRANCH   9  11
HETATM   11  C   UNL     1     -10.987  15.410  67.021  1.00  0.00    -0.306 A  
HETATM   12  C   UNL     1     -11.252  14.042  67.258  1.00  0.00    -0.312 A  
HETATM   13  C   UNL     1     -11.435  13.156  66.180  1.00  0.00    -0.366 A  
HETATM   14  C   UNL     1     -10.880  15.841  65.685  1.00  0.00    -0.316 A  
HETATM   15  C   UNL     1     -11.323  13.598  64.854  1.00  0.00    -0.353 A  
HETATM   16  F   UNL     1     -11.746  11.358  64.098  1.00  0.00    -0.373 F  
HETATM   17  F   UNL     1     -12.443  12.981  62.832  1.00  0.00    -0.516 F  
HETATM   18  F   UNL     1     -10.317  12.539  62.963  1.00  0.00    -0.345 F  
HETATM   19  C   UNL     1     -11.457  12.628  63.697  1.00  0.00    -0.495 C  
HETATM   20  C   UNL     1     -11.052  14.949  64.618  1.00  0.00    -0.335 A  
BRANCH  12  21
HETATM   21  S   UNL     1     -11.413  13.410  68.925  1.00  0.00    -0.325 S  
HETATM   22  C   UNL     1     -11.701  11.667  68.822  1.00  0.00    -0.330 C  
HETATM   23  O   UNL     1     -10.115  13.528  69.561  1.00  0.00     0.382 OA 
HETATM   24  O   UNL     1     -12.625  14.006  69.455  1.00  0.00    -0.222 OA 
ENDBRANCH  12  21
ENDBRANCH   9  11
ENDBRANCH   5   9
TORSDOF 4
ENDMDL
MODEL       33
REMARK 921   NORMALIZED FREE ENERGY PREDICTED BY IDOCK:   -5.99 KCAL/MOL
REMARK 922        TOTAL FREE ENERGY PREDICTED BY IDOCK:   -7.90 KCAL/MOL
REMARK 923 INTER-LIGAND FREE ENERGY PREDICTED BY IDOCK:   -7.24 KCAL/MOL
REMARK 924 INTRA-LIGAND FREE ENERGY PREDICTED BY IDOCK:   -0.66 KCAL/MOL
REMARK 927      BINDING AFFINITY PREDICTED BY RF-SCORE:    0.00 PKD
ROOT
HETATM    1  C   UNL     1     -10.171  14.760  65.171  1.00  0.00    -0.377 A  
HETATM    2  N   UNL     1      -9.542  15.923  65.346  1.00  0.00    -0.371 NA 
HETATM    3  O   UNL     1      -9.946  16.370  66.589  1.00  0.00    -0.250 OA 
HETATM    4  C   UNL     1     -10.788  15.459  67.155  1.00  0.00    -0.321 A  
HETATM    5  C   UNL     1     -10.967  14.393  66.282  1.00  0.00    -0.318 A  
ENDROOT
BRANCH   4   6
HETATM    6  C   UNL     1     -11.396  15.636  68.545  1.00  0.00    -0.361 C  
HETATM    7  C   UNL     1     -10.558  15.284  69.758  1.00  0.00    -0.293 C  
HETATM    8  C   UNL     1     -10.822  16.715  69.440  1.00  0.00    -0.295 C  
ENDBRANCH   4   6
BRANCH   5   9
HETATM    9  C   UNL     1     -11.822  13.234  66.505  1.00  0.00    -0.398 C  
HETATM   10  O   UNL     1     -12.875  13.113  65.895  1.00  0.00    -0.361 OA 
BRANCH   9  11
HETATM   11  C   UNL     1     -11.514  12.207  67.552  1.00  0.00    -0.410 A  
HETATM   12  C   UNL     1     -10.756  11.044  67.287  1.00  0.00    -0.265 A  
HETATM   13  C   UNL     1     -10.615  10.048  68.271  1.00  0.00    -0.264 A  
HETATM   14  C   UNL     1     -12.143  12.315  68.807  1.00  0.00    -0.162 A  
HETATM   15  C   UNL     1     -11.248  10.167  69.517  1.00  0.00    -0.288 A  
HETATM   16  F   UNL     1     -10.350   8.032  70.149  1.00  0.00    -0.199 F  
HETATM   17  F   UNL     1     -10.630   9.498  71.729  1.00  0.00    -0.411 F  
HETATM   18  F   UNL     1     -12.354   8.513  70.839  1.00  0.00    -0.283 F  
HETATM   19  C   UNL     1     -11.145   9.063  70.549  1.00  0.00    -0.254 C  
HETATM   20  C   UNL     1     -12.006  11.312  69.777  1.00  0.00    -0.431 A  
BRANCH  12  21
HETATM   21  S   UNL     1      -9.916  10.829  65.721  1.00  0.00    -0.264 S  
HETATM   22  C   UNL     1      -9.462   9.124  65.576  1.00  0.00    -0.206 C  
HETATM   23  O   UNL     1     -10.895  11.035  64.672  1.00  0.00    -0.296 OA 
HETATM   24  O   UNL     1      -8.683  11.585  65.830  1.00  0.00    -0.162 OA 
ENDBRANCH  12  21
ENDBRANCH   9  11
ENDBRANCH   5   9
TORSDOF 4
ENDMDL
MODEL       34
REMARK 921   NORMALIZED FREE ENERGY PREDICTED BY IDOCK:   -5.98 KCAL/MOL
REMARK 922        TOTAL FREE ENERGY PREDICTED BY IDOCK:   -7.89 KCAL/MOL
REMARK 923 INTER-LIGAND FREE ENERGY PREDICTED BY IDOCK:   -7.71 KCAL/MOL
REMARK 924 INTRA-LIGAND FREE ENERGY PREDICTED BY IDOCK:   -0.18 KCAL/MOL
REMARK 927      BINDING AFFINITY PREDICTED BY RF-SCORE:    0.00 PKD
ROOT
HETATM    1  C   UNL     1      -9.179  10.645  66.159  1.00  0.00    -0.172 A  
HETATM    2  N   UNL     1      -9.662   9.960  65.121  1.00  0.00    -0.307 NA 
HETATM    3  O   UNL     1     -10.465  10.854  64.440  1.00  0.00    -0.355 OA 
HETATM    4  C   UNL     1     -10.433  12.068  65.059  1.00  0.00    -0.287 A  
HETATM    5  C   UNL     1      -9.612  11.992  66.178  1.00  0.00    -0.252 A  
ENDROOT
BRANCH   4   6
HETATM    6  C   UNL     1     -11.193  13.289  64.544  1.00  0.00    -0.387 C  
HETATM    7  C   UNL     1     -12.321  13.081  63.553  1.00  0.00    -0.500 C  
HETATM    8  C   UNL     1     -12.640  13.452  64.960  1.00  0.00    -0.459 C  
ENDBRANCH   4   6
BRANCH   5   9
HETATM    9  C   UNL     1      -9.347  13.069  67.124  1.00  0.00    -0.230 C  
HETATM   10  O   UNL     1      -8.232  13.567  67.200  1.00  0.00    -0.178 OA 
BRANCH   9  11
HETATM   11  C   UNL     1     -10.376  13.538  68.106  1.00  0.00    -0.247 A  
HETATM   12  C   UNL     1     -10.601  14.905  68.389  1.00  0.00    -0.244 A  
HETATM   13  C   UNL     1     -11.483  15.281  69.419  1.00  0.00    -0.329 A  
HETATM   14  C   UNL     1     -11.032  12.581  68.903  1.00  0.00    -0.272 A  
HETATM   15  C   UNL     1     -12.128  14.317  70.208  1.00  0.00    -0.403 A  
HETATM   16  F   UNL     1     -13.163  16.078  71.470  1.00  0.00    -0.518 F  
HETATM   17  F   UNL     1     -14.287  14.233  71.235  1.00  0.00    -0.403 F  
HETATM   18  F   UNL     1     -12.560  14.295  72.557  1.00  0.00    -0.380 F  
HETATM   19  C   UNL     1     -13.027  14.727  71.356  1.00  0.00    -0.342 C  
HETATM   20  C   UNL     1     -11.900  12.965  69.934  1.00  0.00    -0.373 A  
BRANCH  12  21
HETATM   21  S   UNL     1      -9.815  16.188  67.421  1.00  0.00    -0.241 S  
HETATM   22  C   UNL     1     -10.560  17.733  67.856  1.00  0.00    -0.382 C  
HETATM   23  O   UNL     1      -8.444  16.301  67.882  1.00  0.00    -0.162 OA 
HETATM   24  O   UNL     1     -10.180  15.919  66.043  1.00  0.00    -0.292 OA 
ENDBRANCH  12  21
ENDBRANCH   9  11
ENDBRANCH   5   9
TORSDOF 4
ENDMDL
MODEL       35
REMARK 921   NORMALIZED FREE ENERGY PREDICTED BY IDOCK:   -5.91 KCAL/MOL
REMARK 922        TOTAL FREE ENERGY PREDICTED BY IDOCK:   -7.81 KCAL/MOL
REMARK 923 INTER-LIGAND FREE ENERGY PREDICTED BY IDOCK:   -8.44 KCAL/MOL
REMARK 924 INTRA-LIGAND FREE ENERGY PREDICTED BY IDOCK:    0.64 KCAL/MOL
REMARK 927      BINDING AFFINITY PREDICTED BY RF-SCORE:    0.00 PKD
ROOT
HETATM    1  C   UNL     1     -12.069  13.944  66.876  1.00  0.00    -0.430 A  
HETATM    2  N   UNL     1     -12.019  14.589  65.710  1.00  0.00    -0.341 NA 
HETATM    3  O   UNL     1     -11.254  15.714  65.951  1.00  0.00    -0.214 OA 
HETATM    4  C   UNL     1     -10.831  15.715  67.248  1.00  0.00    -0.298 A  
HETATM    5  C   UNL     1     -11.327  14.589  67.894  1.00  0.00    -0.329 A  
ENDROOT
BRANCH   4   6
HETATM    6  C   UNL     1      -9.940  16.807  67.835  1.00  0.00    -0.268 C  
HETATM    7  C   UNL     1      -9.776  18.105  67.069  1.00  0.00    -0.307 C  
HETATM    8  C   UNL     1     -10.600  18.085  68.310  1.00  0.00    -0.299 C  
ENDBRANCH   4   6
BRANCH   5   9
HETATM    9  C   UNL     1     -11.129  14.246  69.297  1.00  0.00    -0.265 C  
HETATM   10  O   UNL     1     -10.330  14.871  69.981  1.00  0.00    -0.122 OA 
BRANCH   9  11
HETATM   11  C   UNL     1     -11.801  13.067  69.931  1.00  0.00    -0.377 A  
HETATM   12  C   UNL     1     -12.658  13.180  71.049  1.00  0.00    -0.312 A  
HETATM   13  C   UNL     1     -13.150  12.026  71.687  1.00  0.00    -0.422 A  
HETATM   14  C   UNL     1     -11.436  11.775  69.506  1.00  0.00    -0.363 A  
HETATM   15  C   UNL     1     -12.777  10.746  71.255  1.00  0.00    -0.546 A  
HETATM   16  F   UNL     1     -14.103   9.792  73.015  1.00  0.00    -0.126 F  
HETATM   17  F   UNL     1     -13.934   8.653  71.171  1.00  0.00    -0.353 F  
HETATM   18  F   UNL     1     -12.235   8.795  72.524  1.00  0.00    -0.431 F  
HETATM   19  C   UNL     1     -13.259   9.508  71.984  1.00  0.00    -0.452 C  
HETATM   20  C   UNL     1     -11.922  10.632  70.155  1.00  0.00    -0.417 A  
BRANCH  12  21
HETATM   21  S   UNL     1     -13.179  14.783  71.652  1.00  0.00    -0.381 S  
HETATM   22  C   UNL     1     -11.860  15.456  72.621  1.00  0.00    -0.463 C  
HETATM   23  O   UNL     1     -13.277  15.666  70.506  1.00  0.00    -0.434 OA 
HETATM   24  O   UNL     1     -14.278  14.521  72.562  1.00  0.00    -0.497 OA 
ENDBRANCH  12  21
ENDBRANCH   9  11
ENDBRANCH   5   9
TORSDOF 4
ENDMDL
MODEL       36
REMARK 921   NORMALIZED FREE ENERGY PREDICTED BY IDOCK:   -5.90 KCAL/MOL
REMARK 922        TOTAL FREE ENERGY PREDICTED BY IDOCK:   -7.80 KCAL/MOL
REMARK 923 INTER-LIGAND FREE ENERGY PREDICTED BY IDOCK:   -7.85 KCAL/MOL
REMARK 924 INTRA-LIGAND FREE ENERGY PREDICTED BY IDOCK:    0.05 KCAL/MOL
REMARK 927      BINDING AFFINITY PREDICTED BY RF-SCORE:    0.00 PKD
ROOT
HETATM    1  C   UNL     1     -12.028  15.085  70.908  1.00  0.00    -0.319 A  
HETATM    2  N   UNL     1     -12.916  14.708  71.828  1.00  0.00    -0.318 NA 
HETATM    3  O   UNL     1     -13.158  13.372  71.574  1.00  0.00    -0.363 OA 
HETATM    4  C   UNL     1     -12.393  12.957  70.524  1.00  0.00    -0.283 A  
HETATM    5  C   UNL     1     -11.637  14.025  70.054  1.00  0.00    -0.302 A  
ENDROOT
BRANCH   4   6
HETATM    6  C   UNL     1     -12.400  11.522  70.001  1.00  0.00    -0.287 C  
HETATM    7  C   UNL     1     -11.506  10.497  70.671  1.00  0.00    -0.418 C  
HETATM    8  C   UNL     1     -12.978  10.444  70.894  1.00  0.00    -0.475 C  
ENDBRANCH   4   6
BRANCH   5   9
HETATM    9  C   UNL     1     -10.721  13.998  68.921  1.00  0.00    -0.248 C  
HETATM   10  O   UNL     1      -9.623  14.530  68.998  1.00  0.00    -0.189 OA 
BRANCH   9  11
HETATM   11  C   UNL     1     -11.113  13.422  67.595  1.00  0.00    -0.288 A  
HETATM   12  C   UNL     1     -10.267  12.571  66.846  1.00  0.00    -0.226 A  
HETATM   13  C   UNL     1     -10.630  12.172  65.547  1.00  0.00    -0.314 A  
HETATM   14  C   UNL     1     -12.299  13.875  66.987  1.00  0.00    -0.287 A  
HETATM   15  C   UNL     1     -11.814  12.633  64.952  1.00  0.00    -0.436 A  
HETATM   16  F   UNL     1     -11.267  11.401  62.966  1.00  0.00    -0.352 F  
HETATM   17  F   UNL     1     -13.375  11.632  63.442  1.00  0.00    -0.510 F  
HETATM   18  F   UNL     1     -12.233  13.331  62.706  1.00  0.00    -0.509 F  
HETATM   19  C   UNL     1     -12.169  12.252  63.530  1.00  0.00    -0.568 C  
HETATM   20  C   UNL     1     -12.647  13.482  65.688  1.00  0.00    -0.512 A  
BRANCH  12  21
HETATM   21  S   UNL     1      -8.744  11.941  67.544  1.00  0.00    -0.171 S  
HETATM   22  C   UNL     1      -8.092  10.733  66.427  1.00  0.00    -0.153 C  
HETATM   23  O   UNL     1      -7.776  13.021  67.519  1.00  0.00    -0.148 OA 
HETATM   24  O   UNL     1      -9.129  11.234  68.750  1.00  0.00    -0.174 OA 
ENDBRANCH  12  21
ENDBRANCH   9  11
ENDBRANCH   5   9
TORSDOF 4
ENDMDL
MODEL       37
REMARK 921   NORMALIZED FREE ENERGY PREDICTED BY IDOCK:   -5.89 KCAL/MOL
REMARK 922        TOTAL FREE ENERGY PREDICTED BY IDOCK:   -7.79 KCAL/MOL
REMARK 923 INTER-LIGAND FREE ENERGY PREDICTED BY IDOCK:   -7.24 KCAL/MOL
REMARK 924 INTRA-LIGAND FREE ENERGY PREDICTED BY IDOCK:   -0.55 KCAL/MOL
REMARK 927      BINDING AFFINITY PREDICTED BY RF-SCORE:    0.00 PKD
ROOT
HETATM    1  C   UNL     1     -12.977   9.233  71.374  1.00  0.00    -0.326 A  
HETATM    2  N   UNL     1     -13.570   8.138  71.849  1.00  0.00    -0.341 NA 
HETATM    3  O   UNL     1     -12.695   7.104  71.574  1.00  0.00    -0.362 OA 
HETATM    4  C   UNL     1     -11.579   7.595  70.963  1.00  0.00    -0.282 A  
HETATM    5  C   UNL     1     -11.705   8.970  70.811  1.00  0.00    -0.286 A  
ENDROOT
BRANCH   4   6
HETATM    6  C   UNL     1     -10.400   6.717  70.549  1.00  0.00    -0.231 C  
HETATM    7  C   UNL     1     -10.274   5.331  71.151  1.00  0.00    -0.294 C  
HETATM    8  C   UNL     1     -10.691   5.477  69.728  1.00  0.00    -0.355 C  
ENDBRANCH   4   6
BRANCH   5   9
HETATM    9  C   UNL     1     -10.740   9.856  70.172  1.00  0.00    -0.308 C  
HETATM   10  O   UNL     1      -9.602   9.954  70.612  1.00  0.00    -0.135 OA 
BRANCH   9  11
HETATM   11  C   UNL     1     -11.115  10.755  69.034  1.00  0.00    -0.308 A  
HETATM   12  C   UNL     1     -10.738  10.498  67.696  1.00  0.00    -0.275 A  
HETATM   13  C   UNL     1     -11.000  11.446  66.689  1.00  0.00    -0.341 A  
HETATM   14  C   UNL     1     -11.723  11.991  69.324  1.00  0.00    -0.389 A  
HETATM   15  C   UNL     1     -11.604  12.675  66.992  1.00  0.00    -0.431 A  
HETATM   16  F   UNL     1     -11.439  13.298  64.679  1.00  0.00    -0.316 F  
HETATM   17  F   UNL     1     -13.132  14.077  65.799  1.00  0.00    -0.543 F  
HETATM   18  F   UNL     1     -11.134  14.863  66.157  1.00  0.00    -0.318 F  
HETATM   19  C   UNL     1     -11.826  13.718  65.916  1.00  0.00    -0.383 C  
HETATM   20  C   UNL     1     -11.969  12.934  68.317  1.00  0.00    -0.297 A  
BRANCH  12  21
HETATM   21  S   UNL     1      -9.968   8.949  67.237  1.00  0.00    -0.238 S  
HETATM   22  C   UNL     1      -9.485   9.063  65.537  1.00  0.00    -0.150 C  
HETATM   23  O   UNL     1      -8.717   8.854  67.965  1.00  0.00    -0.132 OA 
HETATM   24  O   UNL     1     -11.019   7.952  67.309  1.00  0.00    -0.199 OA 
ENDBRANCH  12  21
ENDBRANCH   9  11
ENDBRANCH   5   9
TORSDOF 4
ENDMDL
MODEL       38
REMARK 921   NORMALIZED FREE ENERGY PREDICTED BY IDOCK:   -5.88 KCAL/MOL
REMARK 922        TOTAL FREE ENERGY PREDICTED BY IDOCK:   -7.78 KCAL/MOL
REMARK 923 INTER-LIGAND FREE ENERGY PREDICTED BY IDOCK:   -7.31 KCAL/MOL
REMARK 924 INTRA-LIGAND FREE ENERGY PREDICTED BY IDOCK:   -0.47 KCAL/MOL
REMARK 927      BINDING AFFINITY PREDICTED BY RF-SCORE:    0.00 PKD
ROOT
HETATM    1  C   UNL     1     -11.412  12.280  68.860  1.00  0.00    -0.304 A  
HETATM    2  N   UNL     1     -11.874  11.456  67.919  1.00  0.00    -0.632 NA 
HETATM    3  O   UNL     1     -12.051  12.245  66.800  1.00  0.00    -0.593 OA 
HETATM    4  C   UNL     1     -11.668  13.525  67.073  1.00  0.00    -0.383 A  
HETATM    5  C   UNL     1     -11.241  13.606  68.394  1.00  0.00    -0.306 A  
ENDROOT
BRANCH   4   6
HETATM    6  C   UNL     1     -11.712  14.649  66.040  1.00  0.00    -0.306 C  
HETATM    7  C   UNL     1     -10.792  14.571  64.837  1.00  0.00    -0.436 C  
HETATM    8  C   UNL     1     -12.250  14.326  64.661  1.00  0.00    -0.470 C  
ENDBRANCH   4   6
BRANCH   5   9
HETATM    9  C   UNL     1     -10.787  14.810  69.078  1.00  0.00    -0.245 C  
HETATM   10  O   UNL     1     -10.827  14.882  70.298  1.00  0.00    -0.199 OA 
BRANCH   9  11
HETATM   11  C   UNL     1     -10.358  16.036  68.331  1.00  0.00    -0.251 A  
HETATM   12  C   UNL     1      -9.025  16.254  67.914  1.00  0.00    -0.187 A  
HETATM   13  C   UNL     1      -8.652  17.483  67.340  1.00  0.00    -0.225 A  
HETATM   14  C   UNL     1     -11.278  17.091  68.184  1.00  0.00    -0.039 A  
HETATM   15  C   UNL     1      -9.578  18.527  67.200  1.00  0.00    -0.302 A  
HETATM   16  F   UNL     1      -7.850  19.901  66.255  1.00  0.00    -0.270 F  
HETATM   17  F   UNL     1      -9.878  20.228  65.545  1.00  0.00    -0.466 F  
HETATM   18  F   UNL     1      -9.306  20.876  67.542  1.00  0.00    -0.505 F  
HETATM   19  C   UNL     1      -9.157  19.871  66.640  1.00  0.00    -0.376 C  
HETATM   20  C   UNL     1     -10.895  18.316  67.621  1.00  0.00    -0.272 A  
BRANCH  12  21
HETATM   21  S   UNL     1      -7.792  14.965  68.058  1.00  0.00    -0.139 S  
HETATM   22  C   UNL     1      -6.231  15.647  67.577  1.00  0.00    -0.131 C  
HETATM   23  O   UNL     1      -7.639  14.665  69.469  1.00  0.00    -0.132 OA 
HETATM   24  O   UNL     1      -8.143  13.973  67.059  1.00  0.00    -0.137 OA 
ENDBRANCH  12  21
ENDBRANCH   9  11
ENDBRANCH   5   9
TORSDOF 4
ENDMDL
MODEL       39
REMARK 921   NORMALIZED FREE ENERGY PREDICTED BY IDOCK:   -5.88 KCAL/MOL
REMARK 922        TOTAL FREE ENERGY PREDICTED BY IDOCK:   -7.77 KCAL/MOL
REMARK 923 INTER-LIGAND FREE ENERGY PREDICTED BY IDOCK:   -7.08 KCAL/MOL
REMARK 924 INTRA-LIGAND FREE ENERGY PREDICTED BY IDOCK:   -0.69 KCAL/MOL
REMARK 927      BINDING AFFINITY PREDICTED BY RF-SCORE:    0.00 PKD
ROOT
HETATM    1  C   UNL     1     -12.197  14.447  65.569  1.00  0.00    -0.348 A  
HETATM    2  N   UNL     1     -12.504  13.254  65.061  1.00  0.00    -0.530 NA 
HETATM    3  O   UNL     1     -12.055  12.337  65.992  1.00  0.00    -0.623 OA 
HETATM    4  C   UNL     1     -11.512  12.991  67.058  1.00  0.00    -0.333 A  
HETATM    5  C   UNL     1     -11.580  14.362  66.840  1.00  0.00    -0.404 A  
ENDROOT
BRANCH   4   6
HETATM    6  C   UNL     1     -10.945  12.270  68.279  1.00  0.00    -0.268 C  
HETATM    7  C   UNL     1     -11.876  11.943  69.431  1.00  0.00    -0.389 C  
HETATM    8  C   UNL     1     -11.400  10.849  68.540  1.00  0.00    -0.367 C  
ENDBRANCH   4   6
BRANCH   5   9
HETATM    9  C   UNL     1     -11.073  15.399  67.730  1.00  0.00    -0.320 C  
HETATM   10  O   UNL     1     -11.479  15.483  68.880  1.00  0.00    -0.309 OA 
BRANCH   9  11
HETATM   11  C   UNL     1     -10.128  16.461  67.257  1.00  0.00    -0.270 A  
HETATM   12  C   UNL     1      -8.723  16.346  67.370  1.00  0.00    -0.182 A  
HETATM   13  C   UNL     1      -7.892  17.431  67.037  1.00  0.00    -0.238 A  
HETATM   14  C   UNL     1     -10.658  17.696  66.836  1.00  0.00    -0.235 A  
HETATM   15  C   UNL     1      -8.433  18.656  66.621  1.00  0.00    -0.301 A  
HETATM   16  F   UNL     1      -6.211  19.550  66.448  1.00  0.00    -0.172 F  
HETATM   17  F   UNL     1      -7.700  20.315  65.061  1.00  0.00    -0.199 F  
HETATM   18  F   UNL     1      -7.771  20.887  67.159  1.00  0.00    -0.370 F  
HETATM   19  C   UNL     1      -7.536  19.841  66.324  1.00  0.00    -0.309 C  
HETATM   20  C   UNL     1      -9.822  18.775  66.517  1.00  0.00    -0.398 A  
BRANCH  12  21
HETATM   21  S   UNL     1      -7.964  14.810  67.890  1.00  0.00    -0.155 S  
HETATM   22  C   UNL     1      -6.211  15.050  67.915  1.00  0.00    -0.159 C  
HETATM   23  O   UNL     1      -8.322  14.597  69.279  1.00  0.00    -0.098 OA 
HETATM   24  O   UNL     1      -8.243  13.858  66.832  1.00  0.00    -0.102 OA 
ENDBRANCH  12  21
ENDBRANCH   9  11
ENDBRANCH   5   9
TORSDOF 4
ENDMDL
MODEL       40
REMARK 921   NORMALIZED FREE ENERGY PREDICTED BY IDOCK:   -5.86 KCAL/MOL
REMARK 922        TOTAL FREE ENERGY PREDICTED BY IDOCK:   -7.75 KCAL/MOL
REMARK 923 INTER-LIGAND FREE ENERGY PREDICTED BY IDOCK:   -7.00 KCAL/MOL
REMARK 924 INTRA-LIGAND FREE ENERGY PREDICTED BY IDOCK:   -0.75 KCAL/MOL
REMARK 927      BINDING AFFINITY PREDICTED BY RF-SCORE:    0.00 PKD
ROOT
HETATM    1  C   UNL     1     -10.412  15.289  67.611  1.00  0.00    -0.263 A  
HETATM    2  N   UNL     1     -10.497  16.502  68.156  1.00  0.00    -0.298 NA 
HETATM    3  O   UNL     1     -11.400  16.372  69.194  1.00  0.00    -0.308 OA 
HETATM    4  C   UNL     1     -11.823  15.078  69.276  1.00  0.00    -0.315 A  
HETATM    5  C   UNL     1     -11.213  14.329  68.277  1.00  0.00    -0.298 A  
ENDROOT
BRANCH   4   6
HETATM    6  C   UNL     1     -12.807  14.587  70.336  1.00  0.00    -0.315 C  
HETATM    7  C   UNL     1     -12.320  14.418  71.761  1.00  0.00    -0.390 C  
HETATM    8  C   UNL     1     -13.220  15.556  71.425  1.00  0.00    -0.587 C  
ENDBRANCH   4   6
BRANCH   5   9
HETATM    9  C   UNL     1     -11.431  12.913  68.009  1.00  0.00    -0.319 C  
HETATM   10  O   UNL     1     -12.124  12.560  67.065  1.00  0.00    -0.521 OA 
BRANCH   9  11
HETATM   11  C   UNL     1     -10.917  11.842  68.922  1.00  0.00    -0.285 A  
HETATM   12  C   UNL     1      -9.702  11.156  68.694  1.00  0.00    -0.198 A  
HETATM   13  C   UNL     1      -9.338  10.067  69.507  1.00  0.00    -0.247 A  
HETATM   14  C   UNL     1     -11.753  11.381  69.956  1.00  0.00    -0.416 A  
HETATM   15  C   UNL     1     -10.181   9.615  70.532  1.00  0.00    -0.351 A  
HETATM   16  F   UNL     1      -8.597   7.883  71.038  1.00  0.00    -0.121 F  
HETATM   17  F   UNL     1      -9.760   8.679  72.693  1.00  0.00    -0.342 F  
HETATM   18  F   UNL     1     -10.706   7.388  71.218  1.00  0.00    -0.219 F  
HETATM   19  C   UNL     1      -9.813   8.403  71.363  1.00  0.00    -0.197 C  
HETATM   20  C   UNL     1     -11.387  10.287  70.753  1.00  0.00    -0.421 A  
BRANCH  12  21
HETATM   21  S   UNL     1      -8.576  11.681  67.406  1.00  0.00    -0.156 S  
HETATM   22  C   UNL     1      -7.224  10.539  67.365  1.00  0.00    -0.092 C  
HETATM   23  O   UNL     1      -9.250  11.492  66.136  1.00  0.00    -0.211 OA 
HETATM   24  O   UNL     1      -8.038  12.953  67.849  1.00  0.00    -0.135 OA 
ENDBRANCH  12  21
ENDBRANCH   9  11
ENDBRANCH   5   9
TORSDOF 4
ENDMDL
MODEL       41
REMARK 921   NORMALIZED FREE ENERGY PREDICTED BY IDOCK:   -5.85 KCAL/MOL
REMARK 922        TOTAL FREE ENERGY PREDICTED BY IDOCK:   -7.74 KCAL/MOL
REMARK 923 INTER-LIGAND FREE ENERGY PREDICTED BY IDOCK:   -7.35 KCAL/MOL
REMARK 924 INTRA-LIGAND FREE ENERGY PREDICTED BY IDOCK:   -0.39 KCAL/MOL
REMARK 927      BINDING AFFINITY PREDICTED BY RF-SCORE:    0.00 PKD
ROOT
HETATM    1  C   UNL     1     -11.683  15.539  64.915  1.00  0.00    -0.118 A  
HETATM    2  N   UNL     1     -11.547  16.480  63.981  1.00  0.00    -1.124 NA 
HETATM    3  O   UNL     1     -10.975  17.556  64.630  1.00  0.00    -0.892 OA 
HETATM    4  C   UNL     1     -10.749  17.239  65.937  1.00  0.00    -0.126 A  
HETATM    5  C   UNL     1     -11.185  15.942  66.178  1.00  0.00     0.091 A  
ENDROOT
BRANCH   4   6
HETATM    6  C   UNL     1     -10.099  18.201  66.929  1.00  0.00    -0.362 C  
HETATM    7  C   UNL     1      -9.191  19.293  66.399  1.00  0.00    -0.386 C  
HETATM    8  C   UNL     1     -10.543  19.649  66.910  1.00  0.00    -0.603 C  
ENDBRANCH   4   6
BRANCH   5   9
HETATM    9  C   UNL     1     -11.151  15.248  67.459  1.00  0.00    -0.324 C  
HETATM   10  O   UNL     1     -11.333  15.861  68.502  1.00  0.00    -0.343 OA 
BRANCH   9  11
HETATM   11  C   UNL     1     -10.790  13.798  67.570  1.00  0.00    -0.274 A  
HETATM   12  C   UNL     1      -9.458  13.346  67.708  1.00  0.00    -0.210 A  
HETATM   13  C   UNL     1      -9.167  11.970  67.669  1.00  0.00    -0.182 A  
HETATM   14  C   UNL     1     -11.796  12.836  67.360  1.00  0.00    -0.404 A  
HETATM   15  C   UNL     1     -10.178  11.022  67.457  1.00  0.00    -0.219 A  
HETATM   16  F   UNL     1      -8.529   9.279  67.543  1.00  0.00    -0.113 F  
HETATM   17  F   UNL     1     -10.521   8.797  68.266  1.00  0.00    -0.225 F  
HETATM   18  F   UNL     1     -10.164   9.034  66.133  1.00  0.00    -0.359 F  
HETATM   19  C   UNL     1      -9.851   9.546  67.352  1.00  0.00    -0.170 C  
HETATM   20  C   UNL     1     -11.495  11.468  67.310  1.00  0.00    -0.338 A  
BRANCH  12  21
HETATM   21  S   UNL     1      -8.118  14.500  67.986  1.00  0.00    -0.152 S  
HETATM   22  C   UNL     1      -6.615  13.572  68.099  1.00  0.00    -0.121 C  
HETATM   23  O   UNL     1      -7.969  15.290  66.780  1.00  0.00    -0.200 OA 
HETATM   24  O   UNL     1      -8.359  15.072  69.298  1.00  0.00    -0.195 OA 
ENDBRANCH  12  21
ENDBRANCH   9  11
ENDBRANCH   5   9
TORSDOF 4
ENDMDL
MODEL       42
REMARK 921   NORMALIZED FREE ENERGY PREDICTED BY IDOCK:   -5.85 KCAL/MOL
REMARK 922        TOTAL FREE ENERGY PREDICTED BY IDOCK:   -7.74 KCAL/MOL
REMARK 923 INTER-LIGAND FREE ENERGY PREDICTED BY IDOCK:   -7.74 KCAL/MOL
REMARK 924 INTRA-LIGAND FREE ENERGY PREDICTED BY IDOCK:   -0.00 KCAL/MOL
REMARK 927      BINDING AFFINITY PREDICTED BY RF-SCORE:    0.00 PKD
ROOT
HETATM    1  C   UNL     1      -8.510  10.447  64.850  1.00  0.00    -0.175 A  
HETATM    2  N   UNL     1      -8.889   9.994  63.655  1.00  0.00    -0.211 NA 
HETATM    3  O   UNL     1     -10.131  10.554  63.432  1.00  0.00    -0.271 OA 
HETATM    4  C   UNL     1     -10.470  11.357  64.481  1.00  0.00    -0.322 A  
HETATM    5  C   UNL     1      -9.455  11.328  65.429  1.00  0.00    -0.251 A  
ENDROOT
BRANCH   4   6
HETATM    6  C   UNL     1     -11.774  12.150  64.538  1.00  0.00    -0.410 C  
HETATM    7  C   UNL     1     -11.973  13.298  63.568  1.00  0.00    -0.537 C  
HETATM    8  C   UNL     1     -12.730  12.032  63.369  1.00  0.00    -0.527 C  
ENDBRANCH   4   6
BRANCH   5   9
HETATM    9  C   UNL     1      -9.454  12.025  66.709  1.00  0.00    -0.208 C  
HETATM   10  O   UNL     1      -8.591  12.853  66.964  1.00  0.00    -0.200 OA 
BRANCH   9  11
HETATM   11  C   UNL     1     -10.428  11.691  67.798  1.00  0.00    -0.213 A  
HETATM   12  C   UNL     1     -11.034  12.673  68.614  1.00  0.00    -0.256 A  
HETATM   13  C   UNL     1     -11.833  12.294  69.709  1.00  0.00    -0.388 A  
HETATM   14  C   UNL     1     -10.623  10.338  68.136  1.00  0.00    -0.258 A  
HETATM   15  C   UNL     1     -12.017  10.942  70.036  1.00  0.00    -0.429 A  
HETATM   16  F   UNL     1     -13.367  11.605  71.907  1.00  0.00    -0.532 F  
HETATM   17  F   UNL     1     -13.865   9.723  70.941  1.00  0.00    -0.400 F  
HETATM   18  F   UNL     1     -12.078   9.876  72.173  1.00  0.00    -0.415 F  
HETATM   19  C   UNL     1     -12.825  10.541  71.253  1.00  0.00    -0.431 C  
HETATM   20  C   UNL     1     -11.410   9.970  69.235  1.00  0.00    -0.169 A  
BRANCH  12  21
HETATM   21  S   UNL     1     -10.846  14.416  68.252  1.00  0.00    -0.249 S  
HETATM   22  C   UNL     1     -11.906  15.318  69.346  1.00  0.00    -0.343 C  
HETATM   23  O   UNL     1      -9.504  14.799  68.647  1.00  0.00    -0.203 OA 
HETATM   24  O   UNL     1     -11.373  14.597  66.912  1.00  0.00    -0.337 OA 
ENDBRANCH  12  21
ENDBRANCH   9  11
ENDBRANCH   5   9
TORSDOF 4
ENDMDL
MODEL       43
REMARK 921   NORMALIZED FREE ENERGY PREDICTED BY IDOCK:   -5.85 KCAL/MOL
REMARK 922        TOTAL FREE ENERGY PREDICTED BY IDOCK:   -7.73 KCAL/MOL
REMARK 923 INTER-LIGAND FREE ENERGY PREDICTED BY IDOCK:   -7.50 KCAL/MOL
REMARK 924 INTRA-LIGAND FREE ENERGY PREDICTED BY IDOCK:   -0.23 KCAL/MOL
REMARK 927      BINDING AFFINITY PREDICTED BY RF-SCORE:    0.00 PKD
ROOT
HETATM    1  C   UNL     1     -11.168  16.268  64.677  1.00  0.00    -0.254 A  
HETATM    2  N   UNL     1     -12.231  16.086  63.892  1.00  0.00    -0.803 NA 
HETATM    3  O   UNL     1     -12.428  14.720  63.860  1.00  0.00    -0.811 OA 
HETATM    4  C   UNL     1     -11.501  14.101  64.647  1.00  0.00    -0.387 A  
HETATM    5  C   UNL     1     -10.660  15.057  65.204  1.00  0.00    -0.440 A  
ENDROOT
BRANCH   4   6
HETATM    6  C   UNL     1     -11.457  12.589  64.853  1.00  0.00    -0.367 C  
HETATM    7  C   UNL     1     -12.263  11.701  63.925  1.00  0.00    -0.274 C  
HETATM    8  C   UNL     1     -10.780  11.746  63.792  1.00  0.00    -0.480 C  
ENDBRANCH   4   6
BRANCH   5   9
HETATM    9  C   UNL     1      -9.521  14.796  66.074  1.00  0.00    -0.264 C  
HETATM   10  O   UNL     1      -9.110  13.654  66.233  1.00  0.00    -0.128 OA 
BRANCH   9  11
HETATM   11  C   UNL     1      -8.876  15.876  66.887  1.00  0.00    -0.264 A  
HETATM   12  C   UNL     1      -9.403  16.331  68.117  1.00  0.00    -0.210 A  
HETATM   13  C   UNL     1      -8.832  17.441  68.768  1.00  0.00    -0.220 A  
HETATM   14  C   UNL     1      -7.795  16.585  66.328  1.00  0.00    -0.266 A  
HETATM   15  C   UNL     1      -7.758  18.139  68.199  1.00  0.00    -0.280 A  
HETATM   16  F   UNL     1      -7.787  19.652  70.064  1.00  0.00    -0.065 F  
HETATM   17  F   UNL     1      -5.861  19.254  69.138  1.00  0.00    -0.217 F  
HETATM   18  F   UNL     1      -7.330  20.488  68.111  1.00  0.00    -0.310 F  
HETATM   19  C   UNL     1      -7.188  19.372  68.873  1.00  0.00    -0.362 C  
HETATM   20  C   UNL     1      -7.241  17.696  66.978  1.00  0.00    -0.212 A  
BRANCH  12  21
HETATM   21  S   UNL     1     -10.770  15.484  68.903  1.00  0.00    -0.257 S  
HETATM   22  C   UNL     1     -11.002  16.195  70.507  1.00  0.00    -0.269 C  
HETATM   23  O   UNL     1     -11.973  15.832  68.173  1.00  0.00    -0.164 OA 
HETATM   24  O   UNL     1     -10.320  14.120  69.109  1.00  0.00    -0.195 OA 
ENDBRANCH  12  21
ENDBRANCH   9  11
ENDBRANCH   5   9
TORSDOF 4
ENDMDL
MODEL       44
REMARK 921   NORMALIZED FREE ENERGY PREDICTED BY IDOCK:   -5.83 KCAL/MOL
REMARK 922        TOTAL FREE ENERGY PREDICTED BY IDOCK:   -7.71 KCAL/MOL
REMARK 923 INTER-LIGAND FREE ENERGY PREDICTED BY IDOCK:   -7.30 KCAL/MOL
REMARK 924 INTRA-LIGAND FREE ENERGY PREDICTED BY IDOCK:   -0.41 KCAL/MOL
REMARK 927      BINDING AFFINITY PREDICTED BY RF-SCORE:    0.00 PKD
ROOT
HETATM    1  C   UNL     1      -8.289  10.135  69.228  1.00  0.00    -0.158 A  
HETATM    2  N   UNL     1      -7.440   9.253  69.756  1.00  0.00    -0.067 NA 
HETATM    3  O   UNL     1      -8.206   8.143  70.050  1.00  0.00    -0.115 OA 
HETATM    4  C   UNL     1      -9.498   8.360  69.670  1.00  0.00    -0.166 A  
HETATM    5  C   UNL     1      -9.610   9.634  69.127  1.00  0.00    -0.176 A  
ENDROOT
BRANCH   4   6
HETATM    6  C   UNL     1     -10.602   7.317  69.830  1.00  0.00    -0.247 C  
HETATM    7  C   UNL     1     -10.973   6.458  68.637  1.00  0.00    -0.404 C  
HETATM    8  C   UNL     1     -10.213   5.855  69.766  1.00  0.00    -0.281 C  
ENDBRANCH   4   6
BRANCH   5   9
HETATM    9  C   UNL     1     -10.834  10.255  68.637  1.00  0.00    -0.234 C  
HETATM   10  O   UNL     1     -11.283   9.958  67.538  1.00  0.00    -0.196 OA 
BRANCH   9  11
HETATM   11  C   UNL     1     -11.530  11.346  69.391  1.00  0.00    -0.378 A  
HETATM   12  C   UNL     1     -11.610  12.676  68.920  1.00  0.00    -0.317 A  
HETATM   13  C   UNL     1     -12.155  13.687  69.734  1.00  0.00    -0.396 A  
HETATM   14  C   UNL     1     -11.981  11.079  70.698  1.00  0.00    -0.464 A  
HETATM   15  C   UNL     1     -12.598  13.408  71.035  1.00  0.00    -0.425 A  
HETATM   16  F   UNL     1     -13.167  15.724  71.311  1.00  0.00    -0.500 F  
HETATM   17  F   UNL     1     -14.390  14.269  72.365  1.00  0.00    -0.539 F  
HETATM   18  F   UNL     1     -12.364  14.683  73.042  1.00  0.00    -0.402 F  
HETATM   19  C   UNL     1     -13.126  14.511  71.929  1.00  0.00    -0.350 C  
HETATM   20  C   UNL     1     -12.512  12.094  71.505  1.00  0.00    -0.144 A  
BRANCH  12  21
HETATM   21  S   UNL     1     -11.068  13.103  67.269  1.00  0.00    -0.289 S  
HETATM   22  C   UNL     1     -11.004  14.868  67.155  1.00  0.00    -0.323 C  
HETATM   23  O   UNL     1      -9.687  12.680  67.142  1.00  0.00    -0.203 OA 
HETATM   24  O   UNL     1     -12.128  12.662  66.382  1.00  0.00    -0.530 OA 
ENDBRANCH  12  21
ENDBRANCH   9  11
ENDBRANCH   5   9
TORSDOF 4
ENDMDL
MODEL       45
REMARK 921   NORMALIZED FREE ENERGY PREDICTED BY IDOCK:   -5.81 KCAL/MOL
REMARK 922        TOTAL FREE ENERGY PREDICTED BY IDOCK:   -7.69 KCAL/MOL
REMARK 923 INTER-LIGAND FREE ENERGY PREDICTED BY IDOCK:   -7.29 KCAL/MOL
REMARK 924 INTRA-LIGAND FREE ENERGY PREDICTED BY IDOCK:   -0.40 KCAL/MOL
REMARK 927      BINDING AFFINITY PREDICTED BY RF-SCORE:    0.00 PKD
ROOT
HETATM    1  C   UNL     1     -10.075  12.134  67.714  1.00  0.00    -0.199 A  
HETATM    2  N   UNL     1      -9.365  11.114  67.233  1.00  0.00    -0.160 NA 
HETATM    3  O   UNL     1      -9.452  11.228  65.859  1.00  0.00    -0.208 OA 
HETATM    4  C   UNL     1     -10.189  12.329  65.534  1.00  0.00    -0.269 A  
HETATM    5  C   UNL     1     -10.616  12.957  66.697  1.00  0.00    -0.273 A  
ENDROOT
BRANCH   4   6
HETATM    6  C   UNL     1     -10.455  12.760  64.093  1.00  0.00    -0.437 C  
HETATM    7  C   UNL     1     -10.630  11.691  63.032  1.00  0.00    -0.224 C  
HETATM    8  C   UNL     1     -11.816  12.460  63.501  1.00  0.00    -0.605 C  
ENDBRANCH   4   6
BRANCH   5   9
HETATM    9  C   UNL     1     -11.456  14.145  66.774  1.00  0.00    -0.369 C  
HETATM   10  O   UNL     1     -12.641  14.088  66.475  1.00  0.00    -0.393 OA 
BRANCH   9  11
HETATM   11  C   UNL     1     -10.899  15.494  67.111  1.00  0.00    -0.316 A  
HETATM   12  C   UNL     1     -11.037  16.086  68.387  1.00  0.00    -0.351 A  
HETATM   13  C   UNL     1     -10.614  17.410  68.607  1.00  0.00    -0.318 A  
HETATM   14  C   UNL     1     -10.361  16.280  66.073  1.00  0.00    -0.363 A  
HETATM   15  C   UNL     1     -10.083  18.182  67.564  1.00  0.00    -0.358 A  
HETATM   16  F   UNL     1      -9.853  20.029  69.081  1.00  0.00    -0.414 F  
HETATM   17  F   UNL     1      -8.385  19.866  67.486  1.00  0.00    -0.320 F  
HETATM   18  F   UNL     1     -10.422  20.487  67.034  1.00  0.00    -0.501 F  
HETATM   19  C   UNL     1      -9.688  19.628  67.790  1.00  0.00    -0.371 C  
HETATM   20  C   UNL     1      -9.954  17.602  66.299  1.00  0.00    -0.324 A  
BRANCH  12  21
HETATM   21  S   UNL     1     -11.703  15.157  69.765  1.00  0.00    -0.342 S  
HETATM   22  C   UNL     1     -11.436  16.102  71.239  1.00  0.00    -0.375 C  
HETATM   23  O   UNL     1     -13.144  15.124  69.610  1.00  0.00     0.208 OA 
HETATM   24  O   UNL     1     -10.878  13.969  69.873  1.00  0.00    -0.004 OA 
ENDBRANCH  12  21
ENDBRANCH   9  11
ENDBRANCH   5   9
TORSDOF 4
ENDMDL
MODEL       46
REMARK 921   NORMALIZED FREE ENERGY PREDICTED BY IDOCK:   -5.79 KCAL/MOL
REMARK 922        TOTAL FREE ENERGY PREDICTED BY IDOCK:   -7.67 KCAL/MOL
REMARK 923 INTER-LIGAND FREE ENERGY PREDICTED BY IDOCK:   -7.23 KCAL/MOL
REMARK 924 INTRA-LIGAND FREE ENERGY PREDICTED BY IDOCK:   -0.44 KCAL/MOL
REMARK 927      BINDING AFFINITY PREDICTED BY RF-SCORE:    0.00 PKD
ROOT
HETATM    1  C   UNL     1      -6.995  16.324  66.584  1.00  0.00    -0.021 A  
HETATM    2  N   UNL     1      -5.732  16.749  66.534  1.00  0.00    -0.330 NA 
HETATM    3  O   UNL     1      -5.815  18.125  66.458  1.00  0.00    -0.140 OA 
HETATM    4  C   UNL     1      -7.123  18.511  66.492  1.00  0.00    -0.218 A  
HETATM    5  C   UNL     1      -7.933  17.384  66.577  1.00  0.00    -0.317 A  
ENDROOT
BRANCH   4   6
HETATM    6  C   UNL     1      -7.564  19.973  66.454  1.00  0.00    -0.320 C  
HETATM    7  C   UNL     1      -7.328  20.838  67.676  1.00  0.00    -0.304 C  
HETATM    8  C   UNL     1      -6.489  21.040  66.462  1.00  0.00    -0.334 C  
ENDBRANCH   4   6
BRANCH   5   9
HETATM    9  C   UNL     1      -9.390  17.374  66.600  1.00  0.00    -0.265 C  
HETATM   10  O   UNL     1     -10.028  18.033  65.791  1.00  0.00    -0.550 OA 
BRANCH   9  11
HETATM   11  C   UNL     1     -10.164  16.655  67.662  1.00  0.00    -0.285 A  
HETATM   12  C   UNL     1     -10.910  15.481  67.408  1.00  0.00    -0.312 A  
HETATM   13  C   UNL     1     -11.728  14.927  68.410  1.00  0.00    -0.336 A  
HETATM   14  C   UNL     1     -10.293  17.259  68.927  1.00  0.00    -0.352 A  
HETATM   15  C   UNL     1     -11.850  15.541  69.665  1.00  0.00    -0.384 A  
HETATM   16  F   UNL     1     -13.395  13.826  70.326  1.00  0.00    -0.093 F  
HETATM   17  F   UNL     1     -12.136  14.679  71.879  1.00  0.00    -0.361 F  
HETATM   18  F   UNL     1     -13.776  15.841  71.046  1.00  0.00    -0.539 F  
HETATM   19  C   UNL     1     -12.780  14.976  70.720  1.00  0.00    -0.381 C  
HETATM   20  C   UNL     1     -11.119  16.707  69.916  1.00  0.00    -0.125 A  
BRANCH  12  21
HETATM   21  S   UNL     1     -10.799  14.643  65.830  1.00  0.00    -0.324 S  
HETATM   22  C   UNL     1     -11.843  13.215  65.897  1.00  0.00    -0.406 C  
HETATM   23  O   UNL     1     -11.417  15.501  64.838  1.00  0.00    -0.348 OA 
HETATM   24  O   UNL     1      -9.434  14.161  65.738  1.00  0.00    -0.181 OA 
ENDBRANCH  12  21
ENDBRANCH   9  11
ENDBRANCH   5   9
TORSDOF 4
ENDMDL
MODEL       47
REMARK 921   NORMALIZED FREE ENERGY PREDICTED BY IDOCK:   -5.79 KCAL/MOL
REMARK 922        TOTAL FREE ENERGY PREDICTED BY IDOCK:   -7.66 KCAL/MOL
REMARK 923 INTER-LIGAND FREE ENERGY PREDICTED BY IDOCK:   -7.26 KCAL/MOL
REMARK 924 INTRA-LIGAND FREE ENERGY PREDICTED BY IDOCK:   -0.41 KCAL/MOL
REMARK 927      BINDING AFFINITY PREDICTED BY RF-SCORE:    0.00 PKD
ROOT
HETATM    1  C   UNL     1     -12.266  12.719  65.914  1.00  0.00    -0.359 A  
HETATM    2  N   UNL     1     -12.856  13.547  65.053  1.00  0.00    -0.727 NA 
HETATM    3  O   UNL     1     -12.292  14.784  65.294  1.00  0.00    -0.253 OA 
HETATM    4  C   UNL     1     -11.352  14.679  66.276  1.00  0.00    -0.347 A  
HETATM    5  C   UNL     1     -11.289  13.361  66.713  1.00  0.00    -0.353 A  
ENDROOT
BRANCH   4   6
HETATM    6  C   UNL     1     -10.519  15.862  66.765  1.00  0.00    -0.309 C  
HETATM    7  C   UNL     1      -9.276  16.250  65.989  1.00  0.00    -0.351 C  
HETATM    8  C   UNL     1     -10.488  17.112  65.910  1.00  0.00    -0.265 C  
ENDBRANCH   4   6
BRANCH   5   9
HETATM    9  C   UNL     1     -10.434  12.849  67.776  1.00  0.00    -0.220 C  
HETATM   10  O   UNL     1      -9.249  13.150  67.819  1.00  0.00    -0.186 OA 
BRANCH   9  11
HETATM   11  C   UNL     1     -10.928  11.860  68.788  1.00  0.00    -0.280 A  
HETATM   12  C   UNL     1     -10.674  10.473  68.695  1.00  0.00    -0.215 A  
HETATM   13  C   UNL     1     -11.277   9.577  69.597  1.00  0.00    -0.138 A  
HETATM   14  C   UNL     1     -11.821  12.303  69.782  1.00  0.00    -0.388 A  
HETATM   15  C   UNL     1     -12.167  10.032  70.581  1.00  0.00    -0.360 A  
HETATM   16  F   UNL     1     -12.480   7.765  71.309  1.00  0.00    -0.313 F  
HETATM   17  F   UNL     1     -12.620   9.321  72.820  1.00  0.00    -0.370 F  
HETATM   18  F   UNL     1     -14.213   9.076  71.359  1.00  0.00    -0.419 F  
HETATM   19  C   UNL     1     -12.863   9.057  71.510  1.00  0.00    -0.336 C  
HETATM   20  C   UNL     1     -12.426  11.402  70.669  1.00  0.00    -0.419 A  
BRANCH  12  21
HETATM   21  S   UNL     1      -9.545   9.824  67.466  1.00  0.00    -0.153 S  
HETATM   22  C   UNL     1      -9.570   8.058  67.583  1.00  0.00    -0.151 C  
HETATM   23  O   UNL     1     -10.112  10.110  66.162  1.00  0.00    -0.238 OA 
HETATM   24  O   UNL     1      -8.224  10.255  67.881  1.00  0.00    -0.109 OA 
ENDBRANCH  12  21
ENDBRANCH   9  11
ENDBRANCH   5   9
TORSDOF 4
ENDMDL
MODEL       48
REMARK 921   NORMALIZED FREE ENERGY PREDICTED BY IDOCK:   -5.79 KCAL/MOL
REMARK 922        TOTAL FREE ENERGY PREDICTED BY IDOCK:   -7.66 KCAL/MOL
REMARK 923 INTER-LIGAND FREE ENERGY PREDICTED BY IDOCK:   -7.15 KCAL/MOL
REMARK 924 INTRA-LIGAND FREE ENERGY PREDICTED BY IDOCK:   -0.51 KCAL/MOL
REMARK 927      BINDING AFFINITY PREDICTED BY RF-SCORE:    0.00 PKD
ROOT
HETATM    1  C   UNL     1      -8.287  15.204  67.035  1.00  0.00    -0.231 A  
HETATM    2  N   UNL     1      -6.966  15.118  67.196  1.00  0.00    -0.238 NA 
HETATM    3  O   UNL     1      -6.705  13.769  67.333  1.00  0.00    -0.220 OA 
HETATM    4  C   UNL     1      -7.866  13.061  67.226  1.00  0.00    -0.127 A  
HETATM    5  C   UNL     1      -8.924  13.940  67.028  1.00  0.00    -0.251 A  
ENDROOT
BRANCH   4   6
HETATM    6  C   UNL     1      -7.925  11.537  67.304  1.00  0.00    -0.153 C  
HETATM    7  C   UNL     1      -8.056  10.744  66.019  1.00  0.00    -0.158 C  
HETATM    8  C   UNL     1      -6.757  10.751  66.747  1.00  0.00    -0.110 C  
ENDBRANCH   4   6
BRANCH   5   9
HETATM    9  C   UNL     1     -10.330  13.578  66.901  1.00  0.00    -0.265 C  
HETATM   10  O   UNL     1     -10.979  13.942  65.930  1.00  0.00    -0.283 OA 
BRANCH   9  11
HETATM   11  C   UNL     1     -11.065  12.848  67.983  1.00  0.00    -0.283 A  
HETATM   12  C   UNL     1     -11.457  13.462  69.195  1.00  0.00    -0.300 A  
HETATM   13  C   UNL     1     -12.021  12.695  70.230  1.00  0.00    -0.363 A  
HETATM   14  C   UNL     1     -11.227  11.454  67.866  1.00  0.00    -0.352 A  
HETATM   15  C   UNL     1     -12.175  11.307  70.101  1.00  0.00    -0.410 A  
HETATM   16  F   UNL     1     -13.084  11.226  72.322  1.00  0.00    -0.579 F  
HETATM   17  F   UNL     1     -13.831   9.771  70.890  1.00  0.00    -0.400 F  
HETATM   18  F   UNL     1     -11.822   9.569  71.702  1.00  0.00    -0.388 F  
HETATM   19  C   UNL     1     -12.724  10.476  71.243  1.00  0.00    -0.428 C  
HETATM   20  C   UNL     1     -11.779  10.697  68.907  1.00  0.00    -0.282 A  
BRANCH  12  21
HETATM   21  S   UNL     1     -11.294  15.229  69.426  1.00  0.00    -0.319 S  
HETATM   22  C   UNL     1     -12.395  15.713  70.725  1.00  0.00    -0.419 C  
HETATM   23  O   UNL     1      -9.969  15.477  69.961  1.00  0.00    -0.290 OA 
HETATM   24  O   UNL     1     -11.794  15.832  68.205  1.00  0.00    -0.301 OA 
ENDBRANCH  12  21
ENDBRANCH   9  11
ENDBRANCH   5   9
TORSDOF 4
ENDMDL
MODEL       49
REMARK 921   NORMALIZED FREE ENERGY PREDICTED BY IDOCK:   -5.76 KCAL/MOL
REMARK 922        TOTAL FREE ENERGY PREDICTED BY IDOCK:   -7.63 KCAL/MOL
REMARK 923 INTER-LIGAND FREE ENERGY PREDICTED BY IDOCK:   -7.07 KCAL/MOL
REMARK 924 INTRA-LIGAND FREE ENERGY PREDICTED BY IDOCK:   -0.56 KCAL/MOL
REMARK 927      BINDING AFFINITY PREDICTED BY RF-SCORE:    0.00 PKD
ROOT
HETATM    1  C   UNL     1      -9.380  10.657  65.681  1.00  0.00    -0.201 A  
HETATM    2  N   UNL     1      -9.915  10.669  64.460  1.00  0.00    -0.322 NA 
HETATM    3  O   UNL     1     -10.997  11.524  64.547  1.00  0.00    -0.321 OA 
HETATM    4  C   UNL     1     -11.081  12.035  65.808  1.00  0.00    -0.324 A  
HETATM    5  C   UNL     1     -10.056  11.510  66.587  1.00  0.00    -0.242 A  
ENDROOT
BRANCH   4   6
HETATM    6  C   UNL     1     -12.152  13.037  66.234  1.00  0.00    -0.453 C  
HETATM    7  C   UNL     1     -11.749  14.480  66.466  1.00  0.00    -0.380 C  
HETATM    8  C   UNL     1     -12.536  14.125  65.253  1.00  0.00    -0.460 C  
ENDBRANCH   4   6
BRANCH   5   9
HETATM    9  C   UNL     1      -9.825  11.781  68.000  1.00  0.00    -0.183 C  
HETATM   10  O   UNL     1      -8.936  12.547  68.347  1.00  0.00    -0.189 OA 
BRANCH   9  11
HETATM   11  C   UNL     1     -10.577  11.067  69.081  1.00  0.00    -0.253 A  
HETATM   12  C   UNL     1     -10.147   9.840  69.635  1.00  0.00    -0.229 A  
HETATM   13  C   UNL     1     -10.963   9.147  70.548  1.00  0.00    -0.307 A  
HETATM   14  C   UNL     1     -11.849  11.548  69.446  1.00  0.00    -0.417 A  
HETATM   15  C   UNL     1     -12.229   9.636  70.902  1.00  0.00    -0.368 A  
HETATM   16  F   UNL     1     -12.551   7.715  72.306  1.00  0.00    -0.298 F  
HETATM   17  F   UNL     1     -13.491   9.571  72.933  1.00  0.00    -0.400 F  
HETATM   18  F   UNL     1     -14.287   8.468  71.235  1.00  0.00    -0.441 F  
HETATM   19  C   UNL     1     -13.131   8.855  71.836  1.00  0.00    -0.386 C  
HETATM   20  C   UNL     1     -12.660  10.845  70.348  1.00  0.00    -0.376 A  
BRANCH  12  21
HETATM   21  S   UNL     1      -8.541   9.160  69.232  1.00  0.00    -0.142 S  
HETATM   22  C   UNL     1      -8.280   7.737  70.251  1.00  0.00    -0.125 C  
HETATM   23  O   UNL     1      -8.619   8.633  67.883  1.00  0.00    -0.135 OA 
HETATM   24  O   UNL     1      -7.576  10.159  69.650  1.00  0.00    -0.123 OA 
ENDBRANCH  12  21
ENDBRANCH   9  11
ENDBRANCH   5   9
TORSDOF 4
ENDMDL
MODEL       50
REMARK 921   NORMALIZED FREE ENERGY PREDICTED BY IDOCK:   -5.73 KCAL/MOL
REMARK 922        TOTAL FREE ENERGY PREDICTED BY IDOCK:   -7.59 KCAL/MOL
REMARK 923 INTER-LIGAND FREE ENERGY PREDICTED BY IDOCK:   -6.95 KCAL/MOL
REMARK 924 INTRA-LIGAND FREE ENERGY PREDICTED BY IDOCK:   -0.63 KCAL/MOL
REMARK 927      BINDING AFFINITY PREDICTED BY RF-SCORE:    0.00 PKD
ROOT
HETATM    1  C   UNL     1      -8.602  14.228  67.179  1.00  0.00    -0.216 A  
HETATM    2  N   UNL     1      -8.664  15.428  66.603  1.00  0.00    -0.278 NA 
HETATM    3  O   UNL     1      -9.560  15.285  65.561  1.00  0.00    -0.317 OA 
HETATM    4  C   UNL     1     -10.044  14.010  65.541  1.00  0.00    -0.320 A  
HETATM    5  C   UNL     1      -9.460  13.280  66.570  1.00  0.00    -0.251 A  
ENDROOT
BRANCH   4   6
HETATM    6  C   UNL     1     -11.078  13.524  64.528  1.00  0.00    -0.394 C  
HETATM    7  C   UNL     1     -12.475  13.190  65.013  1.00  0.00    -0.516 C  
HETATM    8  C   UNL     1     -12.252  14.431  64.221  1.00  0.00    -0.450 C  
ENDBRANCH   4   6
BRANCH   5   9
HETATM    9  C   UNL     1      -9.688  11.871  66.861  1.00  0.00    -0.200 C  
HETATM   10  O   UNL     1      -9.460  11.017  66.015  1.00  0.00    -0.192 OA 
BRANCH   9  11
HETATM   11  C   UNL     1     -10.305  11.413  68.147  1.00  0.00    -0.206 A  
HETATM   12  C   UNL     1      -9.630  10.582  69.070  1.00  0.00    -0.202 A  
HETATM   13  C   UNL     1     -10.306  10.072  70.194  1.00  0.00    -0.321 A  
HETATM   14  C   UNL     1     -11.669  11.679  68.372  1.00  0.00    -0.374 A  
HETATM   15  C   UNL     1     -11.665  10.343  70.405  1.00  0.00    -0.419 A  
HETATM   16  F   UNL     1     -11.600   8.994  72.391  1.00  0.00    -0.415 F  
HETATM   17  F   UNL     1     -12.971  10.681  72.381  1.00  0.00    -0.491 F  
HETATM   18  F   UNL     1     -13.411   8.914  71.191  1.00  0.00    -0.316 F  
HETATM   19  C   UNL     1     -12.405   9.739  71.582  1.00  0.00    -0.408 C  
HETATM   20  C   UNL     1     -12.337  11.157  69.488  1.00  0.00    -0.262 A  
BRANCH  12  21
HETATM   21  S   UNL     1      -7.893  10.199  68.866  1.00  0.00    -0.109 S  
HETATM   22  C   UNL     1      -7.355   9.325  70.308  1.00  0.00    -0.100 C  
HETATM   23  O   UNL     1      -7.786   9.231  67.791  1.00  0.00    -0.092 OA 
HETATM   24  O   UNL     1      -7.207  11.477  68.868  1.00  0.00    -0.105 OA 
ENDBRANCH  12  21
ENDBRANCH   9  11
ENDBRANCH   5   9
TORSDOF 4
ENDMDL
MODEL       51
REMARK 921   NORMALIZED FREE ENERGY PREDICTED BY IDOCK:   -5.65 KCAL/MOL
REMARK 922        TOTAL FREE ENERGY PREDICTED BY IDOCK:   -7.50 KCAL/MOL
REMARK 923 INTER-LIGAND FREE ENERGY PREDICTED BY IDOCK:   -7.05 KCAL/MOL
REMARK 924 INTRA-LIGAND FREE ENERGY PREDICTED BY IDOCK:   -0.44 KCAL/MOL
REMARK 927      BINDING AFFINITY PREDICTED BY RF-SCORE:    0.00 PKD
ROOT
HETATM    1  C   UNL     1     -11.712  12.636  69.696  1.00  0.00    -0.303 A  
HETATM    2  N   UNL     1     -12.367  11.580  70.181  1.00  0.00    -0.271 NA 
HETATM    3  O   UNL     1     -11.764  10.482  69.599  1.00  0.00    -0.258 OA 
HETATM    4  C   UNL     1     -10.740  10.889  68.797  1.00  0.00    -0.207 A  
HETATM    5  C   UNL     1     -10.657  12.276  68.824  1.00  0.00    -0.223 A  
ENDROOT
BRANCH   4   6
HETATM    6  C   UNL     1      -9.848   9.919  68.025  1.00  0.00    -0.170 C  
HETATM    7  C   UNL     1     -10.464   8.656  67.456  1.00  0.00    -0.335 C  
HETATM    8  C   UNL     1     -10.086   9.765  66.537  1.00  0.00    -0.307 C  
ENDBRANCH   4   6
BRANCH   5   9
HETATM    9  C   UNL     1      -9.716  13.095  68.071  1.00  0.00    -0.224 C  
HETATM   10  O   UNL     1      -8.583  12.691  67.846  1.00  0.00    -0.160 OA 
BRANCH   9  11
HETATM   11  C   UNL     1     -10.046  14.490  67.636  1.00  0.00    -0.228 A  
HETATM   12  C   UNL     1     -10.666  14.783  66.400  1.00  0.00    -0.313 A  
HETATM   13  C   UNL     1     -10.826  16.118  65.984  1.00  0.00    -0.155 A  
HETATM   14  C   UNL     1      -9.571  15.567  68.409  1.00  0.00    -0.199 A  
HETATM   15  C   UNL     1     -10.346  17.181  66.762  1.00  0.00    -0.302 A  
HETATM   16  F   UNL     1     -11.117  18.722  65.089  1.00  0.00    -0.368 F  
HETATM   17  F   UNL     1     -11.143  19.403  67.153  1.00  0.00    -0.560 F  
HETATM   18  F   UNL     1      -9.251  19.198  66.097  1.00  0.00    -0.329 F  
HETATM   19  C   UNL     1     -10.464  18.613  66.280  1.00  0.00    -0.424 C  
HETATM   20  C   UNL     1      -9.724  16.893  67.980  1.00  0.00    -0.256 A  
BRANCH  12  21
HETATM   21  S   UNL     1     -11.306  13.477  65.358  1.00  0.00    -0.294 S  
HETATM   22  C   UNL     1     -12.156  14.229  63.999  1.00  0.00    -0.316 C  
HETATM   23  O   UNL     1     -10.171  12.808  64.752  1.00  0.00    -0.305 OA 
HETATM   24  O   UNL     1     -12.309  12.796  66.155  1.00  0.00    -0.542 OA 
ENDBRANCH  12  21
ENDBRANCH   9  11
ENDBRANCH   5   9
TORSDOF 4
ENDMDL
MODEL       52
REMARK 921   NORMALIZED FREE ENERGY PREDICTED BY IDOCK:   -5.64 KCAL/MOL
REMARK 922        TOTAL FREE ENERGY PREDICTED BY IDOCK:   -7.48 KCAL/MOL
REMARK 923 INTER-LIGAND FREE ENERGY PREDICTED BY IDOCK:   -8.07 KCAL/MOL
REMARK 924 INTRA-LIGAND FREE ENERGY PREDICTED BY IDOCK:    0.60 KCAL/MOL
REMARK 927      BINDING AFFINITY PREDICTED BY RF-SCORE:    0.00 PKD
ROOT
HETATM    1  C   UNL     1      -8.918  12.806  67.837  1.00  0.00    -0.186 A  
HETATM    2  N   UNL     1      -8.324  11.702  68.289  1.00  0.00    -0.153 NA 
HETATM    3  O   UNL     1      -9.323  10.981  68.913  1.00  0.00    -0.190 OA 
HETATM    4  C   UNL     1     -10.508  11.648  68.805  1.00  0.00    -0.204 A  
HETATM    5  C   UNL     1     -10.306  12.836  68.113  1.00  0.00    -0.243 A  
ENDROOT
BRANCH   4   6
HETATM    6  C   UNL     1     -11.823  11.110  69.366  1.00  0.00    -0.415 C  
HETATM    7  C   UNL     1     -11.799  10.341  70.672  1.00  0.00    -0.439 C  
HETATM    8  C   UNL     1     -12.353  11.723  70.645  1.00  0.00    -0.421 C  
ENDBRANCH   4   6
BRANCH   5   9
HETATM    9  C   UNL     1     -11.319  13.843  67.822  1.00  0.00    -0.308 C  
HETATM   10  O   UNL     1     -12.436  13.511  67.451  1.00  0.00    -0.186 OA 
BRANCH   9  11
HETATM   11  C   UNL     1     -11.016  15.310  67.858  1.00  0.00    -0.306 A  
HETATM   12  C   UNL     1     -10.772  16.072  66.692  1.00  0.00    -0.247 A  
HETATM   13  C   UNL     1     -10.357  17.413  66.795  1.00  0.00    -0.305 A  
HETATM   14  C   UNL     1     -10.799  15.923  69.106  1.00  0.00    -0.268 A  
HETATM   15  C   UNL     1     -10.143  18.011  68.045  1.00  0.00    -0.370 A  
HETATM   16  F   UNL     1      -9.486  20.037  66.936  1.00  0.00    -0.399 F  
HETATM   17  F   UNL     1     -10.469  20.235  68.864  1.00  0.00    -0.547 F  
HETATM   18  F   UNL     1      -8.421  19.507  68.756  1.00  0.00    -0.376 F  
HETATM   19  C   UNL     1      -9.635  19.435  68.149  1.00  0.00    -0.358 C  
HETATM   20  C   UNL     1     -10.375  17.256  69.198  1.00  0.00    -0.290 A  
BRANCH  12  21
HETATM   21  S   UNL     1     -11.029  15.375  65.064  1.00  0.00    -0.423 S  
HETATM   22  C   UNL     1     -12.629  14.619  65.043  1.00  0.00    -0.155 C  
HETATM   23  O   UNL     1     -11.136  16.480  64.131  1.00  0.00    -0.903 OA 
HETATM   24  O   UNL     1     -10.057  14.306  64.938  1.00  0.00    -0.384 OA 
ENDBRANCH  12  21
ENDBRANCH   9  11
ENDBRANCH   5   9
TORSDOF 4
ENDMDL
MODEL       53
REMARK 921   NORMALIZED FREE ENERGY PREDICTED BY IDOCK:   -5.63 KCAL/MOL
REMARK 922        TOTAL FREE ENERGY PREDICTED BY IDOCK:   -7.47 KCAL/MOL
REMARK 923 INTER-LIGAND FREE ENERGY PREDICTED BY IDOCK:   -8.04 KCAL/MOL
REMARK 924 INTRA-LIGAND FREE ENERGY PREDICTED BY IDOCK:    0.57 KCAL/MOL
REMARK 927      BINDING AFFINITY PREDICTED BY RF-SCORE:    0.00 PKD
ROOT
HETATM    1  C   UNL     1     -12.770  14.374  71.282  1.00  0.00    -0.344 A  
HETATM    2  N   UNL     1     -13.518  13.739  72.184  1.00  0.00    -0.456 NA 
HETATM    3  O   UNL     1     -13.355  12.395  71.910  1.00  0.00    -0.468 OA 
HETATM    4  C   UNL     1     -12.491  12.240  70.867  1.00  0.00    -0.276 A  
HETATM    5  C   UNL     1     -12.077  13.489  70.421  1.00  0.00    -0.415 A  
ENDROOT
BRANCH   4   6
HETATM    6  C   UNL     1     -12.071  10.874  70.327  1.00  0.00    -0.440 C  
HETATM    7  C   UNL     1     -11.365   9.907  71.257  1.00  0.00    -0.404 C  
HETATM    8  C   UNL     1     -12.779   9.648  70.867  1.00  0.00    -0.280 C  
ENDBRANCH   4   6
BRANCH   5   9
HETATM    9  C   UNL     1     -11.181  13.749  69.302  1.00  0.00    -0.242 C  
HETATM   10  O   UNL     1     -10.421  12.879  68.901  1.00  0.00    -0.191 OA 
BRANCH   9  11
HETATM   11  C   UNL     1     -11.071  15.102  68.667  1.00  0.00    -0.276 A  
HETATM   12  C   UNL     1     -11.082  15.297  67.267  1.00  0.00    -0.325 A  
HETATM   13  C   UNL     1     -10.837  16.573  66.726  1.00  0.00    -0.070 A  
HETATM   14  C   UNL     1     -10.776  16.208  69.487  1.00  0.00    -0.313 A  
HETATM   15  C   UNL     1     -10.542  17.666  67.554  1.00  0.00    -0.345 A  
HETATM   16  F   UNL     1     -10.306  19.047  65.604  1.00  0.00    -0.426 F  
HETATM   17  F   UNL     1     -11.048  20.000  67.411  1.00  0.00    -0.441 F  
HETATM   18  F   UNL     1      -8.954  19.427  67.263  1.00  0.00    -0.299 F  
HETATM   19  C   UNL     1     -10.217  19.023  66.963  1.00  0.00    -0.386 C  
HETATM   20  C   UNL     1     -10.522  17.472  68.938  1.00  0.00    -0.286 A  
BRANCH  12  21
HETATM   21  S   UNL     1     -11.455  13.948  66.152  1.00  0.00    -0.358 S  
HETATM   22  C   UNL     1     -11.912  14.643  64.589  1.00  0.00    -0.462 C  
HETATM   23  O   UNL     1     -10.214  13.246  65.890  1.00  0.00    -0.283 OA 
HETATM   24  O   UNL     1     -12.641  13.310  66.691  1.00  0.00    -0.254 OA 
ENDBRANCH  12  21
ENDBRANCH   9  11
ENDBRANCH   5   9
TORSDOF 4
ENDMDL
MODEL       54
REMARK 921   NORMALIZED FREE ENERGY PREDICTED BY IDOCK:   -5.63 KCAL/MOL
REMARK 922        TOTAL FREE ENERGY PREDICTED BY IDOCK:   -7.46 KCAL/MOL
REMARK 923 INTER-LIGAND FREE ENERGY PREDICTED BY IDOCK:   -7.06 KCAL/MOL
REMARK 924 INTRA-LIGAND FREE ENERGY PREDICTED BY IDOCK:   -0.40 KCAL/MOL
REMARK 927      BINDING AFFINITY PREDICTED BY RF-SCORE:    0.00 PKD
ROOT
HETATM    1  C   UNL     1      -6.345  17.883  69.039  1.00  0.00    -0.232 A  
HETATM    2  N   UNL     1      -6.606  18.966  69.771  1.00  0.00    -0.159 NA 
HETATM    3  O   UNL     1      -7.640  19.606  69.115  1.00  0.00    -0.350 OA 
HETATM    4  C   UNL     1      -8.004  18.887  68.016  1.00  0.00    -0.286 A  
HETATM    5  C   UNL     1      -7.200  17.757  67.918  1.00  0.00    -0.210 A  
ENDROOT
BRANCH   4   6
HETATM    6  C   UNL     1      -9.139  19.304  67.082  1.00  0.00    -0.346 C  
HETATM    7  C   UNL     1     -10.403  19.885  67.685  1.00  0.00    -0.557 C  
HETATM    8  C   UNL     1      -9.455  20.781  66.966  1.00  0.00    -0.396 C  
ENDBRANCH   4   6
BRANCH   5   9
HETATM    9  C   UNL     1      -7.252  16.754  66.861  1.00  0.00    -0.223 C  
HETATM   10  O   UNL     1      -6.308  16.610  66.097  1.00  0.00    -0.066 OA 
BRANCH   9  11
HETATM   11  C   UNL     1      -8.482  15.941  66.596  1.00  0.00    -0.322 A  
HETATM   12  C   UNL     1      -8.607  14.588  66.986  1.00  0.00    -0.217 A  
HETATM   13  C   UNL     1      -9.727  13.834  66.589  1.00  0.00    -0.293 A  
HETATM   14  C   UNL     1      -9.488  16.489  65.778  1.00  0.00    -0.149 A  
HETATM   15  C   UNL     1     -10.722  14.392  65.772  1.00  0.00    -0.312 A  
HETATM   16  F   UNL     1     -11.880  12.289  65.790  1.00  0.00    -0.406 F  
HETATM   17  F   UNL     1     -13.092  14.089  65.656  1.00  0.00    -0.554 F  
HETATM   18  F   UNL     1     -11.921  13.433  63.942  1.00  0.00    -0.428 F  
HETATM   19  C   UNL     1     -11.894  13.558  65.295  1.00  0.00    -0.352 C  
HETATM   20  C   UNL     1     -10.595  15.727  65.378  1.00  0.00    -0.441 A  
BRANCH  12  21
HETATM   21  S   UNL     1      -7.377  13.813  68.031  1.00  0.00    -0.155 S  
HETATM   22  C   UNL     1      -7.951  12.187  68.433  1.00  0.00    -0.152 C  
HETATM   23  O   UNL     1      -6.196  13.592  67.220  1.00  0.00    -0.313 OA 
HETATM   24  O   UNL     1      -7.375  14.575  69.265  1.00  0.00    -0.144 OA 
ENDBRANCH  12  21
ENDBRANCH   9  11
ENDBRANCH   5   9
TORSDOF 4
ENDMDL
MODEL       55
REMARK 921   NORMALIZED FREE ENERGY PREDICTED BY IDOCK:   -5.61 KCAL/MOL
REMARK 922        TOTAL FREE ENERGY PREDICTED BY IDOCK:   -7.44 KCAL/MOL
REMARK 923 INTER-LIGAND FREE ENERGY PREDICTED BY IDOCK:   -7.22 KCAL/MOL
REMARK 924 INTRA-LIGAND FREE ENERGY PREDICTED BY IDOCK:   -0.21 KCAL/MOL
REMARK 927      BINDING AFFINITY PREDICTED BY RF-SCORE:    0.00 PKD
ROOT
HETATM    1  C   UNL     1     -12.725  10.526  70.838  1.00  0.00    -0.402 A  
HETATM    2  N   UNL     1     -13.504  10.026  71.798  1.00  0.00    -0.357 NA 
HETATM    3  O   UNL     1     -12.801   8.956  72.315  1.00  0.00    -0.378 OA 
HETATM    4  C   UNL     1     -11.599   8.843  71.681  1.00  0.00    -0.338 A  
HETATM    5  C   UNL     1     -11.494   9.837  70.715  1.00  0.00    -0.417 A  
ENDROOT
BRANCH   4   6
HETATM    6  C   UNL     1     -10.565   7.776  72.033  1.00  0.00    -0.279 C  
HETATM    7  C   UNL     1      -9.471   8.119  73.025  1.00  0.00    -0.333 C  
HETATM    8  C   UNL     1     -10.577   7.212  73.439  1.00  0.00    -0.424 C  
ENDBRANCH   4   6
BRANCH   5   9
HETATM    9  C   UNL     1     -10.376  10.032  69.801  1.00  0.00    -0.255 C  
HETATM   10  O   UNL     1      -9.229  10.076  70.224  1.00  0.00    -0.149 OA 
BRANCH   9  11
HETATM   11  C   UNL     1     -10.578  10.291  68.339  1.00  0.00    -0.247 A  
HETATM   12  C   UNL     1     -10.053   9.452  67.330  1.00  0.00    -0.215 A  
HETATM   13  C   UNL     1     -10.157   9.818  65.975  1.00  0.00    -0.322 A  
HETATM   14  C   UNL     1     -11.171  11.506  67.946  1.00  0.00    -0.344 A  
HETATM   15  C   UNL     1     -10.748  11.033  65.598  1.00  0.00    -0.217 A  
HETATM   16  F   UNL     1     -10.283  10.516  63.299  1.00  0.00    -0.351 F  
HETATM   17  F   UNL     1     -12.068  11.684  63.712  1.00  0.00    -0.492 F  
HETATM   18  F   UNL     1     -10.102  12.594  63.909  1.00  0.00    -0.387 F  
HETATM   19  C   UNL     1     -10.801  11.452  64.142  1.00  0.00    -0.365 C  
HETATM   20  C   UNL     1     -11.260  11.868  66.595  1.00  0.00    -0.384 A  
BRANCH  12  21
HETATM   21  S   UNL     1      -9.289   7.886  67.740  1.00  0.00    -0.141 S  
HETATM   22  C   UNL     1      -9.095   6.965  66.240  1.00  0.00    -0.141 C  
HETATM   23  O   UNL     1      -7.934   8.164  68.174  1.00  0.00    -0.122 OA 
HETATM   24  O   UNL     1     -10.262   7.175  68.547  1.00  0.00    -0.164 OA 
ENDBRANCH  12  21
ENDBRANCH   9  11
ENDBRANCH   5   9
TORSDOF 4
ENDMDL
MODEL       56
REMARK 921   NORMALIZED FREE ENERGY PREDICTED BY IDOCK:   -5.60 KCAL/MOL
REMARK 922        TOTAL FREE ENERGY PREDICTED BY IDOCK:   -7.42 KCAL/MOL
REMARK 923 INTER-LIGAND FREE ENERGY PREDICTED BY IDOCK:   -6.68 KCAL/MOL
REMARK 924 INTRA-LIGAND FREE ENERGY PREDICTED BY IDOCK:   -0.74 KCAL/MOL
REMARK 927      BINDING AFFINITY PREDICTED BY RF-SCORE:    0.00 PKD
ROOT
HETATM    1  C   UNL     1     -12.299   9.602  71.762  1.00  0.00    -0.392 A  
HETATM    2  N   UNL     1     -13.198  10.576  71.907  1.00  0.00    -0.452 NA 
HETATM    3  O   UNL     1     -12.832  11.545  70.994  1.00  0.00    -0.336 OA 
HETATM    4  C   UNL     1     -11.737  11.130  70.295  1.00  0.00    -0.341 A  
HETATM    5  C   UNL     1     -11.350   9.875  70.748  1.00  0.00    -0.430 A  
ENDROOT
BRANCH   4   6
HETATM    6  C   UNL     1     -11.092  11.958  69.185  1.00  0.00    -0.285 C  
HETATM    7  C   UNL     1     -11.753  11.992  67.821  1.00  0.00    -0.379 C  
HETATM    8  C   UNL     1     -11.825  13.192  68.701  1.00  0.00    -0.363 C  
ENDBRANCH   4   6
BRANCH   5   9
HETATM    9  C   UNL     1     -10.203   9.108  70.279  1.00  0.00    -0.214 C  
HETATM   10  O   UNL     1      -9.068   9.424  70.608  1.00  0.00    -0.240 OA 
BRANCH   9  11
HETATM   11  C   UNL     1     -10.345   7.982  69.302  1.00  0.00    -0.224 A  
HETATM   12  C   UNL     1     -10.190   6.624  69.665  1.00  0.00    -0.186 A  
HETATM   13  C   UNL     1     -10.198   5.619  68.681  1.00  0.00    -0.263 A  
HETATM   14  C   UNL     1     -10.472   8.289  67.934  1.00  0.00    -0.259 A  
HETATM   15  C   UNL     1     -10.323   5.939  67.321  1.00  0.00    -0.279 A  
HETATM   16  F   UNL     1     -10.149   3.606  66.781  1.00  0.00    -0.171 F  
HETATM   17  F   UNL     1     -11.379   4.837  65.479  1.00  0.00    -0.293 F  
HETATM   18  F   UNL     1      -9.211   5.016  65.419  1.00  0.00    -0.151 F  
HETATM   19  C   UNL     1     -10.267   4.859  66.260  1.00  0.00    -0.279 C  
HETATM   20  C   UNL     1     -10.467   7.282  66.959  1.00  0.00    -0.398 A  
BRANCH  12  21
HETATM   21  S   UNL     1     -10.031   6.144  71.382  1.00  0.00    -0.190 S  
HETATM   22  C   UNL     1      -9.953   4.376  71.448  1.00  0.00    -0.178 C  
HETATM   23  O   UNL     1      -8.725   6.582  71.836  1.00  0.00    -0.130 OA 
HETATM   24  O   UNL     1     -11.276   6.534  72.016  1.00  0.00    -0.248 OA 
ENDBRANCH  12  21
ENDBRANCH   9  11
ENDBRANCH   5   9
TORSDOF 4
ENDMDL
MODEL       57
REMARK 921   NORMALIZED FREE ENERGY PREDICTED BY IDOCK:   -5.59 KCAL/MOL
REMARK 922        TOTAL FREE ENERGY PREDICTED BY IDOCK:   -7.41 KCAL/MOL
REMARK 923 INTER-LIGAND FREE ENERGY PREDICTED BY IDOCK:   -7.92 KCAL/MOL
REMARK 924 INTRA-LIGAND FREE ENERGY PREDICTED BY IDOCK:    0.50 KCAL/MOL
REMARK 927      BINDING AFFINITY PREDICTED BY RF-SCORE:    0.00 PKD
ROOT
HETATM    1  C   UNL     1      -9.771  10.877  64.092  1.00  0.00    -0.296 A  
HETATM    2  N   UNL     1      -9.171   9.713  63.845  1.00  0.00    -0.209 NA 
HETATM    3  O   UNL     1      -9.263   9.000  65.025  1.00  0.00    -0.178 OA 
HETATM    4  C   UNL     1      -9.939   9.733  65.955  1.00  0.00    -0.275 A  
HETATM    5  C   UNL     1     -10.296  10.958  65.404  1.00  0.00    -0.326 A  
ENDROOT
BRANCH   4   6
HETATM    6  C   UNL     1     -10.239   9.224  67.363  1.00  0.00    -0.304 C  
HETATM    7  C   UNL     1     -10.190   7.731  67.625  1.00  0.00    -0.282 C  
HETATM    8  C   UNL     1      -9.103   8.603  68.150  1.00  0.00    -0.142 C  
ENDBRANCH   4   6
BRANCH   5   9
HETATM    9  C   UNL     1     -10.998  12.036  66.089  1.00  0.00    -0.302 C  
HETATM   10  O   UNL     1     -12.150  11.881  66.472  1.00  0.00    -0.568 OA 
BRANCH   9  11
HETATM   11  C   UNL     1     -10.396  13.397  66.260  1.00  0.00    -0.291 A  
HETATM   12  C   UNL     1     -10.851  14.533  65.551  1.00  0.00    -0.336 A  
HETATM   13  C   UNL     1     -10.160  15.755  65.648  1.00  0.00    -0.401 A  
HETATM   14  C   UNL     1      -9.223  13.523  67.028  1.00  0.00    -0.248 A  
HETATM   15  C   UNL     1      -8.991  15.866  66.415  1.00  0.00    -0.361 A  
HETATM   16  F   UNL     1      -8.808  18.168  65.757  1.00  0.00    -0.117 F  
HETATM   17  F   UNL     1      -8.070  17.638  67.732  1.00  0.00    -0.209 F  
HETATM   18  F   UNL     1      -6.961  17.039  65.958  1.00  0.00    -0.270 F  
HETATM   19  C   UNL     1      -8.215  17.167  66.466  1.00  0.00    -0.273 C  
HETATM   20  C   UNL     1      -8.535  14.741  67.109  1.00  0.00    -0.247 A  
BRANCH  12  21
HETATM   21  S   UNL     1     -12.337  14.464  64.557  1.00  0.00    -0.348 S  
HETATM   22  C   UNL     1     -12.118  13.202  63.335  1.00  0.00    -0.486 C  
HETATM   23  O   UNL     1     -13.404  13.968  65.405  1.00  0.00    -0.721 OA 
HETATM   24  O   UNL     1     -12.395  15.729  63.849  1.00  0.00    -0.728 OA 
ENDBRANCH  12  21
ENDBRANCH   9  11
ENDBRANCH   5   9
TORSDOF 4
ENDMDL
MODEL       58
REMARK 921   NORMALIZED FREE ENERGY PREDICTED BY IDOCK:   -5.57 KCAL/MOL
REMARK 922        TOTAL FREE ENERGY PREDICTED BY IDOCK:   -7.40 KCAL/MOL
REMARK 923 INTER-LIGAND FREE ENERGY PREDICTED BY IDOCK:   -7.86 KCAL/MOL
REMARK 924 INTRA-LIGAND FREE ENERGY PREDICTED BY IDOCK:    0.46 KCAL/MOL
REMARK 927      BINDING AFFINITY PREDICTED BY RF-SCORE:    0.00 PKD
ROOT
HETATM    1  C   UNL     1      -7.687  13.477  67.671  1.00  0.00    -0.176 A  
HETATM    2  N   UNL     1      -6.921  12.467  67.258  1.00  0.00    -0.148 NA 
HETATM    3  O   UNL     1      -7.794  11.562  66.685  1.00  0.00    -0.154 OA 
HETATM    4  C   UNL     1      -9.065  12.052  66.737  1.00  0.00    -0.197 A  
HETATM    5  C   UNL     1      -9.056  13.293  67.363  1.00  0.00    -0.216 A  
ENDROOT
BRANCH   4   6
HETATM    6  C   UNL     1     -10.270  11.309  66.163  1.00  0.00    -0.291 C  
HETATM    7  C   UNL     1     -10.567  11.434  64.682  1.00  0.00    -0.380 C  
HETATM    8  C   UNL     1     -10.009  10.159  65.213  1.00  0.00    -0.381 C  
ENDBRANCH   4   6
BRANCH   5   9
HETATM    9  C   UNL     1     -10.220  14.123  67.642  1.00  0.00    -0.241 C  
HETATM   10  O   UNL     1     -11.304  13.610  67.883  1.00  0.00    -0.267 OA 
BRANCH   9  11
HETATM   11  C   UNL     1     -10.175  15.617  67.544  1.00  0.00    -0.263 A  
HETATM   12  C   UNL     1     -10.399  16.315  66.335  1.00  0.00    -0.314 A  
HETATM   13  C   UNL     1     -10.208  17.708  66.272  1.00  0.00    -0.362 A  
HETATM   14  C   UNL     1      -9.727  16.352  68.658  1.00  0.00    -0.239 A  
HETATM   15  C   UNL     1      -9.759  18.428  67.389  1.00  0.00    -0.307 A  
HETATM   16  F   UNL     1      -9.794  20.438  66.076  1.00  0.00    -0.488 F  
HETATM   17  F   UNL     1     -10.219  20.631  68.198  1.00  0.00    -0.485 F  
HETATM   18  F   UNL     1      -8.190  20.224  67.527  1.00  0.00    -0.332 F  
HETATM   19  C   UNL     1      -9.494  19.917  67.298  1.00  0.00    -0.365 C  
HETATM   20  C   UNL     1      -9.528  17.738  68.582  1.00  0.00    -0.283 A  
BRANCH  12  21
HETATM   21  S   UNL     1     -10.977  15.461  64.872  1.00  0.00    -0.401 S  
HETATM   22  C   UNL     1     -12.450  14.578  65.303  1.00  0.00    -0.279 C  
HETATM   23  O   UNL     1     -11.419  16.468  63.927  1.00  0.00    -1.145 OA 
HETATM   24  O   UNL     1      -9.964  14.466  64.573  1.00  0.00    -0.146 OA 
ENDBRANCH  12  21
ENDBRANCH   9  11
ENDBRANCH   5   9
TORSDOF 4
ENDMDL
MODEL       59
REMARK 921   NORMALIZED FREE ENERGY PREDICTED BY IDOCK:   -5.56 KCAL/MOL
REMARK 922        TOTAL FREE ENERGY PREDICTED BY IDOCK:   -7.37 KCAL/MOL
REMARK 923 INTER-LIGAND FREE ENERGY PREDICTED BY IDOCK:   -6.93 KCAL/MOL
REMARK 924 INTRA-LIGAND FREE ENERGY PREDICTED BY IDOCK:   -0.44 KCAL/MOL
REMARK 927      BINDING AFFINITY PREDICTED BY RF-SCORE:    0.00 PKD
ROOT
HETATM    1  C   UNL     1      -7.926  15.679  68.754  1.00  0.00    -0.172 A  
HETATM    2  N   UNL     1      -7.443  16.883  69.060  1.00  0.00    -0.238 NA 
HETATM    3  O   UNL     1      -8.381  17.781  68.588  1.00  0.00    -0.298 OA 
HETATM    4  C   UNL     1      -9.426  17.105  68.030  1.00  0.00    -0.262 A  
HETATM    5  C   UNL     1      -9.187  15.739  68.112  1.00  0.00    -0.189 A  
ENDROOT
BRANCH   4   6
HETATM    6  C   UNL     1     -10.649  17.801  67.437  1.00  0.00    -0.341 C  
HETATM    7  C   UNL     1     -10.690  19.317  67.421  1.00  0.00    -0.594 C  
HETATM    8  C   UNL     1     -10.470  18.576  66.148  1.00  0.00    -0.447 C  
ENDBRANCH   4   6
BRANCH   5   9
HETATM    9  C   UNL     1     -10.049  14.683  67.597  1.00  0.00    -0.228 C  
HETATM   10  O   UNL     1     -10.476  14.734  66.452  1.00  0.00    -0.281 OA 
BRANCH   9  11
HETATM   11  C   UNL     1     -10.535  13.559  68.461  1.00  0.00    -0.250 A  
HETATM   12  C   UNL     1     -10.180  12.209  68.236  1.00  0.00    -0.208 A  
HETATM   13  C   UNL     1     -10.775  11.183  68.994  1.00  0.00    -0.265 A  
HETATM   14  C   UNL     1     -11.516  13.832  69.433  1.00  0.00    -0.341 A  
HETATM   15  C   UNL     1     -11.753  11.468  69.957  1.00  0.00    -0.414 A  
HETATM   16  F   UNL     1     -11.954   9.120  70.414  1.00  0.00    -0.235 F  
HETATM   17  F   UNL     1     -12.294  10.485  72.070  1.00  0.00    -0.415 F  
HETATM   18  F   UNL     1     -13.773  10.307  70.484  1.00  0.00    -0.306 F  
HETATM   19  C   UNL     1     -12.436  10.355  70.725  1.00  0.00    -0.368 C  
HETATM   20  C   UNL     1     -12.112  12.802  70.174  1.00  0.00    -0.370 A  
BRANCH  12  21
HETATM   21  S   UNL     1      -8.936  11.773  67.026  1.00  0.00    -0.192 S  
HETATM   22  C   UNL     1      -8.618  10.038  67.173  1.00  0.00    -0.128 C  
HETATM   23  O   UNL     1      -9.535  11.923  65.714  1.00  0.00    -0.236 OA 
HETATM   24  O   UNL     1      -7.727  12.458  67.442  1.00  0.00    -0.152 OA 
ENDBRANCH  12  21
ENDBRANCH   9  11
ENDBRANCH   5   9
TORSDOF 4
ENDMDL
MODEL       60
REMARK 921   NORMALIZED FREE ENERGY PREDICTED BY IDOCK:   -5.54 KCAL/MOL
REMARK 922        TOTAL FREE ENERGY PREDICTED BY IDOCK:   -7.36 KCAL/MOL
REMARK 923 INTER-LIGAND FREE ENERGY PREDICTED BY IDOCK:   -6.70 KCAL/MOL
REMARK 924 INTRA-LIGAND FREE ENERGY PREDICTED BY IDOCK:   -0.65 KCAL/MOL
REMARK 927      BINDING AFFINITY PREDICTED BY RF-SCORE:    0.00 PKD
ROOT
HETATM    1  C   UNL     1     -10.379   6.873  68.070  1.00  0.00    -0.192 A  
HETATM    2  N   UNL     1     -11.068   5.970  68.769  1.00  0.00    -0.322 NA 
HETATM    3  O   UNL     1     -11.359   6.587  69.970  1.00  0.00    -0.352 OA 
HETATM    4  C   UNL     1     -10.866   7.859  69.966  1.00  0.00    -0.238 A  
HETATM    5  C   UNL     1     -10.224   8.100  68.758  1.00  0.00    -0.221 A  
ENDROOT
BRANCH   4   6
HETATM    6  C   UNL     1     -11.040   8.825  71.136  1.00  0.00    -0.340 C  
HETATM    7  C   UNL     1     -11.498   8.277  72.473  1.00  0.00    -0.454 C  
HETATM    8  C   UNL     1     -10.083   8.707  72.304  1.00  0.00    -0.363 C  
ENDBRANCH   4   6
BRANCH   5   9
HETATM    9  C   UNL     1      -9.537   9.329  68.380  1.00  0.00    -0.147 C  
HETATM   10  O   UNL     1      -8.417   9.570  68.808  1.00  0.00    -0.118 OA 
BRANCH   9  11
HETATM   11  C   UNL     1     -10.198  10.388  67.552  1.00  0.00    -0.251 A  
HETATM   12  C   UNL     1      -9.766  10.726  66.249  1.00  0.00    -0.205 A  
HETATM   13  C   UNL     1     -10.335  11.821  65.573  1.00  0.00    -0.304 A  
HETATM   14  C   UNL     1     -11.181  11.197  68.153  1.00  0.00    -0.356 A  
HETATM   15  C   UNL     1     -11.312  12.620  66.185  1.00  0.00    -0.375 A  
HETATM   16  F   UNL     1     -11.379  13.998  64.219  1.00  0.00    -0.375 F  
HETATM   17  F   UNL     1     -13.227  13.781  65.343  1.00  0.00    -0.499 F  
HETATM   18  F   UNL     1     -11.603  14.991  66.140  1.00  0.00    -0.345 F  
HETATM   19  C   UNL     1     -11.876  13.836  65.477  1.00  0.00    -0.363 C  
HETATM   20  C   UNL     1     -11.733  12.293  67.477  1.00  0.00    -0.402 A  
BRANCH  12  21
HETATM   21  S   UNL     1      -8.526   9.747  65.407  1.00  0.00    -0.154 S  
HETATM   22  C   UNL     1      -8.307  10.423  63.786  1.00  0.00    -0.149 C  
HETATM   23  O   UNL     1      -7.260   9.982  66.074  1.00  0.00    -0.101 OA 
HETATM   24  O   UNL     1      -9.114   8.432  65.238  1.00  0.00    -0.080 OA 
ENDBRANCH  12  21
ENDBRANCH   9  11
ENDBRANCH   5   9
TORSDOF 4
ENDMDL
MODEL       61
REMARK 921   NORMALIZED FREE ENERGY PREDICTED BY IDOCK:   -5.48 KCAL/MOL
REMARK 922        TOTAL FREE ENERGY PREDICTED BY IDOCK:   -7.28 KCAL/MOL
REMARK 923 INTER-LIGAND FREE ENERGY PREDICTED BY IDOCK:   -7.43 KCAL/MOL
REMARK 924 INTRA-LIGAND FREE ENERGY PREDICTED BY IDOCK:    0.15 KCAL/MOL
REMARK 927      BINDING AFFINITY PREDICTED BY RF-SCORE:    0.00 PKD
ROOT
HETATM    1  C   UNL     1     -12.159  14.781  69.054  1.00  0.00    -0.221 A  
HETATM    2  N   UNL     1     -11.694  15.873  69.661  1.00  0.00    -0.334 NA 
HETATM    3  O   UNL     1     -10.921  16.514  68.713  1.00  0.00    -0.319 OA 
HETATM    4  C   UNL     1     -10.953  15.815  67.543  1.00  0.00    -0.293 A  
HETATM    5  C   UNL     1     -11.744  14.684  67.704  1.00  0.00    -0.389 A  
ENDROOT
BRANCH   4   6
HETATM    6  C   UNL     1     -10.223  16.267  66.280  1.00  0.00    -0.339 C  
HETATM    7  C   UNL     1     -11.022  16.919  65.169  1.00  0.00    -0.060 C  
HETATM    8  C   UNL     1     -10.123  17.755  66.011  1.00  0.00    -0.254 C  
ENDBRANCH   4   6
BRANCH   5   9
HETATM    9  C   UNL     1     -12.000  13.663  66.695  1.00  0.00    -0.415 C  
HETATM   10  O   UNL     1     -12.823  13.857  65.812  1.00  0.00    -0.501 OA 
BRANCH   9  11
HETATM   11  C   UNL     1     -11.359  12.310  66.752  1.00  0.00    -0.395 A  
HETATM   12  C   UNL     1     -10.831  11.662  65.612  1.00  0.00    -0.276 A  
HETATM   13  C   UNL     1     -10.367  10.337  65.699  1.00  0.00    -0.232 A  
HETATM   14  C   UNL     1     -11.433  11.580  67.953  1.00  0.00    -0.372 A  
HETATM   15  C   UNL     1     -10.448   9.619  66.901  1.00  0.00    -0.282 A  
HETATM   16  F   UNL     1      -9.491   7.713  65.800  1.00  0.00    -0.138 F  
HETATM   17  F   UNL     1      -9.042   7.968  67.911  1.00  0.00    -0.131 F  
HETATM   18  F   UNL     1     -11.029   7.334  67.288  1.00  0.00    -0.348 F  
HETATM   19  C   UNL     1     -10.005   8.172  66.975  1.00  0.00    -0.259 C  
HETATM   20  C   UNL     1     -10.978  10.256  68.027  1.00  0.00    -0.345 A  
BRANCH  12  21
HETATM   21  S   UNL     1     -10.693  12.519  64.047  1.00  0.00    -0.441 S  
HETATM   22  C   UNL     1      -9.604  11.586  63.009  1.00  0.00    -0.346 C  
HETATM   23  O   UNL     1     -11.983  12.434  63.390  1.00  0.00    -0.490 OA 
HETATM   24  O   UNL     1     -10.021  13.770  64.343  1.00  0.00    -0.250 OA 
ENDBRANCH  12  21
ENDBRANCH   9  11
ENDBRANCH   5   9
TORSDOF 4
ENDMDL
MODEL       62
REMARK 921   NORMALIZED FREE ENERGY PREDICTED BY IDOCK:   -5.44 KCAL/MOL
REMARK 922        TOTAL FREE ENERGY PREDICTED BY IDOCK:   -7.23 KCAL/MOL
REMARK 923 INTER-LIGAND FREE ENERGY PREDICTED BY IDOCK:   -6.53 KCAL/MOL
REMARK 924 INTRA-LIGAND FREE ENERGY PREDICTED BY IDOCK:   -0.70 KCAL/MOL
REMARK 927      BINDING AFFINITY PREDICTED BY RF-SCORE:    0.00 PKD
ROOT
HETATM    1  C   UNL     1      -6.887  16.751  66.706  1.00  0.00    -0.230 A  
HETATM    2  N   UNL     1      -6.714  17.986  66.235  1.00  0.00    -0.222 NA 
HETATM    3  O   UNL     1      -7.875  18.663  66.557  1.00  0.00    -0.249 OA 
HETATM    4  C   UNL     1      -8.716  17.836  67.240  1.00  0.00    -0.237 A  
HETATM    5  C   UNL     1      -8.127  16.584  67.369  1.00  0.00    -0.172 A  
ENDROOT
BRANCH   4   6
HETATM    6  C   UNL     1     -10.078  18.281  67.769  1.00  0.00    -0.369 C  
HETATM    7  C   UNL     1     -10.214  19.673  68.354  1.00  0.00    -0.553 C  
HETATM    8  C   UNL     1     -10.807  19.377  67.020  1.00  0.00    -0.540 C  
ENDBRANCH   4   6
BRANCH   5   9
HETATM    9  C   UNL     1      -8.722  15.415  68.004  1.00  0.00    -0.160 C  
HETATM   10  O   UNL     1      -9.089  15.462  69.170  1.00  0.00    -0.210 OA 
BRANCH   9  11
HETATM   11  C   UNL     1      -8.814  14.091  67.309  1.00  0.00    -0.225 A  
HETATM   12  C   UNL     1      -9.967  13.669  66.609  1.00  0.00    -0.283 A  
HETATM   13  C   UNL     1     -10.047  12.362  66.094  1.00  0.00    -0.265 A  
HETATM   14  C   UNL     1      -7.777  13.158  67.499  1.00  0.00    -0.168 A  
HETATM   15  C   UNL     1      -9.008  11.441  66.291  1.00  0.00    -0.205 A  
HETATM   16  F   UNL     1     -10.282   9.786  65.108  1.00  0.00    -0.390 F  
HETATM   17  F   UNL     1      -8.118   9.676  64.944  1.00  0.00    -0.114 F  
HETATM   18  F   UNL     1      -9.100   9.109  66.802  1.00  0.00    -0.141 F  
HETATM   19  C   UNL     1      -9.126  10.016  65.790  1.00  0.00    -0.163 C  
HETATM   20  C   UNL     1      -7.871  11.854  66.992  1.00  0.00    -0.152 A  
BRANCH  12  21
HETATM   21  S   UNL     1     -11.329  14.793  66.316  1.00  0.00    -0.305 S  
HETATM   22  C   UNL     1     -12.624  13.883  65.523  1.00  0.00    -0.526 C  
HETATM   23  O   UNL     1     -11.877  15.157  67.608  1.00  0.00    -0.294 OA 
HETATM   24  O   UNL     1     -10.840  15.757  65.349  1.00  0.00    -0.360 OA 
ENDBRANCH  12  21
ENDBRANCH   9  11
ENDBRANCH   5   9
TORSDOF 4
ENDMDL
MODEL       63
REMARK 921   NORMALIZED FREE ENERGY PREDICTED BY IDOCK:   -5.41 KCAL/MOL
REMARK 922        TOTAL FREE ENERGY PREDICTED BY IDOCK:   -7.19 KCAL/MOL
REMARK 923 INTER-LIGAND FREE ENERGY PREDICTED BY IDOCK:   -6.76 KCAL/MOL
REMARK 924 INTRA-LIGAND FREE ENERGY PREDICTED BY IDOCK:   -0.43 KCAL/MOL
REMARK 927      BINDING AFFINITY PREDICTED BY RF-SCORE:    0.00 PKD
ROOT
HETATM    1  C   UNL     1      -7.923   9.126  70.667  1.00  0.00    -0.154 A  
HETATM    2  N   UNL     1      -7.274   9.104  71.831  1.00  0.00    -0.324 NA 
HETATM    3  O   UNL     1      -8.202   8.668  72.757  1.00  0.00    -0.385 OA 
HETATM    4  C   UNL     1      -9.387   8.408  72.133  1.00  0.00    -0.269 A  
HETATM    5  C   UNL     1      -9.263   8.683  70.777  1.00  0.00    -0.223 A  
ENDROOT
BRANCH   4   6
HETATM    6  C   UNL     1     -10.619   7.881  72.867  1.00  0.00    -0.434 C  
HETATM    7  C   UNL     1     -10.957   6.408  72.761  1.00  0.00    -0.289 C  
HETATM    8  C   UNL     1     -10.402   6.942  74.035  1.00  0.00    -0.355 C  
ENDBRANCH   4   6
BRANCH   5   9
HETATM    9  C   UNL     1     -10.317   8.567  69.777  1.00  0.00    -0.212 C  
HETATM   10  O   UNL     1     -10.862   7.490  69.572  1.00  0.00    -0.234 OA 
BRANCH   9  11
HETATM   11  C   UNL     1     -10.705   9.711  68.891  1.00  0.00    -0.230 A  
HETATM   12  C   UNL     1     -10.297   9.810  67.541  1.00  0.00    -0.237 A  
HETATM   13  C   UNL     1     -10.575  10.973  66.798  1.00  0.00    -0.317 A  
HETATM   14  C   UNL     1     -11.360  10.816  69.467  1.00  0.00    -0.355 A  
HETATM   15  C   UNL     1     -11.227  12.067  67.384  1.00  0.00    -0.368 A  
HETATM   16  F   UNL     1     -11.045  13.256  65.306  1.00  0.00    -0.288 F  
HETATM   17  F   UNL     1     -12.782  13.678  66.543  1.00  0.00    -0.390 F  
HETATM   18  F   UNL     1     -10.820  14.408  67.136  1.00  0.00    -0.277 F  
HETATM   19  C   UNL     1     -11.467  13.340  66.599  1.00  0.00    -0.347 C  
HETATM   20  C   UNL     1     -11.623  11.974  68.722  1.00  0.00    -0.366 A  
BRANCH  12  21
HETATM   21  S   UNL     1      -9.465   8.450  66.728  1.00  0.00    -0.215 S  
HETATM   22  C   UNL     1      -8.907   9.019  65.148  1.00  0.00    -0.182 C  
HETATM   23  O   UNL     1      -8.248   8.180  67.469  1.00  0.00    -0.120 OA 
HETATM   24  O   UNL     1     -10.491   7.456  66.479  1.00  0.00    -0.186 OA 
ENDBRANCH  12  21
ENDBRANCH   9  11
ENDBRANCH   5   9
TORSDOF 4
ENDMDL
MODEL       64
REMARK 921   NORMALIZED FREE ENERGY PREDICTED BY IDOCK:   -5.39 KCAL/MOL
REMARK 922        TOTAL FREE ENERGY PREDICTED BY IDOCK:   -7.16 KCAL/MOL
REMARK 923 INTER-LIGAND FREE ENERGY PREDICTED BY IDOCK:   -6.95 KCAL/MOL
REMARK 924 INTRA-LIGAND FREE ENERGY PREDICTED BY IDOCK:   -0.21 KCAL/MOL
REMARK 927      BINDING AFFINITY PREDICTED BY RF-SCORE:    0.00 PKD
ROOT
HETATM    1  C   UNL     1     -11.956  14.740  68.937  1.00  0.00    -0.263 A  
HETATM    2  N   UNL     1     -12.099  15.312  70.133  1.00  0.00    -0.335 NA 
HETATM    3  O   UNL     1     -11.328  16.457  70.081  1.00  0.00    -0.329 OA 
HETATM    4  C   UNL     1     -10.755  16.572  68.849  1.00  0.00    -0.337 A  
HETATM    5  C   UNL     1     -11.130  15.488  68.064  1.00  0.00    -0.322 A  
ENDROOT
BRANCH   4   6
HETATM    6  C   UNL     1      -9.860  17.744  68.450  1.00  0.00    -0.347 C  
HETATM    7  C   UNL     1     -10.452  18.862  67.615  1.00  0.00    -0.514 C  
HETATM    8  C   UNL     1     -10.155  19.101  69.055  1.00  0.00    -0.365 C  
ENDBRANCH   4   6
BRANCH   5   9
HETATM    9  C   UNL     1     -10.698  15.227  66.697  1.00  0.00    -0.309 C  
HETATM   10  O   UNL     1     -10.877  16.061  65.820  1.00  0.00    -0.305 OA 
BRANCH   9  11
HETATM   11  C   UNL     1     -10.123  13.907  66.282  1.00  0.00    -0.306 A  
HETATM   12  C   UNL     1     -10.791  13.019  65.409  1.00  0.00    -0.284 A  
HETATM   13  C   UNL     1     -10.267  11.736  65.163  1.00  0.00    -0.309 A  
HETATM   14  C   UNL     1      -8.949  13.456  66.914  1.00  0.00    -0.216 A  
HETATM   15  C   UNL     1      -9.098  11.297  65.801  1.00  0.00    -0.216 A  
HETATM   16  F   UNL     1      -9.313   9.181  64.687  1.00  0.00    -0.248 F  
HETATM   17  F   UNL     1      -7.299   9.880  65.109  1.00  0.00    -0.108 F  
HETATM   18  F   UNL     1      -8.564   9.161  66.727  1.00  0.00    -0.120 F  
HETATM   19  C   UNL     1      -8.573   9.893  65.582  1.00  0.00    -0.145 C  
HETATM   20  C   UNL     1      -8.441  12.172  66.671  1.00  0.00    -0.088 A  
BRANCH  12  21
HETATM   21  S   UNL     1     -12.286  13.513  64.557  1.00  0.00    -0.384 S  
HETATM   22  C   UNL     1     -12.884  12.117  63.649  1.00  0.00    -0.341 C  
HETATM   23  O   UNL     1     -13.300  13.754  65.565  1.00  0.00    -0.613 OA 
HETATM   24  O   UNL     1     -11.871  14.503  63.581  1.00  0.00    -0.151 OA 
ENDBRANCH  12  21
ENDBRANCH   9  11
ENDBRANCH   5   9
TORSDOF 4
ENDMDL
MODEL       65
REMARK 921   NORMALIZED FREE ENERGY PREDICTED BY IDOCK:   -5.37 KCAL/MOL
REMARK 922        TOTAL FREE ENERGY PREDICTED BY IDOCK:   -7.15 KCAL/MOL
REMARK 923 INTER-LIGAND FREE ENERGY PREDICTED BY IDOCK:   -6.52 KCAL/MOL
REMARK 924 INTRA-LIGAND FREE ENERGY PREDICTED BY IDOCK:   -0.63 KCAL/MOL
REMARK 927      BINDING AFFINITY PREDICTED BY RF-SCORE:    0.00 PKD
ROOT
HETATM    1  C   UNL     1      -8.809   8.885  70.678  1.00  0.00    -0.198 A  
HETATM    2  N   UNL     1      -8.836   8.848  72.011  1.00  0.00    -0.382 NA 
HETATM    3  O   UNL     1     -10.176   8.841  72.346  1.00  0.00    -0.293 OA 
HETATM    4  C   UNL     1     -10.935   8.846  71.213  1.00  0.00    -0.293 A  
HETATM    5  C   UNL     1     -10.101   8.870  70.101  1.00  0.00    -0.212 A  
ENDROOT
BRANCH   4   6
HETATM    6  C   UNL     1     -12.462   8.813  71.230  1.00  0.00    -0.301 C  
HETATM    7  C   UNL     1     -13.181   9.011  72.550  1.00  0.00    -0.467 C  
HETATM    8  C   UNL     1     -13.197  10.102  71.536  1.00  0.00    -0.496 C  
ENDBRANCH   4   6
BRANCH   5   9
HETATM    9  C   UNL     1     -10.528   8.917  68.708  1.00  0.00    -0.200 C  
HETATM   10  O   UNL     1     -10.732   7.884  68.087  1.00  0.00    -0.152 OA 
BRANCH   9  11
HETATM   11  C   UNL     1     -10.631  10.205  67.950  1.00  0.00    -0.294 A  
HETATM   12  C   UNL     1      -9.715  10.578  66.940  1.00  0.00    -0.180 A  
HETATM   13  C   UNL     1      -9.780  11.858  66.359  1.00  0.00    -0.238 A  
HETATM   14  C   UNL     1     -11.576  11.161  68.371  1.00  0.00    -0.376 A  
HETATM   15  C   UNL     1     -10.725  12.801  66.789  1.00  0.00    -0.278 A  
HETATM   16  F   UNL     1      -9.826  14.381  65.220  1.00  0.00    -0.359 F  
HETATM   17  F   UNL     1     -11.951  14.512  65.653  1.00  0.00    -0.356 F  
HETATM   18  F   UNL     1     -10.496  15.153  67.138  1.00  0.00    -0.261 F  
HETATM   19  C   UNL     1     -10.750  14.199  66.204  1.00  0.00    -0.297 C  
HETATM   20  C   UNL     1     -11.625  12.437  67.794  1.00  0.00    -0.413 A  
BRANCH  12  21
HETATM   21  S   UNL     1      -8.487   9.424  66.339  1.00  0.00    -0.127 S  
HETATM   22  C   UNL     1      -7.425  10.291  65.220  1.00  0.00    -0.141 C  
HETATM   23  O   UNL     1      -7.632   9.078  67.459  1.00  0.00    -0.088 OA 
HETATM   24  O   UNL     1      -9.217   8.447  65.554  1.00  0.00    -0.120 OA 
ENDBRANCH  12  21
ENDBRANCH   9  11
ENDBRANCH   5   9
TORSDOF 4
ENDMDL
MODEL       66
REMARK 921   NORMALIZED FREE ENERGY PREDICTED BY IDOCK:   -5.36 KCAL/MOL
REMARK 922        TOTAL FREE ENERGY PREDICTED BY IDOCK:   -7.14 KCAL/MOL
REMARK 923 INTER-LIGAND FREE ENERGY PREDICTED BY IDOCK:   -6.74 KCAL/MOL
REMARK 924 INTRA-LIGAND FREE ENERGY PREDICTED BY IDOCK:   -0.40 KCAL/MOL
REMARK 927      BINDING AFFINITY PREDICTED BY RF-SCORE:    0.00 PKD
ROOT
HETATM    1  C   UNL     1      -7.573  16.027  67.212  1.00  0.00    -0.194 A  
HETATM    2  N   UNL     1      -6.899  17.049  67.739  1.00  0.00    -0.145 NA 
HETATM    3  O   UNL     1      -7.827  18.064  67.873  1.00  0.00    -0.226 OA 
HETATM    4  C   UNL     1      -9.049  17.630  67.452  1.00  0.00    -0.239 A  
HETATM    5  C   UNL     1      -8.945  16.314  67.015  1.00  0.00    -0.227 A  
ENDROOT
BRANCH   4   6
HETATM    6  C   UNL     1     -10.304  18.499  67.493  1.00  0.00    -0.440 C  
HETATM    7  C   UNL     1     -10.152  19.991  67.717  1.00  0.00    -0.563 C  
HETATM    8  C   UNL     1     -10.521  19.487  66.365  1.00  0.00    -0.597 C  
ENDBRANCH   4   6
BRANCH   5   9
HETATM    9  C   UNL     1     -10.022  15.506  66.457  1.00  0.00    -0.269 C  
HETATM   10  O   UNL     1     -10.836  16.002  65.691  1.00  0.00    -0.327 OA 
BRANCH   9  11
HETATM   11  C   UNL     1     -10.245  14.084  66.869  1.00  0.00    -0.260 A  
HETATM   12  C   UNL     1     -10.688  13.718  68.161  1.00  0.00    -0.248 A  
HETATM   13  C   UNL     1     -10.748  12.363  68.535  1.00  0.00    -0.262 A  
HETATM   14  C   UNL     1      -9.841  13.058  65.994  1.00  0.00    -0.259 A  
HETATM   15  C   UNL     1     -10.340  11.351  67.654  1.00  0.00    -0.209 A  
HETATM   16  F   UNL     1     -10.833   9.717  69.343  1.00  0.00    -0.212 F  
HETATM   17  F   UNL     1     -11.107   9.118  67.272  1.00  0.00    -0.297 F  
HETATM   18  F   UNL     1      -9.101   9.353  68.081  1.00  0.00    -0.127 F  
HETATM   19  C   UNL     1     -10.346   9.898  68.084  1.00  0.00    -0.195 C  
HETATM   20  C   UNL     1      -9.893  11.711  66.380  1.00  0.00    -0.233 A  
BRANCH  12  21
HETATM   21  S   UNL     1     -11.228  14.957  69.334  1.00  0.00    -0.298 S  
HETATM   22  C   UNL     1     -12.165  14.142  70.596  1.00  0.00    -0.362 C  
HETATM   23  O   UNL     1     -10.049  15.452  70.018  1.00  0.00    -0.287 OA 
HETATM   24  O   UNL     1     -12.153  15.808  68.608  1.00  0.00    -0.269 OA 
ENDBRANCH  12  21
ENDBRANCH   9  11
ENDBRANCH   5   9
TORSDOF 4
ENDMDL
MODEL       67
REMARK 921   NORMALIZED FREE ENERGY PREDICTED BY IDOCK:   -5.35 KCAL/MOL
REMARK 922        TOTAL FREE ENERGY PREDICTED BY IDOCK:   -7.12 KCAL/MOL
REMARK 923 INTER-LIGAND FREE ENERGY PREDICTED BY IDOCK:   -6.81 KCAL/MOL
REMARK 924 INTRA-LIGAND FREE ENERGY PREDICTED BY IDOCK:   -0.32 KCAL/MOL
REMARK 927      BINDING AFFINITY PREDICTED BY RF-SCORE:    0.00 PKD
ROOT
HETATM    1  C   UNL     1     -11.166  16.460  65.452  1.00  0.00     0.080 A  
HETATM    2  N   UNL     1     -11.299  16.496  64.126  1.00  0.00    -1.047 NA 
HETATM    3  O   UNL     1     -11.701  15.224  63.768  1.00  0.00    -0.144 OA 
HETATM    4  C   UNL     1     -11.831  14.450  64.883  1.00  0.00    -0.417 A  
HETATM    5  C   UNL     1     -11.500  15.201  66.005  1.00  0.00    -0.157 A  
ENDROOT
BRANCH   4   6
HETATM    6  C   UNL     1     -12.288  12.994  64.840  1.00  0.00    -0.512 C  
HETATM    7  C   UNL     1     -12.529  12.344  63.492  1.00  0.00    -0.605 C  
HETATM    8  C   UNL     1     -11.327  11.963  64.284  1.00  0.00    -0.425 C  
ENDBRANCH   4   6
BRANCH   5   9
HETATM    9  C   UNL     1     -11.479  14.724  67.382  1.00  0.00    -0.363 C  
HETATM   10  O   UNL     1     -11.820  15.459  68.298  1.00  0.00    -0.339 OA 
BRANCH   9  11
HETATM   11  C   UNL     1     -10.946  13.373  67.748  1.00  0.00    -0.281 A  
HETATM   12  C   UNL     1      -9.564  13.082  67.810  1.00  0.00    -0.208 A  
HETATM   13  C   UNL     1      -9.123  11.763  68.024  1.00  0.00    -0.180 A  
HETATM   14  C   UNL     1     -11.852  12.303  67.874  1.00  0.00    -0.358 A  
HETATM   15  C   UNL     1     -10.037  10.706  68.146  1.00  0.00    -0.179 A  
HETATM   16  F   UNL     1      -8.200   9.179  68.387  1.00  0.00    -0.109 F  
HETATM   17  F   UNL     1     -10.038   8.695  69.442  1.00  0.00    -0.183 F  
HETATM   18  F   UNL     1      -9.934   8.482  67.278  1.00  0.00    -0.204 F  
HETATM   19  C   UNL     1      -9.556   9.279  68.313  1.00  0.00    -0.147 C  
HETATM   20  C   UNL     1     -11.404  10.990  68.076  1.00  0.00    -0.374 A  
BRANCH  12  21
HETATM   21  S   UNL     1      -8.342  14.383  67.667  1.00  0.00    -0.193 S  
HETATM   22  C   UNL     1      -6.740  13.632  67.707  1.00  0.00    -0.170 C  
HETATM   23  O   UNL     1      -8.452  14.937  66.332  1.00  0.00    -0.116 OA 
HETATM   24  O   UNL     1      -8.467  15.172  68.878  1.00  0.00    -0.174 OA 
ENDBRANCH  12  21
ENDBRANCH   9  11
ENDBRANCH   5   9
TORSDOF 4
ENDMDL
MODEL       68
REMARK 921   NORMALIZED FREE ENERGY PREDICTED BY IDOCK:   -5.35 KCAL/MOL
REMARK 922        TOTAL FREE ENERGY PREDICTED BY IDOCK:   -7.12 KCAL/MOL
REMARK 923 INTER-LIGAND FREE ENERGY PREDICTED BY IDOCK:   -6.44 KCAL/MOL
REMARK 924 INTRA-LIGAND FREE ENERGY PREDICTED BY IDOCK:   -0.68 KCAL/MOL
REMARK 927      BINDING AFFINITY PREDICTED BY RF-SCORE:    0.00 PKD
ROOT
HETATM    1  C   UNL     1     -10.744  18.595  67.783  1.00  0.00    -0.342 A  
HETATM    2  N   UNL     1     -10.362  19.812  68.172  1.00  0.00    -0.449 NA 
HETATM    3  O   UNL     1      -9.039  19.916  67.789  1.00  0.00    -0.321 OA 
HETATM    4  C   UNL     1      -8.653  18.774  67.151  1.00  0.00    -0.277 A  
HETATM    5  C   UNL     1      -9.719  17.883  67.115  1.00  0.00    -0.289 A  
ENDROOT
BRANCH   4   6
HETATM    6  C   UNL     1      -7.253  18.572  66.575  1.00  0.00    -0.254 C  
HETATM    7  C   UNL     1      -6.678  19.639  65.664  1.00  0.00    -0.301 C  
HETATM    8  C   UNL     1      -6.149  19.495  67.049  1.00  0.00    -0.185 C  
ENDBRANCH   4   6
BRANCH   5   9
HETATM    9  C   UNL     1      -9.698  16.540  66.552  1.00  0.00    -0.272 C  
HETATM   10  O   UNL     1      -9.409  16.365  65.376  1.00  0.00    -0.369 OA 
BRANCH   9  11
HETATM   11  C   UNL     1     -10.125  15.339  67.339  1.00  0.00    -0.232 A  
HETATM   12  C   UNL     1      -9.221  14.548  68.085  1.00  0.00    -0.195 A  
HETATM   13  C   UNL     1      -9.655  13.354  68.691  1.00  0.00    -0.064 A  
HETATM   14  C   UNL     1     -11.448  14.878  67.200  1.00  0.00    -0.344 A  
HETATM   15  C   UNL     1     -10.975  12.905  68.543  1.00  0.00    -0.288 A  
HETATM   16  F   UNL     1     -10.439  10.970  69.859  1.00  0.00    -0.211 F  
HETATM   17  F   UNL     1     -12.470  11.732  69.996  1.00  0.00    -0.308 F  
HETATM   18  F   UNL     1     -11.815  10.695  68.199  1.00  0.00    -0.353 F  
HETATM   19  C   UNL     1     -11.421  11.588  69.145  1.00  0.00    -0.297 C  
HETATM   20  C   UNL     1     -11.868  13.682  67.798  1.00  0.00    -0.403 A  
BRANCH  12  21
HETATM   21  S   UNL     1      -7.524  15.063  68.319  1.00  0.00    -0.115 S  
HETATM   22  C   UNL     1      -6.675  13.767  69.177  1.00  0.00    -0.112 C  
HETATM   23  O   UNL     1      -6.898  15.104  67.012  1.00  0.00    -0.230 OA 
HETATM   24  O   UNL     1      -7.579  16.197  69.221  1.00  0.00    -0.226 OA 
ENDBRANCH  12  21
ENDBRANCH   9  11
ENDBRANCH   5   9
TORSDOF 4
ENDMDL
MODEL       69
REMARK 921   NORMALIZED FREE ENERGY PREDICTED BY IDOCK:   -5.33 KCAL/MOL
REMARK 922        TOTAL FREE ENERGY PREDICTED BY IDOCK:   -7.10 KCAL/MOL
REMARK 923 INTER-LIGAND FREE ENERGY PREDICTED BY IDOCK:   -6.54 KCAL/MOL
REMARK 924 INTRA-LIGAND FREE ENERGY PREDICTED BY IDOCK:   -0.55 KCAL/MOL
REMARK 927      BINDING AFFINITY PREDICTED BY RF-SCORE:    0.00 PKD
ROOT
HETATM    1  C   UNL     1     -10.589  10.580  67.875  1.00  0.00    -0.232 A  
HETATM    2  N   UNL     1     -11.761  11.177  67.657  1.00  0.00    -0.598 NA 
HETATM    3  O   UNL     1     -12.371  11.241  68.894  1.00  0.00    -0.485 OA 
HETATM    4  C   UNL     1     -11.549  10.708  69.842  1.00  0.00    -0.316 A  
HETATM    5  C   UNL     1     -10.377  10.266  69.239  1.00  0.00    -0.250 A  
ENDROOT
BRANCH   4   6
HETATM    6  C   UNL     1     -11.911  10.648  71.325  1.00  0.00    -0.344 C  
HETATM    7  C   UNL     1     -13.160  11.364  71.800  1.00  0.00    -0.523 C  
HETATM    8  C   UNL     1     -13.153   9.877  71.722  1.00  0.00    -0.553 C  
ENDBRANCH   4   6
BRANCH   5   9
HETATM    9  C   UNL     1      -9.263   9.605  69.907  1.00  0.00    -0.229 C  
HETATM   10  O   UNL     1      -8.128  10.051  69.809  1.00  0.00    -0.159 OA 
BRANCH   9  11
HETATM   11  C   UNL     1      -9.431   8.311  70.643  1.00  0.00    -0.181 A  
HETATM   12  C   UNL     1      -9.594   7.070  69.987  1.00  0.00    -0.164 A  
HETATM   13  C   UNL     1      -9.885   5.908  70.727  1.00  0.00    -0.229 A  
HETATM   14  C   UNL     1      -9.601   8.349  72.040  1.00  0.00    -0.344 A  
HETATM   15  C   UNL     1     -10.054   5.960  72.118  1.00  0.00    -0.210 A  
HETATM   16  F   UNL     1     -10.513   3.603  72.124  1.00  0.00    -0.235 F  
HETATM   17  F   UNL     1      -9.532   4.428  73.880  1.00  0.00    -0.114 F  
HETATM   18  F   UNL     1     -11.637   4.840  73.514  1.00  0.00    -0.383 F  
HETATM   19  C   UNL     1     -10.429   4.718  72.902  1.00  0.00    -0.201 C  
HETATM   20  C   UNL     1      -9.902   7.188  72.767  1.00  0.00    -0.212 A  
BRANCH  12  21
HETATM   21  S   UNL     1      -9.387   6.930  68.215  1.00  0.00    -0.123 S  
HETATM   22  C   UNL     1      -9.224   5.212  67.819  1.00  0.00    -0.115 C  
HETATM   23  O   UNL     1     -10.639   7.329  67.600  1.00  0.00    -0.226 OA 
HETATM   24  O   UNL     1      -8.111   7.553  67.919  1.00  0.00    -0.117 OA 
ENDBRANCH  12  21
ENDBRANCH   9  11
ENDBRANCH   5   9
TORSDOF 4
ENDMDL
MODEL       70
REMARK 921   NORMALIZED FREE ENERGY PREDICTED BY IDOCK:   -5.33 KCAL/MOL
REMARK 922        TOTAL FREE ENERGY PREDICTED BY IDOCK:   -7.09 KCAL/MOL
REMARK 923 INTER-LIGAND FREE ENERGY PREDICTED BY IDOCK:   -6.50 KCAL/MOL
REMARK 924 INTRA-LIGAND FREE ENERGY PREDICTED BY IDOCK:   -0.59 KCAL/MOL
REMARK 927      BINDING AFFINITY PREDICTED BY RF-SCORE:    0.00 PKD
ROOT
HETATM    1  C   UNL     1      -8.366  12.483  67.433  1.00  0.00    -0.182 A  
HETATM    2  N   UNL     1      -7.739  13.658  67.502  1.00  0.00    -0.172 NA 
HETATM    3  O   UNL     1      -8.734  14.588  67.730  1.00  0.00    -0.160 OA 
HETATM    4  C   UNL     1      -9.940  13.959  67.823  1.00  0.00    -0.241 A  
HETATM    5  C   UNL     1      -9.762  12.593  67.642  1.00  0.00    -0.197 A  
ENDROOT
BRANCH   4   6
HETATM    6  C   UNL     1     -11.248  14.698  68.100  1.00  0.00    -0.304 C  
HETATM    7  C   UNL     1     -11.606  15.035  69.534  1.00  0.00    -0.337 C  
HETATM    8  C   UNL     1     -11.165  16.121  68.614  1.00  0.00    -0.369 C  
ENDBRANCH   4   6
BRANCH   5   9
HETATM    9  C   UNL     1     -10.813  11.583  67.634  1.00  0.00    -0.227 C  
HETATM   10  O   UNL     1     -11.657  11.573  66.748  1.00  0.00    -0.492 OA 
BRANCH   9  11
HETATM   11  C   UNL     1     -10.974  10.592  68.746  1.00  0.00    -0.292 A  
HETATM   12  C   UNL     1     -10.496   9.264  68.667  1.00  0.00    -0.209 A  
HETATM   13  C   UNL     1     -10.796   8.339  69.684  1.00  0.00    -0.154 A  
HETATM   14  C   UNL     1     -11.778  10.941  69.848  1.00  0.00    -0.418 A  
HETATM   15  C   UNL     1     -11.600   8.699  70.775  1.00  0.00    -0.273 A  
HETATM   16  F   UNL     1     -11.402   6.463  71.627  1.00  0.00    -0.279 F  
HETATM   17  F   UNL     1     -11.593   8.066  73.082  1.00  0.00    -0.451 F  
HETATM   18  F   UNL     1     -13.313   7.464  71.892  1.00  0.00    -0.343 F  
HETATM   19  C   UNL     1     -11.972   7.682  71.835  1.00  0.00    -0.295 C  
HETATM   20  C   UNL     1     -12.081  10.009  70.850  1.00  0.00    -0.448 A  
BRANCH  12  21
HETATM   21  S   UNL     1      -9.461   8.738  67.305  1.00  0.00    -0.167 S  
HETATM   22  C   UNL     1      -9.273   6.980  67.411  1.00  0.00    -0.126 C  
HETATM   23  O   UNL     1     -10.210   8.951  66.082  1.00  0.00    -0.259 OA 
HETATM   24  O   UNL     1      -8.155   9.315  67.559  1.00  0.00    -0.106 OA 
ENDBRANCH  12  21
ENDBRANCH   9  11
ENDBRANCH   5   9
TORSDOF 4
ENDMDL
MODEL       71
REMARK 921   NORMALIZED FREE ENERGY PREDICTED BY IDOCK:   -5.32 KCAL/MOL
REMARK 922        TOTAL FREE ENERGY PREDICTED BY IDOCK:   -7.08 KCAL/MOL
REMARK 923 INTER-LIGAND FREE ENERGY PREDICTED BY IDOCK:   -6.41 KCAL/MOL
REMARK 924 INTRA-LIGAND FREE ENERGY PREDICTED BY IDOCK:   -0.66 KCAL/MOL
REMARK 927      BINDING AFFINITY PREDICTED BY RF-SCORE:    0.00 PKD
ROOT
HETATM    1  C   UNL     1      -8.748  11.640  66.838  1.00  0.00    -0.185 A  
HETATM    2  N   UNL     1      -8.672  11.111  65.616  1.00  0.00    -0.163 NA 
HETATM    3  O   UNL     1      -9.556  11.844  64.848  1.00  0.00    -0.185 OA 
HETATM    4  C   UNL     1     -10.130  12.818  65.610  1.00  0.00    -0.270 A  
HETATM    5  C   UNL     1      -9.641  12.736  66.908  1.00  0.00    -0.235 A  
ENDROOT
BRANCH   4   6
HETATM    6  C   UNL     1     -11.137  13.825  65.058  1.00  0.00    -0.348 C  
HETATM    7  C   UNL     1     -12.166  13.350  64.051  1.00  0.00    -0.466 C  
HETATM    8  C   UNL     1     -12.593  13.658  65.444  1.00  0.00    -0.533 C  
ENDBRANCH   4   6
BRANCH   5   9
HETATM    9  C   UNL     1     -10.035  13.578  68.030  1.00  0.00    -0.248 C  
HETATM   10  O   UNL     1     -10.653  13.106  68.974  1.00  0.00    -0.176 OA 
BRANCH   9  11
HETATM   11  C   UNL     1      -9.804  15.058  68.034  1.00  0.00    -0.218 A  
HETATM   12  C   UNL     1      -8.554  15.639  68.349  1.00  0.00    -0.173 A  
HETATM   13  C   UNL     1      -8.430  17.036  68.472  1.00  0.00    -0.257 A  
HETATM   14  C   UNL     1     -10.911  15.914  67.883  1.00  0.00    -0.327 A  
HETATM   15  C   UNL     1      -9.542  17.877  68.321  1.00  0.00    -0.312 A  
HETATM   16  F   UNL     1      -8.141  19.772  68.781  1.00  0.00    -0.373 F  
HETATM   17  F   UNL     1      -9.810  20.078  67.423  1.00  0.00    -0.439 F  
HETATM   18  F   UNL     1     -10.172  19.824  69.554  1.00  0.00    -0.468 F  
HETATM   19  C   UNL     1      -9.417  19.374  68.517  1.00  0.00    -0.389 C  
HETATM   20  C   UNL     1     -10.781  17.303  68.019  1.00  0.00    -0.367 A  
BRANCH  12  21
HETATM   21  S   UNL     1      -7.092  14.627  68.550  1.00  0.00    -0.122 S  
HETATM   22  C   UNL     1      -5.797  15.658  69.177  1.00  0.00    -0.108 C  
HETATM   23  O   UNL     1      -7.359  13.687  69.622  1.00  0.00     0.207 OA 
HETATM   24  O   UNL     1      -6.702  14.230  67.211  1.00  0.00    -0.259 OA 
ENDBRANCH  12  21
ENDBRANCH   9  11
ENDBRANCH   5   9
TORSDOF 4
ENDMDL
MODEL       72
REMARK 921   NORMALIZED FREE ENERGY PREDICTED BY IDOCK:   -5.31 KCAL/MOL
REMARK 922        TOTAL FREE ENERGY PREDICTED BY IDOCK:   -7.07 KCAL/MOL
REMARK 923 INTER-LIGAND FREE ENERGY PREDICTED BY IDOCK:   -7.20 KCAL/MOL
REMARK 924 INTRA-LIGAND FREE ENERGY PREDICTED BY IDOCK:    0.13 KCAL/MOL
REMARK 927      BINDING AFFINITY PREDICTED BY RF-SCORE:    0.00 PKD
ROOT
HETATM    1  C   UNL     1     -11.529  15.441  64.434  1.00  0.00    -0.255 A  
HETATM    2  N   UNL     1     -11.175  16.724  64.504  1.00  0.00    -1.039 NA 
HETATM    3  O   UNL     1     -10.074  16.752  65.338  1.00  0.00    -0.587 OA 
HETATM    4  C   UNL     1      -9.765  15.484  65.735  1.00  0.00    -0.348 A  
HETATM    5  C   UNL     1     -10.673  14.593  65.177  1.00  0.00    -0.430 A  
ENDROOT
BRANCH   4   6
HETATM    6  C   UNL     1      -8.581  15.158  66.644  1.00  0.00    -0.279 C  
HETATM    7  C   UNL     1      -7.626  16.272  67.024  1.00  0.00    -0.250 C  
HETATM    8  C   UNL     1      -8.576  15.743  68.041  1.00  0.00    -0.163 C  
ENDBRANCH   4   6
BRANCH   5   9
HETATM    9  C   UNL     1     -10.704  13.151  65.388  1.00  0.00    -0.294 C  
HETATM   10  O   UNL     1     -10.591  12.383  64.443  1.00  0.00    -0.296 OA 
BRANCH   9  11
HETATM   11  C   UNL     1     -10.977  12.549  66.732  1.00  0.00    -0.304 A  
HETATM   12  C   UNL     1     -10.397  11.334  67.162  1.00  0.00    -0.209 A  
HETATM   13  C   UNL     1     -10.796  10.747  68.378  1.00  0.00    -0.276 A  
HETATM   14  C   UNL     1     -11.979  13.125  67.537  1.00  0.00    -0.367 A  
HETATM   15  C   UNL     1     -11.797  11.329  69.169  1.00  0.00    -0.423 A  
HETATM   16  F   UNL     1     -11.582   9.518  70.730  1.00  0.00    -0.289 F  
HETATM   17  F   UNL     1     -12.133  11.461  71.533  1.00  0.00    -0.293 F  
HETATM   18  F   UNL     1     -13.579  10.307  70.388  1.00  0.00    -0.334 F  
HETATM   19  C   UNL     1     -12.267  10.660  70.444  1.00  0.00    -0.345 C  
HETATM   20  C   UNL     1     -12.378  12.527  68.740  1.00  0.00     0.244 A  
BRANCH  12  21
HETATM   21  S   UNL     1      -9.111  10.537  66.205  1.00  0.00    -0.169 S  
HETATM   22  C   UNL     1      -8.464   9.201  67.168  1.00  0.00    -0.120 C  
HETATM   23  O   UNL     1      -9.749   9.895  65.072  1.00  0.00    -0.296 OA 
HETATM   24  O   UNL     1      -8.050  11.519  66.081  1.00  0.00    -0.083 OA 
ENDBRANCH  12  21
ENDBRANCH   9  11
ENDBRANCH   5   9
TORSDOF 4
ENDMDL
MODEL       73
REMARK 921   NORMALIZED FREE ENERGY PREDICTED BY IDOCK:   -5.27 KCAL/MOL
REMARK 922        TOTAL FREE ENERGY PREDICTED BY IDOCK:   -7.03 KCAL/MOL
REMARK 923 INTER-LIGAND FREE ENERGY PREDICTED BY IDOCK:   -6.59 KCAL/MOL
REMARK 924 INTRA-LIGAND FREE ENERGY PREDICTED BY IDOCK:   -0.43 KCAL/MOL
REMARK 927      BINDING AFFINITY PREDICTED BY RF-SCORE:    0.00 PKD
ROOT
HETATM    1  C   UNL     1     -12.298  12.503  64.744  1.00  0.00    -0.474 A  
HETATM    2  N   UNL     1     -13.051  13.594  64.890  1.00  0.00    -0.650 NA 
HETATM    3  O   UNL     1     -12.692  14.121  66.115  1.00  0.00    -0.442 OA 
HETATM    4  C   UNL     1     -11.710  13.358  66.676  1.00  0.00    -0.385 A  
HETATM    5  C   UNL     1     -11.413  12.297  65.829  1.00  0.00    -0.417 A  
ENDROOT
BRANCH   4   6
HETATM    6  C   UNL     1     -11.068  13.681  68.023  1.00  0.00    -0.285 C  
HETATM    7  C   UNL     1     -11.605  14.850  68.826  1.00  0.00    -0.348 C  
HETATM    8  C   UNL     1     -11.891  13.459  69.275  1.00  0.00    -0.385 C  
ENDBRANCH   4   6
BRANCH   5   9
HETATM    9  C   UNL     1     -10.445  11.238  66.086  1.00  0.00    -0.254 C  
HETATM   10  O   UNL     1      -9.898  10.659  65.158  1.00  0.00    -0.240 OA 
BRANCH   9  11
HETATM   11  C   UNL     1     -10.156  10.741  67.470  1.00  0.00    -0.218 A  
HETATM   12  C   UNL     1      -8.881  10.841  68.071  1.00  0.00    -0.132 A  
HETATM   13  C   UNL     1      -8.633  10.235  69.317  1.00  0.00    -0.175 A  
HETATM   14  C   UNL     1     -11.146   9.995  68.137  1.00  0.00    -0.252 A  
HETATM   15  C   UNL     1      -9.627   9.492  69.971  1.00  0.00    -0.272 A  
HETATM   16  F   UNL     1      -8.074   9.015  71.739  1.00  0.00    -0.172 F  
HETATM   17  F   UNL     1     -10.173   9.178  72.278  1.00  0.00    -0.369 F  
HETATM   18  F   UNL     1      -9.463   7.439  71.180  1.00  0.00    -0.155 F  
HETATM   19  C   UNL     1      -9.337   8.788  71.281  1.00  0.00    -0.250 C  
HETATM   20  C   UNL     1     -10.886   9.385  69.372  1.00  0.00    -0.208 A  
BRANCH  12  21
HETATM   21  S   UNL     1      -7.567  11.777  67.296  1.00  0.00    -0.157 S  
HETATM   22  C   UNL     1      -6.226  11.890  68.446  1.00  0.00    -0.050 C  
HETATM   23  O   UNL     1      -7.046  10.974  66.207  1.00  0.00    -0.135 OA 
HETATM   24  O   UNL     1      -8.090  13.120  67.127  1.00  0.00    -0.168 OA 
ENDBRANCH  12  21
ENDBRANCH   9  11
ENDBRANCH   5   9
TORSDOF 4
ENDMDL
MODEL       74
REMARK 921   NORMALIZED FREE ENERGY PREDICTED BY IDOCK:   -5.27 KCAL/MOL
REMARK 922        TOTAL FREE ENERGY PREDICTED BY IDOCK:   -7.02 KCAL/MOL
REMARK 923 INTER-LIGAND FREE ENERGY PREDICTED BY IDOCK:   -6.53 KCAL/MOL
REMARK 924 INTRA-LIGAND FREE ENERGY PREDICTED BY IDOCK:   -0.49 KCAL/MOL
REMARK 927      BINDING AFFINITY PREDICTED BY RF-SCORE:    0.00 PKD
ROOT
HETATM    1  C   UNL     1      -7.188  12.907  67.352  1.00  0.00    -0.126 A  
HETATM    2  N   UNL     1      -6.506  11.912  66.783  1.00  0.00    -0.090 NA 
HETATM    3  O   UNL     1      -7.442  10.931  66.524  1.00  0.00    -0.131 OA 
HETATM    4  C   UNL     1      -8.677  11.358  66.914  1.00  0.00    -0.165 A  
HETATM    5  C   UNL     1      -8.574  12.634  67.455  1.00  0.00    -0.189 A  
ENDROOT
BRANCH   4   6
HETATM    6  C   UNL     1      -9.943  10.521  66.741  1.00  0.00    -0.252 C  
HETATM    7  C   UNL     1     -10.001   9.509  65.615  1.00  0.00    -0.269 C  
HETATM    8  C   UNL     1      -9.856   9.035  67.019  1.00  0.00    -0.270 C  
ENDBRANCH   4   6
BRANCH   5   9
HETATM    9  C   UNL     1      -9.664  13.420  68.017  1.00  0.00    -0.222 C  
HETATM   10  O   UNL     1     -10.502  12.894  68.736  1.00  0.00    -0.233 OA 
BRANCH   9  11
HETATM   11  C   UNL     1      -9.873  14.861  67.662  1.00  0.00    -0.217 A  
HETATM   12  C   UNL     1     -10.459  15.275  66.444  1.00  0.00    -0.303 A  
HETATM   13  C   UNL     1     -10.504  16.640  66.105  1.00  0.00    -0.291 A  
HETATM   14  C   UNL     1      -9.313  15.848  68.496  1.00  0.00    -0.206 A  
HETATM   15  C   UNL     1      -9.940  17.613  66.943  1.00  0.00    -0.323 A  
HETATM   16  F   UNL     1     -10.569  19.306  65.361  1.00  0.00    -0.472 F  
HETATM   17  F   UNL     1     -10.549  19.868  67.460  1.00  0.00    -0.516 F  
HETATM   18  F   UNL     1      -8.675  19.564  66.396  1.00  0.00    -0.299 F  
HETATM   19  C   UNL     1      -9.934  19.075  66.544  1.00  0.00    -0.385 C  
HETATM   20  C   UNL     1      -9.352  17.204  68.144  1.00  0.00    -0.264 A  
BRANCH  12  21
HETATM   21  S   UNL     1     -11.201  14.088  65.329  1.00  0.00    -0.334 S  
HETATM   22  C   UNL     1     -12.121  14.986  64.112  1.00  0.00    -0.223 C  
HETATM   23  O   UNL     1     -10.127  13.462  64.584  1.00  0.00    -0.335 OA 
HETATM   24  O   UNL     1     -12.165  13.352  66.125  1.00  0.00    -0.416 OA 
ENDBRANCH  12  21
ENDBRANCH   9  11
ENDBRANCH   5   9
TORSDOF 4
ENDMDL
MODEL       75
REMARK 921   NORMALIZED FREE ENERGY PREDICTED BY IDOCK:   -5.17 KCAL/MOL
REMARK 922        TOTAL FREE ENERGY PREDICTED BY IDOCK:   -6.89 KCAL/MOL
REMARK 923 INTER-LIGAND FREE ENERGY PREDICTED BY IDOCK:   -6.65 KCAL/MOL
REMARK 924 INTRA-LIGAND FREE ENERGY PREDICTED BY IDOCK:   -0.25 KCAL/MOL
REMARK 927      BINDING AFFINITY PREDICTED BY RF-SCORE:    0.00 PKD
ROOT
HETATM    1  C   UNL     1     -10.993  17.209  68.144  1.00  0.00    -0.231 A  
HETATM    2  N   UNL     1      -9.908  17.952  68.361  1.00  0.00    -0.335 NA 
HETATM    3  O   UNL     1      -8.839  17.100  68.162  1.00  0.00    -0.223 OA 
HETATM    4  C   UNL     1      -9.294  15.866  67.803  1.00  0.00    -0.207 A  
HETATM    5  C   UNL     1     -10.683  15.879  67.771  1.00  0.00    -0.320 A  
ENDROOT
BRANCH   4   6
HETATM    6  C   UNL     1      -8.368  14.695  67.482  1.00  0.00    -0.203 C  
HETATM    7  C   UNL     1      -6.891  14.823  67.802  1.00  0.00    -0.195 C  
HETATM    8  C   UNL     1      -7.749  13.940  68.641  1.00  0.00    -0.128 C  
ENDBRANCH   4   6
BRANCH   5   9
HETATM    9  C   UNL     1     -11.547  14.745  67.467  1.00  0.00    -0.361 C  
HETATM   10  O   UNL     1     -12.333  14.798  66.530  1.00  0.00    -0.163 OA 
BRANCH   9  11
HETATM   11  C   UNL     1     -11.592  13.523  68.332  1.00  0.00    -0.378 A  
HETATM   12  C   UNL     1     -11.535  12.210  67.812  1.00  0.00    -0.332 A  
HETATM   13  C   UNL     1     -11.720  11.101  68.659  1.00  0.00    -0.389 A  
HETATM   14  C   UNL     1     -11.871  13.680  69.704  1.00  0.00    -0.396 A  
HETATM   15  C   UNL     1     -12.000  11.271  70.022  1.00  0.00    -0.447 A  
HETATM   16  F   UNL     1     -12.133   8.886  70.267  1.00  0.00    -0.103 F  
HETATM   17  F   UNL     1     -11.409  10.020  71.974  1.00  0.00    -0.214 F  
HETATM   18  F   UNL     1     -13.517  10.086  71.437  1.00  0.00    -0.410 F  
HETATM   19  C   UNL     1     -12.261  10.076  70.917  1.00  0.00    -0.346 C  
HETATM   20  C   UNL     1     -12.066  12.569  70.537  1.00  0.00    -0.361 A  
BRANCH  12  21
HETATM   21  S   UNL     1     -11.178  11.920  66.083  1.00  0.00    -0.314 S  
HETATM   22  C   UNL     1     -10.719  10.220  65.899  1.00  0.00     0.089 C  
HETATM   23  O   UNL     1     -12.426  12.041  65.355  1.00  0.00    -0.421 OA 
HETATM   24  O   UNL     1      -9.996  12.708  65.788  1.00  0.00    -0.263 OA 
ENDBRANCH  12  21
ENDBRANCH   9  11
ENDBRANCH   5   9
TORSDOF 4
ENDMDL
MODEL       76
REMARK 921   NORMALIZED FREE ENERGY PREDICTED BY IDOCK:   -5.17 KCAL/MOL
REMARK 922        TOTAL FREE ENERGY PREDICTED BY IDOCK:   -6.89 KCAL/MOL
REMARK 923 INTER-LIGAND FREE ENERGY PREDICTED BY IDOCK:   -6.23 KCAL/MOL
REMARK 924 INTRA-LIGAND FREE ENERGY PREDICTED BY IDOCK:   -0.67 KCAL/MOL
REMARK 927      BINDING AFFINITY PREDICTED BY RF-SCORE:    0.00 PKD
ROOT
HETATM    1  C   UNL     1     -12.021  11.881  64.915  1.00  0.00    -0.113 A  
HETATM    2  N   UNL     1     -12.917  12.841  64.681  1.00  0.00    -0.794 NA 
HETATM    3  O   UNL     1     -12.650  13.821  65.616  1.00  0.00    -0.491 OA 
HETATM    4  C   UNL     1     -11.582  13.452  66.380  1.00  0.00    -0.346 A  
HETATM    5  C   UNL     1     -11.131  12.204  65.967  1.00  0.00    -0.354 A  
ENDROOT
BRANCH   4   6
HETATM    6  C   UNL     1     -11.008  14.328  67.492  1.00  0.00    -0.297 C  
HETATM    7  C   UNL     1     -11.659  15.667  67.776  1.00  0.00    -0.139 C  
HETATM    8  C   UNL     1     -11.850  14.542  68.733  1.00  0.00    -0.350 C  
ENDBRANCH   4   6
BRANCH   5   9
HETATM    9  C   UNL     1     -10.032  11.450  66.556  1.00  0.00    -0.211 C  
HETATM   10  O   UNL     1      -8.956  11.990  66.774  1.00  0.00    -0.189 OA 
BRANCH   9  11
HETATM   11  C   UNL     1     -10.126   9.978  66.819  1.00  0.00    -0.286 A  
HETATM   12  C   UNL     1     -10.577   9.445  68.048  1.00  0.00    -0.226 A  
HETATM   13  C   UNL     1     -10.515   8.059  68.287  1.00  0.00    -0.210 A  
HETATM   14  C   UNL     1      -9.589   9.089  65.869  1.00  0.00    -0.317 A  
HETATM   15  C   UNL     1      -9.975   7.184  67.333  1.00  0.00    -0.224 A  
HETATM   16  F   UNL     1     -10.364   5.350  68.833  1.00  0.00    -0.231 F  
HETATM   17  F   UNL     1     -10.499   4.937  66.703  1.00  0.00    -0.244 F  
HETATM   18  F   UNL     1      -8.558   5.282  67.624  1.00  0.00    -0.106 F  
HETATM   19  C   UNL     1      -9.851   5.701  67.621  1.00  0.00    -0.135 C  
HETATM   20  C   UNL     1      -9.520   7.711  66.121  1.00  0.00    -0.117 A  
BRANCH  12  21
HETATM   21  S   UNL     1     -11.282  10.502  69.308  1.00  0.00    -0.271 S  
HETATM   22  C   UNL     1     -11.745   9.483  70.679  1.00  0.00    -0.262 C  
HETATM   23  O   UNL     1     -10.214  11.339  69.820  1.00  0.00     0.154 OA 
HETATM   24  O   UNL     1     -12.510  11.024  68.739  1.00  0.00    -0.468 OA 
ENDBRANCH  12  21
ENDBRANCH   9  11
ENDBRANCH   5   9
TORSDOF 4
ENDMDL
MODEL       77
REMARK 921   NORMALIZED FREE ENERGY PREDICTED BY IDOCK:   -5.16 KCAL/MOL
REMARK 922        TOTAL FREE ENERGY PREDICTED BY IDOCK:   -6.88 KCAL/MOL
REMARK 923 INTER-LIGAND FREE ENERGY PREDICTED BY IDOCK:   -6.77 KCAL/MOL
REMARK 924 INTRA-LIGAND FREE ENERGY PREDICTED BY IDOCK:   -0.11 KCAL/MOL
REMARK 927      BINDING AFFINITY PREDICTED BY RF-SCORE:    0.00 PKD
ROOT
HETATM    1  C   UNL     1     -12.784  11.784  70.871  1.00  0.00    -0.235 A  
HETATM    2  N   UNL     1     -12.818  11.007  71.954  1.00  0.00    -0.381 NA 
HETATM    3  O   UNL     1     -12.052   9.903  71.633  1.00  0.00    -0.389 OA 
HETATM    4  C   UNL     1     -11.546  10.044  70.374  1.00  0.00    -0.302 A  
HETATM    5  C   UNL     1     -11.985  11.246  69.834  1.00  0.00    -0.440 A  
ENDROOT
BRANCH   4   6
HETATM    6  C   UNL     1     -10.630   9.010  69.722  1.00  0.00    -0.236 C  
HETATM    7  C   UNL     1      -9.625   8.276  70.587  1.00  0.00    -0.190 C  
HETATM    8  C   UNL     1     -10.829   7.554  70.089  1.00  0.00    -0.259 C  
ENDBRANCH   4   6
BRANCH   5   9
HETATM    9  C   UNL     1     -11.692  11.745  68.496  1.00  0.00    -0.330 C  
HETATM   10  O   UNL     1     -11.699  10.986  67.536  1.00  0.00    -0.565 OA 
BRANCH   9  11
HETATM   11  C   UNL     1     -11.269  13.160  68.249  1.00  0.00    -0.307 A  
HETATM   12  C   UNL     1      -9.931  13.526  67.976  1.00  0.00    -0.248 A  
HETATM   13  C   UNL     1      -9.569  14.884  67.889  1.00  0.00    -0.205 A  
HETATM   14  C   UNL     1     -12.206  14.190  68.460  1.00  0.00    -0.204 A  
HETATM   15  C   UNL     1     -10.512  15.899  68.104  1.00  0.00    -0.270 A  
HETATM   16  F   UNL     1      -8.789  17.537  67.761  1.00  0.00    -0.228 F  
HETATM   17  F   UNL     1     -10.806  18.076  67.156  1.00  0.00    -0.373 F  
HETATM   18  F   UNL     1     -10.293  17.974  69.268  1.00  0.00    -0.369 F  
HETATM   19  C   UNL     1     -10.104  17.358  68.071  1.00  0.00    -0.326 C  
HETATM   20  C   UNL     1     -11.833  15.539  68.383  1.00  0.00    -0.241 A  
BRANCH  12  21
HETATM   21  S   UNL     1      -8.677  12.283  67.686  1.00  0.00    -0.187 S  
HETATM   22  C   UNL     1      -7.106  13.097  67.624  1.00  0.00    -0.160 C  
HETATM   23  O   UNL     1      -8.609  11.450  68.871  1.00  0.00    -0.120 OA 
HETATM   24  O   UNL     1      -8.936  11.767  66.355  1.00  0.00    -0.206 OA 
ENDBRANCH  12  21
ENDBRANCH   9  11
ENDBRANCH   5   9
TORSDOF 4
ENDMDL
MODEL       78
REMARK 921   NORMALIZED FREE ENERGY PREDICTED BY IDOCK:   -5.16 KCAL/MOL
REMARK 922        TOTAL FREE ENERGY PREDICTED BY IDOCK:   -6.88 KCAL/MOL
REMARK 923 INTER-LIGAND FREE ENERGY PREDICTED BY IDOCK:   -6.30 KCAL/MOL
REMARK 924 INTRA-LIGAND FREE ENERGY PREDICTED BY IDOCK:   -0.58 KCAL/MOL
REMARK 927      BINDING AFFINITY PREDICTED BY RF-SCORE:    0.00 PKD
ROOT
HETATM    1  C   UNL     1     -10.110   7.210  68.408  1.00  0.00    -0.168 A  
HETATM    2  N   UNL     1     -10.705   6.017  68.445  1.00  0.00    -0.267 NA 
HETATM    3  O   UNL     1     -11.460   6.025  69.602  1.00  0.00    -0.394 OA 
HETATM    4  C   UNL     1     -11.330   7.228  70.230  1.00  0.00    -0.238 A  
HETATM    5  C   UNL     1     -10.469   8.038  69.499  1.00  0.00    -0.226 A  
ENDROOT
BRANCH   4   6
HETATM    6  C   UNL     1     -12.058   7.577  71.527  1.00  0.00    -0.345 C  
HETATM    7  C   UNL     1     -13.093   8.684  71.508  1.00  0.00    -0.339 C  
HETATM    8  C   UNL     1     -13.538   7.266  71.616  1.00  0.00    -0.435 C  
ENDBRANCH   4   6
BRANCH   5   9
HETATM    9  C   UNL     1     -10.046   9.386  69.856  1.00  0.00    -0.218 C  
HETATM   10  O   UNL     1      -9.444   9.591  70.901  1.00  0.00    -0.239 OA 
BRANCH   9  11
HETATM   11  C   UNL     1     -10.415  10.581  69.032  1.00  0.00    -0.238 A  
HETATM   12  C   UNL     1      -9.506  11.225  68.163  1.00  0.00    -0.184 A  
HETATM   13  C   UNL     1      -9.865  12.424  67.519  1.00  0.00    -0.194 A  
HETATM   14  C   UNL     1     -11.664  11.192  69.253  1.00  0.00    -0.401 A  
HETATM   15  C   UNL     1     -11.112  13.023  67.750  1.00  0.00    -0.291 A  
HETATM   16  F   UNL     1     -10.498  14.812  66.270  1.00  0.00    -0.272 F  
HETATM   17  F   UNL     1     -12.602  14.272  66.355  1.00  0.00    -0.481 F  
HETATM   18  F   UNL     1     -11.680  15.328  68.020  1.00  0.00    -0.332 F  
HETATM   19  C   UNL     1     -11.470  14.346  67.103  1.00  0.00    -0.362 C  
HETATM   20  C   UNL     1     -12.009  12.392  68.616  1.00  0.00    -0.272 A  
BRANCH  12  21
HETATM   21  S   UNL     1      -7.900  10.514  67.818  1.00  0.00    -0.105 S  
HETATM   22  C   UNL     1      -6.957  11.708  66.913  1.00  0.00    -0.123 C  
HETATM   23  O   UNL     1      -7.203  10.383  69.083  1.00  0.00    -0.071 OA 
HETATM   24  O   UNL     1      -8.148   9.404  66.918  1.00  0.00    -0.108 OA 
ENDBRANCH  12  21
ENDBRANCH   9  11
ENDBRANCH   5   9
TORSDOF 4
ENDMDL
MODEL       79
REMARK 921   NORMALIZED FREE ENERGY PREDICTED BY IDOCK:   -5.15 KCAL/MOL
REMARK 922        TOTAL FREE ENERGY PREDICTED BY IDOCK:   -6.87 KCAL/MOL
REMARK 923 INTER-LIGAND FREE ENERGY PREDICTED BY IDOCK:   -6.19 KCAL/MOL
REMARK 924 INTRA-LIGAND FREE ENERGY PREDICTED BY IDOCK:   -0.68 KCAL/MOL
REMARK 927      BINDING AFFINITY PREDICTED BY RF-SCORE:    0.00 PKD
ROOT
HETATM    1  C   UNL     1     -10.503   9.380  66.584  1.00  0.00    -0.168 A  
HETATM    2  N   UNL     1      -9.329   8.818  66.295  1.00  0.00    -0.204 NA 
HETATM    3  O   UNL     1      -8.379   9.672  66.821  1.00  0.00    -0.116 OA 
HETATM    4  C   UNL     1      -8.994  10.719  67.442  1.00  0.00    -0.139 A  
HETATM    5  C   UNL     1     -10.371  10.581  67.322  1.00  0.00    -0.275 A  
ENDROOT
BRANCH   4   6
HETATM    6  C   UNL     1      -8.229  11.834  68.153  1.00  0.00    -0.153 C  
HETATM    7  C   UNL     1      -6.734  11.949  67.932  1.00  0.00    -0.079 C  
HETATM    8  C   UNL     1      -7.646  12.947  67.308  1.00  0.00    -0.104 C  
ENDBRANCH   4   6
BRANCH   5   9
HETATM    9  C   UNL     1     -11.375  11.513  67.820  1.00  0.00    -0.296 C  
HETATM   10  O   UNL     1     -12.407  11.099  68.330  1.00  0.00    -0.556 OA 
BRANCH   9  11
HETATM   11  C   UNL     1     -11.245  12.994  67.640  1.00  0.00    -0.315 A  
HETATM   12  C   UNL     1     -11.261  13.618  66.371  1.00  0.00    -0.308 A  
HETATM   13  C   UNL     1     -10.998  14.995  66.253  1.00  0.00    -0.338 A  
HETATM   14  C   UNL     1     -10.927  13.784  68.761  1.00  0.00    -0.289 A  
HETATM   15  C   UNL     1     -10.679  15.770  67.378  1.00  0.00    -0.317 A  
HETATM   16  F   UNL     1     -10.431  17.689  65.956  1.00  0.00    -0.351 F  
HETATM   17  F   UNL     1     -11.146  18.038  67.978  1.00  0.00    -0.332 F  
HETATM   18  F   UNL     1      -9.063  17.510  67.635  1.00  0.00    -0.233 F  
HETATM   19  C   UNL     1     -10.334  17.239  67.238  1.00  0.00    -0.331 C  
HETATM   20  C   UNL     1     -10.654  15.153  68.632  1.00  0.00    -0.234 A  
BRANCH  12  21
HETATM   21  S   UNL     1     -11.664  12.691  64.894  1.00  0.00    -0.373 S  
HETATM   22  C   UNL     1     -12.025  13.850  63.605  1.00  0.00    -0.165 C  
HETATM   23  O   UNL     1     -10.454  12.024  64.457  1.00  0.00    -0.270 OA 
HETATM   24  O   UNL     1     -12.902  11.997  65.193  1.00  0.00    -0.245 OA 
ENDBRANCH  12  21
ENDBRANCH   9  11
ENDBRANCH   5   9
TORSDOF 4
ENDMDL
MODEL       80
REMARK 921   NORMALIZED FREE ENERGY PREDICTED BY IDOCK:   -5.14 KCAL/MOL
REMARK 922        TOTAL FREE ENERGY PREDICTED BY IDOCK:   -6.86 KCAL/MOL
REMARK 923 INTER-LIGAND FREE ENERGY PREDICTED BY IDOCK:   -6.34 KCAL/MOL
REMARK 924 INTRA-LIGAND FREE ENERGY PREDICTED BY IDOCK:   -0.52 KCAL/MOL
REMARK 927      BINDING AFFINITY PREDICTED BY RF-SCORE:    0.00 PKD
ROOT
HETATM    1  C   UNL     1      -7.249  13.023  67.527  1.00  0.00    -0.151 A  
HETATM    2  N   UNL     1      -6.856  11.862  68.051  1.00  0.00    -0.067 NA 
HETATM    3  O   UNL     1      -7.912  10.996  67.846  1.00  0.00    -0.108 OA 
HETATM    4  C   UNL     1      -8.912  11.638  67.178  1.00  0.00    -0.173 A  
HETATM    5  C   UNL     1      -8.536  12.955  66.941  1.00  0.00    -0.093 A  
ENDROOT
BRANCH   4   6
HETATM    6  C   UNL     1     -10.215  10.955  66.768  1.00  0.00    -0.277 C  
HETATM    7  C   UNL     1     -10.146   9.640  66.018  1.00  0.00    -0.318 C  
HETATM    8  C   UNL     1     -10.575   9.648  67.443  1.00  0.00    -0.333 C  
ENDBRANCH   4   6
BRANCH   5   9
HETATM    9  C   UNL     1      -9.344  13.975  66.285  1.00  0.00    -0.175 C  
HETATM   10  O   UNL     1      -9.955  13.716  65.258  1.00  0.00    -0.283 OA 
BRANCH   9  11
HETATM   11  C   UNL     1      -9.380  15.393  66.766  1.00  0.00    -0.267 A  
HETATM   12  C   UNL     1     -10.291  15.850  67.745  1.00  0.00    -0.278 A  
HETATM   13  C   UNL     1     -10.372  17.219  68.058  1.00  0.00    -0.353 A  
HETATM   14  C   UNL     1      -8.591  16.350  66.100  1.00  0.00    -0.343 A  
HETATM   15  C   UNL     1      -9.582  18.163  67.385  1.00  0.00    -0.275 A  
HETATM   16  F   UNL     1     -10.613  19.908  68.672  1.00  0.00    -0.526 F  
HETATM   17  F   UNL     1      -8.546  20.206  68.072  1.00  0.00    -0.341 F  
HETATM   18  F   UNL     1     -10.139  20.348  66.597  1.00  0.00    -0.545 F  
HETATM   19  C   UNL     1      -9.718  19.643  67.680  1.00  0.00    -0.358 C  
HETATM   20  C   UNL     1      -8.687  17.714  66.409  1.00  0.00    -0.263 A  
BRANCH  12  21
HETATM   21  S   UNL     1     -11.327  14.701  68.647  1.00  0.00    -0.300 S  
HETATM   22  C   UNL     1     -12.341  15.636  69.755  1.00  0.00    -0.190 C  
HETATM   23  O   UNL     1     -12.260  14.122  67.699  1.00  0.00    -0.351 OA 
HETATM   24  O   UNL     1     -10.422  13.917  69.465  1.00  0.00     0.024 OA 
ENDBRANCH  12  21
ENDBRANCH   9  11
ENDBRANCH   5   9
TORSDOF 4
ENDMDL
MODEL       81
REMARK 921   NORMALIZED FREE ENERGY PREDICTED BY IDOCK:   -5.14 KCAL/MOL
REMARK 922        TOTAL FREE ENERGY PREDICTED BY IDOCK:   -6.86 KCAL/MOL
REMARK 923 INTER-LIGAND FREE ENERGY PREDICTED BY IDOCK:   -6.42 KCAL/MOL
REMARK 924 INTRA-LIGAND FREE ENERGY PREDICTED BY IDOCK:   -0.44 KCAL/MOL
REMARK 927      BINDING AFFINITY PREDICTED BY RF-SCORE:    0.00 PKD
ROOT
HETATM    1  C   UNL     1      -8.583   9.033  70.561  1.00  0.00    -0.201 A  
HETATM    2  N   UNL     1      -9.258   8.303  71.448  1.00  0.00    -0.155 NA 
HETATM    3  O   UNL     1     -10.554   8.778  71.398  1.00  0.00    -0.232 OA 
HETATM    4  C   UNL     1     -10.646   9.767  70.463  1.00  0.00    -0.312 A  
HETATM    5  C   UNL     1      -9.399   9.972  69.886  1.00  0.00    -0.207 A  
ENDROOT
BRANCH   4   6
HETATM    6  C   UNL     1     -11.952  10.489  70.137  1.00  0.00    -0.398 C  
HETATM    7  C   UNL     1     -13.150  10.274  71.040  1.00  0.00    -0.458 C  
HETATM    8  C   UNL     1     -12.422  11.572  71.086  1.00  0.00    -0.442 C  
ENDBRANCH   4   6
BRANCH   5   9
HETATM    9  C   UNL     1      -9.075  10.966  68.870  1.00  0.00    -0.144 C  
HETATM   10  O   UNL     1      -8.163  11.761  69.049  1.00  0.00    -0.008 OA 
BRANCH   9  11
HETATM   11  C   UNL     1      -9.895  11.132  67.628  1.00  0.00    -0.191 A  
HETATM   12  C   UNL     1      -9.585  10.484  66.410  1.00  0.00    -0.177 A  
HETATM   13  C   UNL     1     -10.309  10.784  65.241  1.00  0.00    -0.327 A  
HETATM   14  C   UNL     1     -10.918  12.099  67.621  1.00  0.00    -0.289 A  
HETATM   15  C   UNL     1     -11.324  11.751  65.247  1.00  0.00    -0.284 A  
HETATM   16  F   UNL     1     -11.662  11.375  62.900  1.00  0.00    -0.253 F  
HETATM   17  F   UNL     1     -13.401  11.940  64.075  1.00  0.00    -0.503 F  
HETATM   18  F   UNL     1     -11.867  13.415  63.621  1.00  0.00    -0.456 F  
HETATM   19  C   UNL     1     -12.058  12.116  63.972  1.00  0.00    -0.443 C  
HETATM   20  C   UNL     1     -11.626  12.400  66.448  1.00  0.00    -0.442 A  
BRANCH  12  21
HETATM   21  S   UNL     1      -8.305   9.235  66.331  1.00  0.00    -0.120 S  
HETATM   22  C   UNL     1      -8.220   8.647  64.664  1.00  0.00    -0.165 C  
HETATM   23  O   UNL     1      -7.036   9.901  66.548  1.00  0.00    -0.086 OA 
HETATM   24  O   UNL     1      -8.784   8.132  67.142  1.00  0.00    -0.124 OA 
ENDBRANCH  12  21
ENDBRANCH   9  11
ENDBRANCH   5   9
TORSDOF 4
ENDMDL
MODEL       82
REMARK 921   NORMALIZED FREE ENERGY PREDICTED BY IDOCK:   -5.14 KCAL/MOL
REMARK 922        TOTAL FREE ENERGY PREDICTED BY IDOCK:   -6.86 KCAL/MOL
REMARK 923 INTER-LIGAND FREE ENERGY PREDICTED BY IDOCK:   -6.23 KCAL/MOL
REMARK 924 INTRA-LIGAND FREE ENERGY PREDICTED BY IDOCK:   -0.62 KCAL/MOL
REMARK 927      BINDING AFFINITY PREDICTED BY RF-SCORE:    0.00 PKD
ROOT
HETATM    1  C   UNL     1      -9.346  10.572  69.580  1.00  0.00    -0.064 A  
HETATM    2  N   UNL     1      -9.957   9.644  70.317  1.00  0.00    -0.257 NA 
HETATM    3  O   UNL     1     -10.434   8.718  69.411  1.00  0.00    -0.218 OA 
HETATM    4  C   UNL     1     -10.081   9.085  68.146  1.00  0.00    -0.191 A  
HETATM    5  C   UNL     1      -9.371  10.279  68.195  1.00  0.00    -0.144 A  
ENDROOT
BRANCH   4   6
HETATM    6  C   UNL     1     -10.430   8.261  66.908  1.00  0.00    -0.365 C  
HETATM    7  C   UNL     1      -9.523   7.111  66.518  1.00  0.00    -0.208 C  
HETATM    8  C   UNL     1     -10.858   6.822  67.111  1.00  0.00    -0.462 C  
ENDBRANCH   4   6
BRANCH   5   9
HETATM    9  C   UNL     1      -8.851  11.017  67.051  1.00  0.00    -0.143 C  
HETATM   10  O   UNL     1      -8.231  10.438  66.169  1.00  0.00    -0.132 OA 
BRANCH   9  11
HETATM   11  C   UNL     1      -8.952  12.508  66.952  1.00  0.00    -0.212 A  
HETATM   12  C   UNL     1     -10.006  13.163  66.274  1.00  0.00    -0.285 A  
HETATM   13  C   UNL     1      -9.976  14.559  66.096  1.00  0.00    -0.330 A  
HETATM   14  C   UNL     1      -7.872  13.288  67.406  1.00  0.00    -0.159 A  
HETATM   15  C   UNL     1      -8.893  15.324  66.550  1.00  0.00    -0.335 A  
HETATM   16  F   UNL     1      -9.944  17.293  65.666  1.00  0.00    -0.237 F  
HETATM   17  F   UNL     1      -8.723  17.535  67.448  1.00  0.00    -0.219 F  
HETATM   18  F   UNL     1      -7.779  17.170  65.521  1.00  0.00    -0.123 F  
HETATM   19  C   UNL     1      -8.836  16.818  66.300  1.00  0.00    -0.299 C  
HETATM   20  C   UNL     1      -7.846  14.677  67.213  1.00  0.00    -0.213 A  
BRANCH  12  21
HETATM   21  S   UNL     1     -11.422  12.250  65.672  1.00  0.00    -0.366 S  
HETATM   22  C   UNL     1     -12.526  13.401  64.904  1.00  0.00    -0.396 C  
HETATM   23  O   UNL     1     -10.964  11.406  64.586  1.00  0.00    -0.310 OA 
HETATM   24  O   UNL     1     -12.095  11.746  66.854  1.00  0.00    -0.566 OA 
ENDBRANCH  12  21
ENDBRANCH   9  11
ENDBRANCH   5   9
TORSDOF 4
ENDMDL
MODEL       83
REMARK 921   NORMALIZED FREE ENERGY PREDICTED BY IDOCK:   -5.11 KCAL/MOL
REMARK 922        TOTAL FREE ENERGY PREDICTED BY IDOCK:   -6.82 KCAL/MOL
REMARK 923 INTER-LIGAND FREE ENERGY PREDICTED BY IDOCK:   -6.70 KCAL/MOL
REMARK 924 INTRA-LIGAND FREE ENERGY PREDICTED BY IDOCK:   -0.12 KCAL/MOL
REMARK 927      BINDING AFFINITY PREDICTED BY RF-SCORE:    0.00 PKD
ROOT
HETATM    1  C   UNL     1     -12.455  11.161  70.210  1.00  0.00    -0.274 A  
HETATM    2  N   UNL     1     -13.120  10.507  71.162  1.00  0.00    -0.382 NA 
HETATM    3  O   UNL     1     -12.276   9.490  71.561  1.00  0.00    -0.336 OA 
HETATM    4  C   UNL     1     -11.106   9.562  70.864  1.00  0.00    -0.336 A  
HETATM    5  C   UNL     1     -11.164  10.629  69.976  1.00  0.00    -0.382 A  
ENDROOT
BRANCH   4   6
HETATM    6  C   UNL     1      -9.942   8.597  71.084  1.00  0.00    -0.289 C  
HETATM    7  C   UNL     1      -9.679   8.078  72.484  1.00  0.00    -0.325 C  
HETATM    8  C   UNL     1     -10.266   7.167  71.462  1.00  0.00    -0.210 C  
ENDBRANCH   4   6
BRANCH   5   9
HETATM    9  C   UNL     1     -10.127  11.016  69.029  1.00  0.00    -0.180 C  
HETATM   10  O   UNL     1      -8.955  11.065  69.377  1.00  0.00     0.012 OA 
BRANCH   9  11
HETATM   11  C   UNL     1     -10.448  11.470  67.637  1.00  0.00    -0.218 A  
HETATM   12  C   UNL     1     -10.719  12.819  67.313  1.00  0.00    -0.237 A  
HETATM   13  C   UNL     1     -11.149  13.165  66.018  1.00  0.00    -0.299 A  
HETATM   14  C   UNL     1     -10.653  10.496  66.642  1.00  0.00    -0.263 A  
HETATM   15  C   UNL     1     -11.352  12.185  65.036  1.00  0.00    -0.379 A  
HETATM   16  F   UNL     1     -12.051  13.897  63.505  1.00  0.00    -0.474 F  
HETATM   17  F   UNL     1     -11.041  12.166  62.664  1.00  0.00    -0.066 F  
HETATM   18  F   UNL     1     -13.081  11.986  63.400  1.00  0.00    -0.608 F  
HETATM   19  C   UNL     1     -11.876  12.556  63.664  1.00  0.00    -0.530 C  
HETATM   20  C   UNL     1     -11.093  10.849  65.359  1.00  0.00     0.080 A  
BRANCH  12  21
HETATM   21  S   UNL     1     -10.477  14.122  68.515  1.00  0.00    -0.255 S  
HETATM   22  C   UNL     1     -10.981  15.648  67.773  1.00  0.00    -0.316 C  
HETATM   23  O   UNL     1     -11.430  13.907  69.586  1.00  0.00    -0.263 OA 
HETATM   24  O   UNL     1      -9.043  14.207  68.718  1.00  0.00    -0.165 OA 
ENDBRANCH  12  21
ENDBRANCH   9  11
ENDBRANCH   5   9
TORSDOF 4
ENDMDL
MODEL       84
REMARK 921   NORMALIZED FREE ENERGY PREDICTED BY IDOCK:   -5.09 KCAL/MOL
REMARK 922        TOTAL FREE ENERGY PREDICTED BY IDOCK:   -6.80 KCAL/MOL
REMARK 923 INTER-LIGAND FREE ENERGY PREDICTED BY IDOCK:   -6.41 KCAL/MOL
REMARK 924 INTRA-LIGAND FREE ENERGY PREDICTED BY IDOCK:   -0.39 KCAL/MOL
REMARK 927      BINDING AFFINITY PREDICTED BY RF-SCORE:    0.00 PKD
ROOT
HETATM    1  C   UNL     1     -12.521  13.665  65.866  1.00  0.00    -0.452 A  
HETATM    2  N   UNL     1     -12.755  12.831  64.852  1.00  0.00    -0.748 NA 
HETATM    3  O   UNL     1     -11.859  11.793  65.022  1.00  0.00    -0.198 OA 
HETATM    4  C   UNL     1     -11.120  12.002  66.149  1.00  0.00    -0.322 A  
HETATM    5  C   UNL     1     -11.508  13.200  66.738  1.00  0.00    -0.386 A  
ENDROOT
BRANCH   4   6
HETATM    6  C   UNL     1     -10.054  11.026  66.641  1.00  0.00    -0.262 C  
HETATM    7  C   UNL     1     -10.496   9.726  67.283  1.00  0.00    -0.324 C  
HETATM    8  C   UNL     1      -9.910   9.705  65.914  1.00  0.00    -0.358 C  
ENDBRANCH   4   6
BRANCH   5   9
HETATM    9  C   UNL     1     -10.932  13.793  67.939  1.00  0.00    -0.253 C  
HETATM   10  O   UNL     1     -10.840  13.141  68.970  1.00  0.00    -0.234 OA 
BRANCH   9  11
HETATM   11  C   UNL     1     -10.531  15.235  68.001  1.00  0.00    -0.248 A  
HETATM   12  C   UNL     1      -9.186  15.654  68.123  1.00  0.00    -0.185 A  
HETATM   13  C   UNL     1      -8.881  17.014  68.315  1.00  0.00    -0.242 A  
HETATM   14  C   UNL     1     -11.540  16.210  68.110  1.00  0.00    -0.133 A  
HETATM   15  C   UNL     1      -9.896  17.975  68.425  1.00  0.00    -0.369 A  
HETATM   16  F   UNL     1      -8.224  19.667  68.751  1.00  0.00    -0.373 F  
HETATM   17  F   UNL     1     -10.054  20.262  67.740  1.00  0.00    -0.506 F  
HETATM   18  F   UNL     1     -10.071  19.862  69.879  1.00  0.00    -0.433 F  
HETATM   19  C   UNL     1      -9.564  19.429  68.695  1.00  0.00    -0.426 C  
HETATM   20  C   UNL     1     -11.226  17.561  68.313  1.00  0.00     0.245 A  
BRANCH  12  21
HETATM   21  S   UNL     1      -7.841  14.482  67.989  1.00  0.00    -0.152 S  
HETATM   22  C   UNL     1      -6.340  15.397  67.779  1.00  0.00    -0.161 C  
HETATM   23  O   UNL     1      -7.696  13.836  69.279  1.00  0.00     0.069 OA 
HETATM   24  O   UNL     1      -8.070  13.762  66.750  1.00  0.00     0.041 OA 
ENDBRANCH  12  21
ENDBRANCH   9  11
ENDBRANCH   5   9
TORSDOF 4
ENDMDL
MODEL       85
REMARK 921   NORMALIZED FREE ENERGY PREDICTED BY IDOCK:   -5.09 KCAL/MOL
REMARK 922        TOTAL FREE ENERGY PREDICTED BY IDOCK:   -6.79 KCAL/MOL
REMARK 923 INTER-LIGAND FREE ENERGY PREDICTED BY IDOCK:   -6.09 KCAL/MOL
REMARK 924 INTRA-LIGAND FREE ENERGY PREDICTED BY IDOCK:   -0.70 KCAL/MOL
REMARK 927      BINDING AFFINITY PREDICTED BY RF-SCORE:    0.00 PKD
ROOT
HETATM    1  C   UNL     1     -10.010  11.653  63.891  1.00  0.00    -0.327 A  
HETATM    2  N   UNL     1     -10.093  10.958  62.756  1.00  0.00    -0.146 NA 
HETATM    3  O   UNL     1      -9.498   9.742  63.032  1.00  0.00    -0.219 OA 
HETATM    4  C   UNL     1      -9.092   9.712  64.334  1.00  0.00    -0.229 A  
HETATM    5  C   UNL     1      -9.401  10.924  64.940  1.00  0.00    -0.258 A  
ENDROOT
BRANCH   4   6
HETATM    6  C   UNL     1      -8.419   8.498  64.971  1.00  0.00    -0.183 C  
HETATM    7  C   UNL     1      -7.564   7.598  64.101  1.00  0.00    -0.113 C  
HETATM    8  C   UNL     1      -6.909   8.502  65.087  1.00  0.00    -0.068 C  
ENDBRANCH   4   6
BRANCH   5   9
HETATM    9  C   UNL     1      -9.098  11.298  66.316  1.00  0.00    -0.199 C  
HETATM   10  O   UNL     1      -7.996  11.741  66.609  1.00  0.00    -0.148 OA 
BRANCH   9  11
HETATM   11  C   UNL     1     -10.064  11.063  67.436  1.00  0.00    -0.216 A  
HETATM   12  C   UNL     1     -10.794  12.105  68.052  1.00  0.00    -0.222 A  
HETATM   13  C   UNL     1     -11.582  11.845  69.189  1.00  0.00    -0.373 A  
HETATM   14  C   UNL     1     -10.125   9.781  68.015  1.00  0.00    -0.204 A  
HETATM   15  C   UNL     1     -11.632  10.564  69.757  1.00  0.00    -0.368 A  
HETATM   16  F   UNL     1     -13.101  11.403  71.460  1.00  0.00    -0.466 F  
HETATM   17  F   UNL     1     -13.369   9.334  70.850  1.00  0.00    -0.287 F  
HETATM   18  F   UNL     1     -11.646   9.902  72.052  1.00  0.00    -0.376 F  
HETATM   19  C   UNL     1     -12.431  10.303  71.018  1.00  0.00    -0.384 C  
HETATM   20  C   UNL     1     -10.903   9.534  69.154  1.00  0.00    -0.194 A  
BRANCH  12  21
HETATM   21  S   UNL     1     -10.780  13.763  67.379  1.00  0.00    -0.277 S  
HETATM   22  C   UNL     1     -11.636  14.819  68.512  1.00  0.00    -0.321 C  
HETATM   23  O   UNL     1      -9.408  14.232  67.410  1.00  0.00    -0.192 OA 
HETATM   24  O   UNL     1     -11.582  13.703  66.172  1.00  0.00    -0.324 OA 
ENDBRANCH  12  21
ENDBRANCH   9  11
ENDBRANCH   5   9
TORSDOF 4
ENDMDL
MODEL       86
REMARK 921   NORMALIZED FREE ENERGY PREDICTED BY IDOCK:   -5.08 KCAL/MOL
REMARK 922        TOTAL FREE ENERGY PREDICTED BY IDOCK:   -6.79 KCAL/MOL
REMARK 923 INTER-LIGAND FREE ENERGY PREDICTED BY IDOCK:   -6.57 KCAL/MOL
REMARK 924 INTRA-LIGAND FREE ENERGY PREDICTED BY IDOCK:   -0.22 KCAL/MOL
REMARK 927      BINDING AFFINITY PREDICTED BY RF-SCORE:    0.00 PKD
ROOT
HETATM    1  C   UNL     1     -10.142  15.159  69.429  1.00  0.00    -0.240 A  
HETATM    2  N   UNL     1      -9.261  16.103  69.096  1.00  0.00    -0.251 NA 
HETATM    3  O   UNL     1      -9.170  16.045  67.719  1.00  0.00    -0.203 OA 
HETATM    4  C   UNL     1     -10.015  15.087  67.241  1.00  0.00    -0.233 A  
HETATM    5  C   UNL     1     -10.673  14.482  68.305  1.00  0.00    -0.243 A  
ENDROOT
BRANCH   4   6
HETATM    6  C   UNL     1     -10.177  14.784  65.753  1.00  0.00    -0.359 C  
HETATM    7  C   UNL     1     -11.566  14.828  65.147  1.00  0.00    -0.358 C  
HETATM    8  C   UNL     1     -10.597  15.917  64.839  1.00  0.00    -0.281 C  
ENDBRANCH   4   6
BRANCH   5   9
HETATM    9  C   UNL     1     -11.632  13.388  68.211  1.00  0.00    -0.344 C  
HETATM   10  O   UNL     1     -12.632  13.497  67.516  1.00  0.00     0.004 OA 
BRANCH   9  11
HETATM   11  C   UNL     1     -11.498  12.141  69.031  1.00  0.00    -0.351 A  
HETATM   12  C   UNL     1     -10.881  10.965  68.546  1.00  0.00    -0.220 A  
HETATM   13  C   UNL     1     -10.906   9.783  69.308  1.00  0.00    -0.240 A  
HETATM   14  C   UNL     1     -12.161  12.076  70.271  1.00  0.00    -0.395 A  
HETATM   15  C   UNL     1     -11.572   9.731  70.542  1.00  0.00    -0.365 A  
HETATM   16  F   UNL     1     -10.975   7.414  70.738  1.00  0.00    -0.239 F  
HETATM   17  F   UNL     1     -11.135   8.557  72.580  1.00  0.00    -0.399 F  
HETATM   18  F   UNL     1     -12.930   8.005  71.481  1.00  0.00    -0.309 F  
HETATM   19  C   UNL     1     -11.651   8.439  71.328  1.00  0.00    -0.283 C  
HETATM   20  C   UNL     1     -12.191  10.890  71.018  1.00  0.00    -0.464 A  
BRANCH  12  21
HETATM   21  S   UNL     1     -10.010  10.960  66.982  1.00  0.00    -0.198 S  
HETATM   22  C   UNL     1      -9.515   9.296  66.639  1.00  0.00    -0.191 C  
HETATM   23  O   UNL     1     -10.975  11.274  65.947  1.00  0.00    -0.247 OA 
HETATM   24  O   UNL     1      -8.796  11.722  67.207  1.00  0.00    -0.157 OA 
ENDBRANCH  12  21
ENDBRANCH   9  11
ENDBRANCH   5   9
TORSDOF 4
ENDMDL
MODEL       87
REMARK 921   NORMALIZED FREE ENERGY PREDICTED BY IDOCK:   -5.07 KCAL/MOL
REMARK 922        TOTAL FREE ENERGY PREDICTED BY IDOCK:   -6.78 KCAL/MOL
REMARK 923 INTER-LIGAND FREE ENERGY PREDICTED BY IDOCK:   -6.42 KCAL/MOL
REMARK 924 INTRA-LIGAND FREE ENERGY PREDICTED BY IDOCK:   -0.36 KCAL/MOL
REMARK 927      BINDING AFFINITY PREDICTED BY RF-SCORE:    0.00 PKD
ROOT
HETATM    1  C   UNL     1     -12.462  11.199  70.204  1.00  0.00    -0.241 A  
HETATM    2  N   UNL     1     -12.490  10.835  71.486  1.00  0.00    -0.364 NA 
HETATM    3  O   UNL     1     -11.570   9.810  71.592  1.00  0.00    -0.375 OA 
HETATM    4  C   UNL     1     -10.983   9.591  70.381  1.00  0.00    -0.278 A  
HETATM    5  C   UNL     1     -11.520  10.465  69.444  1.00  0.00    -0.292 A  
ENDROOT
BRANCH   4   6
HETATM    6  C   UNL     1      -9.897   8.540  70.158  1.00  0.00    -0.184 C  
HETATM    7  C   UNL     1      -9.736   7.429  71.176  1.00  0.00    -0.166 C  
HETATM    8  C   UNL     1     -10.333   7.123  69.847  1.00  0.00    -0.224 C  
ENDBRANCH   4   6
BRANCH   5   9
HETATM    9  C   UNL     1     -11.181  10.521  68.028  1.00  0.00    -0.294 C  
HETATM   10  O   UNL     1     -11.025   9.492  67.386  1.00  0.00    -0.232 OA 
BRANCH   9  11
HETATM   11  C   UNL     1     -10.905  11.816  67.326  1.00  0.00    -0.300 A  
HETATM   12  C   UNL     1      -9.601  12.337  67.161  1.00  0.00    -0.200 A  
HETATM   13  C   UNL     1      -9.413  13.622  66.617  1.00  0.00    -0.285 A  
HETATM   14  C   UNL     1     -11.994  12.630  66.962  1.00  0.00    -0.330 A  
HETATM   15  C   UNL     1     -10.507  14.424  66.260  1.00  0.00    -0.292 A  
HETATM   16  F   UNL     1      -8.987  16.162  65.604  1.00  0.00    -0.329 F  
HETATM   17  F   UNL     1     -10.858  16.014  64.509  1.00  0.00    -0.443 F  
HETATM   18  F   UNL     1     -10.848  16.770  66.549  1.00  0.00    -0.271 F  
HETATM   19  C   UNL     1     -10.301  15.830  65.734  1.00  0.00    -0.369 C  
HETATM   20  C   UNL     1     -11.797  13.912  66.431  1.00  0.00    -0.436 A  
BRANCH  12  21
HETATM   21  S   UNL     1      -8.160  11.367  67.590  1.00  0.00    -0.130 S  
HETATM   22  C   UNL     1      -6.724  12.351  67.265  1.00  0.00    -0.133 C  
HETATM   23  O   UNL     1      -8.165  11.196  69.030  1.00  0.00    -0.137 OA 
HETATM   24  O   UNL     1      -8.135  10.264  66.649  1.00  0.00    -0.115 OA 
ENDBRANCH  12  21
ENDBRANCH   9  11
ENDBRANCH   5   9
TORSDOF 4
ENDMDL
MODEL       88
REMARK 921   NORMALIZED FREE ENERGY PREDICTED BY IDOCK:   -5.06 KCAL/MOL
REMARK 922        TOTAL FREE ENERGY PREDICTED BY IDOCK:   -6.77 KCAL/MOL
REMARK 923 INTER-LIGAND FREE ENERGY PREDICTED BY IDOCK:   -6.83 KCAL/MOL
REMARK 924 INTRA-LIGAND FREE ENERGY PREDICTED BY IDOCK:    0.06 KCAL/MOL
REMARK 927      BINDING AFFINITY PREDICTED BY RF-SCORE:    0.00 PKD
ROOT
HETATM    1  C   UNL     1     -12.721  14.793  70.333  1.00  0.00    -0.316 A  
HETATM    2  N   UNL     1     -13.544  14.600  71.364  1.00  0.00    -0.387 NA 
HETATM    3  O   UNL     1     -13.413  13.264  71.688  1.00  0.00    -0.352 OA 
HETATM    4  C   UNL     1     -12.494  12.679  70.867  1.00  0.00    -0.278 A  
HETATM    5  C   UNL     1     -12.010  13.623  69.971  1.00  0.00    -0.413 A  
ENDROOT
BRANCH   4   6
HETATM    6  C   UNL     1     -12.093  11.209  70.978  1.00  0.00    -0.380 C  
HETATM    7  C   UNL     1     -12.840  10.319  71.951  1.00  0.00    -0.528 C  
HETATM    8  C   UNL     1     -13.075  10.165  70.489  1.00  0.00    -0.170 C  
ENDBRANCH   4   6
BRANCH   5   9
HETATM    9  C   UNL     1     -11.041  13.383  68.909  1.00  0.00    -0.266 C  
HETATM   10  O   UNL     1     -10.872  12.255  68.467  1.00  0.00    -0.219 OA 
BRANCH   9  11
HETATM   11  C   UNL     1     -10.142  14.464  68.392  1.00  0.00    -0.244 A  
HETATM   12  C   UNL     1     -10.080  14.824  67.027  1.00  0.00    -0.245 A  
HETATM   13  C   UNL     1      -9.120  15.750  66.578  1.00  0.00    -0.327 A  
HETATM   14  C   UNL     1      -9.198  15.032  69.269  1.00  0.00    -0.159 A  
HETATM   15  C   UNL     1      -8.183  16.306  67.462  1.00  0.00    -0.165 A  
HETATM   16  F   UNL     1      -7.215  17.522  65.632  1.00  0.00    -0.312 F  
HETATM   17  F   UNL     1      -7.145  18.457  67.592  1.00  0.00    -0.200 F  
HETATM   18  F   UNL     1      -5.859  16.759  67.149  1.00  0.00    -0.139 F  
HETATM   19  C   UNL     1      -7.111  17.254  66.963  1.00  0.00    -0.186 C  
HETATM   20  C   UNL     1      -8.237  15.944  68.811  1.00  0.00    -0.196 A  
BRANCH  12  21
HETATM   21  S   UNL     1     -11.246  14.157  65.844  1.00  0.00    -0.320 S  
HETATM   22  C   UNL     1     -11.362  15.293  64.492  1.00  0.00    -0.300 C  
HETATM   23  O   UNL     1     -10.649  12.966  65.270  1.00  0.00    -0.284 OA 
HETATM   24  O   UNL     1     -12.533  14.168  66.514  1.00  0.00    -0.447 OA 
ENDBRANCH  12  21
ENDBRANCH   9  11
ENDBRANCH   5   9
TORSDOF 4
ENDMDL
MODEL       89
REMARK 921   NORMALIZED FREE ENERGY PREDICTED BY IDOCK:   -5.05 KCAL/MOL
REMARK 922        TOTAL FREE ENERGY PREDICTED BY IDOCK:   -6.76 KCAL/MOL
REMARK 923 INTER-LIGAND FREE ENERGY PREDICTED BY IDOCK:   -6.56 KCAL/MOL
REMARK 924 INTRA-LIGAND FREE ENERGY PREDICTED BY IDOCK:   -0.20 KCAL/MOL
REMARK 927      BINDING AFFINITY PREDICTED BY RF-SCORE:    0.00 PKD
ROOT
HETATM    1  C   UNL     1      -9.536   8.326  73.187  1.00  0.00    -0.193 A  
HETATM    2  N   UNL     1      -8.738   7.725  74.070  1.00  0.00    -0.257 NA 
HETATM    3  O   UNL     1      -9.245   6.447  74.206  1.00  0.00    -0.149 OA 
HETATM    4  C   UNL     1     -10.320   6.288  73.382  1.00  0.00    -0.242 A  
HETATM    5  C   UNL     1     -10.553   7.473  72.695  1.00  0.00    -0.338 A  
ENDROOT
BRANCH   4   6
HETATM    6  C   UNL     1     -11.098   4.979  73.269  1.00  0.00    -0.406 C  
HETATM    7  C   UNL     1     -10.391   3.755  72.720  1.00  0.00    -0.238 C  
HETATM    8  C   UNL     1     -10.698   3.833  74.175  1.00  0.00    -0.258 C  
ENDBRANCH   4   6
BRANCH   5   9
HETATM    9  C   UNL     1     -11.632   7.719  71.747  1.00  0.00    -0.272 C  
HETATM   10  O   UNL     1     -12.564   6.932  71.651  1.00  0.00    -0.357 OA 
BRANCH   9  11
HETATM   11  C   UNL     1     -11.602   8.868  70.786  1.00  0.00    -0.301 A  
HETATM   12  C   UNL     1     -10.856   8.845  69.585  1.00  0.00    -0.178 A  
HETATM   13  C   UNL     1     -10.755  10.002  68.790  1.00  0.00    -0.250 A  
HETATM   14  C   UNL     1     -12.203  10.082  71.169  1.00  0.00    -0.477 A  
HETATM   15  C   UNL     1     -11.356  11.206  69.184  1.00  0.00    -0.340 A  
HETATM   16  F   UNL     1     -10.475  12.262  67.216  1.00  0.00    -0.215 F  
HETATM   17  F   UNL     1     -12.381  12.991  67.964  1.00  0.00    -0.318 F  
HETATM   18  F   UNL     1     -10.543  13.448  69.037  1.00  0.00    -0.229 F  
HETATM   19  C   UNL     1     -11.191  12.465  68.357  1.00  0.00    -0.273 C  
HETATM   20  C   UNL     1     -12.086  11.232  70.376  1.00  0.00    -0.474 A  
BRANCH  12  21
HETATM   21  S   UNL     1     -10.067   7.342  69.019  1.00  0.00    -0.198 S  
HETATM   22  C   UNL     1      -9.266   7.694  67.480  1.00  0.00    -0.132 C  
HETATM   23  O   UNL     1      -8.982   7.050  69.936  1.00  0.00    -0.142 OA 
HETATM   24  O   UNL     1     -11.146   6.418  68.730  1.00  0.00    -0.320 OA 
ENDBRANCH  12  21
ENDBRANCH   9  11
ENDBRANCH   5   9
TORSDOF 4
ENDMDL
MODEL       90
REMARK 921   NORMALIZED FREE ENERGY PREDICTED BY IDOCK:   -5.04 KCAL/MOL
REMARK 922        TOTAL FREE ENERGY PREDICTED BY IDOCK:   -6.74 KCAL/MOL
REMARK 923 INTER-LIGAND FREE ENERGY PREDICTED BY IDOCK:   -6.06 KCAL/MOL
REMARK 924 INTRA-LIGAND FREE ENERGY PREDICTED BY IDOCK:   -0.68 KCAL/MOL
REMARK 927      BINDING AFFINITY PREDICTED BY RF-SCORE:    0.00 PKD
ROOT
HETATM    1  C   UNL     1     -10.332  10.146  70.003  1.00  0.00    -0.250 A  
HETATM    2  N   UNL     1     -11.453  10.597  69.440  1.00  0.00    -0.269 NA 
HETATM    3  O   UNL     1     -12.478   9.973  70.124  1.00  0.00    -0.110 OA 
HETATM    4  C   UNL     1     -11.961   9.178  71.105  1.00  0.00    -0.308 A  
HETATM    5  C   UNL     1     -10.574   9.254  71.075  1.00  0.00    -0.386 A  
ENDROOT
BRANCH   4   6
HETATM    6  C   UNL     1     -12.827   8.366  72.065  1.00  0.00    -0.389 C  
HETATM    7  C   UNL     1     -14.326   8.328  71.841  1.00  0.00    -0.564 C  
HETATM    8  C   UNL     1     -13.508   7.123  71.530  1.00  0.00    -0.411 C  
ENDBRANCH   4   6
BRANCH   5   9
HETATM    9  C   UNL     1      -9.654   8.525  71.939  1.00  0.00    -0.283 C  
HETATM   10  O   UNL     1      -8.657   9.074  72.388  1.00  0.00    -0.354 OA 
BRANCH   9  11
HETATM   11  C   UNL     1      -9.822   7.065  72.228  1.00  0.00    -0.170 A  
HETATM   12  C   UNL     1      -9.728   6.068  71.230  1.00  0.00    -0.172 A  
HETATM   13  C   UNL     1     -10.030   4.728  71.533  1.00  0.00    -0.263 A  
HETATM   14  C   UNL     1     -10.257   6.678  73.510  1.00  0.00    -0.300 A  
HETATM   15  C   UNL     1     -10.465   4.356  72.814  1.00  0.00    -0.253 A  
HETATM   16  F   UNL     1     -10.667   2.085  72.058  1.00  0.00    -0.193 F  
HETATM   17  F   UNL     1     -10.129   2.394  74.141  1.00  0.00    -0.117 F  
HETATM   18  F   UNL     1     -12.158   2.803  73.469  1.00  0.00    -0.279 F  
HETATM   19  C   UNL     1     -10.850   2.922  73.118  1.00  0.00    -0.134 C  
HETATM   20  C   UNL     1     -10.567   5.342  73.799  1.00  0.00    -0.330 A  
BRANCH  12  21
HETATM   21  S   UNL     1      -9.176   6.471  69.576  1.00  0.00    -0.141 S  
HETATM   22  C   UNL     1      -8.692   4.964  68.781  1.00  0.00    -0.093 C  
HETATM   23  O   UNL     1     -10.334   6.921  68.829  1.00  0.00    -0.173 OA 
HETATM   24  O   UNL     1      -7.971   7.261  69.746  1.00  0.00    -0.117 OA 
ENDBRANCH  12  21
ENDBRANCH   9  11
ENDBRANCH   5   9
TORSDOF 4
ENDMDL
MODEL       91
REMARK 921   NORMALIZED FREE ENERGY PREDICTED BY IDOCK:   -5.03 KCAL/MOL
REMARK 922        TOTAL FREE ENERGY PREDICTED BY IDOCK:   -6.73 KCAL/MOL
REMARK 923 INTER-LIGAND FREE ENERGY PREDICTED BY IDOCK:   -6.53 KCAL/MOL
REMARK 924 INTRA-LIGAND FREE ENERGY PREDICTED BY IDOCK:   -0.20 KCAL/MOL
REMARK 927      BINDING AFFINITY PREDICTED BY RF-SCORE:    0.00 PKD
ROOT
HETATM    1  C   UNL     1      -9.756   8.295  72.835  1.00  0.00    -0.240 A  
HETATM    2  N   UNL     1      -8.786   7.514  73.311  1.00  0.00    -0.147 NA 
HETATM    3  O   UNL     1      -8.948   6.302  72.670  1.00  0.00    -0.131 OA 
HETATM    4  C   UNL     1      -9.994   6.378  71.798  1.00  0.00    -0.177 A  
HETATM    5  C   UNL     1     -10.553   7.649  71.860  1.00  0.00    -0.257 A  
ENDROOT
BRANCH   4   6
HETATM    6  C   UNL     1     -10.424   5.215  70.907  1.00  0.00    -0.258 C  
HETATM    7  C   UNL     1      -9.546   4.831  69.732  1.00  0.00    -0.249 C  
HETATM    8  C   UNL     1      -9.589   3.952  70.934  1.00  0.00    -0.258 C  
ENDBRANCH   4   6
BRANCH   5   9
HETATM    9  C   UNL     1     -11.711   8.116  71.108  1.00  0.00    -0.283 C  
HETATM   10  O   UNL     1     -12.384   7.331  70.455  1.00  0.00    -0.161 OA 
BRANCH   9  11
HETATM   11  C   UNL     1     -12.065   9.568  71.012  1.00  0.00    -0.398 A  
HETATM   12  C   UNL     1     -11.393  10.467  70.152  1.00  0.00    -0.323 A  
HETATM   13  C   UNL     1     -11.675  11.845  70.204  1.00  0.00    -0.337 A  
HETATM   14  C   UNL     1     -12.989  10.099  71.932  1.00  0.00    -0.549 A  
HETATM   15  C   UNL     1     -12.596  12.361  71.127  1.00  0.00    -0.349 A  
HETATM   16  F   UNL     1     -12.149  14.571  70.300  1.00  0.00    -0.294 F  
HETATM   17  F   UNL     1     -14.156  14.172  71.032  1.00  0.00    -0.297 F  
HETATM   18  F   UNL     1     -12.502  14.358  72.435  1.00  0.00    -0.376 F  
HETATM   19  C   UNL     1     -12.849  13.852  71.222  1.00  0.00    -0.360 C  
HETATM   20  C   UNL     1     -13.254  11.474  71.984  1.00  0.00    -0.443 A  
BRANCH  12  21
HETATM   21  S   UNL     1     -10.209   9.878  68.946  1.00  0.00    -0.208 S  
HETATM   22  C   UNL     1      -9.708  11.256  67.955  1.00  0.00    -0.179 C  
HETATM   23  O   UNL     1      -9.011   9.492  69.666  1.00  0.00    -0.159 OA 
HETATM   24  O   UNL     1     -10.948   8.982  68.077  1.00  0.00    -0.101 OA 
ENDBRANCH  12  21
ENDBRANCH   9  11
ENDBRANCH   5   9
TORSDOF 4
ENDMDL
MODEL       92
REMARK 921   NORMALIZED FREE ENERGY PREDICTED BY IDOCK:   -5.03 KCAL/MOL
REMARK 922        TOTAL FREE ENERGY PREDICTED BY IDOCK:   -6.72 KCAL/MOL
REMARK 923 INTER-LIGAND FREE ENERGY PREDICTED BY IDOCK:   -5.96 KCAL/MOL
REMARK 924 INTRA-LIGAND FREE ENERGY PREDICTED BY IDOCK:   -0.76 KCAL/MOL
REMARK 927      BINDING AFFINITY PREDICTED BY RF-SCORE:    0.00 PKD
ROOT
HETATM    1  C   UNL     1     -12.713  14.338  71.030  1.00  0.00    -0.359 A  
HETATM    2  N   UNL     1     -13.227  13.863  72.165  1.00  0.00    -0.408 NA 
HETATM    3  O   UNL     1     -13.205  12.489  72.026  1.00  0.00    -0.472 OA 
HETATM    4  C   UNL     1     -12.654  12.156  70.823  1.00  0.00    -0.216 A  
HETATM    5  C   UNL     1     -12.314  13.316  70.137  1.00  0.00    -0.306 A  
ENDROOT
BRANCH   4   6
HETATM    6  C   UNL     1     -12.456  10.712  70.366  1.00  0.00    -0.421 C  
HETATM    7  C   UNL     1     -11.378   9.878  71.030  1.00  0.00    -0.460 C  
HETATM    8  C   UNL     1     -12.809   9.605  71.337  1.00  0.00    -0.471 C  
ENDBRANCH   4   6
BRANCH   5   9
HETATM    9  C   UNL     1     -11.733  13.384  68.802  1.00  0.00    -0.340 C  
HETATM   10  O   UNL     1     -12.440  13.602  67.828  1.00  0.00    -0.117 OA 
BRANCH   9  11
HETATM   11  C   UNL     1     -10.286  13.091  68.547  1.00  0.00    -0.218 A  
HETATM   12  C   UNL     1      -9.316  14.103  68.366  1.00  0.00    -0.208 A  
HETATM   13  C   UNL     1      -8.001  13.770  67.994  1.00  0.00    -0.156 A  
HETATM   14  C   UNL     1      -9.901  11.757  68.311  1.00  0.00    -0.198 A  
HETATM   15  C   UNL     1      -7.631  12.437  67.759  1.00  0.00    -0.134 A  
HETATM   16  F   UNL     1      -5.414  13.176  67.207  1.00  0.00    -0.091 F  
HETATM   17  F   UNL     1      -5.607  11.219  68.133  1.00  0.00    -0.043 F  
HETATM   18  F   UNL     1      -6.223  11.511  66.066  1.00  0.00    -0.096 F  
HETATM   19  C   UNL     1      -6.231  12.089  67.297  1.00  0.00    -0.149 C  
HETATM   20  C   UNL     1      -8.591  11.436  67.929  1.00  0.00    -0.140 A  
BRANCH  12  21
HETATM   21  S   UNL     1      -9.717  15.824  68.653  1.00  0.00    -0.214 S  
HETATM   22  C   UNL     1      -8.273  16.786  68.305  1.00  0.00    -0.204 C  
HETATM   23  O   UNL     1     -10.673  16.222  67.638  1.00  0.00    -0.313 OA 
HETATM   24  O   UNL     1      -9.964  15.937  70.078  1.00  0.00    -0.226 OA 
ENDBRANCH  12  21
ENDBRANCH   9  11
ENDBRANCH   5   9
TORSDOF 4
ENDMDL
MODEL       93
REMARK 921   NORMALIZED FREE ENERGY PREDICTED BY IDOCK:   -5.02 KCAL/MOL
REMARK 922        TOTAL FREE ENERGY PREDICTED BY IDOCK:   -6.72 KCAL/MOL
REMARK 923 INTER-LIGAND FREE ENERGY PREDICTED BY IDOCK:   -6.77 KCAL/MOL
REMARK 924 INTRA-LIGAND FREE ENERGY PREDICTED BY IDOCK:    0.05 KCAL/MOL
REMARK 927      BINDING AFFINITY PREDICTED BY RF-SCORE:    0.00 PKD
ROOT
HETATM    1  C   UNL     1      -8.122   9.664  70.003  1.00  0.00    -0.178 A  
HETATM    2  N   UNL     1      -8.457   9.211  71.211  1.00  0.00    -0.325 NA 
HETATM    3  O   UNL     1      -9.805   9.484  71.339  1.00  0.00    -0.200 OA 
HETATM    4  C   UNL     1     -10.267  10.070  70.198  1.00  0.00    -0.242 A  
HETATM    5  C   UNL     1      -9.220  10.209  69.295  1.00  0.00    -0.220 A  
ENDROOT
BRANCH   4   6
HETATM    6  C   UNL     1     -11.727  10.475  69.999  1.00  0.00    -0.394 C  
HETATM    7  C   UNL     1     -12.684  10.353  71.168  1.00  0.00    -0.514 C  
HETATM    8  C   UNL     1     -12.230  11.702  70.731  1.00  0.00    -0.443 C  
ENDBRANCH   4   6
BRANCH   5   9
HETATM    9  C   UNL     1      -9.299  10.822  67.975  1.00  0.00    -0.150 C  
HETATM   10  O   UNL     1      -9.417  10.127  66.975  1.00  0.00    -0.161 OA 
BRANCH   9  11
HETATM   11  C   UNL     1      -9.133  12.297  67.771  1.00  0.00    -0.191 A  
HETATM   12  C   UNL     1      -9.960  13.050  66.907  1.00  0.00    -0.243 A  
HETATM   13  C   UNL     1      -9.673  14.403  66.648  1.00  0.00    -0.289 A  
HETATM   14  C   UNL     1      -8.008  12.932  68.329  1.00  0.00    -0.151 A  
HETATM   15  C   UNL     1      -8.547  15.023  67.209  1.00  0.00    -0.226 A  
HETATM   16  F   UNL     1      -9.123  17.051  66.060  1.00  0.00    -0.286 F  
HETATM   17  F   UNL     1      -8.130  17.248  67.983  1.00  0.00    -0.198 F  
HETATM   18  F   UNL     1      -7.010  16.576  66.243  1.00  0.00    -0.230 F  
HETATM   19  C   UNL     1      -8.206  16.462  66.877  1.00  0.00    -0.218 C  
HETATM   20  C   UNL     1      -7.723  14.277  68.057  1.00  0.00    -0.141 A  
BRANCH  12  21
HETATM   21  S   UNL     1     -11.416  12.324  66.160  1.00  0.00    -0.376 S  
HETATM   22  C   UNL     1     -12.414  13.639  65.520  1.00  0.00    -0.503 C  
HETATM   23  O   UNL     1     -10.982  11.591  64.986  1.00  0.00    -0.290 OA 
HETATM   24  O   UNL     1     -12.160  11.725  67.252  1.00  0.00    -0.595 OA 
ENDBRANCH  12  21
ENDBRANCH   9  11
ENDBRANCH   5   9
TORSDOF 4
ENDMDL
MODEL       94
REMARK 921   NORMALIZED FREE ENERGY PREDICTED BY IDOCK:   -5.02 KCAL/MOL
REMARK 922        TOTAL FREE ENERGY PREDICTED BY IDOCK:   -6.72 KCAL/MOL
REMARK 923 INTER-LIGAND FREE ENERGY PREDICTED BY IDOCK:   -7.00 KCAL/MOL
REMARK 924 INTRA-LIGAND FREE ENERGY PREDICTED BY IDOCK:    0.29 KCAL/MOL
REMARK 927      BINDING AFFINITY PREDICTED BY RF-SCORE:    0.00 PKD
ROOT
HETATM    1  C   UNL     1     -12.463  13.970  66.802  1.00  0.00    -0.201 A  
HETATM    2  N   UNL     1     -12.143  13.983  65.508  1.00  0.00    -0.389 NA 
HETATM    3  O   UNL     1     -10.793  13.695  65.465  1.00  0.00    -0.284 OA 
HETATM    4  C   UNL     1     -10.326  13.485  66.729  1.00  0.00    -0.264 A  
HETATM    5  C   UNL     1     -11.365  13.648  67.636  1.00  0.00    -0.328 A  
ENDROOT
BRANCH   4   6
HETATM    6  C   UNL     1      -8.875  13.117  67.032  1.00  0.00    -0.212 C  
HETATM    7  C   UNL     1      -8.566  11.721  67.534  1.00  0.00    -0.157 C  
HETATM    8  C   UNL     1      -8.199  12.097  66.140  1.00  0.00     0.390 C  
ENDBRANCH   4   6
BRANCH   5   9
HETATM    9  C   UNL     1     -11.264  13.542  69.086  1.00  0.00    -0.260 C  
HETATM   10  O   UNL     1     -10.632  14.371  69.726  1.00  0.00    -0.085 OA 
BRANCH   9  11
HETATM   11  C   UNL     1     -11.827  12.377  69.841  1.00  0.00    -0.376 A  
HETATM   12  C   UNL     1     -12.651  12.526  70.981  1.00  0.00    -0.256 A  
HETATM   13  C   UNL     1     -13.037  11.399  71.730  1.00  0.00    -0.523 A  
HETATM   14  C   UNL     1     -11.387  11.082  69.508  1.00  0.00    -0.356 A  
HETATM   15  C   UNL     1     -12.589  10.115  71.389  1.00  0.00    -0.526 A  
HETATM   16  F   UNL     1     -13.781   9.225  73.274  1.00  0.00    -0.254 F  
HETATM   17  F   UNL     1     -13.597   7.949  71.524  1.00  0.00    -0.343 F  
HETATM   18  F   UNL     1     -11.866   8.319  72.789  1.00  0.00    -0.442 F  
HETATM   19  C   UNL     1     -12.956   8.913  72.236  1.00  0.00    -0.419 C  
HETATM   20  C   UNL     1     -11.767   9.967  70.268  1.00  0.00    -0.327 A  
BRANCH  12  21
HETATM   21  S   UNL     1     -13.263  14.134  71.472  1.00  0.00    -0.357 S  
HETATM   22  C   UNL     1     -11.992  14.940  72.404  1.00  0.00    -0.287 C  
HETATM   23  O   UNL     1     -13.394  14.934  70.270  1.00  0.00    -0.101 OA 
HETATM   24  O   UNL     1     -14.356  13.875  72.389  1.00  0.00    -0.647 OA 
ENDBRANCH  12  21
ENDBRANCH   9  11
ENDBRANCH   5   9
TORSDOF 4
ENDMDL
MODEL       95
REMARK 921   NORMALIZED FREE ENERGY PREDICTED BY IDOCK:   -4.99 KCAL/MOL
REMARK 922        TOTAL FREE ENERGY PREDICTED BY IDOCK:   -6.68 KCAL/MOL
REMARK 923 INTER-LIGAND FREE ENERGY PREDICTED BY IDOCK:   -6.20 KCAL/MOL
REMARK 924 INTRA-LIGAND FREE ENERGY PREDICTED BY IDOCK:   -0.48 KCAL/MOL
REMARK 927      BINDING AFFINITY PREDICTED BY RF-SCORE:    0.00 PKD
ROOT
HETATM    1  C   UNL     1     -12.093  11.149  69.490  1.00  0.00    -0.326 A  
HETATM    2  N   UNL     1     -12.534  10.604  70.624  1.00  0.00    -0.343 NA 
HETATM    3  O   UNL     1     -11.494   9.815  71.075  1.00  0.00    -0.322 OA 
HETATM    4  C   UNL     1     -10.434   9.918  70.223  1.00  0.00    -0.291 A  
HETATM    5  C   UNL     1     -10.765  10.773  69.179  1.00  0.00    -0.265 A  
ENDROOT
BRANCH   4   6
HETATM    6  C   UNL     1      -9.109   9.191  70.447  1.00  0.00    -0.270 C  
HETATM    7  C   UNL     1      -8.877   8.488  71.770  1.00  0.00    -0.278 C  
HETATM    8  C   UNL     1      -9.135   7.680  70.546  1.00  0.00    -0.151 C  
ENDBRANCH   4   6
BRANCH   5   9
HETATM    9  C   UNL     1      -9.914  11.114  68.046  1.00  0.00    -0.176 C  
HETATM   10  O   UNL     1      -9.428  10.234  67.348  1.00  0.00    -0.151 OA 
BRANCH   9  11
HETATM   11  C   UNL     1      -9.512  12.526  67.749  1.00  0.00    -0.197 A  
HETATM   12  C   UNL     1      -9.970  13.233  66.613  1.00  0.00    -0.272 A  
HETATM   13  C   UNL     1      -9.452  14.506  66.312  1.00  0.00    -0.310 A  
HETATM   14  C   UNL     1      -8.508  13.120  68.537  1.00  0.00    -0.058 A  
HETATM   15  C   UNL     1      -8.450  15.086  67.104  1.00  0.00    -0.244 A  
HETATM   16  F   UNL     1      -8.428  16.989  65.640  1.00  0.00    -0.192 F  
HETATM   17  F   UNL     1      -7.977  17.344  67.736  1.00  0.00    -0.192 F  
HETATM   18  F   UNL     1      -6.523  16.343  66.464  1.00  0.00    -0.208 F  
HETATM   19  C   UNL     1      -7.851  16.429  66.740  1.00  0.00    -0.266 C  
HETATM   20  C   UNL     1      -7.990  14.384  68.222  1.00  0.00    -0.140 A  
BRANCH  12  21
HETATM   21  S   UNL     1     -11.249  12.555  65.561  1.00  0.00    -0.327 S  
HETATM   22  C   UNL     1     -11.701  13.798  64.384  1.00  0.00    -0.408 C  
HETATM   23  O   UNL     1     -10.645  11.503  64.766  1.00  0.00    -0.277 OA 
HETATM   24  O   UNL     1     -12.399  12.353  66.422  1.00  0.00    -0.539 OA 
ENDBRANCH  12  21
ENDBRANCH   9  11
ENDBRANCH   5   9
TORSDOF 4
ENDMDL
MODEL       96
REMARK 921   NORMALIZED FREE ENERGY PREDICTED BY IDOCK:   -4.98 KCAL/MOL
REMARK 922        TOTAL FREE ENERGY PREDICTED BY IDOCK:   -6.67 KCAL/MOL
REMARK 923 INTER-LIGAND FREE ENERGY PREDICTED BY IDOCK:   -6.08 KCAL/MOL
REMARK 924 INTRA-LIGAND FREE ENERGY PREDICTED BY IDOCK:   -0.59 KCAL/MOL
REMARK 927      BINDING AFFINITY PREDICTED BY RF-SCORE:    0.00 PKD
ROOT
HETATM    1  C   UNL     1      -9.702  13.483  68.025  1.00  0.00    -0.228 A  
HETATM    2  N   UNL     1      -9.652  14.798  67.813  1.00  0.00    -0.207 NA 
HETATM    3  O   UNL     1     -10.601  15.045  66.840  1.00  0.00    -0.285 OA 
HETATM    4  C   UNL     1     -11.228  13.882  66.502  1.00  0.00    -0.321 A  
HETATM    5  C   UNL     1     -10.688  12.836  67.241  1.00  0.00    -0.256 A  
ENDROOT
BRANCH   4   6
HETATM    6  C   UNL     1     -12.353  13.809  65.471  1.00  0.00    -0.507 C  
HETATM    7  C   UNL     1     -12.338  14.778  64.306  1.00  0.00    -0.345 C  
HETATM    8  C   UNL     1     -12.005  13.345  64.072  1.00  0.00    -0.520 C  
ENDBRANCH   4   6
BRANCH   5   9
HETATM    9  C   UNL     1     -11.063  11.432  67.144  1.00  0.00    -0.305 C  
HETATM   10  O   UNL     1     -12.033  11.005  67.756  1.00  0.00    -0.609 OA 
BRANCH   9  11
HETATM   11  C   UNL     1     -10.235  10.436  66.391  1.00  0.00    -0.292 A  
HETATM   12  C   UNL     1      -9.421   9.473  67.031  1.00  0.00    -0.155 A  
HETATM   13  C   UNL     1      -8.560   8.656  66.276  1.00  0.00    -0.151 A  
HETATM   14  C   UNL     1     -10.128  10.568  64.993  1.00  0.00    -0.390 A  
HETATM   15  C   UNL     1      -8.461   8.799  64.884  1.00  0.00    -0.189 A  
HETATM   16  F   UNL     1      -6.806   7.060  64.846  1.00  0.00    -0.043 F  
HETATM   17  F   UNL     1      -8.098   7.239  63.107  1.00  0.00    -0.126 F  
HETATM   18  F   UNL     1      -6.541   8.717  63.465  1.00  0.00    -0.086 F  
HETATM   19  C   UNL     1      -7.486   7.961  64.083  1.00  0.00    -0.105 C  
HETATM   20  C   UNL     1      -9.258   9.757  64.251  1.00  0.00    -0.286 A  
BRANCH  12  21
HETATM   21  S   UNL     1      -9.499   9.233  68.803  1.00  0.00    -0.151 S  
HETATM   22  C   UNL     1      -8.262   8.046  69.246  1.00  0.00    -0.127 C  
HETATM   23  O   UNL     1      -9.061  10.466  69.428  1.00  0.00    -0.196 OA 
HETATM   24  O   UNL     1     -10.785   8.614  69.058  1.00  0.00    -0.198 OA 
ENDBRANCH  12  21
ENDBRANCH   9  11
ENDBRANCH   5   9
TORSDOF 4
ENDMDL
MODEL       97
REMARK 921   NORMALIZED FREE ENERGY PREDICTED BY IDOCK:   -4.98 KCAL/MOL
REMARK 922        TOTAL FREE ENERGY PREDICTED BY IDOCK:   -6.66 KCAL/MOL
REMARK 923 INTER-LIGAND FREE ENERGY PREDICTED BY IDOCK:   -7.73 KCAL/MOL
REMARK 924 INTRA-LIGAND FREE ENERGY PREDICTED BY IDOCK:    1.07 KCAL/MOL
REMARK 927      BINDING AFFINITY PREDICTED BY RF-SCORE:    0.00 PKD
ROOT
HETATM    1  C   UNL     1     -11.521  15.136  64.471  1.00  0.00    -0.316 A  
HETATM    2  N   UNL     1     -11.708  16.232  63.735  1.00  0.00    -0.900 NA 
HETATM    3  O   UNL     1     -11.240  17.274  64.511  1.00  0.00    -1.083 OA 
HETATM    4  C   UNL     1     -10.753  16.789  65.689  1.00  0.00    -0.192 A  
HETATM    5  C   UNL     1     -10.907  15.408  65.717  1.00  0.00    -0.349 A  
ENDROOT
BRANCH   4   6
HETATM    6  C   UNL     1     -10.133  17.678  66.766  1.00  0.00    -0.334 C  
HETATM    7  C   UNL     1      -9.599  19.040  66.369  1.00  0.00    -0.386 C  
HETATM    8  C   UNL     1     -10.865  18.948  67.147  1.00  0.00    -0.425 C  
ENDBRANCH   4   6
BRANCH   5   9
HETATM    9  C   UNL     1     -10.543  14.525  66.818  1.00  0.00    -0.276 C  
HETATM   10  O   UNL     1      -9.937  13.484  66.603  1.00  0.00    -0.267 OA 
BRANCH   9  11
HETATM   11  C   UNL     1     -10.978  14.788  68.227  1.00  0.00    -0.264 A  
HETATM   12  C   UNL     1     -10.066  15.024  69.281  1.00  0.00    -0.233 A  
HETATM   13  C   UNL     1     -10.525  15.128  70.607  1.00  0.00     0.025 A  
HETATM   14  C   UNL     1     -12.338  14.630  68.552  1.00  0.00     0.004 A  
HETATM   15  C   UNL     1     -11.883  14.966  70.918  1.00  0.00    -0.375 A  
HETATM   16  F   UNL     1     -11.364  15.285  73.241  1.00  0.00    -0.493 F  
HETATM   17  F   UNL     1     -13.310  15.969  72.555  1.00  0.00    -0.508 F  
HETATM   18  F   UNL     1     -12.913  13.839  72.756  1.00  0.00    -0.475 F  
HETATM   19  C   UNL     1     -12.363  15.016  72.354  1.00  0.00    -0.351 C  
HETATM   20  C   UNL     1     -12.784  14.723  69.878  1.00  0.00    -0.127 A  
BRANCH  12  21
HETATM   21  S   UNL     1      -8.320  15.245  68.957  1.00  0.00    -0.230 S  
HETATM   22  C   UNL     1      -7.954  16.971  69.100  1.00  0.00    -0.066 C  
HETATM   23  O   UNL     1      -7.594  14.627  70.049  1.00  0.00     0.040 OA 
HETATM   24  O   UNL     1      -8.132  14.890  67.563  1.00  0.00    -0.153 OA 
ENDBRANCH  12  21
ENDBRANCH   9  11
ENDBRANCH   5   9
TORSDOF 4
ENDMDL
MODEL       98
REMARK 921   NORMALIZED FREE ENERGY PREDICTED BY IDOCK:   -4.97 KCAL/MOL
REMARK 922        TOTAL FREE ENERGY PREDICTED BY IDOCK:   -6.66 KCAL/MOL
REMARK 923 INTER-LIGAND FREE ENERGY PREDICTED BY IDOCK:   -6.60 KCAL/MOL
REMARK 924 INTRA-LIGAND FREE ENERGY PREDICTED BY IDOCK:   -0.06 KCAL/MOL
REMARK 927      BINDING AFFINITY PREDICTED BY RF-SCORE:    0.00 PKD
ROOT
HETATM    1  C   UNL     1      -8.469  11.633  68.409  1.00  0.00    -0.157 A  
HETATM    2  N   UNL     1      -7.661  10.623  68.731  1.00  0.00    -0.101 NA 
HETATM    3  O   UNL     1      -8.468   9.700  69.366  1.00  0.00    -0.131 OA 
HETATM    4  C   UNL     1      -9.754  10.154  69.394  1.00  0.00    -0.229 A  
HETATM    5  C   UNL     1      -9.814  11.402  68.784  1.00  0.00    -0.175 A  
ENDROOT
BRANCH   4   6
HETATM    6  C   UNL     1     -10.907   9.359  70.003  1.00  0.00    -0.271 C  
HETATM    7  C   UNL     1     -10.588   8.147  70.855  1.00  0.00    -0.236 C  
HETATM    8  C   UNL     1     -11.077   9.393  71.507  1.00  0.00    -0.446 C  
ENDBRANCH   4   6
BRANCH   5   9
HETATM    9  C   UNL     1     -11.003  12.233  68.645  1.00  0.00    -0.239 C  
HETATM   10  O   UNL     1     -12.119  11.735  68.708  1.00  0.00    -0.358 OA 
BRANCH   9  11
HETATM   11  C   UNL     1     -10.921  13.692  68.315  1.00  0.00    -0.275 A  
HETATM   12  C   UNL     1     -10.912  14.180  66.989  1.00  0.00    -0.300 A  
HETATM   13  C   UNL     1     -10.694  15.548  66.736  1.00  0.00    -0.305 A  
HETATM   14  C   UNL     1     -10.674  14.605  69.358  1.00  0.00    -0.237 A  
HETATM   15  C   UNL     1     -10.447  16.446  67.784  1.00  0.00    -0.300 A  
HETATM   16  F   UNL     1     -10.214  18.216  66.178  1.00  0.00    -0.339 F  
HETATM   17  F   UNL     1     -11.017  18.744  68.128  1.00  0.00    -0.309 F  
HETATM   18  F   UNL     1      -8.905  18.267  67.913  1.00  0.00    -0.252 F  
HETATM   19  C   UNL     1     -10.150  17.905  67.503  1.00  0.00    -0.342 C  
HETATM   20  C   UNL     1     -10.446  15.963  69.096  1.00  0.00    -0.235 A  
BRANCH  12  21
HETATM   21  S   UNL     1     -11.224  13.091  65.604  1.00  0.00    -0.290 S  
HETATM   22  C   UNL     1     -11.583  14.095  64.190  1.00  0.00    -0.230 C  
HETATM   23  O   UNL     1      -9.973  12.434  65.276  1.00  0.00    -0.263 OA 
HETATM   24  O   UNL     1     -12.444  12.379  65.933  1.00  0.00    -0.583 OA 
ENDBRANCH  12  21
ENDBRANCH   9  11
ENDBRANCH   5   9
TORSDOF 4
ENDMDL
MODEL       99
REMARK 921   NORMALIZED FREE ENERGY PREDICTED BY IDOCK:   -4.97 KCAL/MOL
REMARK 922        TOTAL FREE ENERGY PREDICTED BY IDOCK:   -6.65 KCAL/MOL
REMARK 923 INTER-LIGAND FREE ENERGY PREDICTED BY IDOCK:   -6.83 KCAL/MOL
REMARK 924 INTRA-LIGAND FREE ENERGY PREDICTED BY IDOCK:    0.19 KCAL/MOL
REMARK 927      BINDING AFFINITY PREDICTED BY RF-SCORE:    0.00 PKD
ROOT
HETATM    1  C   UNL     1     -12.791  13.705  71.028  1.00  0.00    -0.287 A  
HETATM    2  N   UNL     1     -13.257  13.464  72.253  1.00  0.00    -0.467 NA 
HETATM    3  O   UNL     1     -13.297  12.087  72.361  1.00  0.00    -0.403 OA 
HETATM    4  C   UNL     1     -12.830  11.521  71.212  1.00  0.00    -0.360 A  
HETATM    5  C   UNL     1     -12.484  12.522  70.313  1.00  0.00    -0.157 A  
ENDROOT
BRANCH   4   6
HETATM    6  C   UNL     1     -12.716  10.011  71.012  1.00  0.00    -0.455 C  
HETATM    7  C   UNL     1     -11.635   9.255  71.759  1.00  0.00    -0.458 C  
HETATM    8  C   UNL     1     -13.056   9.111  72.182  1.00  0.00    -0.516 C  
ENDBRANCH   4   6
BRANCH   5   9
HETATM    9  C   UNL     1     -11.978  12.325  68.960  1.00  0.00    -0.248 C  
HETATM   10  O   UNL     1     -12.274  11.321  68.327  1.00  0.00    -0.611 OA 
BRANCH   9  11
HETATM   11  C   UNL     1     -11.002  13.271  68.330  1.00  0.00    -0.280 A  
HETATM   12  C   UNL     1      -9.658  12.924  68.064  1.00  0.00    -0.221 A  
HETATM   13  C   UNL     1      -8.752  13.896  67.598  1.00  0.00    -0.187 A  
HETATM   14  C   UNL     1     -11.388  14.613  68.146  1.00  0.00    -0.321 A  
HETATM   15  C   UNL     1      -9.148  15.229  67.422  1.00  0.00    -0.201 A  
HETATM   16  F   UNL     1      -6.914  15.776  66.735  1.00  0.00    -0.216 F  
HETATM   17  F   UNL     1      -8.534  16.915  65.839  1.00  0.00    -0.312 F  
HETATM   18  F   UNL     1      -7.982  17.255  67.916  1.00  0.00    -0.188 F  
HETATM   19  C   UNL     1      -8.154  16.284  66.981  1.00  0.00    -0.209 C  
HETATM   20  C   UNL     1     -10.475  15.576  67.693  1.00  0.00    -0.279 A  
BRANCH  12  21
HETATM   21  S   UNL     1      -9.085  11.241  68.263  1.00  0.00    -0.177 S  
HETATM   22  C   UNL     1      -7.315  11.260  68.229  1.00  0.00    -0.095 C  
HETATM   23  O   UNL     1      -9.419  10.825  69.611  1.00  0.00    -0.025 OA 
HETATM   24  O   UNL     1      -9.520  10.535  67.072  1.00  0.00    -0.160 OA 
ENDBRANCH  12  21
ENDBRANCH   9  11
ENDBRANCH   5   9
TORSDOF 4
ENDMDL
MODEL      100
REMARK 921   NORMALIZED FREE ENERGY PREDICTED BY IDOCK:   -4.95 KCAL/MOL
REMARK 922        TOTAL FREE ENERGY PREDICTED BY IDOCK:   -6.62 KCAL/MOL
REMARK 923 INTER-LIGAND FREE ENERGY PREDICTED BY IDOCK:   -6.29 KCAL/MOL
REMARK 924 INTRA-LIGAND FREE ENERGY PREDICTED BY IDOCK:   -0.33 KCAL/MOL
REMARK 927      BINDING AFFINITY PREDICTED BY RF-SCORE:    0.00 PKD
ROOT
HETATM    1  C   UNL     1     -11.831  15.105  69.404  1.00  0.00    -0.330 A  
HETATM    2  N   UNL     1     -11.946  15.812  70.528  1.00  0.00    -0.365 NA 
HETATM    3  O   UNL     1     -11.204  16.956  70.314  1.00  0.00    -0.038 OA 
HETATM    4  C   UNL     1     -10.676  16.936  69.057  1.00  0.00    -0.308 A  
HETATM    5  C   UNL     1     -11.053  15.760  68.419  1.00  0.00    -0.341 A  
ENDROOT
BRANCH   4   6
HETATM    6  C   UNL     1      -9.823  18.069  68.490  1.00  0.00    -0.383 C  
HETATM    7  C   UNL     1     -10.513  19.226  67.797  1.00  0.00    -0.539 C  
HETATM    8  C   UNL     1      -9.920  19.429  69.148  1.00  0.00    -0.412 C  
ENDBRANCH   4   6
BRANCH   5   9
HETATM    9  C   UNL     1     -10.662  15.347  67.077  1.00  0.00    -0.321 C  
HETATM   10  O   UNL     1     -10.646  16.156  66.159  1.00  0.00    -0.313 OA 
BRANCH   9  11
HETATM   11  C   UNL     1     -10.371  13.917  66.737  1.00  0.00    -0.272 A  
HETATM   12  C   UNL     1      -9.129  13.300  67.010  1.00  0.00    -0.232 A  
HETATM   13  C   UNL     1      -8.865  11.999  66.544  1.00  0.00    -0.172 A  
HETATM   14  C   UNL     1     -11.308  13.205  65.964  1.00  0.00    -0.337 A  
HETATM   15  C   UNL     1      -9.806  11.301  65.774  1.00  0.00    -0.273 A  
HETATM   16  F   UNL     1      -8.269   9.463  65.607  1.00  0.00    -0.111 F  
HETATM   17  F   UNL     1     -10.390   8.986  65.619  1.00  0.00    -0.223 F  
HETATM   18  F   UNL     1      -9.490   9.902  63.863  1.00  0.00    -0.300 F  
HETATM   19  C   UNL     1      -9.492   9.925  65.222  1.00  0.00    -0.268 C  
HETATM   20  C   UNL     1     -11.031  11.913  65.495  1.00  0.00    -0.347 A  
BRANCH  12  21
HETATM   21  S   UNL     1      -7.884  14.130  67.991  1.00  0.00    -0.164 S  
HETATM   22  C   UNL     1      -6.510  13.029  68.174  1.00  0.00    -0.100 C  
HETATM   23  O   UNL     1      -7.367  15.229  67.198  1.00  0.00    -0.203 OA 
HETATM   24  O   UNL     1      -8.469  14.295  69.309  1.00  0.00     0.059 OA 
ENDBRANCH  12  21
ENDBRANCH   9  11
ENDBRANCH   5   9
TORSDOF 4
ENDMDL
MODEL      101
REMARK 921   NORMALIZED FREE ENERGY PREDICTED BY IDOCK:   -4.91 KCAL/MOL
REMARK 922        TOTAL FREE ENERGY PREDICTED BY IDOCK:   -6.58 KCAL/MOL
REMARK 923 INTER-LIGAND FREE ENERGY PREDICTED BY IDOCK:   -6.07 KCAL/MOL
REMARK 924 INTRA-LIGAND FREE ENERGY PREDICTED BY IDOCK:   -0.51 KCAL/MOL
REMARK 927      BINDING AFFINITY PREDICTED BY RF-SCORE:    0.00 PKD
ROOT
HETATM    1  C   UNL     1      -7.246   7.417  68.144  1.00  0.00    -0.090 A  
HETATM    2  N   UNL     1      -7.343   6.694  67.027  1.00  0.00    -0.081 NA 
HETATM    3  O   UNL     1      -8.257   7.365  66.239  1.00  0.00    -0.114 OA 
HETATM    4  C   UNL     1      -8.676   8.495  66.879  1.00  0.00    -0.128 A  
HETATM    5  C   UNL     1      -8.051   8.581  68.117  1.00  0.00    -0.119 A  
ENDROOT
BRANCH   4   6
HETATM    6  C   UNL     1      -9.671   9.480  66.268  1.00  0.00    -0.310 C  
HETATM    7  C   UNL     1      -9.213  10.896  65.982  1.00  0.00    -0.210 C  
HETATM    8  C   UNL     1      -9.424   9.952  64.850  1.00  0.00    -0.355 C  
ENDBRANCH   4   6
BRANCH   5   9
HETATM    9  C   UNL     1      -8.260   9.623  69.114  1.00  0.00    -0.120 C  
HETATM   10  O   UNL     1      -7.363  10.408  69.389  1.00  0.00    -0.094 OA 
BRANCH   9  11
HETATM   11  C   UNL     1      -9.522   9.717  69.915  1.00  0.00    -0.260 A  
HETATM   12  C   UNL     1      -9.724   9.001  71.118  1.00  0.00    -0.299 A  
HETATM   13  C   UNL     1     -10.979   9.020  71.754  1.00  0.00    -0.443 A  
HETATM   14  C   UNL     1     -10.617  10.412  69.368  1.00  0.00    -0.267 A  
HETATM   15  C   UNL     1     -12.062   9.715  71.197  1.00  0.00    -0.448 A  
HETATM   16  F   UNL     1     -13.441   8.977  73.019  1.00  0.00    -0.465 F  
HETATM   17  F   UNL     1     -13.891  10.921  72.159  1.00  0.00    -0.306 F  
HETATM   18  F   UNL     1     -14.368   9.105  71.058  1.00  0.00    -0.368 F  
HETATM   19  C   UNL     1     -13.428   9.681  71.853  1.00  0.00    -0.413 C  
HETATM   20  C   UNL     1     -11.867  10.416  70.004  1.00  0.00    -0.351 A  
BRANCH  12  21
HETATM   21  S   UNL     1      -8.385   8.096  71.887  1.00  0.00    -0.157 S  
HETATM   22  C   UNL     1      -8.922   7.591  73.496  1.00  0.00    -0.221 C  
HETATM   23  O   UNL     1      -8.220   6.857  71.152  1.00  0.00    -0.116 OA 
HETATM   24  O   UNL     1      -7.321   9.063  72.083  1.00  0.00    -0.334 OA 
ENDBRANCH  12  21
ENDBRANCH   9  11
ENDBRANCH   5   9
TORSDOF 4
ENDMDL
MODEL      102
REMARK 921   NORMALIZED FREE ENERGY PREDICTED BY IDOCK:   -4.91 KCAL/MOL
REMARK 922        TOTAL FREE ENERGY PREDICTED BY IDOCK:   -6.57 KCAL/MOL
REMARK 923 INTER-LIGAND FREE ENERGY PREDICTED BY IDOCK:   -6.47 KCAL/MOL
REMARK 924 INTRA-LIGAND FREE ENERGY PREDICTED BY IDOCK:   -0.10 KCAL/MOL
REMARK 927      BINDING AFFINITY PREDICTED BY RF-SCORE:    0.00 PKD
ROOT
HETATM    1  C   UNL     1     -10.897   7.684  70.151  1.00  0.00    -0.248 A  
HETATM    2  N   UNL     1     -11.613   6.563  70.238  1.00  0.00    -0.412 NA 
HETATM    3  O   UNL     1     -11.548   5.992  68.982  1.00  0.00    -0.139 OA 
HETATM    4  C   UNL     1     -10.772   6.761  68.166  1.00  0.00    -0.236 A  
HETATM    5  C   UNL     1     -10.320   7.870  68.871  1.00  0.00    -0.225 A  
ENDROOT
BRANCH   4   6
HETATM    6  C   UNL     1     -10.471   6.397  66.713  1.00  0.00    -0.304 C  
HETATM    7  C   UNL     1      -9.197   5.638  66.400  1.00  0.00    -0.160 C  
HETATM    8  C   UNL     1     -10.506   4.933  66.326  1.00  0.00    -0.349 C  
ENDBRANCH   4   6
BRANCH   5   9
HETATM    9  C   UNL     1      -9.494   8.947  68.341  1.00  0.00    -0.140 C  
HETATM   10  O   UNL     1      -8.389   9.172  68.815  1.00  0.00    -0.118 OA 
BRANCH   9  11
HETATM   11  C   UNL     1      -9.991   9.884  67.283  1.00  0.00    -0.245 A  
HETATM   12  C   UNL     1     -10.976  10.868  67.529  1.00  0.00    -0.293 A  
HETATM   13  C   UNL     1     -11.503  11.627  66.468  1.00  0.00    -0.260 A  
HETATM   14  C   UNL     1      -9.587   9.672  65.952  1.00  0.00    -0.321 A  
HETATM   15  C   UNL     1     -11.094  11.403  65.145  1.00  0.00    -0.203 A  
HETATM   16  F   UNL     1     -12.615  13.110  64.412  1.00  0.00    -0.418 F  
HETATM   17  F   UNL     1     -10.785  12.855  63.269  1.00  0.00    -0.344 F  
HETATM   18  F   UNL     1     -12.372  11.373  63.128  1.00  0.00    -0.515 F  
HETATM   19  C   UNL     1     -11.710  12.179  63.999  1.00  0.00    -0.430 C  
HETATM   20  C   UNL     1     -10.126  10.425  64.899  1.00  0.00    -0.382 A  
BRANCH  12  21
HETATM   21  S   UNL     1     -11.541  11.210  69.193  1.00  0.00    -0.353 S  
HETATM   22  C   UNL     1     -11.899  12.940  69.302  1.00  0.00    -0.309 C  
HETATM   23  O   UNL     1     -12.828  10.561  69.356  1.00  0.00    -0.082 OA 
HETATM   24  O   UNL     1     -10.400  10.962  70.053  1.00  0.00     0.020 OA 
ENDBRANCH  12  21
ENDBRANCH   9  11
ENDBRANCH   5   9
TORSDOF 4
ENDMDL
MODEL      103
REMARK 921   NORMALIZED FREE ENERGY PREDICTED BY IDOCK:   -4.90 KCAL/MOL
REMARK 922        TOTAL FREE ENERGY PREDICTED BY IDOCK:   -6.56 KCAL/MOL
REMARK 923 INTER-LIGAND FREE ENERGY PREDICTED BY IDOCK:   -5.75 KCAL/MOL
REMARK 924 INTRA-LIGAND FREE ENERGY PREDICTED BY IDOCK:   -0.81 KCAL/MOL
REMARK 927      BINDING AFFINITY PREDICTED BY RF-SCORE:    0.00 PKD
ROOT
HETATM    1  C   UNL     1      -9.174   6.158  71.452  1.00  0.00    -0.143 A  
HETATM    2  N   UNL     1      -7.936   5.768  71.757  1.00  0.00    -0.112 NA 
HETATM    3  O   UNL     1      -7.210   5.920  70.591  1.00  0.00    -0.077 OA 
HETATM    4  C   UNL     1      -8.013   6.425  69.611  1.00  0.00    -0.116 A  
HETATM    5  C   UNL     1      -9.297   6.602  70.114  1.00  0.00    -0.159 A  
ENDROOT
BRANCH   4   6
HETATM    6  C   UNL     1      -7.514   6.739  68.202  1.00  0.00    -0.099 C  
HETATM    7  C   UNL     1      -6.690   7.992  67.983  1.00  0.00    -0.065 C  
HETATM    8  C   UNL     1      -6.024   6.661  67.942  1.00  0.00    -0.024 C  
ENDBRANCH   4   6
BRANCH   5   9
HETATM    9  C   UNL     1     -10.451   7.088  69.369  1.00  0.00    -0.214 C  
HETATM   10  O   UNL     1     -11.271   6.302  68.913  1.00  0.00    -0.370 OA 
BRANCH   9  11
HETATM   11  C   UNL     1     -10.633   8.538  69.039  1.00  0.00    -0.173 A  
HETATM   12  C   UNL     1     -11.398   9.418  69.837  1.00  0.00    -0.093 A  
HETATM   13  C   UNL     1     -11.648  10.734  69.406  1.00  0.00    -0.380 A  
HETATM   14  C   UNL     1     -10.166   9.009  67.797  1.00  0.00    -0.284 A  
HETATM   15  C   UNL     1     -11.178  11.190  68.166  1.00  0.00    -0.356 A  
HETATM   16  F   UNL     1     -12.218  13.314  68.581  1.00  0.00    -0.370 F  
HETATM   17  F   UNL     1     -10.391  13.317  67.404  1.00  0.00    -0.234 F  
HETATM   18  F   UNL     1     -12.244  12.576  66.537  1.00  0.00    -0.451 F  
HETATM   19  C   UNL     1     -11.504  12.587  67.677  1.00  0.00    -0.334 C  
HETATM   20  C   UNL     1     -10.430  10.318  67.370  1.00  0.00    -0.303 A  
BRANCH  12  21
HETATM   21  S   UNL     1     -12.024   8.904  71.433  1.00  0.00    -0.328 S  
HETATM   22  C   UNL     1     -13.088  10.183  72.039  1.00  0.00    -0.437 C  
HETATM   23  O   UNL     1     -12.905   7.774  71.211  1.00  0.00    -0.303 OA 
HETATM   24  O   UNL     1     -10.872   8.865  72.313  1.00  0.00    -0.332 OA 
ENDBRANCH  12  21
ENDBRANCH   9  11
ENDBRANCH   5   9
TORSDOF 4
ENDMDL
MODEL      104
REMARK 921   NORMALIZED FREE ENERGY PREDICTED BY IDOCK:   -4.87 KCAL/MOL
REMARK 922        TOTAL FREE ENERGY PREDICTED BY IDOCK:   -6.53 KCAL/MOL
REMARK 923 INTER-LIGAND FREE ENERGY PREDICTED BY IDOCK:   -6.49 KCAL/MOL
REMARK 924 INTRA-LIGAND FREE ENERGY PREDICTED BY IDOCK:   -0.04 KCAL/MOL
REMARK 927      BINDING AFFINITY PREDICTED BY RF-SCORE:    0.00 PKD
ROOT
HETATM    1  C   UNL     1      -6.721  17.664  65.779  1.00  0.00    -0.129 A  
HETATM    2  N   UNL     1      -6.338  18.938  65.704  1.00  0.00    -0.235 NA 
HETATM    3  O   UNL     1      -7.420  19.669  66.154  1.00  0.00    -0.273 OA 
HETATM    4  C   UNL     1      -8.427  18.825  66.519  1.00  0.00    -0.301 A  
HETATM    5  C   UNL     1      -8.029  17.512  66.300  1.00  0.00    -0.303 A  
ENDROOT
BRANCH   4   6
HETATM    6  C   UNL     1      -9.759  19.310  67.088  1.00  0.00    -0.409 C  
HETATM    7  C   UNL     1      -9.807  19.793  68.524  1.00  0.00    -0.506 C  
HETATM    8  C   UNL     1      -9.898  20.783  67.415  1.00  0.00    -0.435 C  
ENDBRANCH   4   6
BRANCH   5   9
HETATM    9  C   UNL     1      -8.835  16.320  66.531  1.00  0.00    -0.283 C  
HETATM   10  O   UNL     1      -8.948  15.469  65.659  1.00  0.00    -0.130 OA 
BRANCH   9  11
HETATM   11  C   UNL     1      -9.636  16.130  67.782  1.00  0.00    -0.223 A  
HETATM   12  C   UNL     1      -9.087  15.605  68.974  1.00  0.00    -0.241 A  
HETATM   13  C   UNL     1      -9.918  15.321  70.074  1.00  0.00    -0.125 A  
HETATM   14  C   UNL     1     -11.030  16.324  67.725  1.00  0.00    -0.281 A  
HETATM   15  C   UNL     1     -11.305  15.516  70.003  1.00  0.00    -0.332 A  
HETATM   16  F   UNL     1     -11.511  14.690  72.248  1.00  0.00    -0.341 F  
HETATM   17  F   UNL     1     -12.937  16.202  71.612  1.00  0.00    -0.502 F  
HETATM   18  F   UNL     1     -13.089  14.170  70.847  1.00  0.00    -0.385 F  
HETATM   19  C   UNL     1     -12.202  15.149  71.168  1.00  0.00    -0.331 C  
HETATM   20  C   UNL     1     -11.850  16.027  68.822  1.00  0.00    -0.210 A  
BRANCH  12  21
HETATM   21  S   UNL     1      -7.325  15.335  69.136  1.00  0.00    -0.188 S  
HETATM   22  C   UNL     1      -6.541  16.917  69.261  1.00  0.00    -0.232 C  
HETATM   23  O   UNL     1      -7.098  14.713  70.426  1.00  0.00     0.029 OA 
HETATM   24  O   UNL     1      -6.900  14.754  67.877  1.00  0.00    -0.127 OA 
ENDBRANCH  12  21
ENDBRANCH   9  11
ENDBRANCH   5   9
TORSDOF 4
ENDMDL
MODEL      105
REMARK 921   NORMALIZED FREE ENERGY PREDICTED BY IDOCK:   -4.87 KCAL/MOL
REMARK 922        TOTAL FREE ENERGY PREDICTED BY IDOCK:   -6.53 KCAL/MOL
REMARK 923 INTER-LIGAND FREE ENERGY PREDICTED BY IDOCK:   -6.14 KCAL/MOL
REMARK 924 INTRA-LIGAND FREE ENERGY PREDICTED BY IDOCK:   -0.38 KCAL/MOL
REMARK 927      BINDING AFFINITY PREDICTED BY RF-SCORE:    0.00 PKD
ROOT
HETATM    1  C   UNL     1      -9.767   8.951  66.570  1.00  0.00    -0.254 A  
HETATM    2  N   UNL     1      -9.363   8.603  65.348  1.00  0.00    -0.051 NA 
HETATM    3  O   UNL     1      -9.643   9.693  64.549  1.00  0.00    -0.224 OA 
HETATM    4  C   UNL     1     -10.186  10.691  65.304  1.00  0.00    -0.282 A  
HETATM    5  C   UNL     1     -10.287  10.266  66.623  1.00  0.00    -0.283 A  
ENDROOT
BRANCH   4   6
HETATM    6  C   UNL     1     -10.586  12.049  64.730  1.00  0.00    -0.340 C  
HETATM    7  C   UNL     1     -10.807  12.174  63.236  1.00  0.00    -0.381 C  
HETATM    8  C   UNL     1     -11.980  12.194  64.153  1.00  0.00    -0.497 C  
ENDBRANCH   4   6
BRANCH   5   9
HETATM    9  C   UNL     1     -10.848  11.030  67.731  1.00  0.00    -0.249 C  
HETATM   10  O   UNL     1     -11.592  10.493  68.540  1.00  0.00    -0.266 OA 
BRANCH   9  11
HETATM   11  C   UNL     1     -10.633  12.506  67.870  1.00  0.00    -0.233 A  
HETATM   12  C   UNL     1      -9.385  13.071  68.217  1.00  0.00    -0.199 A  
HETATM   13  C   UNL     1      -9.275  14.452  68.468  1.00  0.00    -0.198 A  
HETATM   14  C   UNL     1     -11.753  13.357  67.818  1.00  0.00    -0.394 A  
HETATM   15  C   UNL     1     -10.400  15.288  68.416  1.00  0.00    -0.227 A  
HETATM   16  F   UNL     1      -9.012  17.150  69.028  1.00  0.00    -0.263 F  
HETATM   17  F   UNL     1     -10.709  17.560  67.732  1.00  0.00    -0.354 F  
HETATM   18  F   UNL     1     -11.030  17.103  69.836  1.00  0.00    -0.253 F  
HETATM   19  C   UNL     1     -10.288  16.762  68.749  1.00  0.00    -0.318 C  
HETATM   20  C   UNL     1     -11.636  14.729  68.081  1.00  0.00    -0.356 A  
BRANCH  12  21
HETATM   21  S   UNL     1      -7.908  12.064  68.299  1.00  0.00    -0.151 S  
HETATM   22  C   UNL     1      -6.681  12.968  69.199  1.00  0.00    -0.087 C  
HETATM   23  O   UNL     1      -8.208  10.921  69.139  1.00  0.00    -0.146 OA 
HETATM   24  O   UNL     1      -7.432  11.955  66.933  1.00  0.00    -0.139 OA 
ENDBRANCH  12  21
ENDBRANCH   9  11
ENDBRANCH   5   9
TORSDOF 4
ENDMDL
MODEL      106
REMARK 921   NORMALIZED FREE ENERGY PREDICTED BY IDOCK:   -4.85 KCAL/MOL
REMARK 922        TOTAL FREE ENERGY PREDICTED BY IDOCK:   -6.50 KCAL/MOL
REMARK 923 INTER-LIGAND FREE ENERGY PREDICTED BY IDOCK:   -6.24 KCAL/MOL
REMARK 924 INTRA-LIGAND FREE ENERGY PREDICTED BY IDOCK:   -0.27 KCAL/MOL
REMARK 927      BINDING AFFINITY PREDICTED BY RF-SCORE:    0.00 PKD
ROOT
HETATM    1  C   UNL     1      -9.230  13.124  68.409  1.00  0.00    -0.141 A  
HETATM    2  N   UNL     1      -8.544  13.990  67.662  1.00  0.00    -0.175 NA 
HETATM    3  O   UNL     1      -9.120  13.924  66.409  1.00  0.00    -0.198 OA 
HETATM    4  C   UNL     1     -10.159  13.041  66.425  1.00  0.00    -0.279 A  
HETATM    5  C   UNL     1     -10.279  12.495  67.697  1.00  0.00    -0.220 A  
ENDROOT
BRANCH   4   6
HETATM    6  C   UNL     1     -11.029  12.753  65.203  1.00  0.00    -0.323 C  
HETATM    7  C   UNL     1     -10.374  12.704  63.836  1.00  0.00    -0.405 C  
HETATM    8  C   UNL     1     -10.824  11.438  64.479  1.00  0.00    -0.375 C  
ENDBRANCH   4   6
BRANCH   5   9
HETATM    9  C   UNL     1     -11.247  11.487  68.111  1.00  0.00    -0.271 C  
HETATM   10  O   UNL     1     -12.372  11.473  67.632  1.00  0.00    -0.273 OA 
BRANCH   9  11
HETATM   11  C   UNL     1     -10.953  10.502  69.202  1.00  0.00    -0.286 A  
HETATM   12  C   UNL     1     -10.216   9.315  68.987  1.00  0.00    -0.206 A  
HETATM   13  C   UNL     1     -10.089   8.362  70.015  1.00  0.00    -0.192 A  
HETATM   14  C   UNL     1     -11.576  10.677  70.452  1.00  0.00    -0.441 A  
HETATM   15  C   UNL     1     -10.716   8.548  71.255  1.00  0.00    -0.302 A  
HETATM   16  F   UNL     1      -9.853   6.427  71.980  1.00  0.00    -0.159 F  
HETATM   17  F   UNL     1     -10.101   7.968  73.493  1.00  0.00    -0.381 F  
HETATM   18  F   UNL     1     -11.846   6.974  72.654  1.00  0.00    -0.266 F  
HETATM   19  C   UNL     1     -10.629   7.489  72.336  1.00  0.00    -0.251 C  
HETATM   20  C   UNL     1     -11.453   9.716  71.466  1.00  0.00    -0.439 A  
BRANCH  12  21
HETATM   21  S   UNL     1      -9.385   9.016  67.430  1.00  0.00    -0.141 S  
HETATM   22  C   UNL     1      -8.560   7.454  67.545  1.00  0.00    -0.122 C  
HETATM   23  O   UNL     1     -10.410   8.813  66.424  1.00  0.00    -0.271 OA 
HETATM   24  O   UNL     1      -8.353  10.030  67.335  1.00  0.00    -0.118 OA 
ENDBRANCH  12  21
ENDBRANCH   9  11
ENDBRANCH   5   9
TORSDOF 4
ENDMDL
MODEL      107
REMARK 921   NORMALIZED FREE ENERGY PREDICTED BY IDOCK:   -4.84 KCAL/MOL
REMARK 922        TOTAL FREE ENERGY PREDICTED BY IDOCK:   -6.49 KCAL/MOL
REMARK 923 INTER-LIGAND FREE ENERGY PREDICTED BY IDOCK:   -7.28 KCAL/MOL
REMARK 924 INTRA-LIGAND FREE ENERGY PREDICTED BY IDOCK:    0.79 KCAL/MOL
REMARK 927      BINDING AFFINITY PREDICTED BY RF-SCORE:    0.00 PKD
ROOT
HETATM    1  C   UNL     1     -10.994  16.241  64.883  1.00  0.00    -0.307 A  
HETATM    2  N   UNL     1     -11.975  16.327  63.984  1.00  0.00    -0.878 NA 
HETATM    3  O   UNL     1     -12.506  15.054  63.905  1.00  0.00    -0.790 OA 
HETATM    4  C   UNL     1     -11.857  14.229  64.776  1.00  0.00    -0.429 A  
HETATM    5  C   UNL     1     -10.869  14.946  65.440  1.00  0.00    -0.379 A  
ENDROOT
BRANCH   4   6
HETATM    6  C   UNL     1     -12.218  12.756  64.957  1.00  0.00    -0.527 C  
HETATM    7  C   UNL     1     -13.034  12.067  63.882  1.00  0.00    -0.299 C  
HETATM    8  C   UNL     1     -11.586  11.748  64.019  1.00  0.00    -0.428 C  
ENDBRANCH   4   6
BRANCH   5   9
HETATM    9  C   UNL     1      -9.935  14.413  66.423  1.00  0.00    -0.294 C  
HETATM   10  O   UNL     1      -8.737  14.641  66.328  1.00  0.00    -0.093 OA 
BRANCH   9  11
HETATM   11  C   UNL     1     -10.373  13.488  67.518  1.00  0.00    -0.237 A  
HETATM   12  C   UNL     1      -9.903  12.160  67.635  1.00  0.00    -0.194 A  
HETATM   13  C   UNL     1     -10.452  11.295  68.600  1.00  0.00    -0.226 A  
HETATM   14  C   UNL     1     -11.418  13.898  68.367  1.00  0.00    -0.346 A  
HETATM   15  C   UNL     1     -11.495  11.714  69.438  1.00  0.00    -0.372 A  
HETATM   16  F   UNL     1     -11.534   9.533  70.440  1.00  0.00    -0.262 F  
HETATM   17  F   UNL     1     -12.059  11.217  71.709  1.00  0.00    -0.199 F  
HETATM   18  F   UNL     1     -13.442  10.539  70.171  1.00  0.00    -0.249 F  
HETATM   19  C   UNL     1     -12.126  10.760  70.431  1.00  0.00    -0.354 C  
HETATM   20  C   UNL     1     -11.967  13.025  69.317  1.00  0.00    -0.331 A  
BRANCH  12  21
HETATM   21  S   UNL     1      -8.572  11.559  66.601  1.00  0.00    -0.170 S  
HETATM   22  C   UNL     1      -7.056  12.234  67.218  1.00  0.00    -0.138 C  
HETATM   23  O   UNL     1      -8.455  10.132  66.830  1.00  0.00    -0.125 OA 
HETATM   24  O   UNL     1      -8.793  12.149  65.294  1.00  0.00     0.352 OA 
ENDBRANCH  12  21
ENDBRANCH   9  11
ENDBRANCH   5   9
TORSDOF 4
ENDMDL
MODEL      108
REMARK 921   NORMALIZED FREE ENERGY PREDICTED BY IDOCK:   -4.81 KCAL/MOL
REMARK 922        TOTAL FREE ENERGY PREDICTED BY IDOCK:   -6.45 KCAL/MOL
REMARK 923 INTER-LIGAND FREE ENERGY PREDICTED BY IDOCK:   -6.95 KCAL/MOL
REMARK 924 INTRA-LIGAND FREE ENERGY PREDICTED BY IDOCK:    0.50 KCAL/MOL
REMARK 927      BINDING AFFINITY PREDICTED BY RF-SCORE:    0.00 PKD
ROOT
HETATM    1  C   UNL     1     -10.630   6.902  69.054  1.00  0.00    -0.217 A  
HETATM    2  N   UNL     1     -11.472   6.214  69.825  1.00  0.00    -0.401 NA 
HETATM    3  O   UNL     1     -11.963   7.131  70.733  1.00  0.00    -0.332 OA 
HETATM    4  C   UNL     1     -11.432   8.362  70.479  1.00  0.00    -0.179 A  
HETATM    5  C   UNL     1     -10.563   8.273  69.398  1.00  0.00    -0.203 A  
ENDROOT
BRANCH   4   6
HETATM    6  C   UNL     1     -11.789   9.609  71.285  1.00  0.00    -0.460 C  
HETATM    7  C   UNL     1     -12.758  10.610  70.689  1.00  0.00    -0.445 C  
HETATM    8  C   UNL     1     -13.205   9.735  71.808  1.00  0.00    -0.532 C  
ENDBRANCH   4   6
BRANCH   5   9
HETATM    9  C   UNL     1      -9.772   9.362  68.840  1.00  0.00    -0.164 C  
HETATM   10  O   UNL     1      -8.844   9.844  69.475  1.00  0.00    -0.168 OA 
BRANCH   9  11
HETATM   11  C   UNL     1     -10.115  10.007  67.532  1.00  0.00    -0.243 A  
HETATM   12  C   UNL     1      -9.376   9.785  66.348  1.00  0.00    -0.171 A  
HETATM   13  C   UNL     1      -9.660  10.522  65.184  1.00  0.00    -0.316 A  
HETATM   14  C   UNL     1     -11.110  11.004  67.514  1.00  0.00    -0.366 A  
HETATM   15  C   UNL     1     -10.652  11.514  65.179  1.00  0.00    -0.350 A  
HETATM   16  F   UNL     1     -10.138  11.983  62.881  1.00  0.00    -0.401 F  
HETATM   17  F   UNL     1     -12.198  12.264  63.515  1.00  0.00    -0.505 F  
HETATM   18  F   UNL     1     -10.661  13.669  64.149  1.00  0.00    -0.397 F  
HETATM   19  C   UNL     1     -10.910  12.349  63.942  1.00  0.00    -0.420 C  
HETATM   20  C   UNL     1     -11.377  11.742  66.352  1.00  0.00    -0.361 A  
BRANCH  12  21
HETATM   21  S   UNL     1      -8.100   8.532  66.281  1.00  0.00    -0.111 S  
HETATM   22  C   UNL     1      -8.774   7.111  65.467  1.00  0.00    -0.021 C  
HETATM   23  O   UNL     1      -7.068   9.011  65.382  1.00  0.00    -0.079 OA 
HETATM   24  O   UNL     1      -7.853   8.149  67.658  1.00  0.00    -0.110 OA 
ENDBRANCH  12  21
ENDBRANCH   9  11
ENDBRANCH   5   9
TORSDOF 4
ENDMDL
MODEL      109
REMARK 921   NORMALIZED FREE ENERGY PREDICTED BY IDOCK:   -4.80 KCAL/MOL
REMARK 922        TOTAL FREE ENERGY PREDICTED BY IDOCK:   -6.44 KCAL/MOL
REMARK 923 INTER-LIGAND FREE ENERGY PREDICTED BY IDOCK:   -6.04 KCAL/MOL
REMARK 924 INTRA-LIGAND FREE ENERGY PREDICTED BY IDOCK:   -0.39 KCAL/MOL
REMARK 927      BINDING AFFINITY PREDICTED BY RF-SCORE:    0.00 PKD
ROOT
HETATM    1  C   UNL     1     -13.043  10.127  72.017  1.00  0.00    -0.437 A  
HETATM    2  N   UNL     1     -13.130  11.284  71.360  1.00  0.00    -0.357 NA 
HETATM    3  O   UNL     1     -12.030  11.310  70.526  1.00  0.00    -0.343 OA 
HETATM    4  C   UNL     1     -11.313  10.159  70.671  1.00  0.00    -0.352 A  
HETATM    5  C   UNL     1     -11.925   9.353  71.624  1.00  0.00    -0.465 A  
ENDROOT
BRANCH   4   6
HETATM    6  C   UNL     1     -10.048   9.856  69.871  1.00  0.00    -0.297 C  
HETATM    7  C   UNL     1     -10.185   9.423  68.425  1.00  0.00    -0.224 C  
HETATM    8  C   UNL     1      -9.684  10.791  68.736  1.00  0.00    -0.197 C  
ENDBRANCH   4   6
BRANCH   5   9
HETATM    9  C   UNL     1     -11.447   8.057  72.088  1.00  0.00    -0.335 C  
HETATM   10  O   UNL     1     -11.484   7.772  73.277  1.00  0.00    -0.295 OA 
BRANCH   9  11
HETATM   11  C   UNL     1     -10.798   7.071  71.166  1.00  0.00    -0.263 A  
HETATM   12  C   UNL     1      -9.425   6.742  71.235  1.00  0.00    -0.165 A  
HETATM   13  C   UNL     1      -8.842   5.915  70.257  1.00  0.00    -0.145 A  
HETATM   14  C   UNL     1     -11.543   6.574  70.079  1.00  0.00    -0.455 A  
HETATM   15  C   UNL     1      -9.595   5.428  69.178  1.00  0.00    -0.193 A  
HETATM   16  F   UNL     1      -7.630   4.338  68.331  1.00  0.00    -0.062 F  
HETATM   17  F   UNL     1      -9.542   3.377  67.949  1.00  0.00    -0.230 F  
HETATM   18  F   UNL     1      -9.002   5.191  66.876  1.00  0.00    -0.112 F  
HETATM   19  C   UNL     1      -8.948   4.590  68.094  1.00  0.00    -0.116 C  
HETATM   20  C   UNL     1     -10.951   5.760  69.104  1.00  0.00    -0.308 A  
BRANCH  12  21
HETATM   21  S   UNL     1      -8.406   7.324  72.586  1.00  0.00    -0.109 S  
HETATM   22  C   UNL     1      -6.722   6.927  72.209  1.00  0.00    -0.058 C  
HETATM   23  O   UNL     1      -8.450   8.773  72.571  1.00  0.00    -0.403 OA 
HETATM   24  O   UNL     1      -8.780   6.520  73.734  1.00  0.00    -0.122 OA 
ENDBRANCH  12  21
ENDBRANCH   9  11
ENDBRANCH   5   9
TORSDOF 4
ENDMDL
MODEL      110
REMARK 921   NORMALIZED FREE ENERGY PREDICTED BY IDOCK:   -4.77 KCAL/MOL
REMARK 922        TOTAL FREE ENERGY PREDICTED BY IDOCK:   -6.41 KCAL/MOL
REMARK 923 INTER-LIGAND FREE ENERGY PREDICTED BY IDOCK:   -6.07 KCAL/MOL
REMARK 924 INTRA-LIGAND FREE ENERGY PREDICTED BY IDOCK:   -0.34 KCAL/MOL
REMARK 927      BINDING AFFINITY PREDICTED BY RF-SCORE:    0.00 PKD
ROOT
HETATM    1  C   UNL     1     -11.884  12.459  65.706  1.00  0.00    -0.406 A  
HETATM    2  N   UNL     1     -12.749  13.394  65.313  1.00  0.00    -0.645 NA 
HETATM    3  O   UNL     1     -12.211  14.590  65.745  1.00  0.00    -0.345 OA 
HETATM    4  C   UNL     1     -11.018  14.362  66.366  1.00  0.00    -0.319 A  
HETATM    5  C   UNL     1     -10.754  12.998  66.367  1.00  0.00    -0.295 A  
ENDROOT
BRANCH   4   6
HETATM    6  C   UNL     1     -10.148  15.479  66.939  1.00  0.00    -0.263 C  
HETATM    7  C   UNL     1      -9.025  16.038  66.088  1.00  0.00    -0.381 C  
HETATM    8  C   UNL     1     -10.251  16.853  66.311  1.00  0.00    -0.337 C  
ENDBRANCH   4   6
BRANCH   5   9
HETATM    9  C   UNL     1      -9.596  12.347  66.967  1.00  0.00    -0.211 C  
HETATM   10  O   UNL     1      -8.472  12.800  66.795  1.00  0.00    -0.144 OA 
BRANCH   9  11
HETATM   11  C   UNL     1      -9.708  11.057  67.719  1.00  0.00    -0.183 A  
HETATM   12  C   UNL     1      -9.390   9.804  67.146  1.00  0.00    -0.142 A  
HETATM   13  C   UNL     1      -9.645   8.614  67.854  1.00  0.00    -0.173 A  
HETATM   14  C   UNL     1     -10.311  11.069  68.991  1.00  0.00    -0.229 A  
HETATM   15  C   UNL     1     -10.249   8.640  69.119  1.00  0.00    -0.215 A  
HETATM   16  F   UNL     1     -10.176   6.240  69.175  1.00  0.00    -0.167 F  
HETATM   17  F   UNL     1      -9.994   7.284  71.073  1.00  0.00    -0.186 F  
HETATM   18  F   UNL     1     -11.915   7.205  70.054  1.00  0.00    -0.215 F  
HETATM   19  C   UNL     1     -10.579   7.354  69.849  1.00  0.00    -0.236 C  
HETATM   20  C   UNL     1     -10.572   9.878  69.683  1.00  0.00    -0.273 A  
BRANCH  12  21
HETATM   21  S   UNL     1      -8.613   9.697  65.537  1.00  0.00    -0.156 S  
HETATM   22  C   UNL     1      -8.402   7.983  65.147  1.00  0.00    -0.130 C  
HETATM   23  O   UNL     1      -9.571  10.177  64.560  1.00  0.00    -0.283 OA 
HETATM   24  O   UNL     1      -7.286  10.256  65.705  1.00  0.00    -0.136 OA 
ENDBRANCH  12  21
ENDBRANCH   9  11
ENDBRANCH   5   9
TORSDOF 4
ENDMDL
MODEL      111
REMARK 921   NORMALIZED FREE ENERGY PREDICTED BY IDOCK:   -4.76 KCAL/MOL
REMARK 922        TOTAL FREE ENERGY PREDICTED BY IDOCK:   -6.39 KCAL/MOL
REMARK 923 INTER-LIGAND FREE ENERGY PREDICTED BY IDOCK:   -7.02 KCAL/MOL
REMARK 924 INTRA-LIGAND FREE ENERGY PREDICTED BY IDOCK:    0.63 KCAL/MOL
REMARK 927      BINDING AFFINITY PREDICTED BY RF-SCORE:    0.00 PKD
ROOT
HETATM    1  C   UNL     1      -8.328  15.596  66.343  1.00  0.00    -0.180 A  
HETATM    2  N   UNL     1      -7.577  16.690  66.217  1.00  0.00    -0.263 NA 
HETATM    3  O   UNL     1      -8.364  17.726  66.682  1.00  0.00    -0.238 OA 
HETATM    4  C   UNL     1      -9.565  17.237  67.106  1.00  0.00    -0.257 A  
HETATM    5  C   UNL     1      -9.596  15.861  66.913  1.00  0.00    -0.242 A  
ENDROOT
BRANCH   4   6
HETATM    6  C   UNL     1     -10.660  18.117  67.705  1.00  0.00    -0.407 C  
HETATM    7  C   UNL     1     -10.257  19.353  68.486  1.00  0.00    -0.492 C  
HETATM    8  C   UNL     1     -10.851  19.505  67.128  1.00  0.00    -0.555 C  
ENDBRANCH   4   6
BRANCH   5   9
HETATM    9  C   UNL     1     -10.717  14.978  67.207  1.00  0.00    -0.298 C  
HETATM   10  O   UNL     1     -11.797  15.439  67.547  1.00  0.00    -0.182 OA 
BRANCH   9  11
HETATM   11  C   UNL     1     -10.575  13.486  67.213  1.00  0.00    -0.263 A  
HETATM   12  C   UNL     1     -11.274  12.644  66.318  1.00  0.00    -0.311 A  
HETATM   13  C   UNL     1     -11.208  11.246  66.459  1.00  0.00    -0.222 A  
HETATM   14  C   UNL     1      -9.848  12.883  68.257  1.00  0.00    -0.228 A  
HETATM   15  C   UNL     1     -10.482  10.658  67.505  1.00  0.00    -0.272 A  
HETATM   16  F   UNL     1     -11.159   8.491  66.723  1.00  0.00    -0.212 F  
HETATM   17  F   UNL     1      -9.208   8.639  67.669  1.00  0.00    -0.132 F  
HETATM   18  F   UNL     1     -11.015   8.774  68.873  1.00  0.00    -0.198 F  
HETATM   19  C   UNL     1     -10.465   9.154  67.690  1.00  0.00    -0.261 C  
HETATM   20  C   UNL     1      -9.797  11.489  68.396  1.00  0.00    -0.204 A  
BRANCH  12  21
HETATM   21  S   UNL     1     -12.216  13.327  64.958  1.00  0.00    -0.455 S  
HETATM   22  C   UNL     1     -11.272  14.645  64.248  1.00  0.00    -0.039 C  
HETATM   23  O   UNL     1     -12.270  12.317  63.918  1.00  0.00    -0.446 OA 
HETATM   24  O   UNL     1     -13.392  13.927  65.558  1.00  0.00    -0.662 OA 
ENDBRANCH  12  21
ENDBRANCH   9  11
ENDBRANCH   5   9
TORSDOF 4
ENDMDL
MODEL      112
REMARK 921   NORMALIZED FREE ENERGY PREDICTED BY IDOCK:   -4.76 KCAL/MOL
REMARK 922        TOTAL FREE ENERGY PREDICTED BY IDOCK:   -6.39 KCAL/MOL
REMARK 923 INTER-LIGAND FREE ENERGY PREDICTED BY IDOCK:   -6.27 KCAL/MOL
REMARK 924 INTRA-LIGAND FREE ENERGY PREDICTED BY IDOCK:   -0.11 KCAL/MOL
REMARK 927      BINDING AFFINITY PREDICTED BY RF-SCORE:    0.00 PKD
ROOT
HETATM    1  C   UNL     1     -11.047  17.029  65.679  1.00  0.00     0.217 A  
HETATM    2  N   UNL     1     -11.407  17.234  64.411  1.00  0.00    -0.825 NA 
HETATM    3  O   UNL     1     -11.621  15.974  63.887  1.00  0.00    -0.630 OA 
HETATM    4  C   UNL     1     -11.414  15.032  64.852  1.00  0.00    -0.399 A  
HETATM    5  C   UNL     1     -11.042  15.659  66.035  1.00  0.00    -0.136 A  
ENDROOT
BRANCH   4   6
HETATM    6  C   UNL     1     -11.593  13.535  64.609  1.00  0.00    -0.395 C  
HETATM    7  C   UNL     1     -11.942  13.059  63.213  1.00  0.00    -0.493 C  
HETATM    8  C   UNL     1     -10.570  12.828  63.744  1.00  0.00    -0.370 C  
ENDBRANCH   4   6
BRANCH   5   9
HETATM    9  C   UNL     1     -10.700  14.997  67.287  1.00  0.00    -0.298 C  
HETATM   10  O   UNL     1     -11.287  15.284  68.322  1.00  0.00    -0.307 OA 
BRANCH   9  11
HETATM   11  C   UNL     1      -9.561  14.029  67.391  1.00  0.00    -0.227 A  
HETATM   12  C   UNL     1      -9.711  12.719  67.901  1.00  0.00    -0.217 A  
HETATM   13  C   UNL     1      -8.583  11.902  68.103  1.00  0.00    -0.165 A  
HETATM   14  C   UNL     1      -8.258  14.492  67.128  1.00  0.00    -0.214 A  
HETATM   15  C   UNL     1      -7.289  12.376  67.839  1.00  0.00    -0.112 A  
HETATM   16  F   UNL     1      -6.395  10.272  68.573  1.00  0.00    -0.050 F  
HETATM   17  F   UNL     1      -5.306  11.324  67.014  1.00  0.00    -0.046 F  
HETATM   18  F   UNL     1      -5.261  12.061  69.061  1.00  0.00    -0.054 F  
HETATM   19  C   UNL     1      -6.074  11.515  68.118  1.00  0.00    -0.045 C  
HETATM   20  C   UNL     1      -7.140  13.675  67.344  1.00  0.00    -0.097 A  
BRANCH  12  21
HETATM   21  S   UNL     1     -11.332  12.047  68.254  1.00  0.00    -0.313 S  
HETATM   22  C   UNL     1     -11.178  10.288  68.373  1.00  0.00    -0.224 C  
HETATM   23  O   UNL     1     -11.695  12.472  69.592  1.00  0.00    -0.300 OA 
HETATM   24  O   UNL     1     -12.135  12.321  67.078  1.00  0.00    -0.575 OA 
ENDBRANCH  12  21
ENDBRANCH   9  11
ENDBRANCH   5   9
TORSDOF 4
ENDMDL
MODEL      113
REMARK 921   NORMALIZED FREE ENERGY PREDICTED BY IDOCK:   -4.75 KCAL/MOL
REMARK 922        TOTAL FREE ENERGY PREDICTED BY IDOCK:   -6.38 KCAL/MOL
REMARK 923 INTER-LIGAND FREE ENERGY PREDICTED BY IDOCK:   -5.76 KCAL/MOL
REMARK 924 INTRA-LIGAND FREE ENERGY PREDICTED BY IDOCK:   -0.62 KCAL/MOL
REMARK 927      BINDING AFFINITY PREDICTED BY RF-SCORE:    0.00 PKD
ROOT
HETATM    1  C   UNL     1      -7.664   9.431  69.797  1.00  0.00    -0.110 A  
HETATM    2  N   UNL     1      -8.050   9.403  71.072  1.00  0.00    -0.318 NA 
HETATM    3  O   UNL     1      -9.367   9.817  71.062  1.00  0.00    -0.090 OA 
HETATM    4  C   UNL     1      -9.763  10.062  69.780  1.00  0.00    -0.226 A  
HETATM    5  C   UNL     1      -8.700   9.824  68.917  1.00  0.00    -0.136 A  
ENDROOT
BRANCH   4   6
HETATM    6  C   UNL     1     -11.177  10.511  69.414  1.00  0.00    -0.327 C  
HETATM    7  C   UNL     1     -12.138  10.874  70.528  1.00  0.00    -0.464 C  
HETATM    8  C   UNL     1     -11.556  11.952  69.682  1.00  0.00    -0.387 C  
ENDBRANCH   4   6
BRANCH   5   9
HETATM    9  C   UNL     1      -8.711  10.005  67.471  1.00  0.00    -0.125 C  
HETATM   10  O   UNL     1      -8.040   9.280  66.750  1.00  0.00    -0.110 OA 
BRANCH   9  11
HETATM   11  C   UNL     1      -9.445  11.135  66.815  1.00  0.00    -0.203 A  
HETATM   12  C   UNL     1      -9.019  12.480  66.901  1.00  0.00    -0.212 A  
HETATM   13  C   UNL     1      -9.822  13.514  66.382  1.00  0.00    -0.299 A  
HETATM   14  C   UNL     1     -10.699  10.874  66.230  1.00  0.00    -0.241 A  
HETATM   15  C   UNL     1     -11.070  13.240  65.804  1.00  0.00    -0.296 A  
HETATM   16  F   UNL     1     -11.384  15.591  65.430  1.00  0.00    -0.320 F  
HETATM   17  F   UNL     1     -12.276  14.229  63.991  1.00  0.00    -0.479 F  
HETATM   18  F   UNL     1     -13.135  14.427  65.980  1.00  0.00    -0.430 F  
HETATM   19  C   UNL     1     -11.957  14.362  65.305  1.00  0.00    -0.382 C  
HETATM   20  C   UNL     1     -11.496  11.911  65.727  1.00  0.00    -0.326 A  
BRANCH  12  21
HETATM   21  S   UNL     1      -7.436  12.901  67.622  1.00  0.00    -0.159 S  
HETATM   22  C   UNL     1      -7.134  14.617  67.309  1.00  0.00     0.003 C  
HETATM   23  O   UNL     1      -7.578  12.813  69.062  1.00  0.00    -0.003 OA 
HETATM   24  O   UNL     1      -6.450  12.156  66.863  1.00  0.00    -0.125 OA 
ENDBRANCH  12  21
ENDBRANCH   9  11
ENDBRANCH   5   9
TORSDOF 4
ENDMDL
MODEL      114
REMARK 921   NORMALIZED FREE ENERGY PREDICTED BY IDOCK:   -4.74 KCAL/MOL
REMARK 922        TOTAL FREE ENERGY PREDICTED BY IDOCK:   -6.37 KCAL/MOL
REMARK 923 INTER-LIGAND FREE ENERGY PREDICTED BY IDOCK:   -5.70 KCAL/MOL
REMARK 924 INTRA-LIGAND FREE ENERGY PREDICTED BY IDOCK:   -0.67 KCAL/MOL
REMARK 927      BINDING AFFINITY PREDICTED BY RF-SCORE:    0.00 PKD
ROOT
HETATM    1  C   UNL     1      -9.600   5.038  71.431  1.00  0.00    -0.164 A  
HETATM    2  N   UNL     1     -10.012   4.014  70.683  1.00  0.00    -0.148 NA 
HETATM    3  O   UNL     1     -10.007   4.488  69.386  1.00  0.00    -0.204 OA 
HETATM    4  C   UNL     1      -9.567   5.779  69.368  1.00  0.00    -0.140 A  
HETATM    5  C   UNL     1      -9.284   6.186  70.666  1.00  0.00    -0.163 A  
ENDROOT
BRANCH   4   6
HETATM    6  C   UNL     1      -9.415   6.591  68.084  1.00  0.00    -0.114 C  
HETATM    7  C   UNL     1      -9.871   5.979  66.774  1.00  0.00    -0.198 C  
HETATM    8  C   UNL     1     -10.675   7.069  67.392  1.00  0.00    -0.383 C  
ENDBRANCH   4   6
BRANCH   5   9
HETATM    9  C   UNL     1      -8.824   7.509  71.070  1.00  0.00    -0.146 C  
HETATM   10  O   UNL     1      -8.009   7.633  71.974  1.00  0.00    -0.093 OA 
BRANCH   9  11
HETATM   11  C   UNL     1      -9.395   8.764  70.485  1.00  0.00    -0.219 A  
HETATM   12  C   UNL     1     -10.744   9.149  70.658  1.00  0.00    -0.254 A  
HETATM   13  C   UNL     1     -11.259  10.264  69.971  1.00  0.00    -0.376 A  
HETATM   14  C   UNL     1      -8.605   9.508  69.587  1.00  0.00    -0.189 A  
HETATM   15  C   UNL     1     -10.462  10.995  69.078  1.00  0.00    -0.242 A  
HETATM   16  F   UNL     1     -12.340  12.415  68.604  1.00  0.00    -0.274 F  
HETATM   17  F   UNL     1     -10.364  13.316  68.508  1.00  0.00    -0.230 F  
HETATM   18  F   UNL     1     -11.010  11.938  66.952  1.00  0.00    -0.264 F  
HETATM   19  C   UNL     1     -11.039  12.156  68.294  1.00  0.00    -0.243 C  
HETATM   20  C   UNL     1      -9.130  10.610  68.899  1.00  0.00    -0.181 A  
BRANCH  12  21
HETATM   21  S   UNL     1     -11.816   8.264  71.785  1.00  0.00    -0.329 S  
HETATM   22  C   UNL     1     -13.205   9.302  72.144  1.00  0.00    -0.461 C  
HETATM   23  O   UNL     1     -12.378   7.142  71.060  1.00  0.00    -0.352 OA 
HETATM   24  O   UNL     1     -11.063   8.130  73.018  1.00  0.00    -0.331 OA 
ENDBRANCH  12  21
ENDBRANCH   9  11
ENDBRANCH   5   9
TORSDOF 4
ENDMDL
MODEL      115
REMARK 921   NORMALIZED FREE ENERGY PREDICTED BY IDOCK:   -4.74 KCAL/MOL
REMARK 922        TOTAL FREE ENERGY PREDICTED BY IDOCK:   -6.37 KCAL/MOL
REMARK 923 INTER-LIGAND FREE ENERGY PREDICTED BY IDOCK:   -6.09 KCAL/MOL
REMARK 924 INTRA-LIGAND FREE ENERGY PREDICTED BY IDOCK:   -0.28 KCAL/MOL
REMARK 927      BINDING AFFINITY PREDICTED BY RF-SCORE:    0.00 PKD
ROOT
HETATM    1  C   UNL     1     -10.739   7.152  66.966  1.00  0.00    -0.350 A  
HETATM    2  N   UNL     1     -11.024   6.303  67.954  1.00  0.00    -0.330 NA 
HETATM    3  O   UNL     1     -10.778   7.005  69.118  1.00  0.00    -0.219 OA 
HETATM    4  C   UNL     1     -10.375   8.272  68.815  1.00  0.00    -0.205 A  
HETATM    5  C   UNL     1     -10.334   8.425  67.435  1.00  0.00    -0.355 A  
ENDROOT
BRANCH   4   6
HETATM    6  C   UNL     1     -10.047   9.320  69.877  1.00  0.00    -0.230 C  
HETATM    7  C   UNL     1     -10.751   9.246  71.217  1.00  0.00    -0.422 C  
HETATM    8  C   UNL     1      -9.315   8.864  71.123  1.00  0.00    -0.326 C  
ENDBRANCH   4   6
BRANCH   5   9
HETATM    9  C   UNL     1      -9.919   9.622  66.714  1.00  0.00    -0.227 C  
HETATM   10  O   UNL     1     -10.102   9.715  65.508  1.00  0.00    -0.290 OA 
BRANCH   9  11
HETATM   11  C   UNL     1      -9.165  10.731  67.382  1.00  0.00    -0.156 A  
HETATM   12  C   UNL     1      -9.749  11.980  67.690  1.00  0.00    -0.187 A  
HETATM   13  C   UNL     1      -8.957  13.031  68.190  1.00  0.00    -0.198 A  
HETATM   14  C   UNL     1      -7.775  10.589  67.558  1.00  0.00    -0.098 A  
HETATM   15  C   UNL     1      -7.574  12.877  68.360  1.00  0.00    -0.133 A  
HETATM   16  F   UNL     1      -7.439  15.150  69.123  1.00  0.00    -0.123 F  
HETATM   17  F   UNL     1      -6.025  13.733  69.969  1.00  0.00    -0.109 F  
HETATM   18  F   UNL     1      -5.794  14.407  67.913  1.00  0.00    -0.114 F  
HETATM   19  C   UNL     1      -6.716  14.031  68.838  1.00  0.00    -0.105 C  
HETATM   20  C   UNL     1      -6.993  11.645  68.046  1.00  0.00    -0.078 A  
BRANCH  12  21
HETATM   21  S   UNL     1     -11.509  12.246  67.503  1.00  0.00    -0.357 S  
HETATM   22  C   UNL     1     -11.879  13.877  68.083  1.00  0.00    -0.372 C  
HETATM   23  O   UNL     1     -11.792  12.292  66.081  1.00  0.00    -0.507 OA 
HETATM   24  O   UNL     1     -12.145  11.319  68.420  1.00  0.00    -0.598 OA 
ENDBRANCH  12  21
ENDBRANCH   9  11
ENDBRANCH   5   9
TORSDOF 4
ENDMDL
MODEL      116
REMARK 921   NORMALIZED FREE ENERGY PREDICTED BY IDOCK:   -4.73 KCAL/MOL
REMARK 922        TOTAL FREE ENERGY PREDICTED BY IDOCK:   -6.35 KCAL/MOL
REMARK 923 INTER-LIGAND FREE ENERGY PREDICTED BY IDOCK:   -5.90 KCAL/MOL
REMARK 924 INTRA-LIGAND FREE ENERGY PREDICTED BY IDOCK:   -0.46 KCAL/MOL
REMARK 927      BINDING AFFINITY PREDICTED BY RF-SCORE:    0.00 PKD
ROOT
HETATM    1  C   UNL     1     -10.595  18.206  67.759  1.00  0.00    -0.389 A  
HETATM    2  N   UNL     1     -10.302  19.341  68.394  1.00  0.00    -0.387 NA 
HETATM    3  O   UNL     1      -8.944  19.519  68.211  1.00  0.00    -0.321 OA 
HETATM    4  C   UNL     1      -8.445  18.504  67.448  1.00  0.00    -0.257 A  
HETATM    5  C   UNL     1      -9.471  17.625  67.124  1.00  0.00    -0.267 A  
ENDROOT
BRANCH   4   6
HETATM    6  C   UNL     1      -6.977  18.414  67.036  1.00  0.00    -0.209 C  
HETATM    7  C   UNL     1      -6.628  18.477  65.563  1.00  0.00    -0.299 C  
HETATM    8  C   UNL     1      -6.330  19.645  66.437  1.00  0.00    -0.185 C  
ENDBRANCH   4   6
BRANCH   5   9
HETATM    9  C   UNL     1      -9.338  16.397  66.351  1.00  0.00    -0.292 C  
HETATM   10  O   UNL     1      -9.790  16.325  65.217  1.00  0.00    -0.470 OA 
BRANCH   9  11
HETATM   11  C   UNL     1      -8.747  15.150  66.934  1.00  0.00    -0.289 A  
HETATM   12  C   UNL     1      -9.535  14.082  67.423  1.00  0.00    -0.225 A  
HETATM   13  C   UNL     1      -8.930  12.997  68.084  1.00  0.00    -0.198 A  
HETATM   14  C   UNL     1      -7.358  15.104  67.160  1.00  0.00    -0.145 A  
HETATM   15  C   UNL     1      -7.545  12.966  68.305  1.00  0.00    -0.134 A  
HETATM   16  F   UNL     1      -7.800  10.866  69.442  1.00  0.00    -0.137 F  
HETATM   17  F   UNL     1      -5.944  11.189  68.356  1.00  0.00    -0.046 F  
HETATM   18  F   UNL     1      -6.313  12.247  70.222  1.00  0.00    -0.143 F  
HETATM   19  C   UNL     1      -6.906  11.826  69.073  1.00  0.00    -0.106 C  
HETATM   20  C   UNL     1      -6.766  14.025  67.830  1.00  0.00    -0.171 A  
BRANCH  12  21
HETATM   21  S   UNL     1     -11.306  14.055  67.172  1.00  0.00    -0.348 S  
HETATM   22  C   UNL     1     -11.947  12.606  67.963  1.00  0.00    -0.245 C  
HETATM   23  O   UNL     1     -11.868  15.159  67.925  1.00  0.00    -0.320 OA 
HETATM   24  O   UNL     1     -11.498  13.875  65.746  1.00  0.00    -0.311 OA 
ENDBRANCH  12  21
ENDBRANCH   9  11
ENDBRANCH   5   9
TORSDOF 4
ENDMDL
MODEL      117
REMARK 921   NORMALIZED FREE ENERGY PREDICTED BY IDOCK:   -4.69 KCAL/MOL
REMARK 922        TOTAL FREE ENERGY PREDICTED BY IDOCK:   -6.30 KCAL/MOL
REMARK 923 INTER-LIGAND FREE ENERGY PREDICTED BY IDOCK:   -5.68 KCAL/MOL
REMARK 924 INTRA-LIGAND FREE ENERGY PREDICTED BY IDOCK:   -0.62 KCAL/MOL
REMARK 927      BINDING AFFINITY PREDICTED BY RF-SCORE:    0.00 PKD
ROOT
HETATM    1  C   UNL     1      -7.566   8.046  68.294  1.00  0.00    -0.109 A  
HETATM    2  N   UNL     1      -6.332   7.604  68.050  1.00  0.00    -0.048 NA 
HETATM    3  O   UNL     1      -6.348   7.190  66.733  1.00  0.00    -0.046 OA 
HETATM    4  C   UNL     1      -7.582   7.414  66.195  1.00  0.00    -0.088 A  
HETATM    5  C   UNL     1      -8.411   7.971  67.161  1.00  0.00    -0.121 A  
ENDROOT
BRANCH   4   6
HETATM    6  C   UNL     1      -7.930   7.092  64.743  1.00  0.00    -0.122 C  
HETATM    7  C   UNL     1      -7.947   8.220  63.730  1.00  0.00    -0.149 C  
HETATM    8  C   UNL     1      -6.837   7.228  63.703  1.00  0.00    -0.053 C  
ENDBRANCH   4   6
BRANCH   5   9
HETATM    9  C   UNL     1      -9.815   8.322  66.989  1.00  0.00    -0.232 C  
HETATM   10  O   UNL     1     -10.652   7.452  66.794  1.00  0.00    -0.310 OA 
BRANCH   9  11
HETATM   11  C   UNL     1     -10.279   9.745  66.936  1.00  0.00    -0.310 A  
HETATM   12  C   UNL     1     -10.820  10.419  68.055  1.00  0.00    -0.270 A  
HETATM   13  C   UNL     1     -11.366  11.708  67.913  1.00  0.00    -0.369 A  
HETATM   14  C   UNL     1     -10.336  10.389  65.686  1.00  0.00    -0.260 A  
HETATM   15  C   UNL     1     -11.419  12.337  66.661  1.00  0.00    -0.431 A  
HETATM   16  F   UNL     1     -12.504  14.221  67.681  1.00  0.00    -0.345 F  
HETATM   17  F   UNL     1     -11.217  14.620  65.975  1.00  0.00    -0.320 F  
HETATM   18  F   UNL     1     -13.149  13.663  65.682  1.00  0.00    -0.509 F  
HETATM   19  C   UNL     1     -12.065  13.699  66.502  1.00  0.00    -0.423 C  
HETATM   20  C   UNL     1     -10.893  11.668  65.552  1.00  0.00    -0.334 A  
BRANCH  12  21
HETATM   21  S   UNL     1     -10.781   9.678  69.684  1.00  0.00    -0.249 S  
HETATM   22  C   UNL     1     -11.864  10.607  70.731  1.00  0.00    -0.357 C  
HETATM   23  O   UNL     1     -11.405   8.372  69.582  1.00  0.00     0.009 OA 
HETATM   24  O   UNL     1      -9.434   9.889  70.179  1.00  0.00    -0.237 OA 
ENDBRANCH  12  21
ENDBRANCH   9  11
ENDBRANCH   5   9
TORSDOF 4
ENDMDL
MODEL      118
REMARK 921   NORMALIZED FREE ENERGY PREDICTED BY IDOCK:   -4.69 KCAL/MOL
REMARK 922        TOTAL FREE ENERGY PREDICTED BY IDOCK:   -6.30 KCAL/MOL
REMARK 923 INTER-LIGAND FREE ENERGY PREDICTED BY IDOCK:   -5.95 KCAL/MOL
REMARK 924 INTRA-LIGAND FREE ENERGY PREDICTED BY IDOCK:   -0.36 KCAL/MOL
REMARK 927      BINDING AFFINITY PREDICTED BY RF-SCORE:    0.00 PKD
ROOT
HETATM    1  C   UNL     1     -11.023  10.757  66.834  1.00  0.00    -0.190 A  
HETATM    2  N   UNL     1     -11.899  11.728  67.093  1.00  0.00    -0.620 NA 
HETATM    3  O   UNL     1     -12.174  11.618  68.442  1.00  0.00    -0.498 OA 
HETATM    4  C   UNL     1     -11.440  10.603  68.981  1.00  0.00    -0.274 A  
HETATM    5  C   UNL     1     -10.673  10.011  67.985  1.00  0.00    -0.303 A  
ENDROOT
BRANCH   4   6
HETATM    6  C   UNL     1     -11.488  10.232  70.462  1.00  0.00    -0.427 C  
HETATM    7  C   UNL     1     -12.427  10.995  71.375  1.00  0.00    -0.436 C  
HETATM    8  C   UNL     1     -12.754   9.593  70.994  1.00  0.00    -0.354 C  
ENDBRANCH   4   6
BRANCH   5   9
HETATM    9  C   UNL     1      -9.781   8.870  68.151  1.00  0.00    -0.160 C  
HETATM   10  O   UNL     1      -8.927   8.623  67.311  1.00  0.00    -0.131 OA 
BRANCH   9  11
HETATM   11  C   UNL     1      -9.934   7.898  69.280  1.00  0.00    -0.190 A  
HETATM   12  C   UNL     1      -8.951   7.721  70.281  1.00  0.00    -0.148 A  
HETATM   13  C   UNL     1      -9.087   6.698  71.237  1.00  0.00    -0.151 A  
HETATM   14  C   UNL     1     -11.021   7.003  69.256  1.00  0.00    -0.211 A  
HETATM   15  C   UNL     1     -10.173   5.812  71.201  1.00  0.00    -0.275 A  
HETATM   16  F   UNL     1      -9.273   4.668  73.110  1.00  0.00    -0.117 F  
HETATM   17  F   UNL     1     -11.437   4.713  72.909  1.00  0.00    -0.285 F  
HETATM   18  F   UNL     1     -10.246   3.456  71.590  1.00  0.00    -0.241 F  
HETATM   19  C   UNL     1     -10.282   4.673  72.194  1.00  0.00    -0.193 C  
HETATM   20  C   UNL     1     -11.142   5.980  70.206  1.00  0.00    -0.415 A  
BRANCH  12  21
HETATM   21  S   UNL     1      -7.541   8.818  70.390  1.00  0.00    -0.093 S  
HETATM   22  C   UNL     1      -6.833   8.636  72.002  1.00  0.00    -0.068 C  
HETATM   23  O   UNL     1      -6.526   8.311  69.487  1.00  0.00    -0.037 OA 
HETATM   24  O   UNL     1      -8.083  10.161  70.318  1.00  0.00    -0.134 OA 
ENDBRANCH  12  21
ENDBRANCH   9  11
ENDBRANCH   5   9
TORSDOF 4
ENDMDL
MODEL      119
REMARK 921   NORMALIZED FREE ENERGY PREDICTED BY IDOCK:   -4.68 KCAL/MOL
REMARK 922        TOTAL FREE ENERGY PREDICTED BY IDOCK:   -6.30 KCAL/MOL
REMARK 923 INTER-LIGAND FREE ENERGY PREDICTED BY IDOCK:   -5.75 KCAL/MOL
REMARK 924 INTRA-LIGAND FREE ENERGY PREDICTED BY IDOCK:   -0.55 KCAL/MOL
REMARK 927      BINDING AFFINITY PREDICTED BY RF-SCORE:    0.00 PKD
ROOT
HETATM    1  C   UNL     1     -11.161   6.494  67.828  1.00  0.00    -0.270 A  
HETATM    2  N   UNL     1     -10.900   5.864  66.682  1.00  0.00    -0.277 NA 
HETATM    3  O   UNL     1      -9.534   5.980  66.508  1.00  0.00    -0.151 OA 
HETATM    4  C   UNL     1      -8.990   6.652  67.563  1.00  0.00    -0.114 A  
HETATM    5  C   UNL     1      -9.998   7.006  68.451  1.00  0.00    -0.160 A  
ENDROOT
BRANCH   4   6
HETATM    6  C   UNL     1      -7.494   6.927  67.695  1.00  0.00    -0.098 C  
HETATM    7  C   UNL     1      -6.644   6.959  66.441  1.00  0.00    -0.052 C  
HETATM    8  C   UNL     1      -6.960   8.233  67.145  1.00  0.00    -0.075 C  
ENDBRANCH   4   6
BRANCH   5   9
HETATM    9  C   UNL     1      -9.829   7.765  69.684  1.00  0.00    -0.182 C  
HETATM   10  O   UNL     1      -9.356   7.233  70.680  1.00  0.00    -0.158 OA 
BRANCH   9  11
HETATM   11  C   UNL     1     -10.315   9.174  69.825  1.00  0.00    -0.226 A  
HETATM   12  C   UNL     1     -11.429   9.527  70.622  1.00  0.00    -0.297 A  
HETATM   13  C   UNL     1     -11.924  10.844  70.607  1.00  0.00    -0.467 A  
HETATM   14  C   UNL     1      -9.749  10.167  69.003  1.00  0.00    -0.212 A  
HETATM   15  C   UNL     1     -11.353  11.823  69.782  1.00  0.00    -0.245 A  
HETATM   16  F   UNL     1     -12.975  13.405  70.576  1.00  0.00    -0.264 F  
HETATM   17  F   UNL     1     -11.016  14.177  70.041  1.00  0.00    -0.204 F  
HETATM   18  F   UNL     1     -12.396  13.537  68.485  1.00  0.00    -0.376 F  
HETATM   19  C   UNL     1     -11.929  13.223  69.723  1.00  0.00    -0.324 C  
HETATM   20  C   UNL     1     -10.257  11.474  68.987  1.00  0.00    -0.109 A  
BRANCH  12  21
HETATM   21  S   UNL     1     -12.205   8.330  71.702  1.00  0.00    -0.327 S  
HETATM   22  C   UNL     1     -13.760   8.994  72.224  1.00  0.00    -0.492 C  
HETATM   23  O   UNL     1     -12.553   7.177  70.894  1.00  0.00    -0.329 OA 
HETATM   24  O   UNL     1     -11.361   8.260  72.880  1.00  0.00    -0.342 OA 
ENDBRANCH  12  21
ENDBRANCH   9  11
ENDBRANCH   5   9
TORSDOF 4
ENDMDL
MODEL      120
REMARK 921   NORMALIZED FREE ENERGY PREDICTED BY IDOCK:   -4.67 KCAL/MOL
REMARK 922        TOTAL FREE ENERGY PREDICTED BY IDOCK:   -6.28 KCAL/MOL
REMARK 923 INTER-LIGAND FREE ENERGY PREDICTED BY IDOCK:   -5.95 KCAL/MOL
REMARK 924 INTRA-LIGAND FREE ENERGY PREDICTED BY IDOCK:   -0.33 KCAL/MOL
REMARK 927      BINDING AFFINITY PREDICTED BY RF-SCORE:    0.00 PKD
ROOT
HETATM    1  C   UNL     1      -8.357   9.339  68.964  1.00  0.00    -0.123 A  
HETATM    2  N   UNL     1      -7.073   9.205  68.633  1.00  0.00    -0.070 NA 
HETATM    3  O   UNL     1      -7.015   9.486  67.282  1.00  0.00    -0.083 OA 
HETATM    4  C   UNL     1      -8.258   9.811  66.825  1.00  0.00    -0.120 A  
HETATM    5  C   UNL     1      -9.168   9.736  67.873  1.00  0.00    -0.133 A  
ENDROOT
BRANCH   4   6
HETATM    6  C   UNL     1      -8.539  10.203  65.376  1.00  0.00    -0.165 C  
HETATM    7  C   UNL     1      -7.559   9.775  64.301  1.00  0.00    -0.135 C  
HETATM    8  C   UNL     1      -8.884   9.100  64.395  1.00  0.00    -0.156 C  
ENDBRANCH   4   6
BRANCH   5   9
HETATM    9  C   UNL     1     -10.603   9.975  67.784  1.00  0.00    -0.261 C  
HETATM   10  O   UNL     1     -11.282   9.375  66.963  1.00  0.00     0.149 OA 
BRANCH   9  11
HETATM   11  C   UNL     1     -11.286  11.027  68.603  1.00  0.00    -0.346 A  
HETATM   12  C   UNL     1     -11.425  12.367  68.173  1.00  0.00    -0.318 A  
HETATM   13  C   UNL     1     -11.953  13.341  69.040  1.00  0.00    -0.336 A  
HETATM   14  C   UNL     1     -11.659  10.715  69.924  1.00  0.00    -0.396 A  
HETATM   15  C   UNL     1     -12.318  13.017  70.355  1.00  0.00    -0.351 A  
HETATM   16  F   UNL     1     -12.932  15.309  70.722  1.00  0.00    -0.385 F  
HETATM   17  F   UNL     1     -14.059  13.795  71.800  1.00  0.00    -0.439 F  
HETATM   18  F   UNL     1     -12.011  14.247  72.380  1.00  0.00    -0.259 F  
HETATM   19  C   UNL     1     -12.827  14.083  71.305  1.00  0.00    -0.358 C  
HETATM   20  C   UNL     1     -12.173  11.695  70.785  1.00  0.00    -0.443 A  
BRANCH  12  21
HETATM   21  S   UNL     1     -10.983  12.849  66.507  1.00  0.00    -0.282 S  
HETATM   22  C   UNL     1     -11.700  14.437  66.191  1.00  0.00    -0.378 C  
HETATM   23  O   UNL     1      -9.552  13.085  66.488  1.00  0.00    -0.252 OA 
HETATM   24  O   UNL     1     -11.653  11.904  65.634  1.00  0.00    -0.317 OA 
ENDBRANCH  12  21
ENDBRANCH   9  11
ENDBRANCH   5   9
TORSDOF 4
ENDMDL
MODEL      121
REMARK 921   NORMALIZED FREE ENERGY PREDICTED BY IDOCK:   -4.66 KCAL/MOL
REMARK 922        TOTAL FREE ENERGY PREDICTED BY IDOCK:   -6.27 KCAL/MOL
REMARK 923 INTER-LIGAND FREE ENERGY PREDICTED BY IDOCK:   -6.37 KCAL/MOL
REMARK 924 INTRA-LIGAND FREE ENERGY PREDICTED BY IDOCK:    0.10 KCAL/MOL
REMARK 927      BINDING AFFINITY PREDICTED BY RF-SCORE:    0.00 PKD
ROOT
HETATM    1  C   UNL     1      -8.408  10.117  64.795  1.00  0.00    -0.165 A  
HETATM    2  N   UNL     1      -8.992  10.069  63.597  1.00  0.00    -0.235 NA 
HETATM    3  O   UNL     1     -10.023  10.986  63.659  1.00  0.00    -0.295 OA 
HETATM    4  C   UNL     1     -10.028  11.592  64.881  1.00  0.00    -0.255 A  
HETATM    5  C   UNL     1      -9.000  11.071  65.657  1.00  0.00    -0.212 A  
ENDROOT
BRANCH   4   6
HETATM    6  C   UNL     1     -11.027  12.681  65.269  1.00  0.00    -0.320 C  
HETATM    7  C   UNL     1     -11.588  13.577  64.183  1.00  0.00    -0.415 C  
HETATM    8  C   UNL     1     -12.457  12.534  64.794  1.00  0.00    -0.532 C  
ENDBRANCH   4   6
BRANCH   5   9
HETATM    9  C   UNL     1      -8.696  11.433  67.036  1.00  0.00    -0.160 C  
HETATM   10  O   UNL     1      -8.177  10.622  67.790  1.00  0.00    -0.110 OA 
BRANCH   9  11
HETATM   11  C   UNL     1      -9.095  12.754  67.619  1.00  0.00    -0.193 A  
HETATM   12  C   UNL     1     -10.216  12.914  68.464  1.00  0.00    -0.205 A  
HETATM   13  C   UNL     1     -10.623  14.199  68.870  1.00  0.00    -0.249 A  
HETATM   14  C   UNL     1      -8.429  13.913  67.176  1.00  0.00    -0.196 A  
HETATM   15  C   UNL     1      -9.953  15.346  68.420  1.00  0.00    -0.215 A  
HETATM   16  F   UNL     1     -11.501  16.704  69.653  1.00  0.00    -0.240 F  
HETATM   17  F   UNL     1      -9.474  17.457  69.438  1.00  0.00    -0.145 F  
HETATM   18  F   UNL     1     -10.824  17.461  67.732  1.00  0.00    -0.361 F  
HETATM   19  C   UNL     1     -10.433  16.729  68.808  1.00  0.00    -0.338 C  
HETATM   20  C   UNL     1      -8.849  15.189  67.576  1.00  0.00    -0.190 A  
BRANCH  12  21
HETATM   21  S   UNL     1     -11.115  11.494  69.080  1.00  0.00    -0.258 S  
HETATM   22  C   UNL     1     -12.220  12.055  70.344  1.00  0.00    -0.294 C  
HETATM   23  O   UNL     1     -11.984  11.035  68.014  1.00  0.00    -0.623 OA 
HETATM   24  O   UNL     1     -10.126  10.655  69.730  1.00  0.00    -0.162 OA 
ENDBRANCH  12  21
ENDBRANCH   9  11
ENDBRANCH   5   9
TORSDOF 4
ENDMDL
MODEL      122
REMARK 921   NORMALIZED FREE ENERGY PREDICTED BY IDOCK:   -4.65 KCAL/MOL
REMARK 922        TOTAL FREE ENERGY PREDICTED BY IDOCK:   -6.26 KCAL/MOL
REMARK 923 INTER-LIGAND FREE ENERGY PREDICTED BY IDOCK:   -6.60 KCAL/MOL
REMARK 924 INTRA-LIGAND FREE ENERGY PREDICTED BY IDOCK:    0.34 KCAL/MOL
REMARK 927      BINDING AFFINITY PREDICTED BY RF-SCORE:    0.00 PKD
ROOT
HETATM    1  C   UNL     1      -9.930  12.132  63.518  1.00  0.00    -0.314 A  
HETATM    2  N   UNL     1      -9.272  11.018  63.198  1.00  0.00    -0.283 NA 
HETATM    3  O   UNL     1      -9.478  10.157  64.259  1.00  0.00    -0.274 OA 
HETATM    4  C   UNL     1     -10.279  10.754  65.187  1.00  0.00    -0.298 A  
HETATM    5  C   UNL     1     -10.606  12.035  64.758  1.00  0.00    -0.340 A  
ENDROOT
BRANCH   4   6
HETATM    6  C   UNL     1     -10.724  10.062  66.474  1.00  0.00    -0.094 C  
HETATM    7  C   UNL     1     -10.497   8.570  66.617  1.00  0.00    -0.235 C  
HETATM    8  C   UNL     1      -9.653   9.518  67.396  1.00  0.00    -0.178 C  
ENDBRANCH   4   6
BRANCH   5   9
HETATM    9  C   UNL     1     -11.414  13.004  65.486  1.00  0.00    -0.321 C  
HETATM   10  O   UNL     1     -12.550  12.722  65.841  1.00  0.00    -0.518 OA 
BRANCH   9  11
HETATM   11  C   UNL     1     -10.945  14.405  65.735  1.00  0.00    -0.314 A  
HETATM   12  C   UNL     1     -10.467  14.843  66.992  1.00  0.00    -0.272 A  
HETATM   13  C   UNL     1     -10.170  16.202  67.205  1.00  0.00    -0.277 A  
HETATM   14  C   UNL     1     -11.142  15.371  64.730  1.00  0.00    -0.416 A  
HETATM   15  C   UNL     1     -10.374  17.154  66.196  1.00  0.00    -0.327 A  
HETATM   16  F   UNL     1      -9.624  18.870  67.698  1.00  0.00    -0.303 F  
HETATM   17  F   UNL     1      -9.209  19.152  65.583  1.00  0.00    -0.124 F  
HETATM   18  F   UNL     1     -11.239  19.376  66.334  1.00  0.00    -0.385 F  
HETATM   19  C   UNL     1     -10.112  18.624  66.450  1.00  0.00    -0.403 C  
HETATM   20  C   UNL     1     -10.855  16.724  64.956  1.00  0.00    -0.131 A  
BRANCH  12  21
HETATM   21  S   UNL     1     -10.180  13.682  68.324  1.00  0.00    -0.245 S  
HETATM   22  C   UNL     1     -11.679  12.778  68.591  1.00  0.00    -0.324 C  
HETATM   23  O   UNL     1      -9.238  12.691  67.840  1.00  0.00    -0.186 OA 
HETATM   24  O   UNL     1      -9.960  14.490  69.508  1.00  0.00    -0.036 OA 
ENDBRANCH  12  21
ENDBRANCH   9  11
ENDBRANCH   5   9
TORSDOF 4
ENDMDL
MODEL      123
REMARK 921   NORMALIZED FREE ENERGY PREDICTED BY IDOCK:   -4.65 KCAL/MOL
REMARK 922        TOTAL FREE ENERGY PREDICTED BY IDOCK:   -6.26 KCAL/MOL
REMARK 923 INTER-LIGAND FREE ENERGY PREDICTED BY IDOCK:   -5.72 KCAL/MOL
REMARK 924 INTRA-LIGAND FREE ENERGY PREDICTED BY IDOCK:   -0.54 KCAL/MOL
REMARK 927      BINDING AFFINITY PREDICTED BY RF-SCORE:    0.00 PKD
ROOT
HETATM    1  C   UNL     1     -10.288   6.605  67.547  1.00  0.00    -0.208 A  
HETATM    2  N   UNL     1     -10.393   5.332  67.167  1.00  0.00    -0.219 NA 
HETATM    3  O   UNL     1      -9.480   5.183  66.141  1.00  0.00    -0.147 OA 
HETATM    4  C   UNL     1      -8.820   6.359  65.937  1.00  0.00    -0.131 A  
HETATM    5  C   UNL     1      -9.301   7.316  66.823  1.00  0.00    -0.203 A  
ENDROOT
BRANCH   4   6
HETATM    6  C   UNL     1      -7.721   6.529  64.890  1.00  0.00    -0.105 C  
HETATM    7  C   UNL     1      -6.306   6.114  65.243  1.00  0.00    -0.038 C  
HETATM    8  C   UNL     1      -7.102   5.279  64.300  1.00  0.00    -0.050 C  
ENDBRANCH   4   6
BRANCH   5   9
HETATM    9  C   UNL     1      -8.876   8.708  66.897  1.00  0.00    -0.132 C  
HETATM   10  O   UNL     1      -7.877   9.019  67.532  1.00  0.00    -0.099 OA 
BRANCH   9  11
HETATM   11  C   UNL     1      -9.685   9.820  66.303  1.00  0.00    -0.295 A  
HETATM   12  C   UNL     1     -10.528  10.653  67.073  1.00  0.00    -0.243 A  
HETATM   13  C   UNL     1     -11.368  11.591  66.444  1.00  0.00    -0.246 A  
HETATM   14  C   UNL     1      -9.741   9.937  64.901  1.00  0.00    -0.332 A  
HETATM   15  C   UNL     1     -11.416  11.696  65.046  1.00  0.00    -0.189 A  
HETATM   16  F   UNL     1     -13.081  13.412  65.257  1.00  0.00    -0.499 F  
HETATM   17  F   UNL     1     -11.727  13.546  63.562  1.00  0.00    -0.425 F  
HETATM   18  F   UNL     1     -13.285  12.026  63.595  1.00  0.00    -0.548 F  
HETATM   19  C   UNL     1     -12.368  12.662  64.371  1.00  0.00    -0.446 C  
HETATM   20  C   UNL     1     -10.589  10.866  64.283  1.00  0.00    -0.336 A  
BRANCH  12  21
HETATM   21  S   UNL     1     -10.515  10.576  68.861  1.00  0.00    -0.220 S  
HETATM   22  C   UNL     1     -11.721  11.724  69.465  1.00  0.00    -0.343 C  
HETATM   23  O   UNL     1     -11.028   9.275  69.243  1.00  0.00    -0.191 OA 
HETATM   24  O   UNL     1      -9.216  11.080  69.266  1.00  0.00    -0.073 OA 
ENDBRANCH  12  21
ENDBRANCH   9  11
ENDBRANCH   5   9
TORSDOF 4
ENDMDL
MODEL      124
REMARK 921   NORMALIZED FREE ENERGY PREDICTED BY IDOCK:   -4.64 KCAL/MOL
REMARK 922        TOTAL FREE ENERGY PREDICTED BY IDOCK:   -6.24 KCAL/MOL
REMARK 923 INTER-LIGAND FREE ENERGY PREDICTED BY IDOCK:   -6.56 KCAL/MOL
REMARK 924 INTRA-LIGAND FREE ENERGY PREDICTED BY IDOCK:    0.32 KCAL/MOL
REMARK 927      BINDING AFFINITY PREDICTED BY RF-SCORE:    0.00 PKD
ROOT
HETATM    1  C   UNL     1      -6.675  17.442  66.365  1.00  0.00    -0.262 A  
HETATM    2  N   UNL     1      -6.876  18.482  65.556  1.00  0.00    -0.483 NA 
HETATM    3  O   UNL     1      -8.142  18.940  65.862  1.00  0.00    -0.468 OA 
HETATM    4  C   UNL     1      -8.674  18.188  66.868  1.00  0.00    -0.259 A  
HETATM    5  C   UNL     1      -7.765  17.204  67.236  1.00  0.00    -0.198 A  
ENDROOT
BRANCH   4   6
HETATM    6  C   UNL     1     -10.056  18.449  67.464  1.00  0.00    -0.373 C  
HETATM    7  C   UNL     1     -10.269  19.701  68.292  1.00  0.00    -0.567 C  
HETATM    8  C   UNL     1     -10.854  19.618  66.925  1.00  0.00    -0.505 C  
ENDBRANCH   4   6
BRANCH   5   9
HETATM    9  C   UNL     1      -7.973  16.178  68.250  1.00  0.00    -0.152 C  
HETATM   10  O   UNL     1      -7.492  16.304  69.368  1.00  0.00    -0.233 OA 
BRANCH   9  11
HETATM   11  C   UNL     1      -8.682  14.893  67.950  1.00  0.00    -0.164 A  
HETATM   12  C   UNL     1      -8.006  13.663  67.787  1.00  0.00    -0.172 A  
HETATM   13  C   UNL     1      -8.707  12.516  67.370  1.00  0.00    -0.189 A  
HETATM   14  C   UNL     1     -10.058  14.937  67.651  1.00  0.00    -0.227 A  
HETATM   15  C   UNL     1     -10.077  12.573  67.073  1.00  0.00    -0.222 A  
HETATM   16  F   UNL     1     -10.025  10.243  66.498  1.00  0.00    -0.230 F  
HETATM   17  F   UNL     1     -11.870  11.014  67.350  1.00  0.00    -0.294 F  
HETATM   18  F   UNL     1     -11.311  11.533  65.312  1.00  0.00    -0.336 F  
HETATM   19  C   UNL     1     -10.814  11.351  66.564  1.00  0.00    -0.283 C  
HETATM   20  C   UNL     1     -10.745  13.792  67.225  1.00  0.00    -0.286 A  
BRANCH  12  21
HETATM   21  S   UNL     1      -6.260  13.516  68.151  1.00  0.00    -0.130 S  
HETATM   22  C   UNL     1      -6.051  13.695  69.900  1.00  0.00    -0.135 C  
HETATM   23  O   UNL     1      -5.873  12.146  67.877  1.00  0.00    -0.054 OA 
HETATM   24  O   UNL     1      -5.632  14.668  67.533  1.00  0.00    -0.337 OA 
ENDBRANCH  12  21
ENDBRANCH   9  11
ENDBRANCH   5   9
TORSDOF 4
ENDMDL
MODEL      125
REMARK 921   NORMALIZED FREE ENERGY PREDICTED BY IDOCK:   -4.64 KCAL/MOL
REMARK 922        TOTAL FREE ENERGY PREDICTED BY IDOCK:   -6.24 KCAL/MOL
REMARK 923 INTER-LIGAND FREE ENERGY PREDICTED BY IDOCK:   -6.12 KCAL/MOL
REMARK 924 INTRA-LIGAND FREE ENERGY PREDICTED BY IDOCK:   -0.12 KCAL/MOL
REMARK 927      BINDING AFFINITY PREDICTED BY RF-SCORE:    0.00 PKD
ROOT
HETATM    1  C   UNL     1     -11.471  13.288  68.116  1.00  0.00    -0.312 A  
HETATM    2  N   UNL     1     -12.078  14.371  67.629  1.00  0.00    -0.335 NA 
HETATM    3  O   UNL     1     -12.107  14.185  66.261  1.00  0.00    -0.412 OA 
HETATM    4  C   UNL     1     -11.543  12.984  65.946  1.00  0.00    -0.363 A  
HETATM    5  C   UNL     1     -11.116  12.357  67.110  1.00  0.00    -0.328 A  
ENDROOT
BRANCH   4   6
HETATM    6  C   UNL     1     -11.441  12.459  64.516  1.00  0.00    -0.394 C  
HETATM    7  C   UNL     1     -12.705  12.002  63.814  1.00  0.00    -0.516 C  
HETATM    8  C   UNL     1     -12.065  13.284  63.409  1.00  0.00    -0.508 C  
ENDBRANCH   4   6
BRANCH   5   9
HETATM    9  C   UNL     1     -10.432  11.073  67.193  1.00  0.00    -0.232 C  
HETATM   10  O   UNL     1     -10.148  10.455  66.177  1.00  0.00    -0.222 OA 
BRANCH   9  11
HETATM   11  C   UNL     1     -10.143  10.408  68.504  1.00  0.00    -0.186 A  
HETATM   12  C   UNL     1      -8.851  10.363  69.076  1.00  0.00    -0.172 A  
HETATM   13  C   UNL     1      -8.614   9.607  70.239  1.00  0.00    -0.234 A  
HETATM   14  C   UNL     1     -11.162   9.651  69.114  1.00  0.00    -0.056 A  
HETATM   15  C   UNL     1      -9.637   8.856  70.834  1.00  0.00    -0.298 A  
HETATM   16  F   UNL     1      -8.077   8.092  72.492  1.00  0.00    -0.132 F  
HETATM   17  F   UNL     1     -10.149   8.317  73.108  1.00  0.00    -0.360 F  
HETATM   18  F   UNL     1      -9.573   6.673  71.804  1.00  0.00    -0.159 F  
HETATM   19  C   UNL     1      -9.362   7.993  72.049  1.00  0.00    -0.178 C  
HETATM   20  C   UNL     1     -10.914   8.891  70.265  1.00  0.00    -0.266 A  
BRANCH  12  21
HETATM   21  S   UNL     1      -7.500  11.301  68.371  1.00  0.00    -0.116 S  
HETATM   22  C   UNL     1      -6.214  11.401  69.584  1.00  0.00    -0.118 C  
HETATM   23  O   UNL     1      -6.930  10.505  67.301  1.00  0.00    -0.083 OA 
HETATM   24  O   UNL     1      -8.010  12.647  68.188  1.00  0.00    -0.140 OA 
ENDBRANCH  12  21
ENDBRANCH   9  11
ENDBRANCH   5   9
TORSDOF 4
ENDMDL
MODEL      126
REMARK 921   NORMALIZED FREE ENERGY PREDICTED BY IDOCK:   -4.59 KCAL/MOL
REMARK 922        TOTAL FREE ENERGY PREDICTED BY IDOCK:   -6.18 KCAL/MOL
REMARK 923 INTER-LIGAND FREE ENERGY PREDICTED BY IDOCK:   -6.23 KCAL/MOL
REMARK 924 INTRA-LIGAND FREE ENERGY PREDICTED BY IDOCK:    0.05 KCAL/MOL
REMARK 927      BINDING AFFINITY PREDICTED BY RF-SCORE:    0.00 PKD
ROOT
HETATM    1  C   UNL     1      -9.079  10.598  65.668  1.00  0.00    -0.183 A  
HETATM    2  N   UNL     1      -9.528  10.710  64.418  1.00  0.00    -0.244 NA 
HETATM    3  O   UNL     1     -10.287  11.865  64.408  1.00  0.00    -0.267 OA 
HETATM    4  C   UNL     1     -10.261  12.444  65.643  1.00  0.00    -0.262 A  
HETATM    5  C   UNL     1      -9.490  11.668  66.499  1.00  0.00    -0.219 A  
ENDROOT
BRANCH   4   6
HETATM    6  C   UNL     1     -10.977  13.754  65.966  1.00  0.00    -0.284 C  
HETATM    7  C   UNL     1     -10.257  15.063  65.708  1.00  0.00    -0.361 C  
HETATM    8  C   UNL     1     -11.373  14.651  64.811  1.00  0.00    -0.398 C  
ENDBRANCH   4   6
BRANCH   5   9
HETATM    9  C   UNL     1      -9.247  11.930  67.912  1.00  0.00    -0.187 C  
HETATM   10  O   UNL     1      -8.900  13.042  68.286  1.00  0.00    -0.189 OA 
BRANCH   9  11
HETATM   11  C   UNL     1      -9.304  10.846  68.944  1.00  0.00    -0.169 A  
HETATM   12  C   UNL     1     -10.466  10.562  69.697  1.00  0.00    -0.219 A  
HETATM   13  C   UNL     1     -10.421   9.626  70.748  1.00  0.00    -0.375 A  
HETATM   14  C   UNL     1      -8.109  10.192  69.301  1.00  0.00    -0.149 A  
HETATM   15  C   UNL     1      -9.223   8.984  71.094  1.00  0.00    -0.326 A  
HETATM   16  F   UNL     1     -10.378   7.837  72.860  1.00  0.00    -0.275 F  
HETATM   17  F   UNL     1      -8.729   6.789  71.908  1.00  0.00    -0.123 F  
HETATM   18  F   UNL     1      -8.331   8.458  73.247  1.00  0.00    -0.236 F  
HETATM   19  C   UNL     1      -9.166   8.025  72.266  1.00  0.00    -0.182 C  
HETATM   20  C   UNL     1      -8.071   9.270  70.356  1.00  0.00    -0.178 A  
BRANCH  12  21
HETATM   21  S   UNL     1     -12.029  11.341  69.308  1.00  0.00    -0.317 S  
HETATM   22  C   UNL     1     -11.815  13.092  69.448  1.00  0.00    -0.326 C  
HETATM   23  O   UNL     1     -12.286  11.117  67.898  1.00  0.00    -0.521 OA 
HETATM   24  O   UNL     1     -12.940  10.943  70.364  1.00  0.00    -0.244 OA 
ENDBRANCH  12  21
ENDBRANCH   9  11
ENDBRANCH   5   9
TORSDOF 4
ENDMDL
MODEL      127
REMARK 921   NORMALIZED FREE ENERGY PREDICTED BY IDOCK:   -4.58 KCAL/MOL
REMARK 922        TOTAL FREE ENERGY PREDICTED BY IDOCK:   -6.18 KCAL/MOL
REMARK 923 INTER-LIGAND FREE ENERGY PREDICTED BY IDOCK:   -5.98 KCAL/MOL
REMARK 924 INTRA-LIGAND FREE ENERGY PREDICTED BY IDOCK:   -0.19 KCAL/MOL
REMARK 927      BINDING AFFINITY PREDICTED BY RF-SCORE:    0.00 PKD
ROOT
HETATM    1  C   UNL     1     -11.203  11.486  67.974  1.00  0.00    -0.269 A  
HETATM    2  N   UNL     1     -11.878  12.633  67.901  1.00  0.00    -0.353 NA 
HETATM    3  O   UNL     1     -11.977  12.910  66.551  1.00  0.00    -0.396 OA 
HETATM    4  C   UNL     1     -11.386  11.914  65.832  1.00  0.00    -0.308 A  
HETATM    5  C   UNL     1     -10.870  10.962  66.702  1.00  0.00    -0.258 A  
ENDROOT
BRANCH   4   6
HETATM    6  C   UNL     1     -11.344  11.899  64.305  1.00  0.00    -0.425 C  
HETATM    7  C   UNL     1     -12.642  11.727  63.541  1.00  0.00    -0.485 C  
HETATM    8  C   UNL     1     -11.977  13.059  63.565  1.00  0.00    -0.615 C  
ENDBRANCH   4   6
BRANCH   5   9
HETATM    9  C   UNL     1     -10.132   9.763  66.324  1.00  0.00    -0.243 C  
HETATM   10  O   UNL     1      -9.678   9.644  65.195  1.00  0.00    -0.300 OA 
BRANCH   9  11
HETATM   11  C   UNL     1      -9.990   8.591  67.248  1.00  0.00    -0.289 A  
HETATM   12  C   UNL     1      -8.835   8.367  68.032  1.00  0.00    -0.142 A  
HETATM   13  C   UNL     1      -8.701   7.180  68.775  1.00  0.00    -0.124 A  
HETATM   14  C   UNL     1     -10.972   7.583  67.212  1.00  0.00    -0.178 A  
HETATM   15  C   UNL     1      -9.685   6.181  68.728  1.00  0.00    -0.148 A  
HETATM   16  F   UNL     1      -8.358   4.839  70.212  1.00  0.00    -0.075 F  
HETATM   17  F   UNL     1     -10.517   4.638  70.356  1.00  0.00    -0.294 F  
HETATM   18  F   UNL     1      -9.457   3.805  68.648  1.00  0.00    -0.190 F  
HETATM   19  C   UNL     1      -9.506   4.878  69.480  1.00  0.00    -0.148 C  
HETATM   20  C   UNL     1     -10.823   6.398  67.946  1.00  0.00    -0.404 A  
BRANCH  12  21
HETATM   21  S   UNL     1      -7.542   9.600  68.141  1.00  0.00    -0.082 S  
HETATM   22  C   UNL     1      -6.182   8.886  69.020  1.00  0.00    -0.044 C  
HETATM   23  O   UNL     1      -7.036   9.817  66.800  1.00  0.00    -0.083 OA 
HETATM   24  O   UNL     1      -8.077  10.655  68.979  1.00  0.00    -0.132 OA 
ENDBRANCH  12  21
ENDBRANCH   9  11
ENDBRANCH   5   9
TORSDOF 4
ENDMDL
MODEL      128
REMARK 921   NORMALIZED FREE ENERGY PREDICTED BY IDOCK:   -4.57 KCAL/MOL
REMARK 922        TOTAL FREE ENERGY PREDICTED BY IDOCK:   -6.16 KCAL/MOL
REMARK 923 INTER-LIGAND FREE ENERGY PREDICTED BY IDOCK:   -5.93 KCAL/MOL
REMARK 924 INTRA-LIGAND FREE ENERGY PREDICTED BY IDOCK:   -0.24 KCAL/MOL
REMARK 927      BINDING AFFINITY PREDICTED BY RF-SCORE:    0.00 PKD
ROOT
HETATM    1  C   UNL     1     -12.370  12.870  65.959  1.00  0.00    -0.262 A  
HETATM    2  N   UNL     1     -12.790  12.840  64.694  1.00  0.00    -0.743 NA 
HETATM    3  O   UNL     1     -11.772  12.227  63.989  1.00  0.00    -0.360 OA 
HETATM    4  C   UNL     1     -10.768  11.873  64.842  1.00  0.00    -0.301 A  
HETATM    5  C   UNL     1     -11.104  12.263  66.133  1.00  0.00    -0.349 A  
ENDROOT
BRANCH   4   6
HETATM    6  C   UNL     1      -9.503  11.149  64.388  1.00  0.00    -0.251 C  
HETATM    7  C   UNL     1      -9.498   9.633  64.365  1.00  0.00    -0.135 C  
HETATM    8  C   UNL     1      -9.551  10.386  63.081  1.00  0.00    -0.346 C  
ENDBRANCH   4   6
BRANCH   5   9
HETATM    9  C   UNL     1     -10.279  12.096  67.323  1.00  0.00    -0.202 C  
HETATM   10  O   UNL     1     -10.383  11.092  68.015  1.00  0.00    -0.175 OA 
BRANCH   9  11
HETATM   11  C   UNL     1      -9.356  13.171  67.810  1.00  0.00    -0.206 A  
HETATM   12  C   UNL     1      -9.787  14.242  68.626  1.00  0.00    -0.228 A  
HETATM   13  C   UNL     1      -8.908  15.295  68.939  1.00  0.00    -0.209 A  
HETATM   14  C   UNL     1      -8.044  13.214  67.300  1.00  0.00    -0.151 A  
HETATM   15  C   UNL     1      -7.605  15.328  68.423  1.00  0.00    -0.116 A  
HETATM   16  F   UNL     1      -7.241  17.422  69.539  1.00  0.00    -0.206 F  
HETATM   17  F   UNL     1      -5.524  16.111  69.304  1.00  0.00    -0.108 F  
HETATM   18  F   UNL     1      -6.333  17.167  67.581  1.00  0.00    -0.131 F  
HETATM   19  C   UNL     1      -6.684  16.496  68.710  1.00  0.00    -0.170 C  
HETATM   20  C   UNL     1      -7.180  14.274  67.608  1.00  0.00    -0.200 A  
BRANCH  12  21
HETATM   21  S   UNL     1     -11.436  14.263  69.323  1.00  0.00    -0.306 S  
HETATM   22  C   UNL     1     -11.377  15.185  70.833  1.00  0.00    -0.307 C  
HETATM   23  O   UNL     1     -12.269  15.059  68.442  1.00  0.00    -0.166 OA 
HETATM   24  O   UNL     1     -11.728  12.888  69.681  1.00  0.00    -0.300 OA 
ENDBRANCH  12  21
ENDBRANCH   9  11
ENDBRANCH   5   9
TORSDOF 4
ENDMDL
MODEL      129
REMARK 921   NORMALIZED FREE ENERGY PREDICTED BY IDOCK:   -4.57 KCAL/MOL
REMARK 922        TOTAL FREE ENERGY PREDICTED BY IDOCK:   -6.16 KCAL/MOL
REMARK 923 INTER-LIGAND FREE ENERGY PREDICTED BY IDOCK:   -5.59 KCAL/MOL
REMARK 924 INTRA-LIGAND FREE ENERGY PREDICTED BY IDOCK:   -0.57 KCAL/MOL
REMARK 927      BINDING AFFINITY PREDICTED BY RF-SCORE:    0.00 PKD
ROOT
HETATM    1  C   UNL     1      -9.002   9.676  70.178  1.00  0.00    -0.236 A  
HETATM    2  N   UNL     1      -9.564   8.826  71.038  1.00  0.00    -0.207 NA 
HETATM    3  O   UNL     1      -9.852   7.697  70.296  1.00  0.00    -0.180 OA 
HETATM    4  C   UNL     1      -9.435   7.872  69.009  1.00  0.00    -0.151 A  
HETATM    5  C   UNL     1      -8.873   9.136  68.876  1.00  0.00    -0.139 A  
ENDROOT
BRANCH   4   6
HETATM    6  C   UNL     1      -9.579   6.800  67.932  1.00  0.00    -0.125 C  
HETATM    7  C   UNL     1     -10.759   5.851  68.000  1.00  0.00    -0.332 C  
HETATM    8  C   UNL     1     -10.736   6.918  66.962  1.00  0.00    -0.432 C  
ENDBRANCH   4   6
BRANCH   5   9
HETATM    9  C   UNL     1      -8.343   9.715  67.648  1.00  0.00    -0.121 C  
HETATM   10  O   UNL     1      -7.261   9.351  67.207  1.00  0.00    -0.085 OA 
BRANCH   9  11
HETATM   11  C   UNL     1      -9.030  10.840  66.936  1.00  0.00    -0.147 A  
HETATM   12  C   UNL     1      -8.539  12.166  66.940  1.00  0.00    -0.191 A  
HETATM   13  C   UNL     1      -9.298  13.206  66.371  1.00  0.00    -0.188 A  
HETATM   14  C   UNL     1     -10.303  10.608  66.382  1.00  0.00    -0.291 A  
HETATM   15  C   UNL     1     -10.566  12.962  65.824  1.00  0.00    -0.293 A  
HETATM   16  F   UNL     1     -10.771  15.300  65.319  1.00  0.00    -0.311 F  
HETATM   17  F   UNL     1     -11.748  13.903  63.971  1.00  0.00    -0.407 F  
HETATM   18  F   UNL     1     -12.569  14.257  65.955  1.00  0.00    -0.458 F  
HETATM   19  C   UNL     1     -11.405  14.095  65.271  1.00  0.00    -0.328 C  
HETATM   20  C   UNL     1     -11.057  11.653  65.829  1.00  0.00    -0.313 A  
BRANCH  12  21
HETATM   21  S   UNL     1      -6.927  12.549  67.617  1.00  0.00    -0.154 S  
HETATM   22  C   UNL     1      -6.826  14.304  67.822  1.00  0.00    -0.175 C  
HETATM   23  O   UNL     1      -6.887  12.022  68.967  1.00  0.00    -0.098 OA 
HETATM   24  O   UNL     1      -5.973  12.191  66.584  1.00  0.00    -0.226 OA 
ENDBRANCH  12  21
ENDBRANCH   9  11
ENDBRANCH   5   9
TORSDOF 4
ENDMDL
MODEL      130
REMARK 921   NORMALIZED FREE ENERGY PREDICTED BY IDOCK:   -4.57 KCAL/MOL
REMARK 922        TOTAL FREE ENERGY PREDICTED BY IDOCK:   -6.15 KCAL/MOL
REMARK 923 INTER-LIGAND FREE ENERGY PREDICTED BY IDOCK:   -5.72 KCAL/MOL
REMARK 924 INTRA-LIGAND FREE ENERGY PREDICTED BY IDOCK:   -0.43 KCAL/MOL
REMARK 927      BINDING AFFINITY PREDICTED BY RF-SCORE:    0.00 PKD
ROOT
HETATM    1  C   UNL     1      -9.060   3.525  71.677  1.00  0.00    -0.113 A  
HETATM    2  N   UNL     1      -9.242   2.583  70.751  1.00  0.00    -0.119 NA 
HETATM    3  O   UNL     1      -9.475   3.269  69.575  1.00  0.00    -0.164 OA 
HETATM    4  C   UNL     1      -9.403   4.612  69.804  1.00  0.00    -0.145 A  
HETATM    5  C   UNL     1      -9.133   4.836  71.148  1.00  0.00    -0.180 A  
ENDROOT
BRANCH   4   6
HETATM    6  C   UNL     1      -9.586   5.657  68.705  1.00  0.00    -0.163 C  
HETATM    7  C   UNL     1     -10.196   5.228  67.385  1.00  0.00    -0.240 C  
HETATM    8  C   UNL     1     -10.999   6.054  68.329  1.00  0.00    -0.347 C  
ENDBRANCH   4   6
BRANCH   5   9
HETATM    9  C   UNL     1      -9.016   6.137  71.796  1.00  0.00    -0.141 C  
HETATM   10  O   UNL     1      -8.188   6.318  72.678  1.00  0.00    -0.106 OA 
BRANCH   9  11
HETATM   11  C   UNL     1      -9.955   7.264  71.495  1.00  0.00    -0.191 A  
HETATM   12  C   UNL     1      -9.517   8.532  71.048  1.00  0.00    -0.186 A  
HETATM   13  C   UNL     1     -10.431   9.593  70.913  1.00  0.00    -0.359 A  
HETATM   14  C   UNL     1     -11.315   7.114  71.828  1.00  0.00    -0.285 A  
HETATM   15  C   UNL     1     -11.782   9.431  71.251  1.00  0.00    -0.432 A  
HETATM   16  F   UNL     1     -12.174  11.732  70.684  1.00  0.00    -0.407 F  
HETATM   17  F   UNL     1     -13.806  10.335  70.350  1.00  0.00    -0.168 F  
HETATM   18  F   UNL     1     -13.272  10.922  72.376  1.00  0.00    -0.538 F  
HETATM   19  C   UNL     1     -12.750  10.595  71.165  1.00  0.00    -0.422 C  
HETATM   20  C   UNL     1     -12.216   8.181  71.702  1.00  0.00    -0.343 A  
BRANCH  12  21
HETATM   21  S   UNL     1      -7.808   8.808  70.595  1.00  0.00    -0.123 S  
HETATM   22  C   UNL     1      -7.726  10.312  69.666  1.00  0.00    -0.160 C  
HETATM   23  O   UNL     1      -7.076   9.093  71.814  1.00  0.00    -0.303 OA 
HETATM   24  O   UNL     1      -7.465   7.732  69.684  1.00  0.00    -0.085 OA 
ENDBRANCH  12  21
ENDBRANCH   9  11
ENDBRANCH   5   9
TORSDOF 4
ENDMDL
MODEL      131
REMARK 921   NORMALIZED FREE ENERGY PREDICTED BY IDOCK:   -4.55 KCAL/MOL
REMARK 922        TOTAL FREE ENERGY PREDICTED BY IDOCK:   -6.14 KCAL/MOL
REMARK 923 INTER-LIGAND FREE ENERGY PREDICTED BY IDOCK:   -5.93 KCAL/MOL
REMARK 924 INTRA-LIGAND FREE ENERGY PREDICTED BY IDOCK:   -0.20 KCAL/MOL
REMARK 927      BINDING AFFINITY PREDICTED BY RF-SCORE:    0.00 PKD
ROOT
HETATM    1  C   UNL     1      -9.169  16.496  66.539  1.00  0.00    -0.272 A  
HETATM    2  N   UNL     1      -9.457  16.463  65.238  1.00  0.00    -0.149 NA 
HETATM    3  O   UNL     1     -10.558  15.636  65.131  1.00  0.00    -0.397 OA 
HETATM    4  C   UNL     1     -10.934  15.207  66.369  1.00  0.00    -0.329 A  
HETATM    5  C   UNL     1     -10.071  15.736  67.321  1.00  0.00    -0.247 A  
ENDROOT
BRANCH   4   6
HETATM    6  C   UNL     1     -12.138  14.297  66.607  1.00  0.00    -0.448 C  
HETATM    7  C   UNL     1     -13.032  13.948  65.434  1.00  0.00    -0.368 C  
HETATM    8  C   UNL     1     -12.116  12.914  65.991  1.00  0.00    -0.484 C  
ENDBRANCH   4   6
BRANCH   5   9
HETATM    9  C   UNL     1     -10.117  15.485  68.756  1.00  0.00    -0.211 C  
HETATM   10  O   UNL     1      -9.648  16.295  69.543  1.00  0.00    -0.216 OA 
BRANCH   9  11
HETATM   11  C   UNL     1     -10.634  14.198  69.323  1.00  0.00    -0.127 A  
HETATM   12  C   UNL     1     -10.055  12.942  69.030  1.00  0.00     0.190 A  
HETATM   13  C   UNL     1     -10.665  11.756  69.480  1.00  0.00     0.046 A  
HETATM   14  C   UNL     1     -11.844  14.217  70.042  1.00  0.00    -0.388 A  
HETATM   15  C   UNL     1     -11.872  11.788  70.193  1.00  0.00    -0.408 A  
HETATM   16  F   UNL     1     -11.851   9.389  70.290  1.00  0.00    -0.261 F  
HETATM   17  F   UNL     1     -12.755  10.442  71.963  1.00  0.00    -0.480 F  
HETATM   18  F   UNL     1     -13.781  10.359  70.045  1.00  0.00    -0.053 F  
HETATM   19  C   UNL     1     -12.558  10.506  70.620  1.00  0.00    -0.369 C  
HETATM   20  C   UNL     1     -12.451  13.029  70.476  1.00  0.00    -0.306 A  
BRANCH  12  21
HETATM   21  S   UNL     1      -8.513  12.826  68.129  1.00  0.00    -0.172 S  
HETATM   22  C   UNL     1      -7.805  11.238  68.462  1.00  0.00    -0.138 C  
HETATM   23  O   UNL     1      -8.839  12.791  66.716  1.00  0.00    -0.212 OA 
HETATM   24  O   UNL     1      -7.634  13.812  68.727  1.00  0.00    -0.132 OA 
ENDBRANCH  12  21
ENDBRANCH   9  11
ENDBRANCH   5   9
TORSDOF 4
ENDMDL
MODEL      132
REMARK 921   NORMALIZED FREE ENERGY PREDICTED BY IDOCK:   -4.54 KCAL/MOL
REMARK 922        TOTAL FREE ENERGY PREDICTED BY IDOCK:   -6.12 KCAL/MOL
REMARK 923 INTER-LIGAND FREE ENERGY PREDICTED BY IDOCK:   -6.67 KCAL/MOL
REMARK 924 INTRA-LIGAND FREE ENERGY PREDICTED BY IDOCK:    0.55 KCAL/MOL
REMARK 927      BINDING AFFINITY PREDICTED BY RF-SCORE:    0.00 PKD
ROOT
HETATM    1  C   UNL     1     -11.100  16.318  65.165  1.00  0.00    -0.212 A  
HETATM    2  N   UNL     1     -11.660  16.376  63.957  1.00  0.00    -1.082 NA 
HETATM    3  O   UNL     1     -12.144  15.104  63.719  1.00  0.00    -0.438 OA 
HETATM    4  C   UNL     1     -11.893  14.307  64.797  1.00  0.00    -0.429 A  
HETATM    5  C   UNL     1     -11.221  15.042  65.767  1.00  0.00    -0.318 A  
ENDROOT
BRANCH   4   6
HETATM    6  C   UNL     1     -12.324  12.844  64.871  1.00  0.00    -0.532 C  
HETATM    7  C   UNL     1     -13.015  12.225  63.672  1.00  0.00    -0.300 C  
HETATM    8  C   UNL     1     -11.608  11.846  63.984  1.00  0.00    -0.476 C  
ENDBRANCH   4   6
BRANCH   5   9
HETATM    9  C   UNL     1     -10.745  14.539  67.049  1.00  0.00    -0.291 C  
HETATM   10  O   UNL     1     -11.126  15.048  68.095  1.00  0.00    -0.268 OA 
BRANCH   9  11
HETATM   11  C   UNL     1      -9.704  13.468  67.147  1.00  0.00    -0.244 A  
HETATM   12  C   UNL     1      -8.317  13.740  67.131  1.00  0.00    -0.137 A  
HETATM   13  C   UNL     1      -7.385  12.686  67.087  1.00  0.00    -0.043 A  
HETATM   14  C   UNL     1     -10.114  12.122  67.085  1.00  0.00    -0.220 A  
HETATM   15  C   UNL     1      -7.807  11.350  67.023  1.00  0.00    -0.158 A  
HETATM   16  F   UNL     1      -5.510  10.655  66.945  1.00  0.00    -0.039 F  
HETATM   17  F   UNL     1      -6.920   9.317  67.919  1.00  0.00    -0.072 F  
HETATM   18  F   UNL     1      -6.934   9.525  65.753  1.00  0.00    -0.086 F  
HETATM   19  C   UNL     1      -6.802  10.222  66.912  1.00  0.00    -0.086 C  
HETATM   20  C   UNL     1      -9.179  11.079  67.030  1.00  0.00    -0.164 A  
BRANCH  12  21
HETATM   21  S   UNL     1      -7.707  15.421  67.215  1.00  0.00    -0.216 S  
HETATM   22  C   UNL     1      -8.225  16.111  68.761  1.00  0.00    -0.216 C  
HETATM   23  O   UNL     1      -6.262  15.355  67.312  1.00  0.00    -0.317 OA 
HETATM   24  O   UNL     1      -8.411  16.146  66.174  1.00  0.00    -0.327 OA 
ENDBRANCH  12  21
ENDBRANCH   9  11
ENDBRANCH   5   9
TORSDOF 4
ENDMDL
MODEL      133
REMARK 921   NORMALIZED FREE ENERGY PREDICTED BY IDOCK:   -4.50 KCAL/MOL
REMARK 922        TOTAL FREE ENERGY PREDICTED BY IDOCK:   -6.07 KCAL/MOL
REMARK 923 INTER-LIGAND FREE ENERGY PREDICTED BY IDOCK:   -5.71 KCAL/MOL
REMARK 924 INTRA-LIGAND FREE ENERGY PREDICTED BY IDOCK:   -0.36 KCAL/MOL
REMARK 927      BINDING AFFINITY PREDICTED BY RF-SCORE:    0.00 PKD
ROOT
HETATM    1  C   UNL     1      -7.093  16.442  67.052  1.00  0.00    -0.224 A  
HETATM    2  N   UNL     1      -6.634  17.611  66.605  1.00  0.00    -0.186 NA 
HETATM    3  O   UNL     1      -7.737  18.441  66.563  1.00  0.00    -0.232 OA 
HETATM    4  C   UNL     1      -8.837  17.770  67.010  1.00  0.00    -0.252 A  
HETATM    5  C   UNL     1      -8.477  16.469  67.344  1.00  0.00    -0.194 A  
ENDROOT
BRANCH   4   6
HETATM    6  C   UNL     1     -10.219  18.410  67.118  1.00  0.00    -0.396 C  
HETATM    7  C   UNL     1     -10.390  19.636  67.992  1.00  0.00    -0.579 C  
HETATM    8  C   UNL     1     -10.416  19.783  66.510  1.00  0.00    -0.615 C  
ENDBRANCH   4   6
BRANCH   5   9
HETATM    9  C   UNL     1      -9.375  15.427  67.827  1.00  0.00    -0.195 C  
HETATM   10  O   UNL     1      -9.645  15.345  69.017  1.00  0.00    -0.207 OA 
BRANCH   9  11
HETATM   11  C   UNL     1      -9.914  14.360  66.925  1.00  0.00    -0.261 A  
HETATM   12  C   UNL     1      -9.309  13.090  66.790  1.00  0.00    -0.244 A  
HETATM   13  C   UNL     1      -9.778  12.177  65.827  1.00  0.00    -0.245 A  
HETATM   14  C   UNL     1     -10.967  14.687  66.050  1.00  0.00    -0.325 A  
HETATM   15  C   UNL     1     -10.826  12.517  64.959  1.00  0.00    -0.324 A  
HETATM   16  F   UNL     1     -10.623  10.365  63.913  1.00  0.00    -0.300 F  
HETATM   17  F   UNL     1     -12.606  11.252  63.983  1.00  0.00    -0.102 F  
HETATM   18  F   UNL     1     -11.102  12.055  62.632  1.00  0.00    -0.047 F  
HETATM   19  C   UNL     1     -11.286  11.555  63.882  1.00  0.00    -0.355 C  
HETATM   20  C   UNL     1     -11.420  13.776  65.085  1.00  0.00    -0.329 A  
BRANCH  12  21
HETATM   21  S   UNL     1      -7.970  12.589  67.867  1.00  0.00    -0.172 S  
HETATM   22  C   UNL     1      -7.342  11.044  67.273  1.00  0.00    -0.106 C  
HETATM   23  O   UNL     1      -6.880  13.525  67.670  1.00  0.00    -0.152 OA 
HETATM   24  O   UNL     1      -8.581  12.326  69.156  1.00  0.00     0.329 OA 
ENDBRANCH  12  21
ENDBRANCH   9  11
ENDBRANCH   5   9
TORSDOF 4
ENDMDL
MODEL      134
REMARK 921   NORMALIZED FREE ENERGY PREDICTED BY IDOCK:   -4.48 KCAL/MOL
REMARK 922        TOTAL FREE ENERGY PREDICTED BY IDOCK:   -6.05 KCAL/MOL
REMARK 923 INTER-LIGAND FREE ENERGY PREDICTED BY IDOCK:   -5.62 KCAL/MOL
REMARK 924 INTRA-LIGAND FREE ENERGY PREDICTED BY IDOCK:   -0.42 KCAL/MOL
REMARK 927      BINDING AFFINITY PREDICTED BY RF-SCORE:    0.00 PKD
ROOT
HETATM    1  C   UNL     1      -7.918  12.693  68.055  1.00  0.00    -0.155 A  
HETATM    2  N   UNL     1      -7.821  13.990  67.765  1.00  0.00    -0.154 NA 
HETATM    3  O   UNL     1      -8.961  14.286  67.043  1.00  0.00    -0.216 OA 
HETATM    4  C   UNL     1      -9.739  13.172  66.933  1.00  0.00    -0.243 A  
HETATM    5  C   UNL     1      -9.114  12.109  67.574  1.00  0.00    -0.180 A  
ENDROOT
BRANCH   4   6
HETATM    6  C   UNL     1     -11.088  13.163  66.216  1.00  0.00    -0.308 C  
HETATM    7  C   UNL     1     -11.761  14.486  65.910  1.00  0.00    -0.345 C  
HETATM    8  C   UNL     1     -11.145  13.703  64.802  1.00  0.00    -0.375 C  
ENDBRANCH   4   6
BRANCH   5   9
HETATM    9  C   UNL     1      -9.609  10.740  67.649  1.00  0.00    -0.158 C  
HETATM   10  O   UNL     1     -10.170  10.230  66.689  1.00  0.00    -0.220 OA 
BRANCH   9  11
HETATM   11  C   UNL     1      -9.552   9.941  68.915  1.00  0.00    -0.172 A  
HETATM   12  C   UNL     1     -10.461  10.127  69.982  1.00  0.00    -0.274 A  
HETATM   13  C   UNL     1     -10.276   9.446  71.199  1.00  0.00    -0.361 A  
HETATM   14  C   UNL     1      -8.452   9.088  69.124  1.00  0.00    -0.128 A  
HETATM   15  C   UNL     1      -9.174   8.601  71.396  1.00  0.00    -0.303 A  
HETATM   16  F   UNL     1      -9.930   8.177  73.635  1.00  0.00    -0.324 F  
HETATM   17  F   UNL     1      -8.880   6.567  72.620  1.00  0.00    -0.126 F  
HETATM   18  F   UNL     1      -7.784   8.313  73.317  1.00  0.00    -0.170 F  
HETATM   19  C   UNL     1      -8.945   7.920  72.730  1.00  0.00    -0.198 C  
HETATM   20  C   UNL     1      -8.270   8.423  70.344  1.00  0.00    -0.115 A  
BRANCH  12  21
HETATM   21  S   UNL     1     -11.891  11.187  69.799  1.00  0.00    -0.380 S  
HETATM   22  C   UNL     1     -12.999  10.842  71.136  1.00  0.00    -0.371 C  
HETATM   23  O   UNL     1     -11.453  12.550  70.032  1.00  0.00    -0.172 OA 
HETATM   24  O   UNL     1     -12.550  10.751  68.583  1.00  0.00    -0.176 OA 
ENDBRANCH  12  21
ENDBRANCH   9  11
ENDBRANCH   5   9
TORSDOF 4
ENDMDL
MODEL      135
REMARK 921   NORMALIZED FREE ENERGY PREDICTED BY IDOCK:   -4.46 KCAL/MOL
REMARK 922        TOTAL FREE ENERGY PREDICTED BY IDOCK:   -6.02 KCAL/MOL
REMARK 923 INTER-LIGAND FREE ENERGY PREDICTED BY IDOCK:   -6.12 KCAL/MOL
REMARK 924 INTRA-LIGAND FREE ENERGY PREDICTED BY IDOCK:    0.10 KCAL/MOL
REMARK 927      BINDING AFFINITY PREDICTED BY RF-SCORE:    0.00 PKD
ROOT
HETATM    1  C   UNL     1      -8.232   8.386  70.740  1.00  0.00    -0.124 A  
HETATM    2  N   UNL     1      -7.904   8.766  71.976  1.00  0.00    -0.340 NA 
HETATM    3  O   UNL     1      -9.107   8.930  72.635  1.00  0.00    -0.321 OA 
HETATM    4  C   UNL     1     -10.138   8.621  71.798  1.00  0.00    -0.310 A  
HETATM    5  C   UNL     1      -9.629   8.258  70.556  1.00  0.00    -0.180 A  
ENDROOT
BRANCH   4   6
HETATM    6  C   UNL     1     -11.604   8.671  72.224  1.00  0.00    -0.424 C  
HETATM    7  C   UNL     1     -12.419   9.904  71.890  1.00  0.00    -0.435 C  
HETATM    8  C   UNL     1     -12.660   8.641  71.139  1.00  0.00    -0.176 C  
ENDBRANCH   4   6
BRANCH   5   9
HETATM    9  C   UNL     1     -10.410   7.893  69.381  1.00  0.00    -0.220 C  
HETATM   10  O   UNL     1     -10.962   6.803  69.317  1.00  0.00    -0.253 OA 
BRANCH   9  11
HETATM   11  C   UNL     1     -10.487   8.772  68.171  1.00  0.00    -0.243 A  
HETATM   12  C   UNL     1      -9.817   8.475  66.962  1.00  0.00    -0.224 A  
HETATM   13  C   UNL     1      -9.812   9.405  65.905  1.00  0.00    -0.362 A  
HETATM   14  C   UNL     1     -11.111  10.029  68.290  1.00  0.00    -0.247 A  
HETATM   15  C   UNL     1     -10.436  10.654  66.037  1.00  0.00    -0.250 A  
HETATM   16  F   UNL     1      -9.722  11.218  63.815  1.00  0.00    -0.231 F  
HETATM   17  F   UNL     1     -11.606  12.061  64.497  1.00  0.00    -0.370 F  
HETATM   18  F   UNL     1      -9.725  12.810  65.295  1.00  0.00    -0.239 F  
HETATM   19  C   UNL     1     -10.374  11.676  64.920  1.00  0.00    -0.283 C  
HETATM   20  C   UNL     1     -11.091  10.953  67.236  1.00  0.00    -0.350 A  
BRANCH  12  21
HETATM   21  S   UNL     1      -9.004   6.899  66.722  1.00  0.00    -0.136 S  
HETATM   22  C   UNL     1      -8.102   6.976  65.201  1.00  0.00    -0.124 C  
HETATM   23  O   UNL     1      -7.984   6.777  67.746  1.00  0.00    -0.110 OA 
HETATM   24  O   UNL     1     -10.070   5.934  66.530  1.00  0.00    -0.172 OA 
ENDBRANCH  12  21
ENDBRANCH   9  11
ENDBRANCH   5   9
TORSDOF 4
ENDMDL
MODEL      136
REMARK 921   NORMALIZED FREE ENERGY PREDICTED BY IDOCK:   -4.44 KCAL/MOL
REMARK 922        TOTAL FREE ENERGY PREDICTED BY IDOCK:   -6.00 KCAL/MOL
REMARK 923 INTER-LIGAND FREE ENERGY PREDICTED BY IDOCK:   -5.98 KCAL/MOL
REMARK 924 INTRA-LIGAND FREE ENERGY PREDICTED BY IDOCK:   -0.02 KCAL/MOL
REMARK 927      BINDING AFFINITY PREDICTED BY RF-SCORE:    0.00 PKD
ROOT
HETATM    1  C   UNL     1      -8.319   9.524  70.015  1.00  0.00    -0.179 A  
HETATM    2  N   UNL     1      -9.062   8.834  70.880  1.00  0.00    -0.188 NA 
HETATM    3  O   UNL     1     -10.326   9.385  70.793  1.00  0.00    -0.254 OA 
HETATM    4  C   UNL     1     -10.333  10.378  69.858  1.00  0.00    -0.182 A  
HETATM    5  C   UNL     1      -9.059  10.510  69.318  1.00  0.00    -0.161 A  
ENDROOT
BRANCH   4   6
HETATM    6  C   UNL     1     -11.584  11.175  69.496  1.00  0.00    -0.392 C  
HETATM    7  C   UNL     1     -12.852  10.946  70.295  1.00  0.00    -0.209 C  
HETATM    8  C   UNL     1     -12.081  12.206  70.487  1.00  0.00    -0.383 C  
ENDBRANCH   4   6
BRANCH   5   9
HETATM    9  C   UNL     1      -8.648  11.484  68.315  1.00  0.00    -0.161 C  
HETATM   10  O   UNL     1      -7.651  12.170  68.489  1.00  0.00    -0.118 OA 
BRANCH   9  11
HETATM   11  C   UNL     1      -9.469  11.764  67.094  1.00  0.00    -0.180 A  
HETATM   12  C   UNL     1     -10.003  13.040  66.804  1.00  0.00    -0.245 A  
HETATM   13  C   UNL     1     -10.881  13.213  65.717  1.00  0.00    -0.289 A  
HETATM   14  C   UNL     1      -9.868  10.681  66.288  1.00  0.00    -0.263 A  
HETATM   15  C   UNL     1     -11.272  12.126  64.923  1.00  0.00    -0.374 A  
HETATM   16  F   UNL     1     -12.654  13.601  63.627  1.00  0.00    -0.419 F  
HETATM   17  F   UNL     1     -11.770  11.906  62.594  1.00  0.00     0.012 F  
HETATM   18  F   UNL     1     -13.408  11.595  63.992  1.00  0.00    -0.401 F  
HETATM   19  C   UNL     1     -12.266  12.306  63.794  1.00  0.00    -0.546 C  
HETATM   20  C   UNL     1     -10.752  10.861  65.214  1.00  0.00    -0.194 A  
BRANCH  12  21
HETATM   21  S   UNL     1      -9.544  14.473  67.772  1.00  0.00    -0.218 S  
HETATM   22  C   UNL     1     -10.558  15.829  67.256  1.00  0.00    -0.313 C  
HETATM   23  O   UNL     1      -9.946  14.218  69.142  1.00  0.00    -0.153 OA 
HETATM   24  O   UNL     1      -8.184  14.792  67.379  1.00  0.00    -0.168 OA 
ENDBRANCH  12  21
ENDBRANCH   9  11
ENDBRANCH   5   9
TORSDOF 4
ENDMDL
MODEL      137
REMARK 921   NORMALIZED FREE ENERGY PREDICTED BY IDOCK:   -4.43 KCAL/MOL
REMARK 922        TOTAL FREE ENERGY PREDICTED BY IDOCK:   -5.99 KCAL/MOL
REMARK 923 INTER-LIGAND FREE ENERGY PREDICTED BY IDOCK:   -5.26 KCAL/MOL
REMARK 924 INTRA-LIGAND FREE ENERGY PREDICTED BY IDOCK:   -0.73 KCAL/MOL
REMARK 927      BINDING AFFINITY PREDICTED BY RF-SCORE:    0.00 PKD
ROOT
HETATM    1  C   UNL     1      -6.775  17.643  68.801  1.00  0.00    -0.230 A  
HETATM    2  N   UNL     1      -6.667  18.806  69.443  1.00  0.00    -0.257 NA 
HETATM    3  O   UNL     1      -7.880  19.440  69.251  1.00  0.00    -0.293 OA 
HETATM    4  C   UNL     1      -8.708  18.639  68.522  1.00  0.00    -0.332 A  
HETATM    5  C   UNL     1      -8.046  17.459  68.205  1.00  0.00    -0.249 A  
ENDROOT
BRANCH   4   6
HETATM    6  C   UNL     1     -10.138  19.031  68.155  1.00  0.00    -0.467 C  
HETATM    7  C   UNL     1     -10.411  20.448  67.690  1.00  0.00    -0.330 C  
HETATM    8  C   UNL     1     -10.441  19.334  66.702  1.00  0.00    -0.541 C  
ENDBRANCH   4   6
BRANCH   5   9
HETATM    9  C   UNL     1      -8.579  16.362  67.407  1.00  0.00    -0.178 C  
HETATM   10  O   UNL     1      -8.445  16.358  66.191  1.00  0.00    -0.324 OA 
BRANCH   9  11
HETATM   11  C   UNL     1      -9.395  15.261  68.011  1.00  0.00    -0.197 A  
HETATM   12  C   UNL     1      -8.835  14.035  68.439  1.00  0.00    -0.180 A  
HETATM   13  C   UNL     1      -9.668  12.986  68.870  1.00  0.00     0.177 A  
HETATM   14  C   UNL     1     -10.798  15.380  68.002  1.00  0.00    -0.292 A  
HETATM   15  C   UNL     1     -11.064  13.116  68.854  1.00  0.00    -0.310 A  
HETATM   16  F   UNL     1     -11.259  10.869  69.677  1.00  0.00    -0.244 F  
HETATM   17  F   UNL     1     -12.794  12.284  70.280  1.00  0.00    -0.122 F  
HETATM   18  F   UNL     1     -12.745  11.535  68.238  1.00  0.00     0.263 F  
HETATM   19  C   UNL     1     -11.957  11.962  69.260  1.00  0.00    -0.281 C  
HETATM   20  C   UNL     1     -11.620  14.325  68.423  1.00  0.00    -0.354 A  
BRANCH  12  21
HETATM   21  S   UNL     1      -7.062  13.801  68.490  1.00  0.00    -0.114 S  
HETATM   22  C   UNL     1      -6.747  12.075  68.727  1.00  0.00    -0.087 C  
HETATM   23  O   UNL     1      -6.548  14.087  67.165  1.00  0.00    -0.179 OA 
HETATM   24  O   UNL     1      -6.612  14.479  69.691  1.00  0.00    -0.133 OA 
ENDBRANCH  12  21
ENDBRANCH   9  11
ENDBRANCH   5   9
TORSDOF 4
ENDMDL
MODEL      138
REMARK 921   NORMALIZED FREE ENERGY PREDICTED BY IDOCK:   -4.43 KCAL/MOL
REMARK 922        TOTAL FREE ENERGY PREDICTED BY IDOCK:   -5.98 KCAL/MOL
REMARK 923 INTER-LIGAND FREE ENERGY PREDICTED BY IDOCK:   -5.45 KCAL/MOL
REMARK 924 INTRA-LIGAND FREE ENERGY PREDICTED BY IDOCK:   -0.53 KCAL/MOL
REMARK 927      BINDING AFFINITY PREDICTED BY RF-SCORE:    0.00 PKD
ROOT
HETATM    1  C   UNL     1     -10.987  10.872  68.760  1.00  0.00    -0.237 A  
HETATM    2  N   UNL     1     -12.046  11.624  69.060  1.00  0.00    -0.338 NA 
HETATM    3  O   UNL     1     -12.533  11.108  70.246  1.00  0.00    -0.303 OA 
HETATM    4  C   UNL     1     -11.745  10.073  70.656  1.00  0.00    -0.337 A  
HETATM    5  C   UNL     1     -10.725   9.877  69.732  1.00  0.00    -0.298 A  
ENDROOT
BRANCH   4   6
HETATM    6  C   UNL     1     -11.992   9.297  71.948  1.00  0.00    -0.433 C  
HETATM    7  C   UNL     1     -13.418   9.105  72.423  1.00  0.00    -0.535 C  
HETATM    8  C   UNL     1     -12.675   7.949  71.849  1.00  0.00    -0.341 C  
ENDBRANCH   4   6
BRANCH   5   9
HETATM    9  C   UNL     1      -9.698   8.844  69.793  1.00  0.00    -0.175 C  
HETATM   10  O   UNL     1      -8.779   8.930  70.596  1.00  0.00    -0.158 OA 
BRANCH   9  11
HETATM   11  C   UNL     1      -9.657   7.704  68.822  1.00  0.00    -0.153 A  
HETATM   12  C   UNL     1      -8.826   7.698  67.679  1.00  0.00    -0.125 A  
HETATM   13  C   UNL     1      -8.929   6.664  66.730  1.00  0.00    -0.139 A  
HETATM   14  C   UNL     1     -10.603   6.670  68.957  1.00  0.00    -0.273 A  
HETATM   15  C   UNL     1      -9.877   5.641  66.875  1.00  0.00    -0.178 A  
HETATM   16  F   UNL     1      -9.129   4.686  64.803  1.00  0.00    -0.144 F  
HETATM   17  F   UNL     1      -9.860   3.314  66.322  1.00  0.00    -0.128 F  
HETATM   18  F   UNL     1     -11.256   4.583  65.237  1.00  0.00    -0.365 F  
HETATM   19  C   UNL     1     -10.028   4.565  65.819  1.00  0.00    -0.239 C  
HETATM   20  C   UNL     1     -10.707   5.651  68.001  1.00  0.00    -0.235 A  
BRANCH  12  21
HETATM   21  S   UNL     1      -7.590   8.970  67.432  1.00  0.00    -0.088 S  
HETATM   22  C   UNL     1      -6.580   8.489  66.060  1.00  0.00    -0.054 C  
HETATM   23  O   UNL     1      -8.279  10.162  66.976  1.00  0.00    -0.117 OA 
HETATM   24  O   UNL     1      -6.745   8.930  68.610  1.00  0.00    -0.057 OA 
ENDBRANCH  12  21
ENDBRANCH   9  11
ENDBRANCH   5   9
TORSDOF 4
ENDMDL
MODEL      139
REMARK 921   NORMALIZED FREE ENERGY PREDICTED BY IDOCK:   -4.43 KCAL/MOL
REMARK 922        TOTAL FREE ENERGY PREDICTED BY IDOCK:   -5.98 KCAL/MOL
REMARK 923 INTER-LIGAND FREE ENERGY PREDICTED BY IDOCK:   -5.37 KCAL/MOL
REMARK 924 INTRA-LIGAND FREE ENERGY PREDICTED BY IDOCK:   -0.62 KCAL/MOL
REMARK 927      BINDING AFFINITY PREDICTED BY RF-SCORE:    0.00 PKD
ROOT
HETATM    1  C   UNL     1     -10.081   4.351  72.413  1.00  0.00    -0.181 A  
HETATM    2  N   UNL     1     -10.696   4.809  73.504  1.00  0.00    -0.243 NA 
HETATM    3  O   UNL     1     -11.501   5.839  73.060  1.00  0.00    -0.248 OA 
HETATM    4  C   UNL     1     -11.381   5.969  71.708  1.00  0.00    -0.265 A  
HETATM    5  C   UNL     1     -10.476   5.027  71.234  1.00  0.00    -0.213 A  
ENDROOT
BRANCH   4   6
HETATM    6  C   UNL     1     -12.161   7.001  70.896  1.00  0.00    -0.388 C  
HETATM    7  C   UNL     1     -13.141   7.907  71.615  1.00  0.00    -0.361 C  
HETATM    8  C   UNL     1     -11.851   8.466  71.123  1.00  0.00    -0.314 C  
ENDBRANCH   4   6
BRANCH   5   9
HETATM    9  C   UNL     1     -10.049   4.866  69.850  1.00  0.00    -0.262 C  
HETATM   10  O   UNL     1      -9.761   3.760  69.414  1.00  0.00    -0.181 OA 
BRANCH   9  11
HETATM   11  C   UNL     1      -9.842   6.038  68.939  1.00  0.00    -0.173 A  
HETATM   12  C   UNL     1      -8.828   7.001  69.145  1.00  0.00    -0.135 A  
HETATM   13  C   UNL     1      -8.768   8.153  68.339  1.00  0.00    -0.134 A  
HETATM   14  C   UNL     1     -10.796   6.286  67.934  1.00  0.00    -0.417 A  
HETATM   15  C   UNL     1      -9.725   8.389  67.342  1.00  0.00    -0.222 A  
HETATM   16  F   UNL     1      -8.634  10.463  66.820  1.00  0.00    -0.122 F  
HETATM   17  F   UNL     1      -9.611   9.417  65.185  1.00  0.00    -0.320 F  
HETATM   18  F   UNL     1     -10.804  10.423  66.702  1.00  0.00    -0.290 F  
HETATM   19  C   UNL     1      -9.693   9.661  66.519  1.00  0.00    -0.212 C  
HETATM   20  C   UNL     1     -10.734   7.442  67.143  1.00  0.00    -0.400 A  
BRANCH  12  21
HETATM   21  S   UNL     1      -7.570   6.762  70.396  1.00  0.00    -0.097 S  
HETATM   22  C   UNL     1      -6.272   7.927  70.093  1.00  0.00    -0.033 C  
HETATM   23  O   UNL     1      -8.138   7.170  71.666  1.00  0.00    -0.101 OA 
HETATM   24  O   UNL     1      -7.018   5.443  70.148  1.00  0.00    -0.053 OA 
ENDBRANCH  12  21
ENDBRANCH   9  11
ENDBRANCH   5   9
TORSDOF 4
ENDMDL
MODEL      140
REMARK 921   NORMALIZED FREE ENERGY PREDICTED BY IDOCK:   -4.43 KCAL/MOL
REMARK 922        TOTAL FREE ENERGY PREDICTED BY IDOCK:   -5.98 KCAL/MOL
REMARK 923 INTER-LIGAND FREE ENERGY PREDICTED BY IDOCK:   -5.27 KCAL/MOL
REMARK 924 INTRA-LIGAND FREE ENERGY PREDICTED BY IDOCK:   -0.71 KCAL/MOL
REMARK 927      BINDING AFFINITY PREDICTED BY RF-SCORE:    0.00 PKD
ROOT
HETATM    1  C   UNL     1      -6.995   9.823  66.771  1.00  0.00    -0.085 A  
HETATM    2  N   UNL     1      -6.107  10.802  66.600  1.00  0.00    -0.079 NA 
HETATM    3  O   UNL     1      -6.839  11.971  66.669  1.00  0.00    -0.025 OA 
HETATM    4  C   UNL     1      -8.150  11.681  66.908  1.00  0.00    -0.164 A  
HETATM    5  C   UNL     1      -8.309  10.303  66.987  1.00  0.00    -0.126 A  
ENDROOT
BRANCH   4   6
HETATM    6  C   UNL     1      -9.227  12.752  67.069  1.00  0.00    -0.221 C  
HETATM    7  C   UNL     1      -9.063  14.067  66.333  1.00  0.00    -0.120 C  
HETATM    8  C   UNL     1     -10.081  13.087  65.864  1.00  0.00    -0.291 C  
ENDBRANCH   4   6
BRANCH   5   9
HETATM    9  C   UNL     1      -9.565   9.593  67.196  1.00  0.00    -0.166 C  
HETATM   10  O   UNL     1     -10.043   8.902  66.307  1.00  0.00    -0.293 OA 
BRANCH   9  11
HETATM   11  C   UNL     1     -10.373   9.757  68.447  1.00  0.00    -0.230 A  
HETATM   12  C   UNL     1     -10.184   8.952  69.594  1.00  0.00    -0.206 A  
HETATM   13  C   UNL     1     -11.062   9.058  70.689  1.00  0.00    -0.314 A  
HETATM   14  C   UNL     1     -11.476  10.631  68.427  1.00  0.00    -0.330 A  
HETATM   15  C   UNL     1     -12.159   9.931  70.655  1.00  0.00    -0.343 A  
HETATM   16  F   UNL     1     -12.791   9.184  72.847  1.00  0.00    -0.418 F  
HETATM   17  F   UNL     1     -13.248  11.245  72.331  1.00  0.00    -0.566 F  
HETATM   18  F   UNL     1     -14.392   9.621  71.444  1.00  0.00    -0.149 F  
HETATM   19  C   UNL     1     -13.138   9.996  71.809  1.00  0.00    -0.457 C  
HETATM   20  C   UNL     1     -12.352  10.721  69.517  1.00  0.00    -0.208 A  
BRANCH  12  21
HETATM   21  S   UNL     1      -8.803   7.820  69.708  1.00  0.00    -0.139 S  
HETATM   22  C   UNL     1      -8.990   6.880  71.196  1.00  0.00    -0.143 C  
HETATM   23  O   UNL     1      -8.949   6.848  68.642  1.00  0.00    -0.131 OA 
HETATM   24  O   UNL     1      -7.627   8.652  69.883  1.00  0.00    -0.067 OA 
ENDBRANCH  12  21
ENDBRANCH   9  11
ENDBRANCH   5   9
TORSDOF 4
ENDMDL
MODEL      141
REMARK 921   NORMALIZED FREE ENERGY PREDICTED BY IDOCK:   -4.41 KCAL/MOL
REMARK 922        TOTAL FREE ENERGY PREDICTED BY IDOCK:   -5.96 KCAL/MOL
REMARK 923 INTER-LIGAND FREE ENERGY PREDICTED BY IDOCK:   -7.97 KCAL/MOL
REMARK 924 INTRA-LIGAND FREE ENERGY PREDICTED BY IDOCK:    2.01 KCAL/MOL
REMARK 927      BINDING AFFINITY PREDICTED BY RF-SCORE:    0.00 PKD
ROOT
HETATM    1  C   UNL     1     -12.578  13.922  66.041  1.00  0.00    -0.423 A  
HETATM    2  N   UNL     1     -12.702  13.204  64.924  1.00  0.00    -0.697 NA 
HETATM    3  O   UNL     1     -11.867  12.117  65.097  1.00  0.00    -0.358 OA 
HETATM    4  C   UNL     1     -11.276  12.181  66.325  1.00  0.00    -0.334 A  
HETATM    5  C   UNL     1     -11.702  13.329  66.982  1.00  0.00    -0.439 A  
ENDROOT
BRANCH   4   6
HETATM    6  C   UNL     1     -10.312  11.115  66.844  1.00  0.00    -0.272 C  
HETATM    7  C   UNL     1     -10.883   9.839  67.429  1.00  0.00    -0.265 C  
HETATM    8  C   UNL     1     -10.231   9.804  66.090  1.00  0.00    -0.278 C  
ENDBRANCH   4   6
BRANCH   5   9
HETATM    9  C   UNL     1     -11.271  13.774  68.301  1.00  0.00    -0.273 C  
HETATM   10  O   UNL     1     -11.389  13.039  69.273  1.00  0.00    -0.267 OA 
BRANCH   9  11
HETATM   11  C   UNL     1     -10.773  15.164  68.549  1.00  0.00    -0.240 A  
HETATM   12  C   UNL     1     -11.276  15.988  69.582  1.00  0.00    -0.336 A  
HETATM   13  C   UNL     1     -10.869  17.332  69.681  1.00  0.00     0.299 A  
HETATM   14  C   UNL     1      -9.888  15.739  67.616  1.00  0.00    -0.232 A  
HETATM   15  C   UNL     1      -9.989  17.892  68.744  1.00  0.00    -0.377 A  
HETATM   16  F   UNL     1     -10.146  19.996  69.891  1.00  0.00    -0.434 F  
HETATM   17  F   UNL     1      -8.260  19.537  68.914  1.00  0.00    -0.382 F  
HETATM   18  F   UNL     1     -10.007  20.052  67.722  1.00  0.00    -0.456 F  
HETATM   19  C   UNL     1      -9.603  19.356  68.818  1.00  0.00    -0.432 C  
HETATM   20  C   UNL     1      -9.498  17.081  67.716  1.00  0.00    -0.245 A  
BRANCH  12  21
HETATM   21  S   UNL     1     -12.398  15.338  70.815  1.00  0.00    -0.415 S  
HETATM   22  C   UNL     1     -12.002  16.094  72.365  1.00  0.00    -0.554 C  
HETATM   23  O   UNL     1     -13.724  15.832  70.498  1.00  0.00    -0.221 OA 
HETATM   24  O   UNL     1     -12.072  13.930  70.938  1.00  0.00    -0.340 OA 
ENDBRANCH  12  21
ENDBRANCH   9  11
ENDBRANCH   5   9
TORSDOF 4
ENDMDL
MODEL      142
REMARK 921   NORMALIZED FREE ENERGY PREDICTED BY IDOCK:   -4.36 KCAL/MOL
REMARK 922        TOTAL FREE ENERGY PREDICTED BY IDOCK:   -5.90 KCAL/MOL
REMARK 923 INTER-LIGAND FREE ENERGY PREDICTED BY IDOCK:   -6.05 KCAL/MOL
REMARK 924 INTRA-LIGAND FREE ENERGY PREDICTED BY IDOCK:    0.15 KCAL/MOL
REMARK 927      BINDING AFFINITY PREDICTED BY RF-SCORE:    0.00 PKD
ROOT
HETATM    1  C   UNL     1     -11.855  14.782  69.159  1.00  0.00    -0.305 A  
HETATM    2  N   UNL     1     -11.148  15.853  69.522  1.00  0.00    -0.289 NA 
HETATM    3  O   UNL     1      -9.861  15.601  69.089  1.00  0.00    -0.213 OA 
HETATM    4  C   UNL     1      -9.817  14.398  68.449  1.00  0.00    -0.234 A  
HETATM    5  C   UNL     1     -11.082  13.823  68.461  1.00  0.00    -0.292 A  
ENDROOT
BRANCH   4   6
HETATM    6  C   UNL     1      -8.544  13.831  67.823  1.00  0.00    -0.184 C  
HETATM    7  C   UNL     1      -7.268  14.646  67.900  1.00  0.00    -0.171 C  
HETATM    8  C   UNL     1      -7.414  13.432  68.750  1.00  0.00    -0.061 C  
ENDBRANCH   4   6
BRANCH   5   9
HETATM    9  C   UNL     1     -11.440  12.522  67.910  1.00  0.00    -0.315 C  
HETATM   10  O   UNL     1     -12.054  12.443  66.855  1.00  0.00    -0.564 OA 
BRANCH   9  11
HETATM   11  C   UNL     1     -11.176  11.245  68.648  1.00  0.00    -0.310 A  
HETATM   12  C   UNL     1     -10.549  10.129  68.050  1.00  0.00    -0.231 A  
HETATM   13  C   UNL     1     -10.451   8.910  68.748  1.00  0.00    -0.223 A  
HETATM   14  C   UNL     1     -11.723  11.086  69.936  1.00  0.00    -0.424 A  
HETATM   15  C   UNL     1     -11.002   8.764  70.030  1.00  0.00    -0.216 A  
HETATM   16  F   UNL     1     -10.280   6.474  70.052  1.00  0.00    -0.185 F  
HETATM   17  F   UNL     1     -10.331   7.517  71.958  1.00  0.00    -0.202 F  
HETATM   18  F   UNL     1     -12.188   6.927  70.990  1.00  0.00    -0.369 F  
HETATM   19  C   UNL     1     -10.950   7.433  70.751  1.00  0.00    -0.255 C  
HETATM   20  C   UNL     1     -11.631   9.865  70.618  1.00  0.00    -0.413 A  
BRANCH  12  21
HETATM   21  S   UNL     1      -9.820  10.245  66.420  1.00  0.00    -0.228 S  
HETATM   22  C   UNL     1      -9.115   8.670  66.024  1.00  0.00    -0.204 C  
HETATM   23  O   UNL     1     -10.904  10.408  65.471  1.00  0.00    -0.002 OA 
HETATM   24  O   UNL     1      -8.717  11.178  66.549  1.00  0.00    -0.162 OA 
ENDBRANCH  12  21
ENDBRANCH   9  11
ENDBRANCH   5   9
TORSDOF 4
ENDMDL
MODEL      143
REMARK 921   NORMALIZED FREE ENERGY PREDICTED BY IDOCK:   -4.36 KCAL/MOL
REMARK 922        TOTAL FREE ENERGY PREDICTED BY IDOCK:   -5.90 KCAL/MOL
REMARK 923 INTER-LIGAND FREE ENERGY PREDICTED BY IDOCK:   -6.26 KCAL/MOL
REMARK 924 INTRA-LIGAND FREE ENERGY PREDICTED BY IDOCK:    0.36 KCAL/MOL
REMARK 927      BINDING AFFINITY PREDICTED BY RF-SCORE:    0.00 PKD
ROOT
HETATM    1  C   UNL     1      -9.383  13.545  68.324  1.00  0.00    -0.205 A  
HETATM    2  N   UNL     1      -8.725  14.676  68.065  1.00  0.00    -0.161 NA 
HETATM    3  O   UNL     1      -9.124  15.045  66.796  1.00  0.00    -0.229 OA 
HETATM    4  C   UNL     1     -10.035  14.150  66.320  1.00  0.00    -0.303 A  
HETATM    5  C   UNL     1     -10.244  13.157  67.270  1.00  0.00    -0.243 A  
ENDROOT
BRANCH   4   6
HETATM    6  C   UNL     1     -10.699  14.281  64.950  1.00  0.00    -0.448 C  
HETATM    7  C   UNL     1     -12.163  14.669  64.883  1.00  0.00    -0.363 C  
HETATM    8  C   UNL     1     -11.123  15.662  64.496  1.00  0.00    -0.303 C  
ENDBRANCH   4   6
BRANCH   5   9
HETATM    9  C   UNL     1     -11.118  12.000  67.125  1.00  0.00    -0.290 C  
HETATM   10  O   UNL     1     -12.181  12.096  66.527  1.00  0.00    -0.584 OA 
BRANCH   9  11
HETATM   11  C   UNL     1     -10.817  10.687  67.781  1.00  0.00    -0.338 A  
HETATM   12  C   UNL     1     -10.188   9.617  67.105  1.00  0.00    -0.243 A  
HETATM   13  C   UNL     1     -10.055   8.363  67.729  1.00  0.00    -0.263 A  
HETATM   14  C   UNL     1     -11.328  10.446  69.071  1.00  0.00    -0.279 A  
HETATM   15  C   UNL     1     -10.571   8.135  69.013  1.00  0.00    -0.167 A  
HETATM   16  F   UNL     1      -9.816   5.859  68.886  1.00  0.00    -0.137 F  
HETATM   17  F   UNL     1      -9.833   6.790  70.849  1.00  0.00    -0.182 F  
HETATM   18  F   UNL     1     -11.706   6.226  69.895  1.00  0.00    -0.467 F  
HETATM   19  C   UNL     1     -10.481   6.765  69.655  1.00  0.00    -0.214 C  
HETATM   20  C   UNL     1     -11.201   9.190  69.679  1.00  0.00    -0.026 A  
BRANCH  12  21
HETATM   21  S   UNL     1      -9.503   9.838  65.467  1.00  0.00    -0.279 S  
HETATM   22  C   UNL     1      -8.038  10.820  65.616  1.00  0.00    -0.112 C  
HETATM   23  O   UNL     1      -9.029   8.544  65.016  1.00  0.00    -0.099 OA 
HETATM   24  O   UNL     1     -10.472  10.637  64.741  1.00  0.00    -0.325 OA 
ENDBRANCH  12  21
ENDBRANCH   9  11
ENDBRANCH   5   9
TORSDOF 4
ENDMDL
MODEL      144
REMARK 921   NORMALIZED FREE ENERGY PREDICTED BY IDOCK:   -4.35 KCAL/MOL
REMARK 922        TOTAL FREE ENERGY PREDICTED BY IDOCK:   -5.89 KCAL/MOL
REMARK 923 INTER-LIGAND FREE ENERGY PREDICTED BY IDOCK:   -5.25 KCAL/MOL
REMARK 924 INTRA-LIGAND FREE ENERGY PREDICTED BY IDOCK:   -0.63 KCAL/MOL
REMARK 927      BINDING AFFINITY PREDICTED BY RF-SCORE:    0.00 PKD
ROOT
HETATM    1  C   UNL     1      -8.512   7.554  66.111  1.00  0.00    -0.144 A  
HETATM    2  N   UNL     1      -7.941   8.730  65.851  1.00  0.00    -0.101 NA 
HETATM    3  O   UNL     1      -8.690   9.659  66.546  1.00  0.00    -0.132 OA 
HETATM    4  C   UNL     1      -9.683   9.027  67.235  1.00  0.00    -0.179 A  
HETATM    5  C   UNL     1      -9.614   7.661  66.993  1.00  0.00    -0.228 A  
ENDROOT
BRANCH   4   6
HETATM    6  C   UNL     1     -10.678   9.764  68.130  1.00  0.00    -0.280 C  
HETATM    7  C   UNL     1     -10.279  11.105  68.715  1.00  0.00    -0.219 C  
HETATM    8  C   UNL     1     -11.279  11.055  67.613  1.00  0.00    -0.373 C  
ENDBRANCH   4   6
BRANCH   5   9
HETATM    9  C   UNL     1     -10.522   6.648  67.518  1.00  0.00    -0.239 C  
HETATM   10  O   UNL     1     -11.379   6.151  66.800  1.00  0.00    -0.188 OA 
BRANCH   9  11
HETATM   11  C   UNL     1     -10.522   6.251  68.962  1.00  0.00    -0.287 A  
HETATM   12  C   UNL     1      -9.844   5.107  69.444  1.00  0.00    -0.199 A  
HETATM   13  C   UNL     1      -9.992   4.706  70.785  1.00  0.00    -0.284 A  
HETATM   14  C   UNL     1     -11.365   6.944  69.851  1.00  0.00    -0.321 A  
HETATM   15  C   UNL     1     -10.837   5.404  71.660  1.00  0.00    -0.232 A  
HETATM   16  F   UNL     1     -10.291   3.839  73.397  1.00  0.00    -0.167 F  
HETATM   17  F   UNL     1     -10.721   5.882  74.001  1.00  0.00    -0.258 F  
HETATM   18  F   UNL     1     -12.333   4.582  73.332  1.00  0.00    -0.273 F  
HETATM   19  C   UNL     1     -11.043   4.931  73.085  1.00  0.00    -0.322 C  
HETATM   20  C   UNL     1     -11.515   6.530  71.182  1.00  0.00    -0.380 A  
BRANCH  12  21
HETATM   21  S   UNL     1      -8.746   4.172  68.385  1.00  0.00    -0.104 S  
HETATM   22  C   UNL     1      -8.222   2.735  69.276  1.00  0.00    -0.054 C  
HETATM   23  O   UNL     1      -9.540   3.651  67.289  1.00  0.00    -0.209 OA 
HETATM   24  O   UNL     1      -7.573   5.005  68.203  1.00  0.00    -0.078 OA 
ENDBRANCH  12  21
ENDBRANCH   9  11
ENDBRANCH   5   9
TORSDOF 4
ENDMDL
MODEL      145
REMARK 921   NORMALIZED FREE ENERGY PREDICTED BY IDOCK:   -4.34 KCAL/MOL
REMARK 922        TOTAL FREE ENERGY PREDICTED BY IDOCK:   -5.87 KCAL/MOL
REMARK 923 INTER-LIGAND FREE ENERGY PREDICTED BY IDOCK:   -5.35 KCAL/MOL
REMARK 924 INTRA-LIGAND FREE ENERGY PREDICTED BY IDOCK:   -0.52 KCAL/MOL
REMARK 927      BINDING AFFINITY PREDICTED BY RF-SCORE:    0.00 PKD
ROOT
HETATM    1  C   UNL     1     -11.435  10.743  70.147  1.00  0.00    -0.331 A  
HETATM    2  N   UNL     1     -12.477  10.615  70.969  1.00  0.00    -0.375 NA 
HETATM    3  O   UNL     1     -12.220   9.474  71.704  1.00  0.00    -0.351 OA 
HETATM    4  C   UNL     1     -11.018   8.947  71.334  1.00  0.00    -0.310 A  
HETATM    5  C   UNL     1     -10.463   9.731  70.329  1.00  0.00    -0.345 A  
ENDROOT
BRANCH   4   6
HETATM    6  C   UNL     1     -10.422   7.695  71.973  1.00  0.00    -0.258 C  
HETATM    7  C   UNL     1      -9.291   7.852  72.970  1.00  0.00    -0.329 C  
HETATM    8  C   UNL     1     -10.648   7.477  73.455  1.00  0.00    -0.409 C  
ENDBRANCH   4   6
BRANCH   5   9
HETATM    9  C   UNL     1      -9.201   9.481  69.643  1.00  0.00    -0.200 C  
HETATM   10  O   UNL     1      -8.248  10.231  69.804  1.00  0.00    -0.164 OA 
BRANCH   9  11
HETATM   11  C   UNL     1      -9.044   8.377  68.643  1.00  0.00    -0.140 A  
HETATM   12  C   UNL     1      -9.294   8.551  67.262  1.00  0.00    -0.149 A  
HETATM   13  C   UNL     1      -9.263   7.446  66.390  1.00  0.00    -0.203 A  
HETATM   14  C   UNL     1      -8.800   7.073  69.112  1.00  0.00    -0.135 A  
HETATM   15  C   UNL     1      -9.021   6.151  66.871  1.00  0.00    -0.118 A  
HETATM   16  F   UNL     1      -9.271   5.302  64.639  1.00  0.00    -0.114 F  
HETATM   17  F   UNL     1      -7.888   4.257  65.949  1.00  0.00    -0.090 F  
HETATM   18  F   UNL     1     -10.033   4.074  66.263  1.00  0.00    -0.205 F  
HETATM   19  C   UNL     1      -9.052   4.957  65.939  1.00  0.00    -0.147 C  
HETATM   20  C   UNL     1      -8.783   5.977  68.238  1.00  0.00    -0.113 A  
BRANCH  12  21
HETATM   21  S   UNL     1      -9.605  10.175  66.579  1.00  0.00    -0.197 S  
HETATM   22  C   UNL     1      -9.618  10.031  64.815  1.00  0.00    -0.308 C  
HETATM   23  O   UNL     1     -10.965  10.539  66.925  1.00  0.00    -0.227 OA 
HETATM   24  O   UNL     1      -8.445  10.975  66.926  1.00  0.00    -0.131 OA 
ENDBRANCH  12  21
ENDBRANCH   9  11
ENDBRANCH   5   9
TORSDOF 4
ENDMDL
MODEL      146
REMARK 921   NORMALIZED FREE ENERGY PREDICTED BY IDOCK:   -4.32 KCAL/MOL
REMARK 922        TOTAL FREE ENERGY PREDICTED BY IDOCK:   -5.85 KCAL/MOL
REMARK 923 INTER-LIGAND FREE ENERGY PREDICTED BY IDOCK:   -6.00 KCAL/MOL
REMARK 924 INTRA-LIGAND FREE ENERGY PREDICTED BY IDOCK:    0.15 KCAL/MOL
REMARK 927      BINDING AFFINITY PREDICTED BY RF-SCORE:    0.00 PKD
ROOT
HETATM    1  C   UNL     1      -8.340   8.776  70.169  1.00  0.00    -0.131 A  
HETATM    2  N   UNL     1      -8.241   9.120  71.453  1.00  0.00    -0.333 NA 
HETATM    3  O   UNL     1      -9.542   9.211  71.906  1.00  0.00    -0.310 OA 
HETATM    4  C   UNL     1     -10.404   8.894  70.898  1.00  0.00    -0.240 A  
HETATM    5  C   UNL     1      -9.680   8.600  69.749  1.00  0.00    -0.176 A  
ENDROOT
BRANCH   4   6
HETATM    6  C   UNL     1     -11.921   8.870  71.074  1.00  0.00    -0.307 C  
HETATM    7  C   UNL     1     -12.593   7.561  71.438  1.00  0.00    -0.382 C  
HETATM    8  C   UNL     1     -12.472   8.633  72.465  1.00  0.00    -0.372 C  
ENDBRANCH   4   6
BRANCH   5   9
HETATM    9  C   UNL     1     -10.238   8.250  68.449  1.00  0.00    -0.209 C  
HETATM   10  O   UNL     1     -10.957   7.268  68.326  1.00  0.00    -0.106 OA 
BRANCH   9  11
HETATM   11  C   UNL     1      -9.878   8.997  67.201  1.00  0.00    -0.262 A  
HETATM   12  C   UNL     1     -10.265  10.337  66.969  1.00  0.00    -0.228 A  
HETATM   13  C   UNL     1     -10.018  10.943  65.723  1.00  0.00    -0.299 A  
HETATM   14  C   UNL     1      -9.275   8.291  66.143  1.00  0.00    -0.250 A  
HETATM   15  C   UNL     1      -9.419  10.227  64.677  1.00  0.00    -0.351 A  
HETATM   16  F   UNL     1      -9.609  12.167  63.274  1.00  0.00    -0.352 F  
HETATM   17  F   UNL     1      -7.911  10.854  62.929  1.00  0.00    -0.143 F  
HETATM   18  F   UNL     1      -9.910  10.228  62.339  1.00  0.00    -0.298 F  
HETATM   19  C   UNL     1      -9.213  10.864  63.317  1.00  0.00    -0.284 C  
HETATM   20  C   UNL     1      -9.044   8.899  64.901  1.00  0.00    -0.061 A  
BRANCH  12  21
HETATM   21  S   UNL     1     -11.030  11.311  68.261  1.00  0.00    -0.247 S  
HETATM   22  C   UNL     1     -11.462  12.884  67.574  1.00  0.00    -0.335 C  
HETATM   23  O   UNL     1     -12.302  10.690  68.577  1.00  0.00    -0.317 OA 
HETATM   24  O   UNL     1      -9.987  11.553  69.240  1.00  0.00    -0.012 OA 
ENDBRANCH  12  21
ENDBRANCH   9  11
ENDBRANCH   5   9
TORSDOF 4
ENDMDL
MODEL      147
REMARK 921   NORMALIZED FREE ENERGY PREDICTED BY IDOCK:   -4.32 KCAL/MOL
REMARK 922        TOTAL FREE ENERGY PREDICTED BY IDOCK:   -5.84 KCAL/MOL
REMARK 923 INTER-LIGAND FREE ENERGY PREDICTED BY IDOCK:   -5.10 KCAL/MOL
REMARK 924 INTRA-LIGAND FREE ENERGY PREDICTED BY IDOCK:   -0.75 KCAL/MOL
REMARK 927      BINDING AFFINITY PREDICTED BY RF-SCORE:    0.00 PKD
ROOT
HETATM    1  C   UNL     1      -8.116   9.022  70.494  1.00  0.00    -0.154 A  
HETATM    2  N   UNL     1      -8.124   9.025  71.827  1.00  0.00    -0.350 NA 
HETATM    3  O   UNL     1      -9.454   8.908  72.182  1.00  0.00    -0.327 OA 
HETATM    4  C   UNL     1     -10.223   8.807  71.060  1.00  0.00    -0.237 A  
HETATM    5  C   UNL     1      -9.408   8.872  69.936  1.00  0.00    -0.172 A  
ENDROOT
BRANCH   4   6
HETATM    6  C   UNL     1     -11.740   8.637  71.101  1.00  0.00    -0.334 C  
HETATM    7  C   UNL     1     -12.314   7.246  71.290  1.00  0.00    -0.401 C  
HETATM    8  C   UNL     1     -12.374   8.223  72.413  1.00  0.00    -0.385 C  
ENDBRANCH   4   6
BRANCH   5   9
HETATM    9  C   UNL     1      -9.853   8.835  68.549  1.00  0.00    -0.168 C  
HETATM   10  O   UNL     1     -10.428   9.797  68.056  1.00  0.00    -0.198 OA 
BRANCH   9  11
HETATM   11  C   UNL     1      -9.730   7.604  67.705  1.00  0.00    -0.189 A  
HETATM   12  C   UNL     1      -8.862   7.519  66.592  1.00  0.00    -0.146 A  
HETATM   13  C   UNL     1      -8.889   6.388  65.755  1.00  0.00    -0.111 A  
HETATM   14  C   UNL     1     -10.632   6.545  67.922  1.00  0.00    -0.313 A  
HETATM   15  C   UNL     1      -9.794   5.342  65.981  1.00  0.00    -0.155 A  
HETATM   16  F   UNL     1      -8.937   4.214  64.042  1.00  0.00    -0.118 F  
HETATM   17  F   UNL     1      -9.655   2.973  65.676  1.00  0.00    -0.148 F  
HETATM   18  F   UNL     1     -11.070   4.054  64.425  1.00  0.00    -0.328 F  
HETATM   19  C   UNL     1      -9.862   4.156  65.040  1.00  0.00    -0.201 C  
HETATM   20  C   UNL     1     -10.659   5.428  67.076  1.00  0.00    -0.298 A  
BRANCH  12  21
HETATM   21  S   UNL     1      -7.678   8.816  66.247  1.00  0.00    -0.099 S  
HETATM   22  C   UNL     1      -6.674   8.289  64.887  1.00  0.00    -0.067 C  
HETATM   23  O   UNL     1      -8.417   9.954  65.735  1.00  0.00    -0.129 OA 
HETATM   24  O   UNL     1      -6.812   8.876  67.409  1.00  0.00    -0.069 OA 
ENDBRANCH  12  21
ENDBRANCH   9  11
ENDBRANCH   5   9
TORSDOF 4
ENDMDL
MODEL      148
REMARK 921   NORMALIZED FREE ENERGY PREDICTED BY IDOCK:   -4.30 KCAL/MOL
REMARK 922        TOTAL FREE ENERGY PREDICTED BY IDOCK:   -5.82 KCAL/MOL
REMARK 923 INTER-LIGAND FREE ENERGY PREDICTED BY IDOCK:   -5.66 KCAL/MOL
REMARK 924 INTRA-LIGAND FREE ENERGY PREDICTED BY IDOCK:   -0.17 KCAL/MOL
REMARK 927      BINDING AFFINITY PREDICTED BY RF-SCORE:    0.00 PKD
ROOT
HETATM    1  C   UNL     1      -7.977   8.973  70.614  1.00  0.00    -0.141 A  
HETATM    2  N   UNL     1      -7.045   9.768  71.140  1.00  0.00    -0.316 NA 
HETATM    3  O   UNL     1      -6.934  10.828  70.261  1.00  0.00    -0.233 OA 
HETATM    4  C   UNL     1      -7.819  10.670  69.235  1.00  0.00    -0.138 A  
HETATM    5  C   UNL     1      -8.524   9.486  69.414  1.00  0.00    -0.146 A  
ENDROOT
BRANCH   4   6
HETATM    6  C   UNL     1      -7.972  11.682  68.102  1.00  0.00    -0.141 C  
HETATM    7  C   UNL     1      -7.208  12.989  68.182  1.00  0.00    -0.116 C  
HETATM    8  C   UNL     1      -6.772  11.943  67.215  1.00  0.00    -0.138 C  
ENDBRANCH   4   6
BRANCH   5   9
HETATM    9  C   UNL     1      -9.534   8.943  68.514  1.00  0.00    -0.147 C  
HETATM   10  O   UNL     1      -9.925   7.792  68.643  1.00  0.00    -0.171 OA 
BRANCH   9  11
HETATM   11  C   UNL     1     -10.056   9.718  67.343  1.00  0.00    -0.259 A  
HETATM   12  C   UNL     1      -9.538   9.576  66.035  1.00  0.00    -0.251 A  
HETATM   13  C   UNL     1      -9.972  10.428  65.003  1.00  0.00    -0.399 A  
HETATM   14  C   UNL     1     -10.984  10.751  67.578  1.00  0.00    -0.372 A  
HETATM   15  C   UNL     1     -10.895  11.454  65.251  1.00  0.00    -0.297 A  
HETATM   16  F   UNL     1     -10.748  12.111  62.946  1.00  0.00    -0.368 F  
HETATM   17  F   UNL     1     -12.654  12.413  63.944  1.00  0.00    -0.498 F  
HETATM   18  F   UNL     1     -10.960  13.693  64.420  1.00  0.00    -0.354 F  
HETATM   19  C   UNL     1     -11.311  12.408  64.150  1.00  0.00    -0.379 C  
HETATM   20  C   UNL     1     -11.401  11.602  66.545  1.00  0.00    -0.331 A  
BRANCH  12  21
HETATM   21  S   UNL     1      -8.361   8.286  65.646  1.00  0.00    -0.155 S  
HETATM   22  C   UNL     1      -7.906   8.458  63.944  1.00  0.00    -0.151 C  
HETATM   23  O   UNL     1      -7.143   8.573  66.380  1.00  0.00    -0.076 OA 
HETATM   24  O   UNL     1      -9.094   7.039  65.761  1.00  0.00    -0.080 OA 
ENDBRANCH  12  21
ENDBRANCH   9  11
ENDBRANCH   5   9
TORSDOF 4
ENDMDL
MODEL      149
REMARK 921   NORMALIZED FREE ENERGY PREDICTED BY IDOCK:   -4.29 KCAL/MOL
REMARK 922        TOTAL FREE ENERGY PREDICTED BY IDOCK:   -5.82 KCAL/MOL
REMARK 923 INTER-LIGAND FREE ENERGY PREDICTED BY IDOCK:   -6.15 KCAL/MOL
REMARK 924 INTRA-LIGAND FREE ENERGY PREDICTED BY IDOCK:    0.34 KCAL/MOL
REMARK 927      BINDING AFFINITY PREDICTED BY RF-SCORE:    0.00 PKD
ROOT
HETATM    1  C   UNL     1     -10.858  13.135  66.462  1.00  0.00    -0.280 A  
HETATM    2  N   UNL     1     -11.905  13.952  66.338  1.00  0.00    -0.389 NA 
HETATM    3  O   UNL     1     -12.363  14.151  67.626  1.00  0.00    -0.273 OA 
HETATM    4  C   UNL     1     -11.571  13.476  68.507  1.00  0.00    -0.333 A  
HETATM    5  C   UNL     1     -10.577  12.801  67.808  1.00  0.00    -0.231 A  
ENDROOT
BRANCH   4   6
HETATM    6  C   UNL     1     -11.787  13.507  70.019  1.00  0.00    -0.371 C  
HETATM    7  C   UNL     1     -11.617  14.823  70.753  1.00  0.00    -0.318 C  
HETATM    8  C   UNL     1     -12.984  14.268  70.549  1.00  0.00    -0.259 C  
ENDBRANCH   4   6
BRANCH   5   9
HETATM    9  C   UNL     1      -9.554  11.938  68.386  1.00  0.00    -0.196 C  
HETATM   10  O   UNL     1      -8.392  12.315  68.458  1.00  0.00    -0.151 OA 
BRANCH   9  11
HETATM   11  C   UNL     1      -9.847  10.533  68.815  1.00  0.00    -0.191 A  
HETATM   12  C   UNL     1      -9.714   9.423  67.951  1.00  0.00    -0.152 A  
HETATM   13  C   UNL     1     -10.134   8.145  68.365  1.00  0.00    -0.226 A  
HETATM   14  C   UNL     1     -10.439  10.323  70.075  1.00  0.00    -0.293 A  
HETATM   15  C   UNL     1     -10.725   7.950  69.622  1.00  0.00    -0.218 A  
HETATM   16  F   UNL     1     -10.996   5.621  69.106  1.00  0.00    -0.351 F  
HETATM   17  F   UNL     1     -10.660   6.143  71.189  1.00  0.00    -0.247 F  
HETATM   18  F   UNL     1     -12.576   6.577  70.252  1.00  0.00    -0.327 F  
HETATM   19  C   UNL     1     -11.233   6.585  70.039  1.00  0.00    -0.393 C  
HETATM   20  C   UNL     1     -10.866   9.049  70.475  1.00  0.00    -0.296 A  
BRANCH  12  21
HETATM   21  S   UNL     1      -8.965   9.598  66.335  1.00  0.00    -0.158 S  
HETATM   22  C   UNL     1     -10.199  10.219  65.227  1.00  0.00    -0.238 C  
HETATM   23  O   UNL     1      -7.986  10.663  66.423  1.00  0.00    -0.130 OA 
HETATM   24  O   UNL     1      -8.651   8.250  65.900  1.00  0.00    -0.133 OA 
ENDBRANCH  12  21
ENDBRANCH   9  11
ENDBRANCH   5   9
TORSDOF 4
ENDMDL
MODEL      150
REMARK 921   NORMALIZED FREE ENERGY PREDICTED BY IDOCK:   -4.29 KCAL/MOL
REMARK 922        TOTAL FREE ENERGY PREDICTED BY IDOCK:   -5.81 KCAL/MOL
REMARK 923 INTER-LIGAND FREE ENERGY PREDICTED BY IDOCK:   -5.18 KCAL/MOL
REMARK 924 INTRA-LIGAND FREE ENERGY PREDICTED BY IDOCK:   -0.62 KCAL/MOL
REMARK 927      BINDING AFFINITY PREDICTED BY RF-SCORE:    0.00 PKD
ROOT
HETATM    1  C   UNL     1      -9.873  17.599  67.630  1.00  0.00    -0.294 A  
HETATM    2  N   UNL     1      -8.785  18.167  68.149  1.00  0.00    -0.270 NA 
HETATM    3  O   UNL     1      -7.843  17.159  68.211  1.00  0.00    -0.208 OA 
HETATM    4  C   UNL     1      -8.368  16.006  67.704  1.00  0.00    -0.151 A  
HETATM    5  C   UNL     1      -9.681  16.234  67.309  1.00  0.00    -0.237 A  
ENDROOT
BRANCH   4   6
HETATM    6  C   UNL     1      -7.578  14.703  67.601  1.00  0.00    -0.198 C  
HETATM    7  C   UNL     1      -6.180  14.650  68.184  1.00  0.00    -0.146 C  
HETATM    8  C   UNL     1      -7.292  13.943  68.879  1.00  0.00    -0.088 C  
ENDBRANCH   4   6
BRANCH   5   9
HETATM    9  C   UNL     1     -10.594  15.244  66.751  1.00  0.00    -0.304 C  
HETATM   10  O   UNL     1     -11.445  15.575  65.937  1.00  0.00    -0.115 OA 
BRANCH   9  11
HETATM   11  C   UNL     1     -10.607  13.821  67.218  1.00  0.00    -0.275 A  
HETATM   12  C   UNL     1     -10.951  13.448  68.538  1.00  0.00    -0.268 A  
HETATM   13  C   UNL     1     -10.813  12.112  68.958  1.00  0.00    -0.208 A  
HETATM   14  C   UNL     1     -10.097  12.826  66.362  1.00  0.00    -0.266 A  
HETATM   15  C   UNL     1     -10.302  11.132  68.095  1.00  0.00    -0.207 A  
HETATM   16  F   UNL     1     -10.510   9.511  69.855  1.00  0.00    -0.199 F  
HETATM   17  F   UNL     1     -10.771   8.803  67.817  1.00  0.00    -0.292 F  
HETATM   18  F   UNL     1      -8.789   9.337  68.539  1.00  0.00    -0.125 F  
HETATM   19  C   UNL     1     -10.096   9.708  68.572  1.00  0.00    -0.175 C  
HETATM   20  C   UNL     1      -9.953  11.500  66.793  1.00  0.00    -0.235 A  
BRANCH  12  21
HETATM   21  S   UNL     1     -11.614  14.646  69.690  1.00  0.00    -0.324 S  
HETATM   22  C   UNL     1     -12.434  13.761  70.985  1.00  0.00    -0.380 C  
HETATM   23  O   UNL     1     -10.490  15.289  70.343  1.00  0.00    -0.258 OA 
HETATM   24  O   UNL     1     -12.640  15.367  68.959  1.00  0.00     0.041 OA 
ENDBRANCH  12  21
ENDBRANCH   9  11
ENDBRANCH   5   9
TORSDOF 4
ENDMDL
MODEL      151
REMARK 921   NORMALIZED FREE ENERGY PREDICTED BY IDOCK:   -4.28 KCAL/MOL
REMARK 922        TOTAL FREE ENERGY PREDICTED BY IDOCK:   -5.80 KCAL/MOL
REMARK 923 INTER-LIGAND FREE ENERGY PREDICTED BY IDOCK:   -5.94 KCAL/MOL
REMARK 924 INTRA-LIGAND FREE ENERGY PREDICTED BY IDOCK:    0.14 KCAL/MOL
REMARK 927      BINDING AFFINITY PREDICTED BY RF-SCORE:    0.00 PKD
ROOT
HETATM    1  C   UNL     1     -12.093  14.158  69.448  1.00  0.00    -0.328 A  
HETATM    2  N   UNL     1     -12.420  14.186  70.741  1.00  0.00    -0.343 NA 
HETATM    3  O   UNL     1     -12.482  12.861  71.127  1.00  0.00    -0.353 OA 
HETATM    4  C   UNL     1     -12.165  12.058  70.072  1.00  0.00    -0.206 A  
HETATM    5  C   UNL     1     -11.900  12.845  68.958  1.00  0.00    -0.352 A  
ENDROOT
BRANCH   4   6
HETATM    6  C   UNL     1     -12.112  10.534  70.168  1.00  0.00    -0.380 C  
HETATM    7  C   UNL     1     -10.950   9.889  70.897  1.00  0.00    -0.392 C  
HETATM    8  C   UNL     1     -12.297   9.902  71.532  1.00  0.00    -0.504 C  
ENDBRANCH   4   6
BRANCH   5   9
HETATM    9  C   UNL     1     -11.559  12.361  67.626  1.00  0.00    -0.357 C  
HETATM   10  O   UNL     1     -12.219  12.703  66.654  1.00  0.00    -0.517 OA 
BRANCH   9  11
HETATM   11  C   UNL     1     -10.472  11.356  67.397  1.00  0.00    -0.239 A  
HETATM   12  C   UNL     1      -9.116  11.716  67.226  1.00  0.00    -0.167 A  
HETATM   13  C   UNL     1      -8.161  10.742  66.878  1.00  0.00    -0.130 A  
HETATM   14  C   UNL     1     -10.833  10.013  67.177  1.00  0.00    -0.240 A  
HETATM   15  C   UNL     1      -8.534   9.408  66.659  1.00  0.00    -0.130 A  
HETATM   16  F   UNL     1      -6.250   8.881  66.139  1.00  0.00    -0.058 F  
HETATM   17  F   UNL     1      -7.440   7.322  67.076  1.00  0.00    -0.092 F  
HETATM   18  F   UNL     1      -7.792   7.861  64.997  1.00  0.00    -0.091 F  
HETATM   19  C   UNL     1      -7.513   8.377  66.223  1.00  0.00    -0.089 C  
HETATM   20  C   UNL     1      -9.876   9.053  66.819  1.00  0.00    -0.300 A  
BRANCH  12  21
HETATM   21  S   UNL     1      -8.569  13.398  67.494  1.00  0.00    -0.213 S  
HETATM   22  C   UNL     1      -9.454  14.444  66.373  1.00  0.00    -0.285 C  
HETATM   23  O   UNL     1      -9.031  13.801  68.809  1.00  0.00    -0.096 OA 
HETATM   24  O   UNL     1      -7.177  13.428  67.086  1.00  0.00    -0.075 OA 
ENDBRANCH  12  21
ENDBRANCH   9  11
ENDBRANCH   5   9
TORSDOF 4
ENDMDL
MODEL      152
REMARK 921   NORMALIZED FREE ENERGY PREDICTED BY IDOCK:   -4.28 KCAL/MOL
REMARK 922        TOTAL FREE ENERGY PREDICTED BY IDOCK:   -5.80 KCAL/MOL
REMARK 923 INTER-LIGAND FREE ENERGY PREDICTED BY IDOCK:   -6.39 KCAL/MOL
REMARK 924 INTRA-LIGAND FREE ENERGY PREDICTED BY IDOCK:    0.60 KCAL/MOL
REMARK 927      BINDING AFFINITY PREDICTED BY RF-SCORE:    0.00 PKD
ROOT
HETATM    1  C   UNL     1     -11.031  10.011  67.919  1.00  0.00    -0.252 A  
HETATM    2  N   UNL     1     -11.907  10.969  67.614  1.00  0.00    -0.562 NA 
HETATM    3  O   UNL     1     -12.402  11.407  68.826  1.00  0.00    -0.480 OA 
HETATM    4  C   UNL     1     -11.799  10.728  69.843  1.00  0.00    -0.335 A  
HETATM    5  C   UNL     1     -10.898   9.812  69.314  1.00  0.00    -0.240 A  
ENDROOT
BRANCH   4   6
HETATM    6  C   UNL     1     -12.101  10.990  71.318  1.00  0.00    -0.280 C  
HETATM    7  C   UNL     1     -13.097  12.075  71.677  1.00  0.00    -0.422 C  
HETATM    8  C   UNL     1     -13.483  10.645  71.832  1.00  0.00    -0.341 C  
ENDBRANCH   4   6
BRANCH   5   9
HETATM    9  C   UNL     1     -10.082   8.872  70.073  1.00  0.00    -0.192 C  
HETATM   10  O   UNL     1      -9.412   9.257  71.021  1.00  0.00    -0.266 OA 
BRANCH   9  11
HETATM   11  C   UNL     1      -9.942   7.435  69.671  1.00  0.00    -0.182 A  
HETATM   12  C   UNL     1     -10.472   6.369  70.433  1.00  0.00    -0.218 A  
HETATM   13  C   UNL     1     -10.191   5.036  70.082  1.00  0.00    -0.329 A  
HETATM   14  C   UNL     1      -9.106   7.119  68.583  1.00  0.00    -0.133 A  
HETATM   15  C   UNL     1      -9.355   4.734  68.997  1.00  0.00    -0.193 A  
HETATM   16  F   UNL     1      -9.626   2.396  69.470  1.00  0.00    -0.201 F  
HETATM   17  F   UNL     1      -9.348   2.962  67.390  1.00  0.00    -0.187 F  
HETATM   18  F   UNL     1      -7.673   3.052  68.777  1.00  0.00    -0.048 F  
HETATM   19  C   UNL     1      -9.005   3.299  68.661  1.00  0.00    -0.132 C  
HETATM   20  C   UNL     1      -8.822   5.788  68.248  1.00  0.00    -0.109 A  
BRANCH  12  21
HETATM   21  S   UNL     1     -11.550   6.681  71.827  1.00  0.00    -0.318 S  
HETATM   22  C   UNL     1     -10.760   7.872  72.872  1.00  0.00    -0.375 C  
HETATM   23  O   UNL     1     -12.726   7.362  71.323  1.00  0.00    -0.349 OA 
HETATM   24  O   UNL     1     -11.599   5.436  72.571  1.00  0.00    -0.249 OA 
ENDBRANCH  12  21
ENDBRANCH   9  11
ENDBRANCH   5   9
TORSDOF 4
ENDMDL
MODEL      153
REMARK 921   NORMALIZED FREE ENERGY PREDICTED BY IDOCK:   -4.28 KCAL/MOL
REMARK 922        TOTAL FREE ENERGY PREDICTED BY IDOCK:   -5.79 KCAL/MOL
REMARK 923 INTER-LIGAND FREE ENERGY PREDICTED BY IDOCK:   -5.15 KCAL/MOL
REMARK 924 INTRA-LIGAND FREE ENERGY PREDICTED BY IDOCK:   -0.64 KCAL/MOL
REMARK 927      BINDING AFFINITY PREDICTED BY RF-SCORE:    0.00 PKD
ROOT
HETATM    1  C   UNL     1      -9.220   9.840  65.295  1.00  0.00    -0.238 A  
HETATM    2  N   UNL     1      -9.274   9.504  64.006  1.00  0.00    -0.158 NA 
HETATM    3  O   UNL     1      -9.900  10.564  63.380  1.00  0.00    -0.315 OA 
HETATM    4  C   UNL     1     -10.190  11.533  64.295  1.00  0.00    -0.311 A  
HETATM    5  C   UNL     1      -9.768  11.120  65.553  1.00  0.00    -0.271 A  
ENDROOT
BRANCH   4   6
HETATM    6  C   UNL     1     -10.861  12.855  63.926  1.00  0.00    -0.402 C  
HETATM    7  C   UNL     1     -12.231  12.821  63.277  1.00  0.00    -0.500 C  
HETATM    8  C   UNL     1     -12.103  13.259  64.694  1.00  0.00    -0.458 C  
ENDBRANCH   4   6
BRANCH   5   9
HETATM    9  C   UNL     1      -9.929  11.859  66.799  1.00  0.00    -0.195 C  
HETATM   10  O   UNL     1     -10.909  11.675  67.507  1.00  0.00    -0.213 OA 
BRANCH   9  11
HETATM   11  C   UNL     1      -8.976  12.938  67.213  1.00  0.00    -0.208 A  
HETATM   12  C   UNL     1      -7.887  12.709  68.084  1.00  0.00    -0.145 A  
HETATM   13  C   UNL     1      -7.108  13.785  68.547  1.00  0.00    -0.106 A  
HETATM   14  C   UNL     1      -9.270  14.269  66.858  1.00  0.00    -0.268 A  
HETATM   15  C   UNL     1      -7.413  15.106  68.188  1.00  0.00    -0.118 A  
HETATM   16  F   UNL     1      -5.578  15.870  69.534  1.00  0.00    -0.109 F  
HETATM   17  F   UNL     1      -6.059  17.032  67.761  1.00  0.00    -0.119 F  
HETATM   18  F   UNL     1      -7.368  17.103  69.499  1.00  0.00    -0.202 F  
HETATM   19  C   UNL     1      -6.611  16.267  68.740  1.00  0.00    -0.136 C  
HETATM   20  C   UNL     1      -8.496  15.336  67.334  1.00  0.00    -0.197 A  
BRANCH  12  21
HETATM   21  S   UNL     1      -7.438  11.049  68.580  1.00  0.00    -0.114 S  
HETATM   22  C   UNL     1      -6.198  11.172  69.837  1.00  0.00    -0.133 C  
HETATM   23  O   UNL     1      -8.585  10.472  69.255  1.00  0.00    -0.161 OA 
HETATM   24  O   UNL     1      -6.804  10.451  67.420  1.00  0.00    -0.074 OA 
ENDBRANCH  12  21
ENDBRANCH   9  11
ENDBRANCH   5   9
TORSDOF 4
ENDMDL
MODEL      154
REMARK 921   NORMALIZED FREE ENERGY PREDICTED BY IDOCK:   -4.27 KCAL/MOL
REMARK 922        TOTAL FREE ENERGY PREDICTED BY IDOCK:   -5.79 KCAL/MOL
REMARK 923 INTER-LIGAND FREE ENERGY PREDICTED BY IDOCK:   -6.29 KCAL/MOL
REMARK 924 INTRA-LIGAND FREE ENERGY PREDICTED BY IDOCK:    0.50 KCAL/MOL
REMARK 927      BINDING AFFINITY PREDICTED BY RF-SCORE:    0.00 PKD
ROOT
HETATM    1  C   UNL     1     -12.314  15.440  70.349  1.00  0.00    -0.402 A  
HETATM    2  N   UNL     1     -12.654  14.925  71.531  1.00  0.00    -0.307 NA 
HETATM    3  O   UNL     1     -12.550  13.557  71.374  1.00  0.00    -0.348 OA 
HETATM    4  C   UNL     1     -12.123  13.269  70.111  1.00  0.00    -0.333 A  
HETATM    5  C   UNL     1     -11.951  14.452  69.403  1.00  0.00    -0.370 A  
ENDROOT
BRANCH   4   6
HETATM    6  C   UNL     1     -11.877  11.844  69.618  1.00  0.00    -0.406 C  
HETATM    7  C   UNL     1     -11.373  10.808  70.602  1.00  0.00    -0.202 C  
HETATM    8  C   UNL     1     -12.785  10.747  70.133  1.00  0.00    -0.232 C  
ENDBRANCH   4   6
BRANCH   5   9
HETATM    9  C   UNL     1     -11.538  14.567  68.010  1.00  0.00    -0.336 C  
HETATM   10  O   UNL     1     -11.803  15.572  67.366  1.00  0.00    -0.080 OA 
BRANCH   9  11
HETATM   11  C   UNL     1     -10.878  13.438  67.279  1.00  0.00    -0.278 A  
HETATM   12  C   UNL     1      -9.485  13.386  67.043  1.00  0.00    -0.247 A  
HETATM   13  C   UNL     1      -8.939  12.373  66.233  1.00  0.00    -0.041 A  
HETATM   14  C   UNL     1     -11.691  12.472  66.656  1.00  0.00    -0.453 A  
HETATM   15  C   UNL     1      -9.760  11.419  65.616  1.00  0.00    -0.263 A  
HETATM   16  F   UNL     1      -7.816  10.437  64.604  1.00  0.00    -0.149 F  
HETATM   17  F   UNL     1      -9.459   9.103  65.098  1.00  0.00    -0.292 F  
HETATM   18  F   UNL     1      -9.640  10.480  63.423  1.00  0.00    -0.256 F  
HETATM   19  C   UNL     1      -9.174  10.368  64.694  1.00  0.00    -0.240 C  
HETATM   20  C   UNL     1     -11.139  11.474  65.841  1.00  0.00    -0.274 A  
BRANCH  12  21
HETATM   21  S   UNL     1      -8.377  14.569  67.803  1.00  0.00    -0.184 S  
HETATM   22  C   UNL     1      -8.515  16.094  66.913  1.00  0.00    -0.230 C  
HETATM   23  O   UNL     1      -8.900  14.868  69.122  1.00  0.00    -0.193 OA 
HETATM   24  O   UNL     1      -7.039  14.063  67.563  1.00  0.00    -0.176 OA 
ENDBRANCH  12  21
ENDBRANCH   9  11
ENDBRANCH   5   9
TORSDOF 4
ENDMDL
MODEL      155
REMARK 921   NORMALIZED FREE ENERGY PREDICTED BY IDOCK:   -4.27 KCAL/MOL
REMARK 922        TOTAL FREE ENERGY PREDICTED BY IDOCK:   -5.79 KCAL/MOL
REMARK 923 INTER-LIGAND FREE ENERGY PREDICTED BY IDOCK:   -5.14 KCAL/MOL
REMARK 924 INTRA-LIGAND FREE ENERGY PREDICTED BY IDOCK:   -0.64 KCAL/MOL
REMARK 927      BINDING AFFINITY PREDICTED BY RF-SCORE:    0.00 PKD
ROOT
HETATM    1  C   UNL     1      -7.965   7.538  67.440  1.00  0.00    -0.116 A  
HETATM    2  N   UNL     1      -8.327   6.731  66.443  1.00  0.00    -0.116 NA 
HETATM    3  O   UNL     1      -8.562   7.565  65.368  1.00  0.00    -0.130 OA 
HETATM    4  C   UNL     1      -8.311   8.858  65.724  1.00  0.00    -0.134 A  
HETATM    5  C   UNL     1      -7.917   8.900  67.056  1.00  0.00    -0.102 A  
ENDROOT
BRANCH   4   6
HETATM    6  C   UNL     1      -8.448  10.032  64.757  1.00  0.00    -0.180 C  
HETATM    7  C   UNL     1      -9.100   9.795  63.409  1.00  0.00    -0.262 C  
HETATM    8  C   UNL     1      -9.840  10.549  64.459  1.00  0.00    -0.401 C  
ENDBRANCH   4   6
BRANCH   5   9
HETATM    9  C   UNL     1      -7.595  10.099  67.820  1.00  0.00    -0.090 C  
HETATM   10  O   UNL     1      -6.570  10.154  68.484  1.00  0.00    -0.052 OA 
BRANCH   9  11
HETATM   11  C   UNL     1      -8.538  11.259  67.915  1.00  0.00    -0.134 A  
HETATM   12  C   UNL     1      -9.760  11.201  68.624  1.00  0.00    -0.198 A  
HETATM   13  C   UNL     1     -10.668  12.274  68.564  1.00  0.00    -0.261 A  
HETATM   14  C   UNL     1      -8.282  12.400  67.131  1.00  0.00    -0.176 A  
HETATM   15  C   UNL     1     -10.402  13.404  67.777  1.00  0.00    -0.241 A  
HETATM   16  F   UNL     1     -12.516  14.330  68.438  1.00  0.00    -0.295 F  
HETATM   17  F   UNL     1     -10.899  15.728  68.045  1.00  0.00    -0.268 F  
HETATM   18  F   UNL     1     -11.866  14.690  66.395  1.00  0.00    -0.368 F  
HETATM   19  C   UNL     1     -11.412  14.528  67.666  1.00  0.00    -0.353 C  
HETATM   20  C   UNL     1      -9.199  13.459  67.068  1.00  0.00    -0.242 A  
BRANCH  12  21
HETATM   21  S   UNL     1     -10.162   9.791  69.651  1.00  0.00    -0.251 S  
HETATM   22  C   UNL     1     -11.477  10.266  70.737  1.00  0.00    -0.351 C  
HETATM   23  O   UNL     1     -10.746   8.780  68.792  1.00  0.00    -0.181 OA 
HETATM   24  O   UNL     1      -8.994   9.565  70.481  1.00  0.00    -0.242 OA 
ENDBRANCH  12  21
ENDBRANCH   9  11
ENDBRANCH   5   9
TORSDOF 4
ENDMDL
MODEL      156
REMARK 921   NORMALIZED FREE ENERGY PREDICTED BY IDOCK:   -4.24 KCAL/MOL
REMARK 922        TOTAL FREE ENERGY PREDICTED BY IDOCK:   -5.75 KCAL/MOL
REMARK 923 INTER-LIGAND FREE ENERGY PREDICTED BY IDOCK:   -5.02 KCAL/MOL
REMARK 924 INTRA-LIGAND FREE ENERGY PREDICTED BY IDOCK:   -0.73 KCAL/MOL
REMARK 927      BINDING AFFINITY PREDICTED BY RF-SCORE:    0.00 PKD
ROOT
HETATM    1  C   UNL     1     -11.519  10.412  70.509  1.00  0.00    -0.345 A  
HETATM    2  N   UNL     1     -12.528  11.085  69.956  1.00  0.00    -0.285 NA 
HETATM    3  O   UNL     1     -12.228  11.145  68.609  1.00  0.00    -0.582 OA 
HETATM    4  C   UNL     1     -11.060  10.485  68.366  1.00  0.00    -0.281 A  
HETATM    5  C   UNL     1     -10.557   9.986  69.562  1.00  0.00    -0.267 A  
ENDROOT
BRANCH   4   6
HETATM    6  C   UNL     1     -10.457  10.339  66.971  1.00  0.00    -0.304 C  
HETATM    7  C   UNL     1     -10.732  11.417  65.941  1.00  0.00    -0.311 C  
HETATM    8  C   UNL     1      -9.379  11.319  66.556  1.00  0.00    -0.201 C  
ENDBRANCH   4   6
BRANCH   5   9
HETATM    9  C   UNL     1      -9.310   9.251  69.729  1.00  0.00    -0.188 C  
HETATM   10  O   UNL     1      -8.247   9.849  69.828  1.00  0.00    -0.151 OA 
BRANCH   9  11
HETATM   11  C   UNL     1      -9.254   7.755  69.681  1.00  0.00    -0.153 A  
HETATM   12  C   UNL     1      -9.051   6.956  70.829  1.00  0.00    -0.154 A  
HETATM   13  C   UNL     1      -8.870   5.566  70.705  1.00  0.00    -0.142 A  
HETATM   14  C   UNL     1      -9.235   7.122  68.423  1.00  0.00    -0.133 A  
HETATM   15  C   UNL     1      -8.850   4.948  69.446  1.00  0.00    -0.120 A  
HETATM   16  F   UNL     1      -8.452   2.836  70.516  1.00  0.00    -0.062 F  
HETATM   17  F   UNL     1      -9.596   2.813  68.668  1.00  0.00    -0.233 F  
HETATM   18  F   UNL     1      -7.455   3.195  68.618  1.00  0.00    -0.049 F  
HETATM   19  C   UNL     1      -8.592   3.461  69.313  1.00  0.00    -0.070 C  
HETATM   20  C   UNL     1      -9.042   5.739  68.309  1.00  0.00    -0.117 A  
BRANCH  12  21
HETATM   21  S   UNL     1      -9.068   7.677  72.467  1.00  0.00    -0.170 S  
HETATM   22  C   UNL     1      -8.720   6.390  73.632  1.00  0.00    -0.123 C  
HETATM   23  O   UNL     1      -7.930   8.570  72.560  1.00  0.00    -0.278 OA 
HETATM   24  O   UNL     1     -10.438   8.093  72.698  1.00  0.00    -0.301 OA 
ENDBRANCH  12  21
ENDBRANCH   9  11
ENDBRANCH   5   9
TORSDOF 4
ENDMDL
MODEL      157
REMARK 921   NORMALIZED FREE ENERGY PREDICTED BY IDOCK:   -4.24 KCAL/MOL
REMARK 922        TOTAL FREE ENERGY PREDICTED BY IDOCK:   -5.75 KCAL/MOL
REMARK 923 INTER-LIGAND FREE ENERGY PREDICTED BY IDOCK:   -5.44 KCAL/MOL
REMARK 924 INTRA-LIGAND FREE ENERGY PREDICTED BY IDOCK:   -0.31 KCAL/MOL
REMARK 927      BINDING AFFINITY PREDICTED BY RF-SCORE:    0.00 PKD
ROOT
HETATM    1  C   UNL     1      -7.598  11.908  66.914  1.00  0.00    -0.093 A  
HETATM    2  N   UNL     1      -7.104  13.073  67.332  1.00  0.00    -0.148 NA 
HETATM    3  O   UNL     1      -8.147  13.971  67.218  1.00  0.00    -0.183 OA 
HETATM    4  C   UNL     1      -9.260  13.329  66.761  1.00  0.00    -0.233 A  
HETATM    5  C   UNL     1      -8.964  11.988  66.550  1.00  0.00    -0.193 A  
ENDROOT
BRANCH   4   6
HETATM    6  C   UNL     1     -10.601  14.030  66.549  1.00  0.00    -0.279 C  
HETATM    7  C   UNL     1     -10.628  15.543  66.467  1.00  0.00    -0.307 C  
HETATM    8  C   UNL     1     -10.831  14.739  65.231  1.00  0.00    -0.395 C  
ENDBRANCH   4   6
BRANCH   5   9
HETATM    9  C   UNL     1      -9.877  10.977  66.032  1.00  0.00    -0.229 C  
HETATM   10  O   UNL     1     -10.644  11.245  65.117  1.00  0.00    -0.290 OA 
BRANCH   9  11
HETATM   11  C   UNL     1      -9.996   9.619  66.652  1.00  0.00    -0.301 A  
HETATM   12  C   UNL     1     -10.476   9.413  67.966  1.00  0.00    -0.228 A  
HETATM   13  C   UNL     1     -10.437   8.131  68.544  1.00  0.00    -0.199 A  
HETATM   14  C   UNL     1      -9.454   8.515  65.966  1.00  0.00    -0.256 A  
HETATM   15  C   UNL     1      -9.892   7.041  67.850  1.00  0.00    -0.161 A  
HETATM   16  F   UNL     1     -10.332   5.642  69.752  1.00  0.00    -0.245 F  
HETATM   17  F   UNL     1     -10.436   4.712  67.791  1.00  0.00    -0.137 F  
HETATM   18  F   UNL     1      -8.507   5.259  68.636  1.00  0.00    -0.090 F  
HETATM   19  C   UNL     1      -9.794   5.676  68.501  1.00  0.00    -0.143 C  
HETATM   20  C   UNL     1      -9.408   7.244  66.554  1.00  0.00    -0.216 A  
BRANCH  12  21
HETATM   21  S   UNL     1     -11.189  10.758  68.907  1.00  0.00    -0.290 S  
HETATM   22  C   UNL     1     -11.974  10.068  70.335  1.00  0.00    -0.236 C  
HETATM   23  O   UNL     1     -10.093  11.545  69.438  1.00  0.00     0.034 OA 
HETATM   24  O   UNL     1     -12.242  11.306  68.072  1.00  0.00    -0.621 OA 
ENDBRANCH  12  21
ENDBRANCH   9  11
ENDBRANCH   5   9
TORSDOF 4
ENDMDL
MODEL      158
REMARK 921   NORMALIZED FREE ENERGY PREDICTED BY IDOCK:   -4.21 KCAL/MOL
REMARK 922        TOTAL FREE ENERGY PREDICTED BY IDOCK:   -5.71 KCAL/MOL
REMARK 923 INTER-LIGAND FREE ENERGY PREDICTED BY IDOCK:   -6.26 KCAL/MOL
REMARK 924 INTRA-LIGAND FREE ENERGY PREDICTED BY IDOCK:    0.55 KCAL/MOL
REMARK 927      BINDING AFFINITY PREDICTED BY RF-SCORE:    0.00 PKD
ROOT
HETATM    1  C   UNL     1     -11.687  14.018  69.685  1.00  0.00    -0.311 A  
HETATM    2  N   UNL     1     -11.135  15.186  70.015  1.00  0.00    -0.261 NA 
HETATM    3  O   UNL     1     -10.077  15.347  69.142  1.00  0.00    -0.209 OA 
HETATM    4  C   UNL     1     -10.022  14.289  68.283  1.00  0.00    -0.239 A  
HETATM    5  C   UNL     1     -11.045  13.397  68.587  1.00  0.00    -0.295 A  
ENDROOT
BRANCH   4   6
HETATM    6  C   UNL     1      -8.982  14.168  67.171  1.00  0.00    -0.236 C  
HETATM    7  C   UNL     1      -8.309  15.427  66.663  1.00  0.00    -0.255 C  
HETATM    8  C   UNL     1      -7.539  14.476  67.512  1.00  0.00    -0.211 C  
ENDBRANCH   4   6
BRANCH   5   9
HETATM    9  C   UNL     1     -11.302  12.127  67.921  1.00  0.00    -0.300 C  
HETATM   10  O   UNL     1     -12.288  11.463  68.210  1.00  0.00    -0.506 OA 
BRANCH   9  11
HETATM   11  C   UNL     1     -10.335  11.528  66.946  1.00  0.00    -0.258 A  
HETATM   12  C   UNL     1     -10.477  11.656  65.545  1.00  0.00    -0.273 A  
HETATM   13  C   UNL     1      -9.617  10.959  64.677  1.00  0.00    -0.305 A  
HETATM   14  C   UNL     1      -9.337  10.662  67.433  1.00  0.00    -0.157 A  
HETATM   15  C   UNL     1      -8.628  10.098  65.175  1.00  0.00    -0.175 A  
HETATM   16  F   UNL     1      -7.991   9.567  62.922  1.00  0.00    -0.119 F  
HETATM   17  F   UNL     1      -6.424   9.544  64.428  1.00  0.00    -0.081 F  
HETATM   18  F   UNL     1      -7.915   7.959  64.383  1.00  0.00    -0.117 F  
HETATM   19  C   UNL     1      -7.747   9.300  64.235  1.00  0.00    -0.119 C  
HETATM   20  C   UNL     1      -8.492   9.963  66.560  1.00  0.00    -0.127 A  
BRANCH  12  21
HETATM   21  S   UNL     1     -11.713  12.741  64.841  1.00  0.00    -0.374 S  
HETATM   22  C   UNL     1     -12.487  11.886  63.497  1.00  0.00    -0.492 C  
HETATM   23  O   UNL     1     -12.766  12.898  65.826  1.00  0.00    -0.492 OA 
HETATM   24  O   UNL     1     -10.979  13.852  64.265  1.00  0.00    -0.347 OA 
ENDBRANCH  12  21
ENDBRANCH   9  11
ENDBRANCH   5   9
TORSDOF 4
ENDMDL
MODEL      159
REMARK 921   NORMALIZED FREE ENERGY PREDICTED BY IDOCK:   -4.20 KCAL/MOL
REMARK 922        TOTAL FREE ENERGY PREDICTED BY IDOCK:   -5.70 KCAL/MOL
REMARK 923 INTER-LIGAND FREE ENERGY PREDICTED BY IDOCK:   -5.50 KCAL/MOL
REMARK 924 INTRA-LIGAND FREE ENERGY PREDICTED BY IDOCK:   -0.20 KCAL/MOL
REMARK 927      BINDING AFFINITY PREDICTED BY RF-SCORE:    0.00 PKD
ROOT
HETATM    1  C   UNL     1      -7.364   9.183  68.615  1.00  0.00    -0.076 A  
HETATM    2  N   UNL     1      -6.184   8.587  68.442  1.00  0.00    -0.053 NA 
HETATM    3  O   UNL     1      -6.433   7.532  67.586  1.00  0.00    -0.053 OA 
HETATM    4  C   UNL     1      -7.751   7.524  67.235  1.00  0.00    -0.116 A  
HETATM    5  C   UNL     1      -8.402   8.574  67.870  1.00  0.00    -0.126 A  
ENDROOT
BRANCH   4   6
HETATM    6  C   UNL     1      -8.353   6.500  66.275  1.00  0.00    -0.124 C  
HETATM    7  C   UNL     1      -7.863   5.066  66.337  1.00  0.00    -0.099 C  
HETATM    8  C   UNL     1      -9.217   5.401  66.859  1.00  0.00    -0.121 C  
ENDBRANCH   4   6
BRANCH   5   9
HETATM    9  C   UNL     1      -9.824   8.883  67.780  1.00  0.00    -0.166 C  
HETATM   10  O   UNL     1     -10.652   8.153  68.308  1.00  0.00    -0.183 OA 
BRANCH   9  11
HETATM   11  C   UNL     1     -10.340  10.027  66.962  1.00  0.00    -0.305 A  
HETATM   12  C   UNL     1     -11.181  11.032  67.492  1.00  0.00    -0.302 A  
HETATM   13  C   UNL     1     -11.746  12.004  66.645  1.00  0.00    -0.331 A  
HETATM   14  C   UNL     1     -10.119  10.014  65.572  1.00  0.00    -0.325 A  
HETATM   15  C   UNL     1     -11.520  11.979  65.262  1.00  0.00    -0.358 A  
HETATM   16  F   UNL     1     -12.930  13.907  65.021  1.00  0.00    -0.402 F  
HETATM   17  F   UNL     1     -11.282  13.702  63.619  1.00  0.00    -0.267 F  
HETATM   18  F   UNL     1     -13.021  12.405  63.453  1.00  0.00    -0.484 F  
HETATM   19  C   UNL     1     -12.182  12.990  64.347  1.00  0.00    -0.406 C  
HETATM   20  C   UNL     1     -10.695  10.980  64.735  1.00  0.00    -0.304 A  
BRANCH  12  21
HETATM   21  S   UNL     1     -11.510  11.127  69.248  1.00  0.00    -0.325 S  
HETATM   22  C   UNL     1     -11.792  12.826  69.659  1.00  0.00    -0.317 C  
HETATM   23  O   UNL     1     -12.785  10.478  69.487  1.00  0.00    -0.174 OA 
HETATM   24  O   UNL     1     -10.274  10.737  69.900  1.00  0.00    -0.084 OA 
ENDBRANCH  12  21
ENDBRANCH   9  11
ENDBRANCH   5   9
TORSDOF 4
ENDMDL
MODEL      160
REMARK 921   NORMALIZED FREE ENERGY PREDICTED BY IDOCK:   -4.19 KCAL/MOL
REMARK 922        TOTAL FREE ENERGY PREDICTED BY IDOCK:   -5.69 KCAL/MOL
REMARK 923 INTER-LIGAND FREE ENERGY PREDICTED BY IDOCK:   -5.15 KCAL/MOL
REMARK 924 INTRA-LIGAND FREE ENERGY PREDICTED BY IDOCK:   -0.54 KCAL/MOL
REMARK 927      BINDING AFFINITY PREDICTED BY RF-SCORE:    0.00 PKD
ROOT
HETATM    1  C   UNL     1      -6.315  14.646  70.540  1.00  0.00    -0.109 A  
HETATM    2  N   UNL     1      -6.065  13.950  71.650  1.00  0.00    -0.216 NA 
HETATM    3  O   UNL     1      -5.823  12.660  71.222  1.00  0.00    -0.348 OA 
HETATM    4  C   UNL     1      -5.902  12.603  69.861  1.00  0.00    -0.133 A  
HETATM    5  C   UNL     1      -6.215  13.863  69.365  1.00  0.00    -0.106 A  
ENDROOT
BRANCH   4   6
HETATM    6  C   UNL     1      -5.658  11.323  69.063  1.00  0.00    -0.040 C  
HETATM    7  C   UNL     1      -5.129  10.102  69.788  1.00  0.00    -0.038 C  
HETATM    8  C   UNL     1      -6.550  10.131  69.343  1.00  0.00    -0.054 C  
ENDBRANCH   4   6
BRANCH   5   9
HETATM    9  C   UNL     1      -6.422  14.208  67.965  1.00  0.00    -0.149 C  
HETATM   10  O   UNL     1      -5.547  14.783  67.331  1.00  0.00    -0.341 OA 
BRANCH   9  11
HETATM   11  C   UNL     1      -7.731  13.978  67.273  1.00  0.00    -0.120 A  
HETATM   12  C   UNL     1      -8.648  15.017  66.999  1.00  0.00    -0.239 A  
HETATM   13  C   UNL     1      -9.920  14.723  66.472  1.00  0.00    -0.283 A  
HETATM   14  C   UNL     1      -8.143  12.652  67.035  1.00  0.00    -0.088 A  
HETATM   15  C   UNL     1     -10.319  13.398  66.242  1.00  0.00    -0.291 A  
HETATM   16  F   UNL     1     -12.454  14.198  65.489  1.00  0.00    -0.407 F  
HETATM   17  F   UNL     1     -11.696  12.379  64.573  1.00  0.00    -0.350 F  
HETATM   18  F   UNL     1     -12.428  12.343  66.622  1.00  0.00    -0.237 F  
HETATM   19  C   UNL     1     -11.711  13.083  65.735  1.00  0.00    -0.382 C  
HETATM   20  C   UNL     1      -9.416  12.368  66.522  1.00  0.00    -0.242 A  
BRANCH  12  21
HETATM   21  S   UNL     1      -8.204  16.731  67.264  1.00  0.00    -0.185 S  
HETATM   22  C   UNL     1      -9.629  17.723  66.918  1.00  0.00    -0.288 C  
HETATM   23  O   UNL     1      -7.975  16.905  68.685  1.00  0.00    -0.234 OA 
HETATM   24  O   UNL     1      -7.219  17.042  66.246  1.00  0.00    -0.270 OA 
ENDBRANCH  12  21
ENDBRANCH   9  11
ENDBRANCH   5   9
TORSDOF 4
ENDMDL
MODEL      161
REMARK 921   NORMALIZED FREE ENERGY PREDICTED BY IDOCK:   -4.16 KCAL/MOL
REMARK 922        TOTAL FREE ENERGY PREDICTED BY IDOCK:   -5.66 KCAL/MOL
REMARK 923 INTER-LIGAND FREE ENERGY PREDICTED BY IDOCK:   -5.03 KCAL/MOL
REMARK 924 INTRA-LIGAND FREE ENERGY PREDICTED BY IDOCK:   -0.62 KCAL/MOL
REMARK 927      BINDING AFFINITY PREDICTED BY RF-SCORE:    0.00 PKD
ROOT
HETATM    1  C   UNL     1      -9.525  12.790  66.907  1.00  0.00    -0.235 A  
HETATM    2  N   UNL     1      -9.890  13.700  67.811  1.00  0.00    -0.226 NA 
HETATM    3  O   UNL     1     -10.701  13.022  68.700  1.00  0.00    -0.247 OA 
HETATM    4  C   UNL     1     -10.791  11.711  68.335  1.00  0.00    -0.219 A  
HETATM    5  C   UNL     1     -10.046  11.502  67.181  1.00  0.00    -0.223 A  
ENDROOT
BRANCH   4   6
HETATM    6  C   UNL     1     -11.592  10.678  69.125  1.00  0.00    -0.342 C  
HETATM    7  C   UNL     1     -11.032  10.168  70.438  1.00  0.00    -0.386 C  
HETATM    8  C   UNL     1     -12.190  11.104  70.450  1.00  0.00    -0.457 C  
ENDBRANCH   4   6
BRANCH   5   9
HETATM    9  C   UNL     1      -9.917  10.244  66.458  1.00  0.00    -0.224 C  
HETATM   10  O   UNL     1      -9.987  10.221  65.236  1.00  0.00    -0.290 OA 
BRANCH   9  11
HETATM   11  C   UNL     1      -9.804   8.928  67.164  1.00  0.00    -0.267 A  
HETATM   12  C   UNL     1      -8.591   8.453  67.714  1.00  0.00    -0.130 A  
HETATM   13  C   UNL     1      -8.512   7.151  68.243  1.00  0.00    -0.124 A  
HETATM   14  C   UNL     1     -10.904   8.050  67.134  1.00  0.00    -0.150 A  
HETATM   15  C   UNL     1      -9.616   6.287  68.205  1.00  0.00    -0.119 A  
HETATM   16  F   UNL     1      -8.284   4.582  69.247  1.00  0.00    -0.068 F  
HETATM   17  F   UNL     1     -10.410   4.594  69.697  1.00  0.00    -0.310 F  
HETATM   18  F   UNL     1      -9.715   3.946  67.739  1.00  0.00    -0.217 F  
HETATM   19  C   UNL     1      -9.507   4.865  68.718  1.00  0.00    -0.145 C  
HETATM   20  C   UNL     1     -10.813   6.751  67.653  1.00  0.00    -0.361 A  
BRANCH  12  21
HETATM   21  S   UNL     1      -7.145   9.504  67.800  1.00  0.00    -0.081 S  
HETATM   22  C   UNL     1      -5.786   8.517  68.359  1.00  0.00    -0.041 C  
HETATM   23  O   UNL     1      -6.794   9.871  66.442  1.00  0.00    -0.084 OA 
HETATM   24  O   UNL     1      -7.423  10.468  68.847  1.00  0.00    -0.087 OA 
ENDBRANCH  12  21
ENDBRANCH   9  11
ENDBRANCH   5   9
TORSDOF 4
ENDMDL
MODEL      162
REMARK 921   NORMALIZED FREE ENERGY PREDICTED BY IDOCK:   -4.13 KCAL/MOL
REMARK 922        TOTAL FREE ENERGY PREDICTED BY IDOCK:   -5.61 KCAL/MOL
REMARK 923 INTER-LIGAND FREE ENERGY PREDICTED BY IDOCK:   -5.71 KCAL/MOL
REMARK 924 INTRA-LIGAND FREE ENERGY PREDICTED BY IDOCK:    0.10 KCAL/MOL
REMARK 927      BINDING AFFINITY PREDICTED BY RF-SCORE:    0.00 PKD
ROOT
HETATM    1  C   UNL     1      -9.314   9.116  67.949  1.00  0.00    -0.137 A  
HETATM    2  N   UNL     1      -8.466   8.213  67.457  1.00  0.00    -0.126 NA 
HETATM    3  O   UNL     1      -8.191   8.636  66.172  1.00  0.00    -0.113 OA 
HETATM    4  C   UNL     1      -8.855   9.800  65.918  1.00  0.00    -0.150 A  
HETATM    5  C   UNL     1      -9.596  10.160  67.037  1.00  0.00    -0.209 A  
ENDROOT
BRANCH   4   6
HETATM    6  C   UNL     1      -8.746  10.551  64.592  1.00  0.00    -0.193 C  
HETATM    7  C   UNL     1      -7.644  10.168  63.625  1.00  0.00    -0.139 C  
HETATM    8  C   UNL     1      -9.052   9.792  63.318  1.00  0.00    -0.267 C  
ENDBRANCH   4   6
BRANCH   5   9
HETATM    9  C   UNL     1     -10.469  11.322  67.151  1.00  0.00    -0.222 C  
HETATM   10  O   UNL     1     -11.684  11.186  67.166  1.00  0.00    -0.501 OA 
BRANCH   9  11
HETATM   11  C   UNL     1      -9.935  12.722  67.148  1.00  0.00    -0.218 A  
HETATM   12  C   UNL     1     -10.350  13.700  66.215  1.00  0.00    -0.293 A  
HETATM   13  C   UNL     1      -9.715  14.955  66.172  1.00  0.00    -0.333 A  
HETATM   14  C   UNL     1      -8.856  13.034  67.997  1.00  0.00    -0.191 A  
HETATM   15  C   UNL     1      -8.640  15.252  67.022  1.00  0.00    -0.256 A  
HETATM   16  F   UNL     1      -8.466  17.420  66.004  1.00  0.00    -0.285 F  
HETATM   17  F   UNL     1      -7.926  17.263  68.104  1.00  0.00    -0.195 F  
HETATM   18  F   UNL     1      -6.614  16.437  66.577  1.00  0.00    -0.218 F  
HETATM   19  C   UNL     1      -7.919  16.581  66.928  1.00  0.00    -0.225 C  
HETATM   20  C   UNL     1      -8.223  14.283  67.938  1.00  0.00    -0.156 A  
BRANCH  12  21
HETATM   21  S   UNL     1     -11.718  13.391  65.104  1.00  0.00    -0.339 S  
HETATM   22  C   UNL     1     -11.950  14.837  64.109  1.00  0.00    -0.259 C  
HETATM   23  O   UNL     1     -11.294  12.369  64.166  1.00  0.00    -0.327 OA 
HETATM   24  O   UNL     1     -12.891  13.270  65.949  1.00  0.00    -0.360 OA 
ENDBRANCH  12  21
ENDBRANCH   9  11
ENDBRANCH   5   9
TORSDOF 4
ENDMDL
MODEL      163
REMARK 921   NORMALIZED FREE ENERGY PREDICTED BY IDOCK:   -4.08 KCAL/MOL
REMARK 922        TOTAL FREE ENERGY PREDICTED BY IDOCK:   -5.55 KCAL/MOL
REMARK 923 INTER-LIGAND FREE ENERGY PREDICTED BY IDOCK:   -5.35 KCAL/MOL
REMARK 924 INTRA-LIGAND FREE ENERGY PREDICTED BY IDOCK:   -0.20 KCAL/MOL
REMARK 927      BINDING AFFINITY PREDICTED BY RF-SCORE:    0.00 PKD
ROOT
HETATM    1  C   UNL     1      -9.854  11.975  64.925  1.00  0.00    -0.175 A  
HETATM    2  N   UNL     1     -10.280  11.060  64.055  1.00  0.00    -0.332 NA 
HETATM    3  O   UNL     1     -10.115   9.847  64.695  1.00  0.00    -0.191 OA 
HETATM    4  C   UNL     1      -9.618  10.051  65.949  1.00  0.00    -0.224 A  
HETATM    5  C   UNL     1      -9.432  11.413  66.154  1.00  0.00    -0.237 A  
ENDROOT
BRANCH   4   6
HETATM    6  C   UNL     1      -9.344   8.916  66.934  1.00  0.00    -0.213 C  
HETATM    7  C   UNL     1     -10.439   8.508  67.900  1.00  0.00    -0.262 C  
HETATM    8  C   UNL     1     -10.105   7.619  66.753  1.00  0.00    -0.325 C  
ENDBRANCH   4   6
BRANCH   5   9
HETATM    9  C   UNL     1      -8.886  12.034  67.354  1.00  0.00    -0.178 C  
HETATM   10  O   UNL     1      -8.358  11.352  68.221  1.00  0.00    -0.138 OA 
BRANCH   9  11
HETATM   11  C   UNL     1      -9.035  13.499  67.630  1.00  0.00    -0.200 A  
HETATM   12  C   UNL     1     -10.171  14.048  68.268  1.00  0.00    -0.249 A  
HETATM   13  C   UNL     1     -10.319  15.443  68.378  1.00  0.00    -0.229 A  
HETATM   14  C   UNL     1      -8.088  14.387  67.086  1.00  0.00    -0.171 A  
HETATM   15  C   UNL     1      -9.369  16.317  67.830  1.00  0.00    -0.216 A  
HETATM   16  F   UNL     1     -10.690  18.180  68.573  1.00  0.00    -0.328 F  
HETATM   17  F   UNL     1      -8.535  18.453  68.514  1.00  0.00    -0.306 F  
HETATM   18  F   UNL     1      -9.675  18.379  66.661  1.00  0.00    -0.284 F  
HETATM   19  C   UNL     1      -9.565  17.819  67.895  1.00  0.00    -0.280 C  
HETATM   20  C   UNL     1      -8.250  15.776  67.191  1.00  0.00    -0.237 A  
BRANCH  12  21
HETATM   21  S   UNL     1     -11.420  12.992  68.994  1.00  0.00    -0.318 S  
HETATM   22  C   UNL     1     -12.525  14.016  69.925  1.00  0.00    -0.246 C  
HETATM   23  O   UNL     1     -12.232  12.472  67.911  1.00  0.00    -0.352 OA 
HETATM   24  O   UNL     1     -10.719  12.155  69.949  1.00  0.00     0.343 OA 
ENDBRANCH  12  21
ENDBRANCH   9  11
ENDBRANCH   5   9
TORSDOF 4
ENDMDL
MODEL      164
REMARK 921   NORMALIZED FREE ENERGY PREDICTED BY IDOCK:   -4.08 KCAL/MOL
REMARK 922        TOTAL FREE ENERGY PREDICTED BY IDOCK:   -5.55 KCAL/MOL
REMARK 923 INTER-LIGAND FREE ENERGY PREDICTED BY IDOCK:   -5.81 KCAL/MOL
REMARK 924 INTRA-LIGAND FREE ENERGY PREDICTED BY IDOCK:    0.26 KCAL/MOL
REMARK 927      BINDING AFFINITY PREDICTED BY RF-SCORE:    0.00 PKD
ROOT
HETATM    1  C   UNL     1     -10.638  16.709  65.667  1.00  0.00    -0.270 A  
HETATM    2  N   UNL     1     -11.364  16.769  64.551  1.00  0.00    -0.993 NA 
HETATM    3  O   UNL     1     -11.974  15.534  64.447  1.00  0.00    -0.370 OA 
HETATM    4  C   UNL     1     -11.630  14.759  65.515  1.00  0.00    -0.301 A  
HETATM    5  C   UNL     1     -10.768  15.470  66.341  1.00  0.00    -0.303 A  
ENDROOT
BRANCH   4   6
HETATM    6  C   UNL     1     -12.156  13.340  65.721  1.00  0.00    -0.491 C  
HETATM    7  C   UNL     1     -12.934  12.680  64.600  1.00  0.00    -0.225 C  
HETATM    8  C   UNL     1     -11.546  12.228  64.893  1.00  0.00    -0.395 C  
ENDBRANCH   4   6
BRANCH   5   9
HETATM    9  C   UNL     1     -10.148  14.977  67.564  1.00  0.00    -0.228 C  
HETATM   10  O   UNL     1      -9.591  15.749  68.332  1.00  0.00    -0.195 OA 
BRANCH   9  11
HETATM   11  C   UNL     1     -10.070  13.516  67.884  1.00  0.00    -0.248 A  
HETATM   12  C   UNL     1     -10.800  12.919  68.937  1.00  0.00    -0.200 A  
HETATM   13  C   UNL     1     -10.583  11.571  69.278  1.00  0.00    -0.120 A  
HETATM   14  C   UNL     1      -9.106  12.732  67.221  1.00  0.00    -0.200 A  
HETATM   15  C   UNL     1      -9.618  10.803  68.612  1.00  0.00    -0.187 A  
HETATM   16  F   UNL     1     -10.156   8.942  70.030  1.00  0.00    -0.176 F  
HETATM   17  F   UNL     1      -9.512   8.491  68.003  1.00  0.00    -0.138 F  
HETATM   18  F   UNL     1      -8.071   9.198  69.472  1.00  0.00    -0.091 F  
HETATM   19  C   UNL     1      -9.343   9.371  69.025  1.00  0.00    -0.153 C  
HETATM   20  C   UNL     1      -8.888  11.394  67.576  1.00  0.00    -0.146 A  
BRANCH  12  21
HETATM   21  S   UNL     1     -12.050  13.840  69.828  1.00  0.00    -0.325 S  
HETATM   22  C   UNL     1     -11.247  14.732  71.129  1.00  0.00    -0.049 C  
HETATM   23  O   UNL     1     -12.550  14.868  68.936  1.00  0.00     0.057 OA 
HETATM   24  O   UNL     1     -12.894  12.844  70.460  1.00  0.00    -0.063 OA 
ENDBRANCH  12  21
ENDBRANCH   9  11
ENDBRANCH   5   9
TORSDOF 4
ENDMDL
MODEL      165
REMARK 921   NORMALIZED FREE ENERGY PREDICTED BY IDOCK:   -4.07 KCAL/MOL
REMARK 922        TOTAL FREE ENERGY PREDICTED BY IDOCK:   -5.55 KCAL/MOL
REMARK 923 INTER-LIGAND FREE ENERGY PREDICTED BY IDOCK:   -5.71 KCAL/MOL
REMARK 924 INTRA-LIGAND FREE ENERGY PREDICTED BY IDOCK:    0.16 KCAL/MOL
REMARK 927      BINDING AFFINITY PREDICTED BY RF-SCORE:    0.00 PKD
ROOT
HETATM    1  C   UNL     1     -12.619  13.095  65.516  1.00  0.00    -0.408 A  
HETATM    2  N   UNL     1     -13.057  12.727  64.312  1.00  0.00    -0.600 NA 
HETATM    3  O   UNL     1     -11.940  12.266  63.645  1.00  0.00    -0.458 OA 
HETATM    4  C   UNL     1     -10.852  12.337  64.464  1.00  0.00    -0.315 A  
HETATM    5  C   UNL     1     -11.234  12.864  65.692  1.00  0.00    -0.325 A  
ENDROOT
BRANCH   4   6
HETATM    6  C   UNL     1      -9.457  11.878  64.042  1.00  0.00     0.024 C  
HETATM    7  C   UNL     1      -9.125  10.400  64.106  1.00  0.00    -0.272 C  
HETATM    8  C   UNL     1      -9.334  11.047  62.781  1.00  0.00    -0.372 C  
ENDBRANCH   4   6
BRANCH   5   9
HETATM    9  C   UNL     1     -10.355  13.130  66.823  1.00  0.00    -0.252 C  
HETATM   10  O   UNL     1     -10.361  12.395  67.801  1.00  0.00    -0.209 OA 
BRANCH   9  11
HETATM   11  C   UNL     1      -9.494  14.354  66.892  1.00  0.00    -0.268 A  
HETATM   12  C   UNL     1      -8.152  14.327  67.336  1.00  0.00    -0.196 A  
HETATM   13  C   UNL     1      -7.436  15.525  67.510  1.00  0.00    -0.209 A  
HETATM   14  C   UNL     1     -10.090  15.610  66.665  1.00  0.00    -0.280 A  
HETATM   15  C   UNL     1      -8.042  16.770  67.283  1.00  0.00    -0.201 A  
HETATM   16  F   UNL     1      -5.998  17.854  67.924  1.00  0.00    -0.148 F  
HETATM   17  F   UNL     1      -7.223  18.848  66.429  1.00  0.00    -0.211 F  
HETATM   18  F   UNL     1      -7.859  18.812  68.509  1.00  0.00    -0.306 F  
HETATM   19  C   UNL     1      -7.287  18.059  67.533  1.00  0.00    -0.206 C  
HETATM   20  C   UNL     1      -9.372  16.799  66.852  1.00  0.00    -0.250 A  
BRANCH  12  21
HETATM   21  S   UNL     1      -7.315  12.774  67.641  1.00  0.00    -0.156 S  
HETATM   22  C   UNL     1      -5.576  13.098  67.715  1.00  0.00    -0.119 C  
HETATM   23  O   UNL     1      -7.664  12.349  68.982  1.00  0.00     0.010 OA 
HETATM   24  O   UNL     1      -7.542  11.968  66.456  1.00  0.00     0.022 OA 
ENDBRANCH  12  21
ENDBRANCH   9  11
ENDBRANCH   5   9
TORSDOF 4
ENDMDL
MODEL      166
REMARK 921   NORMALIZED FREE ENERGY PREDICTED BY IDOCK:   -4.07 KCAL/MOL
REMARK 922        TOTAL FREE ENERGY PREDICTED BY IDOCK:   -5.54 KCAL/MOL
REMARK 923 INTER-LIGAND FREE ENERGY PREDICTED BY IDOCK:   -5.28 KCAL/MOL
REMARK 924 INTRA-LIGAND FREE ENERGY PREDICTED BY IDOCK:   -0.26 KCAL/MOL
REMARK 927      BINDING AFFINITY PREDICTED BY RF-SCORE:    0.00 PKD
ROOT
HETATM    1  C   UNL     1      -9.025   9.332  66.999  1.00  0.00    -0.126 A  
HETATM    2  N   UNL     1      -9.220   8.773  65.805  1.00  0.00    -0.219 NA 
HETATM    3  O   UNL     1      -9.961   9.694  65.090  1.00  0.00    -0.263 OA 
HETATM    4  C   UNL     1     -10.177  10.804  65.853  1.00  0.00    -0.259 A  
HETATM    5  C   UNL     1      -9.590  10.626  67.100  1.00  0.00    -0.189 A  
ENDROOT
BRANCH   4   6
HETATM    6  C   UNL     1     -10.942  12.027  65.351  1.00  0.00    -0.347 C  
HETATM    7  C   UNL     1     -10.197  13.074  64.548  1.00  0.00    -0.331 C  
HETATM    8  C   UNL     1     -11.155  12.167  63.858  1.00  0.00    -0.470 C  
ENDBRANCH   4   6
BRANCH   5   9
HETATM    9  C   UNL     1      -9.630  11.569  68.210  1.00  0.00    -0.189 C  
HETATM   10  O   UNL     1     -10.237  11.295  69.236  1.00  0.00    -0.154 OA 
BRANCH   9  11
HETATM   11  C   UNL     1      -9.032  12.939  68.113  1.00  0.00    -0.202 A  
HETATM   12  C   UNL     1      -9.792  14.122  68.267  1.00  0.00    -0.235 A  
HETATM   13  C   UNL     1      -9.206  15.379  68.029  1.00  0.00    -0.184 A  
HETATM   14  C   UNL     1      -7.697  13.063  67.685  1.00  0.00    -0.161 A  
HETATM   15  C   UNL     1      -7.875  15.488  67.601  1.00  0.00    -0.174 A  
HETATM   16  F   UNL     1      -8.122  17.875  67.519  1.00  0.00    -0.215 F  
HETATM   17  F   UNL     1      -6.156  17.097  68.021  1.00  0.00    -0.122 F  
HETATM   18  F   UNL     1      -6.899  16.947  65.981  1.00  0.00    -0.234 F  
HETATM   19  C   UNL     1      -7.268  16.840  67.284  1.00  0.00    -0.172 C  
HETATM   20  C   UNL     1      -7.125  14.319  67.439  1.00  0.00    -0.109 A  
BRANCH  12  21
HETATM   21  S   UNL     1     -11.494  14.057  68.815  1.00  0.00    -0.315 S  
HETATM   22  C   UNL     1     -12.116  15.714  68.857  1.00  0.00    -0.161 C  
HETATM   23  O   UNL     1     -12.262  13.407  67.771  1.00  0.00    -0.291 OA 
HETATM   24  O   UNL     1     -11.447  13.591  70.188  1.00  0.00    -0.162 OA 
ENDBRANCH  12  21
ENDBRANCH   9  11
ENDBRANCH   5   9
TORSDOF 4
ENDMDL
MODEL      167
REMARK 921   NORMALIZED FREE ENERGY PREDICTED BY IDOCK:   -4.07 KCAL/MOL
REMARK 922        TOTAL FREE ENERGY PREDICTED BY IDOCK:   -5.54 KCAL/MOL
REMARK 923 INTER-LIGAND FREE ENERGY PREDICTED BY IDOCK:   -6.04 KCAL/MOL
REMARK 924 INTRA-LIGAND FREE ENERGY PREDICTED BY IDOCK:    0.50 KCAL/MOL
REMARK 927      BINDING AFFINITY PREDICTED BY RF-SCORE:    0.00 PKD
ROOT
HETATM    1  C   UNL     1      -8.149  10.750  66.038  1.00  0.00    -0.158 A  
HETATM    2  N   UNL     1      -6.907  10.442  66.413  1.00  0.00    -0.105 NA 
HETATM    3  O   UNL     1      -7.028   9.947  67.697  1.00  0.00    -0.084 OA 
HETATM    4  C   UNL     1      -8.341   9.938  68.065  1.00  0.00    -0.113 A  
HETATM    5  C   UNL     1      -9.114  10.445  67.028  1.00  0.00    -0.153 A  
ENDROOT
BRANCH   4   6
HETATM    6  C   UNL     1      -8.825   9.424  69.420  1.00  0.00    -0.159 C  
HETATM    7  C   UNL     1      -9.121   7.945  69.575  1.00  0.00    -0.149 C  
HETATM    8  C   UNL     1      -7.900   8.519  70.207  1.00  0.00    -0.090 C  
ENDBRANCH   4   6
BRANCH   5   9
HETATM    9  C   UNL     1     -10.559  10.633  67.045  1.00  0.00    -0.262 C  
HETATM   10  O   UNL     1     -11.269  10.057  66.232  1.00  0.00     0.355 OA 
BRANCH   9  11
HETATM   11  C   UNL     1     -11.225  11.604  67.971  1.00  0.00    -0.327 A  
HETATM   12  C   UNL     1     -11.502  12.943  67.611  1.00  0.00    -0.334 A  
HETATM   13  C   UNL     1     -12.002  13.847  68.566  1.00  0.00    -0.394 A  
HETATM   14  C   UNL     1     -11.434  11.223  69.310  1.00  0.00    -0.369 A  
HETATM   15  C   UNL     1     -12.204  13.455  69.897  1.00  0.00    -0.337 A  
HETATM   16  F   UNL     1     -12.934  15.683  70.416  1.00  0.00    -0.454 F  
HETATM   17  F   UNL     1     -13.833  14.056  71.543  1.00  0.00    -0.399 F  
HETATM   18  F   UNL     1     -11.772  14.639  71.927  1.00  0.00    -0.396 F  
HETATM   19  C   UNL     1     -12.682  14.449  70.936  1.00  0.00    -0.355 C  
HETATM   20  C   UNL     1     -11.922  12.134  70.257  1.00  0.00    -0.389 A  
BRANCH  12  21
HETATM   21  S   UNL     1     -11.273  13.510  65.929  1.00  0.00    -0.303 S  
HETATM   22  C   UNL     1     -12.376  12.595  64.890  1.00  0.00    -0.498 C  
HETATM   23  O   UNL     1     -11.757  14.875  65.861  1.00  0.00    -0.296 OA 
HETATM   24  O   UNL     1      -9.926  13.115  65.562  1.00  0.00    -0.272 OA 
ENDBRANCH  12  21
ENDBRANCH   9  11
ENDBRANCH   5   9
TORSDOF 4
ENDMDL
MODEL      168
REMARK 921   NORMALIZED FREE ENERGY PREDICTED BY IDOCK:   -4.03 KCAL/MOL
REMARK 922        TOTAL FREE ENERGY PREDICTED BY IDOCK:   -5.49 KCAL/MOL
REMARK 923 INTER-LIGAND FREE ENERGY PREDICTED BY IDOCK:   -5.33 KCAL/MOL
REMARK 924 INTRA-LIGAND FREE ENERGY PREDICTED BY IDOCK:   -0.17 KCAL/MOL
REMARK 927      BINDING AFFINITY PREDICTED BY RF-SCORE:    0.00 PKD
ROOT
HETATM    1  C   UNL     1      -6.495  14.519  69.346  1.00  0.00    -0.132 A  
HETATM    2  N   UNL     1      -6.137  14.534  70.630  1.00  0.00    -0.186 NA 
HETATM    3  O   UNL     1      -6.096  13.206  71.010  1.00  0.00    -0.202 OA 
HETATM    4  C   UNL     1      -6.402  12.412  69.945  1.00  0.00    -0.048 A  
HETATM    5  C   UNL     1      -6.667  13.209  68.837  1.00  0.00    -0.099 A  
ENDROOT
BRANCH   4   6
HETATM    6  C   UNL     1      -6.420  10.886  70.018  1.00  0.00    -0.151 C  
HETATM    7  C   UNL     1      -5.262  10.113  69.420  1.00  0.00    -0.038 C  
HETATM    8  C   UNL     1      -5.394  10.206  70.900  1.00  0.00    -0.072 C  
ENDBRANCH   4   6
BRANCH   5   9
HETATM    9  C   UNL     1      -7.066  12.740  67.517  1.00  0.00    -0.148 C  
HETATM   10  O   UNL     1      -6.234  12.287  66.742  1.00  0.00    -0.185 OA 
BRANCH   9  11
HETATM   11  C   UNL     1      -8.468  12.885  67.010  1.00  0.00    -0.146 A  
HETATM   12  C   UNL     1      -9.301  11.778  66.728  1.00  0.00    -0.194 A  
HETATM   13  C   UNL     1     -10.558  11.971  66.125  1.00  0.00    -0.298 A  
HETATM   14  C   UNL     1      -8.921  14.165  66.640  1.00  0.00    -0.193 A  
HETATM   15  C   UNL     1     -10.997  13.251  65.759  1.00  0.00    -0.284 A  
HETATM   16  F   UNL     1     -13.015  12.285  64.889  1.00  0.00    -0.514 F  
HETATM   17  F   UNL     1     -13.153  14.286  65.725  1.00  0.00    -0.529 F  
HETATM   18  F   UNL     1     -12.173  13.972  63.808  1.00  0.00    -0.501 F  
HETATM   19  C   UNL     1     -12.323  13.447  65.053  1.00  0.00    -0.436 C  
HETATM   20  C   UNL     1     -10.170  14.346  66.030  1.00  0.00    -0.328 A  
BRANCH  12  21
HETATM   21  S   UNL     1      -8.807  10.116  67.171  1.00  0.00    -0.131 S  
HETATM   22  C   UNL     1      -9.976   8.992  66.462  1.00  0.00    -0.285 C  
HETATM   23  O   UNL     1      -7.564   9.833  66.479  1.00  0.00    -0.097 OA 
HETATM   24  O   UNL     1      -8.963  10.032  68.611  1.00  0.00    -0.127 OA 
ENDBRANCH  12  21
ENDBRANCH   9  11
ENDBRANCH   5   9
TORSDOF 4
ENDMDL
MODEL      169
REMARK 921   NORMALIZED FREE ENERGY PREDICTED BY IDOCK:   -4.01 KCAL/MOL
REMARK 922        TOTAL FREE ENERGY PREDICTED BY IDOCK:   -5.46 KCAL/MOL
REMARK 923 INTER-LIGAND FREE ENERGY PREDICTED BY IDOCK:   -5.46 KCAL/MOL
REMARK 924 INTRA-LIGAND FREE ENERGY PREDICTED BY IDOCK:   -0.00 KCAL/MOL
REMARK 927      BINDING AFFINITY PREDICTED BY RF-SCORE:    0.00 PKD
ROOT
HETATM    1  C   UNL     1      -9.794  15.326  66.797  1.00  0.00    -0.236 A  
HETATM    2  N   UNL     1     -10.661  16.028  66.066  1.00  0.00    -0.328 NA 
HETATM    3  O   UNL     1     -11.048  15.178  65.048  1.00  0.00    -0.375 OA 
HETATM    4  C   UNL     1     -10.431  13.970  65.196  1.00  0.00    -0.397 A  
HETATM    5  C   UNL     1      -9.608  14.008  66.315  1.00  0.00    -0.284 A  
ENDROOT
BRANCH   4   6
HETATM    6  C   UNL     1     -10.662  12.793  64.251  1.00  0.00    -0.419 C  
HETATM    7  C   UNL     1     -11.943  11.993  64.382  1.00  0.00    -0.385 C  
HETATM    8  C   UNL     1     -11.769  12.913  63.224  1.00  0.00    -0.408 C  
ENDBRANCH   4   6
BRANCH   5   9
HETATM    9  C   UNL     1      -8.753  12.928  66.790  1.00  0.00    -0.106 C  
HETATM   10  O   UNL     1      -7.635  13.167  67.224  1.00  0.00    -0.152 OA 
BRANCH   9  11
HETATM   11  C   UNL     1      -9.151  11.488  66.673  1.00  0.00    -0.193 A  
HETATM   12  C   UNL     1     -10.230  10.928  67.395  1.00  0.00    -0.201 A  
HETATM   13  C   UNL     1     -10.471   9.542  67.351  1.00  0.00    -0.336 A  
HETATM   14  C   UNL     1      -8.317  10.616  65.947  1.00  0.00    -0.161 A  
HETATM   15  C   UNL     1      -9.631   8.684  66.625  1.00  0.00    -0.285 A  
HETATM   16  F   UNL     1     -10.957   6.817  67.346  1.00  0.00    -0.309 F  
HETATM   17  F   UNL     1     -10.032   6.679  65.384  1.00  0.00     0.479 F  
HETATM   18  F   UNL     1      -8.812   6.509  67.178  1.00  0.00    -0.111 F  
HETATM   19  C   UNL     1      -9.857   7.186  66.633  1.00  0.00    -0.169 C  
HETATM   20  C   UNL     1      -8.558   9.236  65.919  1.00  0.00    -0.163 A  
BRANCH  12  21
HETATM   21  S   UNL     1     -11.344  11.963  68.338  1.00  0.00    -0.303 S  
HETATM   22  C   UNL     1     -12.268  10.919  69.427  1.00  0.00    -0.222 C  
HETATM   23  O   UNL     1     -10.534  12.783  69.218  1.00  0.00     0.034 OA 
HETATM   24  O   UNL     1     -12.285  12.505  67.376  1.00  0.00    -0.430 OA 
ENDBRANCH  12  21
ENDBRANCH   9  11
ENDBRANCH   5   9
TORSDOF 4
ENDMDL
MODEL      170
REMARK 921   NORMALIZED FREE ENERGY PREDICTED BY IDOCK:   -3.99 KCAL/MOL
REMARK 922        TOTAL FREE ENERGY PREDICTED BY IDOCK:   -5.44 KCAL/MOL
REMARK 923 INTER-LIGAND FREE ENERGY PREDICTED BY IDOCK:   -6.14 KCAL/MOL
REMARK 924 INTRA-LIGAND FREE ENERGY PREDICTED BY IDOCK:    0.70 KCAL/MOL
REMARK 927      BINDING AFFINITY PREDICTED BY RF-SCORE:    0.00 PKD
ROOT
HETATM    1  C   UNL     1     -11.980  11.477  70.398  1.00  0.00    -0.368 A  
HETATM    2  N   UNL     1     -13.019  11.369  71.227  1.00  0.00    -0.368 NA 
HETATM    3  O   UNL     1     -12.925  10.100  71.764  1.00  0.00    -0.400 OA 
HETATM    4  C   UNL     1     -11.817   9.473  71.274  1.00  0.00    -0.373 A  
HETATM    5  C   UNL     1     -11.164  10.320  70.386  1.00  0.00    -0.407 A  
ENDROOT
BRANCH   4   6
HETATM    6  C   UNL     1     -11.405   8.062  71.688  1.00  0.00    -0.306 C  
HETATM    7  C   UNL     1     -12.396   7.206  72.451  1.00  0.00    -0.031 C  
HETATM    8  C   UNL     1     -12.104   6.894  71.024  1.00  0.00    -0.429 C  
ENDBRANCH   4   6
BRANCH   5   9
HETATM    9  C   UNL     1      -9.961  10.006  69.626  1.00  0.00    -0.236 C  
HETATM   10  O   UNL     1      -8.903   9.789  70.202  1.00  0.00    -0.218 OA 
BRANCH   9  11
HETATM   11  C   UNL     1      -9.934  10.038  68.129  1.00  0.00    -0.176 A  
HETATM   12  C   UNL     1      -9.788   8.876  67.338  1.00  0.00    -0.193 A  
HETATM   13  C   UNL     1      -9.631   8.980  65.943  1.00  0.00    -0.317 A  
HETATM   14  C   UNL     1      -9.882  11.288  67.483  1.00  0.00    -0.195 A  
HETATM   15  C   UNL     1      -9.578  10.232  65.313  1.00  0.00    -0.324 A  
HETATM   16  F   UNL     1      -9.262   9.128  63.204  1.00  0.00    -0.200 F  
HETATM   17  F   UNL     1     -10.339  11.016  63.185  1.00  0.00    -0.362 F  
HETATM   18  F   UNL     1      -8.189  10.992  63.524  1.00  0.00    -0.059 F  
HETATM   19  C   UNL     1      -9.345  10.341  63.820  1.00  0.00    -0.295 C  
HETATM   20  C   UNL     1      -9.713  11.382  66.095  1.00  0.00    -0.248 A  
BRANCH  12  21
HETATM   21  S   UNL     1      -9.850   7.246  68.075  1.00  0.00    -0.150 S  
HETATM   22  C   UNL     1      -8.691   6.217  67.221  1.00  0.00    -0.108 C  
HETATM   23  O   UNL     1      -9.317   7.357  69.419  1.00  0.00    -0.155 OA 
HETATM   24  O   UNL     1     -11.172   6.730  67.775  1.00  0.00    -0.226 OA 
ENDBRANCH  12  21
ENDBRANCH   9  11
ENDBRANCH   5   9
TORSDOF 4
ENDMDL
MODEL      171
REMARK 921   NORMALIZED FREE ENERGY PREDICTED BY IDOCK:   -3.98 KCAL/MOL
REMARK 922        TOTAL FREE ENERGY PREDICTED BY IDOCK:   -5.43 KCAL/MOL
REMARK 923 INTER-LIGAND FREE ENERGY PREDICTED BY IDOCK:   -4.87 KCAL/MOL
REMARK 924 INTRA-LIGAND FREE ENERGY PREDICTED BY IDOCK:   -0.56 KCAL/MOL
REMARK 927      BINDING AFFINITY PREDICTED BY RF-SCORE:    0.00 PKD
ROOT
HETATM    1  C   UNL     1      -7.796   7.531  67.444  1.00  0.00    -0.118 A  
HETATM    2  N   UNL     1      -7.408   7.115  66.238  1.00  0.00    -0.074 NA 
HETATM    3  O   UNL     1      -8.133   7.877  65.342  1.00  0.00    -0.115 OA 
HETATM    4  C   UNL     1      -8.924   8.757  66.019  1.00  0.00    -0.192 A  
HETATM    5  C   UNL     1      -8.744   8.580  67.386  1.00  0.00    -0.136 A  
ENDROOT
BRANCH   4   6
HETATM    6  C   UNL     1      -9.834   9.768  65.324  1.00  0.00    -0.335 C  
HETATM    7  C   UNL     1      -9.243  11.084  64.859  1.00  0.00    -0.210 C  
HETATM    8  C   UNL     1      -9.597  10.044  63.854  1.00  0.00    -0.217 C  
ENDBRANCH   4   6
BRANCH   5   9
HETATM    9  C   UNL     1      -9.436   9.305  68.444  1.00  0.00    -0.138 C  
HETATM   10  O   UNL     1      -9.739   8.741  69.487  1.00  0.00    -0.168 OA 
BRANCH   9  11
HETATM   11  C   UNL     1      -9.898  10.719  68.270  1.00  0.00    -0.177 A  
HETATM   12  C   UNL     1      -9.049  11.834  68.459  1.00  0.00    -0.144 A  
HETATM   13  C   UNL     1      -9.571  13.140  68.417  1.00  0.00    -0.186 A  
HETATM   14  C   UNL     1     -11.271  10.960  68.076  1.00  0.00    -0.378 A  
HETATM   15  C   UNL     1     -10.942  13.366  68.225  1.00  0.00    -0.282 A  
HETATM   16  F   UNL     1     -10.552  15.728  68.401  1.00  0.00    -0.236 F  
HETATM   17  F   UNL     1     -12.167  15.083  67.097  1.00  0.00    -0.276 F  
HETATM   18  F   UNL     1     -12.395  14.956  69.257  1.00  0.00    -0.310 F  
HETATM   19  C   UNL     1     -11.508  14.771  68.244  1.00  0.00    -0.317 C  
HETATM   20  C   UNL     1     -11.784  12.264  68.047  1.00  0.00    -0.417 A  
BRANCH  12  21
HETATM   21  S   UNL     1      -7.289  11.620  68.705  1.00  0.00    -0.114 S  
HETATM   22  C   UNL     1      -6.608  13.188  69.164  1.00  0.00    -0.104 C  
HETATM   23  O   UNL     1      -7.113  10.788  69.880  1.00  0.00    -0.151 OA 
HETATM   24  O   UNL     1      -6.748  11.292  67.399  1.00  0.00    -0.072 OA 
ENDBRANCH  12  21
ENDBRANCH   9  11
ENDBRANCH   5   9
TORSDOF 4
ENDMDL
MODEL      172
REMARK 921   NORMALIZED FREE ENERGY PREDICTED BY IDOCK:   -3.97 KCAL/MOL
REMARK 922        TOTAL FREE ENERGY PREDICTED BY IDOCK:   -5.42 KCAL/MOL
REMARK 923 INTER-LIGAND FREE ENERGY PREDICTED BY IDOCK:   -5.83 KCAL/MOL
REMARK 924 INTRA-LIGAND FREE ENERGY PREDICTED BY IDOCK:    0.41 KCAL/MOL
REMARK 927      BINDING AFFINITY PREDICTED BY RF-SCORE:    0.00 PKD
ROOT
HETATM    1  C   UNL     1      -9.731  13.675  68.101  1.00  0.00    -0.229 A  
HETATM    2  N   UNL     1     -10.537  14.630  67.639  1.00  0.00    -0.254 NA 
HETATM    3  O   UNL     1     -11.172  14.072  66.546  1.00  0.00    -0.309 OA 
HETATM    4  C   UNL     1     -10.761  12.782  66.383  1.00  0.00    -0.262 A  
HETATM    5  C   UNL     1      -9.828  12.469  67.365  1.00  0.00    -0.201 A  
ENDROOT
BRANCH   4   6
HETATM    6  C   UNL     1     -11.292  11.870  65.280  1.00  0.00    -0.333 C  
HETATM    7  C   UNL     1     -11.897  12.499  64.041  1.00  0.00    -0.510 C  
HETATM    8  C   UNL     1     -10.558  11.854  63.956  1.00  0.00    -0.422 C  
ENDBRANCH   4   6
BRANCH   5   9
HETATM    9  C   UNL     1      -9.127  11.200  67.510  1.00  0.00    -0.146 C  
HETATM   10  O   UNL     1      -8.121  10.969  66.853  1.00  0.00    -0.130 OA 
BRANCH   9  11
HETATM   11  C   UNL     1      -9.652  10.094  68.373  1.00  0.00    -0.150 A  
HETATM   12  C   UNL     1      -9.698   8.746  67.950  1.00  0.00    -0.157 A  
HETATM   13  C   UNL     1     -10.327   7.772  68.748  1.00  0.00    -0.219 A  
HETATM   14  C   UNL     1     -10.279  10.428  69.588  1.00  0.00    -0.245 A  
HETATM   15  C   UNL     1     -10.951   8.119  69.955  1.00  0.00    -0.199 A  
HETATM   16  F   UNL     1     -11.600   5.826  70.249  1.00  0.00    -0.345 F  
HETATM   17  F   UNL     1     -11.198   6.981  72.045  1.00  0.00    -0.244 F  
HETATM   18  F   UNL     1     -13.008   7.350  70.895  1.00  0.00    -0.320 F  
HETATM   19  C   UNL     1     -11.682   7.078  70.779  1.00  0.00    -0.349 C  
HETATM   20  C   UNL     1     -10.914   9.453  70.370  1.00  0.00    -0.317 A  
BRANCH  12  21
HETATM   21  S   UNL     1      -8.919   8.232  66.423  1.00  0.00    -0.176 S  
HETATM   22  C   UNL     1      -9.270   6.514  66.183  1.00  0.00    -0.096 C  
HETATM   23  O   UNL     1      -9.610   8.900  65.337  1.00  0.00    -0.135 OA 
HETATM   24  O   UNL     1      -7.491   8.341  66.655  1.00  0.00    -0.083 OA 
ENDBRANCH  12  21
ENDBRANCH   9  11
ENDBRANCH   5   9
TORSDOF 4
ENDMDL
MODEL      173
REMARK 921   NORMALIZED FREE ENERGY PREDICTED BY IDOCK:   -3.97 KCAL/MOL
REMARK 922        TOTAL FREE ENERGY PREDICTED BY IDOCK:   -5.41 KCAL/MOL
REMARK 923 INTER-LIGAND FREE ENERGY PREDICTED BY IDOCK:   -5.12 KCAL/MOL
REMARK 924 INTRA-LIGAND FREE ENERGY PREDICTED BY IDOCK:   -0.29 KCAL/MOL
REMARK 927      BINDING AFFINITY PREDICTED BY RF-SCORE:    0.00 PKD
ROOT
HETATM    1  C   UNL     1      -7.241   8.373  69.014  1.00  0.00    -0.070 A  
HETATM    2  N   UNL     1      -6.121   8.896  69.515  1.00  0.00    -0.036 NA 
HETATM    3  O   UNL     1      -5.674   9.783  68.555  1.00  0.00    -0.039 OA 
HETATM    4  C   UNL     1      -6.544   9.802  67.504  1.00  0.00    -0.069 A  
HETATM    5  C   UNL     1      -7.581   8.910  67.749  1.00  0.00    -0.093 A  
ENDROOT
BRANCH   4   6
HETATM    6  C   UNL     1      -6.357  10.700  66.283  1.00  0.00    -0.119 C  
HETATM    7  C   UNL     1      -5.186  11.662  66.256  1.00  0.00     0.060 C  
HETATM    8  C   UNL     1      -5.158  10.449  65.393  1.00  0.00    -0.088 C  
ENDBRANCH   4   6
BRANCH   5   9
HETATM    9  C   UNL     1      -8.690   8.616  66.851  1.00  0.00    -0.124 C  
HETATM   10  O   UNL     1      -8.935   7.462  66.525  1.00  0.00    -0.145 OA 
BRANCH   9  11
HETATM   11  C   UNL     1      -9.504   9.697  66.209  1.00  0.00    -0.255 A  
HETATM   12  C   UNL     1     -10.355  10.556  66.941  1.00  0.00    -0.239 A  
HETATM   13  C   UNL     1     -11.198  11.461  66.271  1.00  0.00    -0.228 A  
HETATM   14  C   UNL     1      -9.554   9.758  64.803  1.00  0.00    -0.284 A  
HETATM   15  C   UNL     1     -11.241  11.510  64.870  1.00  0.00    -0.242 A  
HETATM   16  F   UNL     1     -12.918  13.223  65.005  1.00  0.00    -0.461 F  
HETATM   17  F   UNL     1     -11.558  13.296  63.311  1.00  0.00    -0.451 F  
HETATM   18  F   UNL     1     -13.106  11.769  63.400  1.00  0.00    -0.657 F  
HETATM   19  C   UNL     1     -12.196  12.442  64.153  1.00  0.00    -0.468 C  
HETATM   20  C   UNL     1     -10.406  10.655  64.144  1.00  0.00    -0.293 A  
BRANCH  12  21
HETATM   21  S   UNL     1     -10.350  10.551  68.731  1.00  0.00    -0.204 S  
HETATM   22  C   UNL     1     -11.766  11.458  69.283  1.00  0.00    -0.337 C  
HETATM   23  O   UNL     1     -10.598   9.189  69.162  1.00  0.00    -0.223 OA 
HETATM   24  O   UNL     1      -9.182  11.318  69.121  1.00  0.00    -0.053 OA 
ENDBRANCH  12  21
ENDBRANCH   9  11
ENDBRANCH   5   9
TORSDOF 4
ENDMDL
MODEL      174
REMARK 921   NORMALIZED FREE ENERGY PREDICTED BY IDOCK:   -3.95 KCAL/MOL
REMARK 922        TOTAL FREE ENERGY PREDICTED BY IDOCK:   -5.40 KCAL/MOL
REMARK 923 INTER-LIGAND FREE ENERGY PREDICTED BY IDOCK:   -5.04 KCAL/MOL
REMARK 924 INTRA-LIGAND FREE ENERGY PREDICTED BY IDOCK:   -0.36 KCAL/MOL
REMARK 927      BINDING AFFINITY PREDICTED BY RF-SCORE:    0.00 PKD
ROOT
HETATM    1  C   UNL     1      -9.378   4.619  69.165  1.00  0.00    -0.142 A  
HETATM    2  N   UNL     1      -9.571   3.827  68.110  1.00  0.00    -0.150 NA 
HETATM    3  O   UNL     1      -9.029   4.512  67.039  1.00  0.00    -0.111 OA 
HETATM    4  C   UNL     1      -8.495   5.691  67.469  1.00  0.00    -0.102 A  
HETATM    5  C   UNL     1      -8.689   5.812  68.840  1.00  0.00    -0.111 A  
ENDROOT
BRANCH   4   6
HETATM    6  C   UNL     1      -7.792   6.677  66.539  1.00  0.00    -0.104 C  
HETATM    7  C   UNL     1      -6.733   6.155  65.587  1.00  0.00    -0.048 C  
HETATM    8  C   UNL     1      -8.061   6.567  65.052  1.00  0.00    -0.127 C  
ENDBRANCH   4   6
BRANCH   5   9
HETATM    9  C   UNL     1      -8.294   6.945  69.667  1.00  0.00    -0.133 C  
HETATM   10  O   UNL     1      -7.140   7.054  70.059  1.00  0.00    -0.067 OA 
BRANCH   9  11
HETATM   11  C   UNL     1      -9.284   7.955  70.160  1.00  0.00    -0.153 A  
HETATM   12  C   UNL     1      -9.824   7.928  71.466  1.00  0.00    -0.165 A  
HETATM   13  C   UNL     1     -10.852   8.818  71.828  1.00  0.00    -0.416 A  
HETATM   14  C   UNL     1      -9.829   8.869  69.238  1.00  0.00    -0.176 A  
HETATM   15  C   UNL     1     -11.387   9.723  70.900  1.00  0.00    -0.439 A  
HETATM   16  F   UNL     1     -12.913  10.507  72.580  1.00  0.00    -0.415 F  
HETATM   17  F   UNL     1     -12.239  11.949  71.100  1.00  0.00    -0.420 F  
HETATM   18  F   UNL     1     -13.652  10.392  70.539  1.00  0.00    -0.337 F  
HETATM   19  C   UNL     1     -12.536  10.635  71.277  1.00  0.00    -0.427 C  
HETATM   20  C   UNL     1     -10.860   9.744  69.605  1.00  0.00    -0.274 A  
BRANCH  12  21
HETATM   21  S   UNL     1      -9.186   6.803  72.703  1.00  0.00    -0.138 S  
HETATM   22  C   UNL     1     -10.326   6.778  74.057  1.00  0.00    -0.347 C  
HETATM   23  O   UNL     1      -9.251   5.465  72.148  1.00  0.00    -0.142 OA 
HETATM   24  O   UNL     1      -7.964   7.412  73.194  1.00  0.00    -0.097 OA 
ENDBRANCH  12  21
ENDBRANCH   9  11
ENDBRANCH   5   9
TORSDOF 4
ENDMDL
MODEL      175
REMARK 921   NORMALIZED FREE ENERGY PREDICTED BY IDOCK:   -3.94 KCAL/MOL
REMARK 922        TOTAL FREE ENERGY PREDICTED BY IDOCK:   -5.38 KCAL/MOL
REMARK 923 INTER-LIGAND FREE ENERGY PREDICTED BY IDOCK:   -5.57 KCAL/MOL
REMARK 924 INTRA-LIGAND FREE ENERGY PREDICTED BY IDOCK:    0.20 KCAL/MOL
REMARK 927      BINDING AFFINITY PREDICTED BY RF-SCORE:    0.00 PKD
ROOT
HETATM    1  C   UNL     1     -11.939  11.631  70.319  1.00  0.00    -0.358 A  
HETATM    2  N   UNL     1     -12.871  11.457  71.256  1.00  0.00    -0.407 NA 
HETATM    3  O   UNL     1     -12.663  10.182  71.743  1.00  0.00    -0.396 OA 
HETATM    4  C   UNL     1     -11.593   9.617  71.113  1.00  0.00    -0.381 A  
HETATM    5  C   UNL     1     -11.082  10.513  70.182  1.00  0.00    -0.369 A  
ENDROOT
BRANCH   4   6
HETATM    6  C   UNL     1     -11.077   8.217  71.437  1.00  0.00    -0.291 C  
HETATM    7  C   UNL     1     -10.964   7.799  72.890  1.00  0.00    -0.467 C  
HETATM    8  C   UNL     1     -12.047   7.224  72.044  1.00  0.00    -0.327 C  
ENDBRANCH   4   6
BRANCH   5   9
HETATM    9  C   UNL     1      -9.961  10.271  69.282  1.00  0.00    -0.227 C  
HETATM   10  O   UNL     1      -9.251  11.196  68.913  1.00  0.00    -0.169 OA 
BRANCH   9  11
HETATM   11  C   UNL     1      -9.693   8.922  68.689  1.00  0.00    -0.169 A  
HETATM   12  C   UNL     1      -8.512   8.189  68.950  1.00  0.00    -0.130 A  
HETATM   13  C   UNL     1      -8.252   6.991  68.259  1.00  0.00    -0.124 A  
HETATM   14  C   UNL     1     -10.569   8.433  67.702  1.00  0.00    -0.265 A  
HETATM   15  C   UNL     1      -9.132   6.517  67.276  1.00  0.00    -0.117 A  
HETATM   16  F   UNL     1      -7.661   4.659  66.890  1.00  0.00    -0.086 F  
HETATM   17  F   UNL     1      -9.788   4.317  66.601  1.00  0.00    -0.188 F  
HETATM   18  F   UNL     1      -8.671   5.506  65.161  1.00  0.00    -0.146 F  
HETATM   19  C   UNL     1      -8.816   5.260  66.490  1.00  0.00    -0.116 C  
HETATM   20  C   UNL     1     -10.296   7.245  67.010  1.00  0.00    -0.376 A  
BRANCH  12  21
HETATM   21  S   UNL     1      -7.347   8.733  70.195  1.00  0.00    -0.061 S  
HETATM   22  C   UNL     1      -6.382  10.045  69.501  1.00  0.00    -0.049 C  
HETATM   23  O   UNL     1      -8.108   9.362  71.257  1.00  0.00    -0.319 OA 
HETATM   24  O   UNL     1      -6.446   7.615  70.404  1.00  0.00    -0.037 OA 
ENDBRANCH  12  21
ENDBRANCH   9  11
ENDBRANCH   5   9
TORSDOF 4
ENDMDL
MODEL      176
REMARK 921   NORMALIZED FREE ENERGY PREDICTED BY IDOCK:   -3.94 KCAL/MOL
REMARK 922        TOTAL FREE ENERGY PREDICTED BY IDOCK:   -5.38 KCAL/MOL
REMARK 923 INTER-LIGAND FREE ENERGY PREDICTED BY IDOCK:   -5.96 KCAL/MOL
REMARK 924 INTRA-LIGAND FREE ENERGY PREDICTED BY IDOCK:    0.58 KCAL/MOL
REMARK 927      BINDING AFFINITY PREDICTED BY RF-SCORE:    0.00 PKD
ROOT
HETATM    1  C   UNL     1     -11.579  15.116  69.261  1.00  0.00    -0.324 A  
HETATM    2  N   UNL     1     -12.288  14.651  70.290  1.00  0.00    -0.334 NA 
HETATM    3  O   UNL     1     -12.263  13.277  70.157  1.00  0.00    -0.334 OA 
HETATM    4  C   UNL     1     -11.517  12.933  69.068  1.00  0.00    -0.308 A  
HETATM    5  C   UNL     1     -11.045  14.085  68.451  1.00  0.00    -0.275 A  
ENDROOT
BRANCH   4   6
HETATM    6  C   UNL     1     -11.264  11.485  68.653  1.00  0.00    -0.307 C  
HETATM    7  C   UNL     1     -10.391  10.615  69.536  1.00  0.00    -0.214 C  
HETATM    8  C   UNL     1     -11.862  10.386  69.507  1.00  0.00    -0.218 C  
ENDBRANCH   4   6
BRANCH   5   9
HETATM    9  C   UNL     1     -10.240  14.141  67.237  1.00  0.00    -0.256 C  
HETATM   10  O   UNL     1     -10.122  15.191  66.619  1.00  0.00    -0.252 OA 
BRANCH   9  11
HETATM   11  C   UNL     1      -9.618  12.918  66.637  1.00  0.00    -0.257 A  
HETATM   12  C   UNL     1     -10.256  12.141  65.642  1.00  0.00    -0.256 A  
HETATM   13  C   UNL     1      -9.686  10.928  65.215  1.00  0.00    -0.296 A  
HETATM   14  C   UNL     1      -8.427  12.423  67.200  1.00  0.00    -0.185 A  
HETATM   15  C   UNL     1      -8.500  10.445  65.785  1.00  0.00    -0.170 A  
HETATM   16  F   UNL     1      -8.640   8.506  64.376  1.00  0.00    -0.176 F  
HETATM   17  F   UNL     1      -6.652   9.210  64.901  1.00  0.00    -0.067 F  
HETATM   18  F   UNL     1      -7.885   8.217  66.394  1.00  0.00    -0.089 F  
HETATM   19  C   UNL     1      -7.924   9.107  65.367  1.00  0.00    -0.106 C  
HETATM   20  C   UNL     1      -7.873  11.207  66.775  1.00  0.00    -0.153 A  
BRANCH  12  21
HETATM   21  S   UNL     1     -11.769  12.699  64.867  1.00  0.00    -0.373 S  
HETATM   22  C   UNL     1     -11.471  14.302  64.179  1.00  0.00    -0.130 C  
HETATM   23  O   UNL     1     -12.008  11.848  63.718  1.00  0.00    -0.441 OA 
HETATM   24  O   UNL     1     -12.721  12.877  65.948  1.00  0.00    -0.437 OA 
ENDBRANCH  12  21
ENDBRANCH   9  11
ENDBRANCH   5   9
TORSDOF 4
ENDMDL
MODEL      177
REMARK 921   NORMALIZED FREE ENERGY PREDICTED BY IDOCK:   -3.90 KCAL/MOL
REMARK 922        TOTAL FREE ENERGY PREDICTED BY IDOCK:   -5.33 KCAL/MOL
REMARK 923 INTER-LIGAND FREE ENERGY PREDICTED BY IDOCK:   -5.00 KCAL/MOL
REMARK 924 INTRA-LIGAND FREE ENERGY PREDICTED BY IDOCK:   -0.33 KCAL/MOL
REMARK 927      BINDING AFFINITY PREDICTED BY RF-SCORE:    0.00 PKD
ROOT
HETATM    1  C   UNL     1      -6.149  14.830  69.194  1.00  0.00    -0.102 A  
HETATM    2  N   UNL     1      -6.420  14.473  70.449  1.00  0.00    -0.164 NA 
HETATM    3  O   UNL     1      -7.744  14.813  70.645  1.00  0.00     0.737 OA 
HETATM    4  C   UNL     1      -8.258  15.343  69.499  1.00  0.00    -0.207 A  
HETATM    5  C   UNL     1      -7.270  15.375  68.523  1.00  0.00    -0.114 A  
ENDROOT
BRANCH   4   6
HETATM    6  C   UNL     1      -9.710  15.799  69.367  1.00  0.00    -0.286 C  
HETATM    7  C   UNL     1     -10.781  14.758  69.109  1.00  0.00    -0.258 C  
HETATM    8  C   UNL     1     -10.684  15.391  70.453  1.00  0.00    -0.312 C  
ENDBRANCH   4   6
BRANCH   5   9
HETATM    9  C   UNL     1      -7.413  15.902  67.171  1.00  0.00    -0.227 C  
HETATM   10  O   UNL     1      -6.572  16.662  66.709  1.00  0.00    -0.200 OA 
BRANCH   9  11
HETATM   11  C   UNL     1      -8.627  15.633  66.336  1.00  0.00    -0.319 A  
HETATM   12  C   UNL     1      -9.591  16.623  66.040  1.00  0.00    -0.266 A  
HETATM   13  C   UNL     1     -10.779  16.280  65.367  1.00  0.00    -0.342 A  
HETATM   14  C   UNL     1      -8.910  14.303  65.969  1.00  0.00     0.443 A  
HETATM   15  C   UNL     1     -11.050  14.951  65.010  1.00  0.00    -0.422 A  
HETATM   16  F   UNL     1     -13.157  15.652  64.098  1.00  0.00     0.017 F  
HETATM   17  F   UNL     1     -12.176  13.964  63.144  1.00  0.00    -0.452 F  
HETATM   18  F   UNL     1     -13.098  13.724  65.101  1.00  0.00    -0.425 F  
HETATM   19  C   UNL     1     -12.358  14.577  64.343  1.00  0.00    -0.413 C  
HETATM   20  C   UNL     1     -10.101  13.969  65.311  1.00  0.00    -0.345 A  
BRANCH  12  21
HETATM   21  S   UNL     1      -9.309  18.339  66.463  1.00  0.00    -0.283 S  
HETATM   22  C   UNL     1     -10.753  19.256  66.009  1.00  0.00    -0.386 C  
HETATM   23  O   UNL     1      -9.261  18.427  67.909  1.00  0.00    -0.273 OA 
HETATM   24  O   UNL     1      -8.237  18.786  65.594  1.00  0.00    -0.397 OA 
ENDBRANCH  12  21
ENDBRANCH   9  11
ENDBRANCH   5   9
TORSDOF 4
ENDMDL
MODEL      178
REMARK 921   NORMALIZED FREE ENERGY PREDICTED BY IDOCK:   -3.89 KCAL/MOL
REMARK 922        TOTAL FREE ENERGY PREDICTED BY IDOCK:   -5.32 KCAL/MOL
REMARK 923 INTER-LIGAND FREE ENERGY PREDICTED BY IDOCK:   -4.64 KCAL/MOL
REMARK 924 INTRA-LIGAND FREE ENERGY PREDICTED BY IDOCK:   -0.67 KCAL/MOL
REMARK 927      BINDING AFFINITY PREDICTED BY RF-SCORE:    0.00 PKD
ROOT
HETATM    1  C   UNL     1     -10.752   9.719  67.240  1.00  0.00    -0.227 A  
HETATM    2  N   UNL     1     -10.318  10.741  66.502  1.00  0.00    -0.238 NA 
HETATM    3  O   UNL     1      -9.418  10.189  65.612  1.00  0.00    -0.187 OA 
HETATM    4  C   UNL     1      -9.344   8.841  65.807  1.00  0.00    -0.191 A  
HETATM    5  C   UNL     1     -10.190   8.480  66.849  1.00  0.00    -0.375 A  
ENDROOT
BRANCH   4   6
HETATM    6  C   UNL     1      -8.458   7.923  64.968  1.00  0.00    -0.072 C  
HETATM    7  C   UNL     1      -8.052   8.372  63.578  1.00  0.00    -0.143 C  
HETATM    8  C   UNL     1      -7.043   8.376  64.673  1.00  0.00    -0.080 C  
ENDBRANCH   4   6
BRANCH   5   9
HETATM    9  C   UNL     1     -10.368   7.137  67.385  1.00  0.00    -0.254 C  
HETATM   10  O   UNL     1     -10.686   6.212  66.650  1.00  0.00    -0.273 OA 
BRANCH   9  11
HETATM   11  C   UNL     1     -10.277   6.847  68.852  1.00  0.00    -0.184 A  
HETATM   12  C   UNL     1      -9.082   6.425  69.479  1.00  0.00    -0.138 A  
HETATM   13  C   UNL     1      -9.089   6.035  70.831  1.00  0.00    -0.161 A  
HETATM   14  C   UNL     1     -11.463   6.830  69.610  1.00  0.00    -0.286 A  
HETATM   15  C   UNL     1     -10.278   6.021  71.575  1.00  0.00    -0.249 A  
HETATM   16  F   UNL     1      -9.054   5.203  73.471  1.00  0.00    -0.123 F  
HETATM   17  F   UNL     1     -10.769   6.477  73.871  1.00  0.00    -0.293 F  
HETATM   18  F   UNL     1     -11.066   4.436  73.179  1.00  0.00    -0.270 F  
HETATM   19  C   UNL     1     -10.291   5.539  73.011  1.00  0.00    -0.202 C  
HETATM   20  C   UNL     1     -11.462   6.429  70.953  1.00  0.00    -0.406 A  
BRANCH  12  21
HETATM   21  S   UNL     1      -7.528   6.422  68.592  1.00  0.00    -0.089 S  
HETATM   22  C   UNL     1      -6.326   5.602  69.601  1.00  0.00    -0.037 C  
HETATM   23  O   UNL     1      -7.687   5.556  67.440  1.00  0.00    -0.097 OA 
HETATM   24  O   UNL     1      -7.124   7.812  68.504  1.00  0.00    -0.069 OA 
ENDBRANCH  12  21
ENDBRANCH   9  11
ENDBRANCH   5   9
TORSDOF 4
ENDMDL
MODEL      179
REMARK 921   NORMALIZED FREE ENERGY PREDICTED BY IDOCK:   -3.89 KCAL/MOL
REMARK 922        TOTAL FREE ENERGY PREDICTED BY IDOCK:   -5.32 KCAL/MOL
REMARK 923 INTER-LIGAND FREE ENERGY PREDICTED BY IDOCK:   -5.28 KCAL/MOL
REMARK 924 INTRA-LIGAND FREE ENERGY PREDICTED BY IDOCK:   -0.03 KCAL/MOL
REMARK 927      BINDING AFFINITY PREDICTED BY RF-SCORE:    0.00 PKD
ROOT
HETATM    1  C   UNL     1      -6.190  14.739  70.097  1.00  0.00    -0.166 A  
HETATM    2  N   UNL     1      -5.907  15.827  70.813  1.00  0.00     0.035 NA 
HETATM    3  O   UNL     1      -6.077  16.887  69.945  1.00  0.00    -0.225 OA 
HETATM    4  C   UNL     1      -6.486  16.426  68.728  1.00  0.00    -0.142 A  
HETATM    5  C   UNL     1      -6.580  15.040  68.770  1.00  0.00    -0.094 A  
ENDROOT
BRANCH   4   6
HETATM    6  C   UNL     1      -6.792  17.344  67.547  1.00  0.00    -0.173 C  
HETATM    7  C   UNL     1      -6.536  18.831  67.693  1.00  0.00    -0.209 C  
HETATM    8  C   UNL     1      -5.627  18.011  66.845  1.00  0.00    -0.164 C  
ENDBRANCH   4   6
BRANCH   5   9
HETATM    9  C   UNL     1      -6.950  14.170  67.660  1.00  0.00    -0.184 C  
HETATM   10  O   UNL     1      -6.090  13.584  67.018  1.00  0.00    -0.113 OA 
BRANCH   9  11
HETATM   11  C   UNL     1      -8.366  14.038  67.191  1.00  0.00    -0.174 A  
HETATM   12  C   UNL     1      -9.009  12.789  67.030  1.00  0.00    -0.221 A  
HETATM   13  C   UNL     1     -10.292  12.719  66.456  1.00  0.00    -0.262 A  
HETATM   14  C   UNL     1      -9.033  15.189  66.730  1.00  0.00    -0.293 A  
HETATM   15  C   UNL     1     -10.944  13.873  65.999  1.00  0.00    -0.285 A  
HETATM   16  F   UNL     1     -12.790  12.515  65.281  1.00  0.00    -0.518 F  
HETATM   17  F   UNL     1     -13.243  14.533  65.950  1.00  0.00    -0.351 F  
HETATM   18  F   UNL     1     -12.260  14.215  64.034  1.00  0.00    -0.476 F  
HETATM   19  C   UNL     1     -12.298  13.784  65.323  1.00  0.00    -0.464 C  
HETATM   20  C   UNL     1     -10.306  15.107  66.148  1.00  0.00    -0.313 A  
BRANCH  12  21
HETATM   21  S   UNL     1      -8.237  11.277  67.596  1.00  0.00    -0.124 S  
HETATM   22  C   UNL     1      -9.427   9.973  67.459  1.00  0.00    -0.148 C  
HETATM   23  O   UNL     1      -7.206  10.931  66.636  1.00  0.00    -0.124 OA 
HETATM   24  O   UNL     1      -7.986  11.470  69.011  1.00  0.00    -0.094 OA 
ENDBRANCH  12  21
ENDBRANCH   9  11
ENDBRANCH   5   9
TORSDOF 4
ENDMDL
MODEL      180
REMARK 921   NORMALIZED FREE ENERGY PREDICTED BY IDOCK:   -3.87 KCAL/MOL
REMARK 922        TOTAL FREE ENERGY PREDICTED BY IDOCK:   -5.29 KCAL/MOL
REMARK 923 INTER-LIGAND FREE ENERGY PREDICTED BY IDOCK:   -4.59 KCAL/MOL
REMARK 924 INTRA-LIGAND FREE ENERGY PREDICTED BY IDOCK:   -0.70 KCAL/MOL
REMARK 927      BINDING AFFINITY PREDICTED BY RF-SCORE:    0.00 PKD
ROOT
HETATM    1  C   UNL     1      -9.702  10.035  66.910  1.00  0.00    -0.189 A  
HETATM    2  N   UNL     1      -9.766  11.303  67.317  1.00  0.00    -0.173 NA 
HETATM    3  O   UNL     1     -10.533  11.277  68.466  1.00  0.00    -0.181 OA 
HETATM    4  C   UNL     1     -10.895   9.993  68.749  1.00  0.00    -0.219 A  
HETATM    5  C   UNL     1     -10.381   9.144  67.776  1.00  0.00    -0.302 A  
ENDROOT
BRANCH   4   6
HETATM    6  C   UNL     1     -11.726   9.610  69.972  1.00  0.00    -0.074 C  
HETATM    7  C   UNL     1     -11.047   9.547  71.325  1.00  0.00    -0.449 C  
HETATM    8  C   UNL     1     -11.975  10.672  71.023  1.00  0.00    -0.442 C  
ENDBRANCH   4   6
BRANCH   5   9
HETATM    9  C   UNL     1     -10.576   7.702  67.703  1.00  0.00    -0.224 C  
HETATM   10  O   UNL     1     -11.121   7.198  66.730  1.00  0.00    -0.254 OA 
BRANCH   9  11
HETATM   11  C   UNL     1     -10.225   6.793  68.840  1.00  0.00    -0.186 A  
HETATM   12  C   UNL     1      -8.924   6.278  69.039  1.00  0.00    -0.123 A  
HETATM   13  C   UNL     1      -8.684   5.320  70.042  1.00  0.00    -0.128 A  
HETATM   14  C   UNL     1     -11.264   6.294  69.649  1.00  0.00    -0.506 A  
HETATM   15  C   UNL     1      -9.728   4.830  70.839  1.00  0.00    -0.260 A  
HETATM   16  F   UNL     1      -8.164   3.395  71.962  1.00  0.00    -0.063 F  
HETATM   17  F   UNL     1      -9.843   4.136  73.126  1.00  0.00    -0.137 F  
HETATM   18  F   UNL     1     -10.160   2.610  71.607  1.00  0.00    -0.232 F  
HETATM   19  C   UNL     1      -9.476   3.753  71.875  1.00  0.00    -0.141 C  
HETATM   20  C   UNL     1     -11.017   5.332  70.638  1.00  0.00     0.006 A  
BRANCH  12  21
HETATM   21  S   UNL     1      -7.543   6.862  68.061  1.00  0.00    -0.109 S  
HETATM   22  C   UNL     1      -6.136   5.861  68.452  1.00  0.00    -0.021 C  
HETATM   23  O   UNL     1      -7.834   6.555  66.674  1.00  0.00    -0.101 OA 
HETATM   24  O   UNL     1      -7.256   8.198  68.547  1.00  0.00    -0.084 OA 
ENDBRANCH  12  21
ENDBRANCH   9  11
ENDBRANCH   5   9
TORSDOF 4
ENDMDL
MODEL      181
REMARK 921   NORMALIZED FREE ENERGY PREDICTED BY IDOCK:   -3.84 KCAL/MOL
REMARK 922        TOTAL FREE ENERGY PREDICTED BY IDOCK:   -5.26 KCAL/MOL
REMARK 923 INTER-LIGAND FREE ENERGY PREDICTED BY IDOCK:   -4.55 KCAL/MOL
REMARK 924 INTRA-LIGAND FREE ENERGY PREDICTED BY IDOCK:   -0.71 KCAL/MOL
REMARK 927      BINDING AFFINITY PREDICTED BY RF-SCORE:    0.00 PKD
ROOT
HETATM    1  C   UNL     1      -9.300   8.106  66.400  1.00  0.00    -0.210 A  
HETATM    2  N   UNL     1      -8.397   8.629  65.570  1.00  0.00    -0.140 NA 
HETATM    3  O   UNL     1      -7.857   7.551  64.896  1.00  0.00    -0.114 OA 
HETATM    4  C   UNL     1      -8.461   6.400  65.309  1.00  0.00    -0.098 A  
HETATM    5  C   UNL     1      -9.408   6.700  66.281  1.00  0.00    -0.144 A  
ENDROOT
BRANCH   4   6
HETATM    6  C   UNL     1      -8.115   5.025  64.740  1.00  0.00    -0.113 C  
HETATM    7  C   UNL     1      -8.852   4.539  63.507  1.00  0.00    -0.139 C  
HETATM    8  C   UNL     1      -7.430   4.967  63.390  1.00  0.00    -0.055 C  
ENDBRANCH   4   6
BRANCH   5   9
HETATM    9  C   UNL     1     -10.239   5.740  66.995  1.00  0.00    -0.213 C  
HETATM   10  O   UNL     1     -10.971   4.975  66.381  1.00  0.00    -0.177 OA 
BRANCH   9  11
HETATM   11  C   UNL     1     -10.321   5.715  68.491  1.00  0.00    -0.265 A  
HETATM   12  C   UNL     1      -9.577   4.813  69.286  1.00  0.00    -0.173 A  
HETATM   13  C   UNL     1      -9.797   4.741  70.674  1.00  0.00    -0.292 A  
HETATM   14  C   UNL     1     -11.299   6.504  69.125  1.00  0.00    -0.330 A  
HETATM   15  C   UNL     1     -10.776   5.532  71.293  1.00  0.00    -0.288 A  
HETATM   16  F   UNL     1     -10.226   4.519  73.400  1.00  0.00    -0.163 F  
HETATM   17  F   UNL     1     -10.903   6.584  73.438  1.00  0.00    -0.249 F  
HETATM   18  F   UNL     1     -12.318   4.981  73.033  1.00  0.00    -0.332 F  
HETATM   19  C   UNL     1     -11.052   5.405  72.778  1.00  0.00    -0.294 C  
HETATM   20  C   UNL     1     -11.519   6.418  70.507  1.00  0.00    -0.444 A  
BRANCH  12  21
HETATM   21  S   UNL     1      -8.309   3.778  68.563  1.00  0.00    -0.080 S  
HETATM   22  C   UNL     1      -7.679   2.719  69.834  1.00  0.00    -0.043 C  
HETATM   23  O   UNL     1      -8.961   2.878  67.631  1.00  0.00    -0.126 OA 
HETATM   24  O   UNL     1      -7.233   4.677  68.193  1.00  0.00    -0.063 OA 
ENDBRANCH  12  21
ENDBRANCH   9  11
ENDBRANCH   5   9
TORSDOF 4
ENDMDL
MODEL      182
REMARK 921   NORMALIZED FREE ENERGY PREDICTED BY IDOCK:   -3.81 KCAL/MOL
REMARK 922        TOTAL FREE ENERGY PREDICTED BY IDOCK:   -5.22 KCAL/MOL
REMARK 923 INTER-LIGAND FREE ENERGY PREDICTED BY IDOCK:   -4.83 KCAL/MOL
REMARK 924 INTRA-LIGAND FREE ENERGY PREDICTED BY IDOCK:   -0.39 KCAL/MOL
REMARK 927      BINDING AFFINITY PREDICTED BY RF-SCORE:    0.00 PKD
ROOT
HETATM    1  C   UNL     1      -6.227  10.144  70.924  1.00  0.00    -0.027 A  
HETATM    2  N   UNL     1      -5.554  11.295  70.926  1.00  0.00    -0.280 NA 
HETATM    3  O   UNL     1      -6.090  12.029  69.886  1.00  0.00    -0.131 OA 
HETATM    4  C   UNL     1      -7.094  11.323  69.292  1.00  0.00    -0.112 A  
HETATM    5  C   UNL     1      -7.229  10.094  69.926  1.00  0.00    -0.155 A  
ENDROOT
BRANCH   4   6
HETATM    6  C   UNL     1      -7.915  11.863  68.122  1.00  0.00    -0.151 C  
HETATM    7  C   UNL     1      -9.266  12.489  68.407  1.00  0.00    -0.139 C  
HETATM    8  C   UNL     1      -8.119  13.361  68.028  1.00  0.00    -0.160 C  
ENDBRANCH   4   6
BRANCH   5   9
HETATM    9  C   UNL     1      -8.168   9.040  69.563  1.00  0.00    -0.114 C  
HETATM   10  O   UNL     1      -7.969   8.344  68.577  1.00  0.00    -0.117 OA 
BRANCH   9  11
HETATM   11  C   UNL     1      -9.453   8.829  70.303  1.00  0.00    -0.194 A  
HETATM   12  C   UNL     1      -9.869   7.564  70.776  1.00  0.00    -0.178 A  
HETATM   13  C   UNL     1     -11.148   7.401  71.342  1.00  0.00    -0.263 A  
HETATM   14  C   UNL     1     -10.365   9.899  70.387  1.00  0.00    -0.322 A  
HETATM   15  C   UNL     1     -12.047   8.475  71.417  1.00  0.00    -0.345 A  
HETATM   16  F   UNL     1     -13.671   7.012  72.411  1.00  0.00    -0.096 F  
HETATM   17  F   UNL     1     -13.709   9.098  73.021  1.00  0.00    -0.456 F  
HETATM   18  F   UNL     1     -14.406   8.529  71.039  1.00  0.00    -0.369 F  
HETATM   19  C   UNL     1     -13.445   8.280  71.968  1.00  0.00    -0.311 C  
HETATM   20  C   UNL     1     -11.641   9.725  70.941  1.00  0.00    -0.441 A  
BRANCH  12  21
HETATM   21  S   UNL     1      -8.772   6.151  70.716  1.00  0.00    -0.136 S  
HETATM   22  C   UNL     1      -9.388   4.934  71.844  1.00  0.00    -0.142 C  
HETATM   23  O   UNL     1      -8.918   5.543  69.408  1.00  0.00    -0.105 OA 
HETATM   24  O   UNL     1      -7.505   6.616  71.250  1.00  0.00    -0.082 OA 
ENDBRANCH  12  21
ENDBRANCH   9  11
ENDBRANCH   5   9
TORSDOF 4
ENDMDL
MODEL      183
REMARK 921   NORMALIZED FREE ENERGY PREDICTED BY IDOCK:   -3.81 KCAL/MOL
REMARK 922        TOTAL FREE ENERGY PREDICTED BY IDOCK:   -5.22 KCAL/MOL
REMARK 923 INTER-LIGAND FREE ENERGY PREDICTED BY IDOCK:   -5.41 KCAL/MOL
REMARK 924 INTRA-LIGAND FREE ENERGY PREDICTED BY IDOCK:    0.20 KCAL/MOL
REMARK 927      BINDING AFFINITY PREDICTED BY RF-SCORE:    0.00 PKD
ROOT
HETATM    1  C   UNL     1     -12.221  13.573  64.647  1.00  0.00    -0.406 A  
HETATM    2  N   UNL     1     -12.655  13.089  63.483  1.00  0.00    -0.734 NA 
HETATM    3  O   UNL     1     -11.616  12.315  63.003  1.00  0.00    -0.257 OA 
HETATM    4  C   UNL     1     -10.585  12.322  63.895  1.00  0.00    -0.427 A  
HETATM    5  C   UNL     1     -10.923  13.119  64.983  1.00  0.00    -0.322 A  
ENDROOT
BRANCH   4   6
HETATM    6  C   UNL     1      -9.290  11.541  63.682  1.00  0.00    -0.110 C  
HETATM    7  C   UNL     1      -9.348  10.026  63.654  1.00  0.00    -0.301 C  
HETATM    8  C   UNL     1      -9.129  10.774  62.385  1.00  0.00    -0.332 C  
ENDBRANCH   4   6
BRANCH   5   9
HETATM    9  C   UNL     1     -10.075  13.409  66.132  1.00  0.00    -0.302 C  
HETATM   10  O   UNL     1      -9.865  14.566  66.472  1.00  0.00    -0.262 OA 
BRANCH   9  11
HETATM   11  C   UNL     1      -9.344  12.333  66.874  1.00  0.00    -0.210 A  
HETATM   12  C   UNL     1      -9.908  11.635  67.967  1.00  0.00    -0.190 A  
HETATM   13  C   UNL     1      -9.127  10.732  68.713  1.00  0.00    -0.180 A  
HETATM   14  C   UNL     1      -7.983  12.119  66.584  1.00  0.00     0.055 A  
HETATM   15  C   UNL     1      -7.772  10.530  68.415  1.00  0.00    -0.104 A  
HETATM   16  F   UNL     1      -7.624   8.987  70.248  1.00  0.00    -0.055 F  
HETATM   17  F   UNL     1      -6.347   8.612  68.530  1.00  0.00    -0.049 F  
HETATM   18  F   UNL     1      -5.902  10.262  69.878  1.00  0.00    -0.039 F  
HETATM   19  C   UNL     1      -6.920   9.605  69.260  1.00  0.00    -0.055 C  
HETATM   20  C   UNL     1      -7.211  11.226  67.340  1.00  0.00    -0.110 A  
BRANCH  12  21
HETATM   21  S   UNL     1     -11.632  11.841  68.401  1.00  0.00    -0.324 S  
HETATM   22  C   UNL     1     -11.883  13.535  68.848  1.00  0.00    -0.345 C  
HETATM   23  O   UNL     1     -12.408  11.665  67.189  1.00  0.00    -0.070 OA 
HETATM   24  O   UNL     1     -11.830  11.055  69.604  1.00  0.00    -0.285 OA 
ENDBRANCH  12  21
ENDBRANCH   9  11
ENDBRANCH   5   9
TORSDOF 4
ENDMDL
MODEL      184
REMARK 921   NORMALIZED FREE ENERGY PREDICTED BY IDOCK:   -3.81 KCAL/MOL
REMARK 922        TOTAL FREE ENERGY PREDICTED BY IDOCK:   -5.21 KCAL/MOL
REMARK 923 INTER-LIGAND FREE ENERGY PREDICTED BY IDOCK:   -4.74 KCAL/MOL
REMARK 924 INTRA-LIGAND FREE ENERGY PREDICTED BY IDOCK:   -0.47 KCAL/MOL
REMARK 927      BINDING AFFINITY PREDICTED BY RF-SCORE:    0.00 PKD
ROOT
HETATM    1  C   UNL     1      -9.097   8.239  70.708  1.00  0.00    -0.150 A  
HETATM    2  N   UNL     1      -9.471   8.016  71.968  1.00  0.00    -0.179 NA 
HETATM    3  O   UNL     1     -10.649   8.719  72.126  1.00  0.00    -0.340 OA 
HETATM    4  C   UNL     1     -10.982   9.331  70.954  1.00  0.00    -0.299 A  
HETATM    5  C   UNL     1     -10.013   9.052  69.998  1.00  0.00    -0.207 A  
ENDROOT
BRANCH   4   6
HETATM    6  C   UNL     1     -12.247  10.169  70.779  1.00  0.00    -0.434 C  
HETATM    7  C   UNL     1     -13.576   9.583  71.213  1.00  0.00    -0.298 C  
HETATM    8  C   UNL     1     -12.950  10.663  72.026  1.00  0.00    -0.466 C  
ENDBRANCH   4   6
BRANCH   5   9
HETATM    9  C   UNL     1      -9.988   9.550  68.629  1.00  0.00    -0.167 C  
HETATM   10  O   UNL     1     -10.273   8.813  67.695  1.00  0.00    -0.208 OA 
BRANCH   9  11
HETATM   11  C   UNL     1      -9.516  10.932  68.293  1.00  0.00    -0.168 A  
HETATM   12  C   UNL     1      -8.191  11.215  67.889  1.00  0.00    -0.121 A  
HETATM   13  C   UNL     1      -7.769  12.547  67.720  1.00  0.00    -0.142 A  
HETATM   14  C   UNL     1     -10.376  12.018  68.550  1.00  0.00    -0.228 A  
HETATM   15  C   UNL     1      -8.634  13.619  67.981  1.00  0.00    -0.175 A  
HETATM   16  F   UNL     1      -6.868  15.148  67.427  1.00  0.00    -0.177 F  
HETATM   17  F   UNL     1      -8.900  15.777  66.984  1.00  0.00    -0.187 F  
HETATM   18  F   UNL     1      -8.204  15.715  69.045  1.00  0.00    -0.164 F  
HETATM   19  C   UNL     1      -8.156  15.052  67.859  1.00  0.00    -0.136 C  
HETATM   20  C   UNL     1      -9.942  13.341  68.390  1.00  0.00    -0.226 A  
BRANCH  12  21
HETATM   21  S   UNL     1      -7.035   9.896  67.534  1.00  0.00    -0.083 S  
HETATM   22  C   UNL     1      -5.503  10.633  67.041  1.00  0.00    -0.044 C  
HETATM   23  O   UNL     1      -6.734   9.234  68.788  1.00  0.00    -0.052 OA 
HETATM   24  O   UNL     1      -7.566   9.212  66.370  1.00  0.00    -0.091 OA 
ENDBRANCH  12  21
ENDBRANCH   9  11
ENDBRANCH   5   9
TORSDOF 4
ENDMDL
MODEL      185
REMARK 921   NORMALIZED FREE ENERGY PREDICTED BY IDOCK:   -3.80 KCAL/MOL
REMARK 922        TOTAL FREE ENERGY PREDICTED BY IDOCK:   -5.21 KCAL/MOL
REMARK 923 INTER-LIGAND FREE ENERGY PREDICTED BY IDOCK:   -4.74 KCAL/MOL
REMARK 924 INTRA-LIGAND FREE ENERGY PREDICTED BY IDOCK:   -0.47 KCAL/MOL
REMARK 927      BINDING AFFINITY PREDICTED BY RF-SCORE:    0.00 PKD
ROOT
HETATM    1  C   UNL     1     -10.922  13.763  68.657  1.00  0.00    -0.266 A  
HETATM    2  N   UNL     1     -10.286  14.921  68.837  1.00  0.00    -0.233 NA 
HETATM    3  O   UNL     1      -8.942  14.603  68.822  1.00  0.00    -0.185 OA 
HETATM    4  C   UNL     1      -8.787  13.265  68.606  1.00  0.00     0.038 A  
HETATM    5  C   UNL     1     -10.038  12.670  68.488  1.00  0.00    -0.183 A  
ENDROOT
BRANCH   4   6
HETATM    6  C   UNL     1      -7.422  12.588  68.505  1.00  0.00    -0.122 C  
HETATM    7  C   UNL     1      -7.004  11.981  67.180  1.00  0.00    -0.134 C  
HETATM    8  C   UNL     1      -6.365  13.245  67.642  1.00  0.00    -0.161 C  
ENDBRANCH   4   6
BRANCH   5   9
HETATM    9  C   UNL     1     -10.299  11.251  68.287  1.00  0.00    -0.183 C  
HETATM   10  O   UNL     1     -10.833  10.857  67.260  1.00  0.00    -0.254 OA 
BRANCH   9  11
HETATM   11  C   UNL     1     -10.029  10.233  69.353  1.00  0.00    -0.254 A  
HETATM   12  C   UNL     1     -10.872  10.053  70.474  1.00  0.00    -0.314 A  
HETATM   13  C   UNL     1     -10.497   9.179  71.511  1.00  0.00    -0.422 A  
HETATM   14  C   UNL     1      -8.803   9.542  69.330  1.00  0.00    -0.153 A  
HETATM   15  C   UNL     1      -9.271   8.499  71.477  1.00  0.00    -0.288 A  
HETATM   16  F   UNL     1      -9.784   7.517  73.608  1.00  0.00    -0.262 F  
HETATM   17  F   UNL     1      -8.588   6.334  72.232  1.00  0.00    -0.118 F  
HETATM   18  F   UNL     1      -7.712   8.056  73.233  1.00  0.00    -0.137 F  
HETATM   19  C   UNL     1      -8.844   7.609  72.627  1.00  0.00    -0.149 C  
HETATM   20  C   UNL     1      -8.433   8.683  70.374  1.00  0.00    -0.144 A  
BRANCH  12  21
HETATM   21  S   UNL     1     -12.452  10.885  70.581  1.00  0.00    -0.373 S  
HETATM   22  C   UNL     1     -13.346  10.185  71.940  1.00  0.00    -0.402 C  
HETATM   23  O   UNL     1     -12.195  12.255  70.981  1.00  0.00    -0.306 OA 
HETATM   24  O   UNL     1     -13.170  10.521  69.374  1.00  0.00     0.264 OA 
ENDBRANCH  12  21
ENDBRANCH   9  11
ENDBRANCH   5   9
TORSDOF 4
ENDMDL
MODEL      186
REMARK 921   NORMALIZED FREE ENERGY PREDICTED BY IDOCK:   -3.80 KCAL/MOL
REMARK 922        TOTAL FREE ENERGY PREDICTED BY IDOCK:   -5.21 KCAL/MOL
REMARK 923 INTER-LIGAND FREE ENERGY PREDICTED BY IDOCK:   -5.11 KCAL/MOL
REMARK 924 INTRA-LIGAND FREE ENERGY PREDICTED BY IDOCK:   -0.10 KCAL/MOL
REMARK 927      BINDING AFFINITY PREDICTED BY RF-SCORE:    0.00 PKD
ROOT
HETATM    1  C   UNL     1     -10.477  10.528  70.167  1.00  0.00    -0.026 A  
HETATM    2  N   UNL     1     -11.523  11.338  70.006  1.00  0.00    -0.293 NA 
HETATM    3  O   UNL     1     -12.525  10.795  70.787  1.00  0.00    -0.324 OA 
HETATM    4  C   UNL     1     -12.060   9.685  71.427  1.00  0.00    -0.388 A  
HETATM    5  C   UNL     1     -10.737   9.465  71.066  1.00  0.00    -0.407 A  
ENDROOT
BRANCH   4   6
HETATM    6  C   UNL     1     -12.910   8.861  72.393  1.00  0.00    -0.446 C  
HETATM    7  C   UNL     1     -14.408   9.089  72.425  1.00  0.00    -0.325 C  
HETATM    8  C   UNL     1     -13.869   7.846  71.807  1.00  0.00    -0.449 C  
ENDBRANCH   4   6
BRANCH   5   9
HETATM    9  C   UNL     1      -9.897   8.359  71.508  1.00  0.00    -0.208 C  
HETATM   10  O   UNL     1      -9.409   8.361  72.630  1.00  0.00    -0.262 OA 
BRANCH   9  11
HETATM   11  C   UNL     1      -9.509   7.239  70.593  1.00  0.00    -0.164 A  
HETATM   12  C   UNL     1      -8.479   7.354  69.630  1.00  0.00    -0.133 A  
HETATM   13  C   UNL     1      -8.251   6.318  68.706  1.00  0.00    -0.120 A  
HETATM   14  C   UNL     1     -10.307   6.079  70.570  1.00  0.00    -0.279 A  
HETATM   15  C   UNL     1      -9.055   5.169  68.693  1.00  0.00    -0.135 A  
HETATM   16  F   UNL     1      -7.793   4.336  66.828  1.00  0.00    -0.092 F  
HETATM   17  F   UNL     1      -8.603   2.870  68.213  1.00  0.00    -0.085 F  
HETATM   18  F   UNL     1      -9.928   3.927  66.848  1.00  0.00    -0.240 F  
HETATM   19  C   UNL     1      -8.846   4.085  67.656  1.00  0.00    -0.115 C  
HETATM   20  C   UNL     1     -10.079   5.057  69.638  1.00  0.00    -0.321 A  
BRANCH  12  21
HETATM   21  S   UNL     1      -7.412   8.790  69.592  1.00  0.00    -0.073 S  
HETATM   22  C   UNL     1      -5.958   8.364  68.676  1.00  0.00    -0.044 C  
HETATM   23  O   UNL     1      -8.069   9.798  68.784  1.00  0.00    -0.096 OA 
HETATM   24  O   UNL     1      -6.995   9.005  70.965  1.00  0.00    -0.079 OA 
ENDBRANCH  12  21
ENDBRANCH   9  11
ENDBRANCH   5   9
TORSDOF 4
ENDMDL
MODEL      187
REMARK 921   NORMALIZED FREE ENERGY PREDICTED BY IDOCK:   -3.79 KCAL/MOL
REMARK 922        TOTAL FREE ENERGY PREDICTED BY IDOCK:   -5.20 KCAL/MOL
REMARK 923 INTER-LIGAND FREE ENERGY PREDICTED BY IDOCK:   -4.65 KCAL/MOL
REMARK 924 INTRA-LIGAND FREE ENERGY PREDICTED BY IDOCK:   -0.55 KCAL/MOL
REMARK 927      BINDING AFFINITY PREDICTED BY RF-SCORE:    0.00 PKD
ROOT
HETATM    1  C   UNL     1     -11.337  15.605  68.422  1.00  0.00    -0.364 A  
HETATM    2  N   UNL     1     -11.564  16.461  69.419  1.00  0.00    -0.157 NA 
HETATM    3  O   UNL     1     -10.521  17.364  69.366  1.00  0.00    -0.303 OA 
HETATM    4  C   UNL     1      -9.697  17.057  68.323  1.00  0.00    -0.275 A  
HETATM    5  C   UNL     1     -10.180  15.927  67.673  1.00  0.00    -0.263 A  
ENDROOT
BRANCH   4   6
HETATM    6  C   UNL     1      -8.459  17.877  67.968  1.00  0.00    -0.256 C  
HETATM    7  C   UNL     1      -8.227  19.195  68.680  1.00  0.00    -0.404 C  
HETATM    8  C   UNL     1      -7.376  18.020  69.017  1.00  0.00    -0.198 C  
ENDBRANCH   4   6
BRANCH   5   9
HETATM    9  C   UNL     1      -9.562  15.263  66.532  1.00  0.00    -0.271 C  
HETATM   10  O   UNL     1      -9.773  15.660  65.395  1.00  0.00    -0.303 OA 
BRANCH   9  11
HETATM   11  C   UNL     1      -8.741  14.019  66.684  1.00  0.00    -0.055 A  
HETATM   12  C   UNL     1      -9.227  12.733  66.354  1.00  0.00    -0.145 A  
HETATM   13  C   UNL     1      -8.463  11.588  66.645  1.00  0.00    -0.172 A  
HETATM   14  C   UNL     1      -7.497  14.109  67.336  1.00  0.00    -0.155 A  
HETATM   15  C   UNL     1      -7.226  11.691  67.298  1.00  0.00    -0.137 A  
HETATM   16  F   UNL     1      -7.027   9.299  67.246  1.00  0.00    -0.076 F  
HETATM   17  F   UNL     1      -5.188  10.450  67.130  1.00  0.00    -0.039 F  
HETATM   18  F   UNL     1      -6.276  10.323  69.010  1.00  0.00    -0.041 F  
HETATM   19  C   UNL     1      -6.436  10.452  67.667  1.00  0.00    -0.058 C  
HETATM   20  C   UNL     1      -6.748  12.962  67.633  1.00  0.00    -0.153 A  
BRANCH  12  21
HETATM   21  S   UNL     1     -10.795  12.528  65.516  1.00  0.00    -0.287 S  
HETATM   22  C   UNL     1     -11.073  10.794  65.296  1.00  0.00     0.259 C  
HETATM   23  O   UNL     1     -11.836  12.951  66.433  1.00  0.00    -0.381 OA 
HETATM   24  O   UNL     1     -10.610  13.094  64.193  1.00  0.00    -0.414 OA 
ENDBRANCH  12  21
ENDBRANCH   9  11
ENDBRANCH   5   9
TORSDOF 4
ENDMDL
MODEL      188
REMARK 921   NORMALIZED FREE ENERGY PREDICTED BY IDOCK:   -3.78 KCAL/MOL
REMARK 922        TOTAL FREE ENERGY PREDICTED BY IDOCK:   -5.18 KCAL/MOL
REMARK 923 INTER-LIGAND FREE ENERGY PREDICTED BY IDOCK:   -4.81 KCAL/MOL
REMARK 924 INTRA-LIGAND FREE ENERGY PREDICTED BY IDOCK:   -0.37 KCAL/MOL
REMARK 927      BINDING AFFINITY PREDICTED BY RF-SCORE:    0.00 PKD
ROOT
HETATM    1  C   UNL     1     -11.144  14.269  65.636  1.00  0.00    -0.316 A  
HETATM    2  N   UNL     1     -11.542  15.202  64.772  1.00  0.00    -0.395 NA 
HETATM    3  O   UNL     1     -10.969  16.377  65.218  1.00  0.00    -0.308 OA 
HETATM    4  C   UNL     1     -10.213  16.130  66.326  1.00  0.00    -0.320 A  
HETATM    5  C   UNL     1     -10.287  14.778  66.641  1.00  0.00    -0.273 A  
ENDROOT
BRANCH   4   6
HETATM    6  C   UNL     1      -9.420  17.213  67.054  1.00  0.00    -0.257 C  
HETATM    7  C   UNL     1      -9.539  18.648  66.580  1.00  0.00    -0.347 C  
HETATM    8  C   UNL     1     -10.191  18.241  67.856  1.00  0.00    -0.400 C  
ENDBRANCH   4   6
BRANCH   5   9
HETATM    9  C   UNL     1      -9.647  14.125  67.775  1.00  0.00    -0.219 C  
HETATM   10  O   UNL     1      -9.580  14.688  68.859  1.00  0.00    -0.212 OA 
BRANCH   9  11
HETATM   11  C   UNL     1      -8.959  12.800  67.647  1.00  0.00    -0.191 A  
HETATM   12  C   UNL     1      -9.510  11.597  68.143  1.00  0.00    -0.191 A  
HETATM   13  C   UNL     1      -8.758  10.407  68.117  1.00  0.00    -0.125 A  
HETATM   14  C   UNL     1      -7.637  12.773  67.164  1.00  0.00    -0.050 A  
HETATM   15  C   UNL     1      -7.441  10.394  67.635  1.00  0.00    -0.089 A  
HETATM   16  F   UNL     1      -7.305   8.051  68.143  1.00  0.00    -0.085 F  
HETATM   17  F   UNL     1      -6.160   8.766  66.438  1.00  0.00    -0.054 F  
HETATM   18  F   UNL     1      -5.516   9.245  68.461  1.00  0.00    -0.036 F  
HETATM   19  C   UNL     1      -6.613   9.125  67.668  1.00  0.00    -0.064 C  
HETATM   20  C   UNL     1      -6.891  11.586  67.153  1.00  0.00    -0.139 A  
BRANCH  12  21
HETATM   21  S   UNL     1     -11.186  11.539  68.768  1.00  0.00    -0.277 S  
HETATM   22  C   UNL     1     -11.554   9.859  69.187  1.00  0.00     0.122 C  
HETATM   23  O   UNL     1     -11.200  12.242  70.036  1.00  0.00    -0.014 OA 
HETATM   24  O   UNL     1     -12.035  11.888  67.645  1.00  0.00    -0.575 OA 
ENDBRANCH  12  21
ENDBRANCH   9  11
ENDBRANCH   5   9
TORSDOF 4
ENDMDL
MODEL      189
REMARK 921   NORMALIZED FREE ENERGY PREDICTED BY IDOCK:   -3.78 KCAL/MOL
REMARK 922        TOTAL FREE ENERGY PREDICTED BY IDOCK:   -5.18 KCAL/MOL
REMARK 923 INTER-LIGAND FREE ENERGY PREDICTED BY IDOCK:   -5.38 KCAL/MOL
REMARK 924 INTRA-LIGAND FREE ENERGY PREDICTED BY IDOCK:    0.20 KCAL/MOL
REMARK 927      BINDING AFFINITY PREDICTED BY RF-SCORE:    0.00 PKD
ROOT
HETATM    1  C   UNL     1     -10.971   6.391  70.645  1.00  0.00    -0.298 A  
HETATM    2  N   UNL     1     -11.509   5.908  71.765  1.00  0.00    -0.242 NA 
HETATM    3  O   UNL     1     -10.787   6.484  72.792  1.00  0.00    -0.228 OA 
HETATM    4  C   UNL     1      -9.846   7.326  72.278  1.00  0.00    -0.154 A  
HETATM    5  C   UNL     1      -9.921   7.308  70.890  1.00  0.00    -0.186 A  
ENDROOT
BRANCH   4   6
HETATM    6  C   UNL     1      -8.894   8.146  73.147  1.00  0.00    -0.325 C  
HETATM    7  C   UNL     1      -8.601   7.671  74.556  1.00  0.00    -0.188 C  
HETATM    8  C   UNL     1      -7.555   7.535  73.505  1.00  0.00    -0.129 C  
ENDBRANCH   4   6
BRANCH   5   9
HETATM    9  C   UNL     1      -9.061   8.046  69.973  1.00  0.00    -0.152 C  
HETATM   10  O   UNL     1      -7.856   8.112  70.171  1.00  0.00    -0.093 OA 
BRANCH   9  11
HETATM   11  C   UNL     1      -9.613   8.836  68.826  1.00  0.00    -0.160 A  
HETATM   12  C   UNL     1      -9.629   8.351  67.498  1.00  0.00    -0.154 A  
HETATM   13  C   UNL     1     -10.032   9.189  66.441  1.00  0.00    -0.358 A  
HETATM   14  C   UNL     1      -9.976  10.178  69.045  1.00  0.00    -0.216 A  
HETATM   15  C   UNL     1     -10.389  10.525  66.672  1.00  0.00    -0.295 A  
HETATM   16  F   UNL     1     -10.760  10.808  64.317  1.00  0.00    -0.434 F  
HETATM   17  F   UNL     1     -12.001  11.978  65.665  1.00  0.00    -0.430 F  
HETATM   18  F   UNL     1      -9.902  12.487  65.399  1.00  0.00    -0.259 F  
HETATM   19  C   UNL     1     -10.761  11.441  65.523  1.00  0.00    -0.253 C  
HETATM   20  C   UNL     1     -10.365  11.008  67.984  1.00  0.00    -0.209 A  
BRANCH  12  21
HETATM   21  S   UNL     1      -9.190   6.656  67.130  1.00  0.00    -0.130 S  
HETATM   22  C   UNL     1      -8.365   6.634  65.564  1.00  0.00    -0.144 C  
HETATM   23  O   UNL     1      -8.173   6.255  68.083  1.00  0.00    -0.114 OA 
HETATM   24  O   UNL     1     -10.447   5.955  66.953  1.00  0.00    -0.225 OA 
ENDBRANCH  12  21
ENDBRANCH   9  11
ENDBRANCH   5   9
TORSDOF 4
ENDMDL
MODEL      190
REMARK 921   NORMALIZED FREE ENERGY PREDICTED BY IDOCK:   -3.77 KCAL/MOL
REMARK 922        TOTAL FREE ENERGY PREDICTED BY IDOCK:   -5.17 KCAL/MOL
REMARK 923 INTER-LIGAND FREE ENERGY PREDICTED BY IDOCK:   -4.44 KCAL/MOL
REMARK 924 INTRA-LIGAND FREE ENERGY PREDICTED BY IDOCK:   -0.73 KCAL/MOL
REMARK 927      BINDING AFFINITY PREDICTED BY RF-SCORE:    0.00 PKD
ROOT
HETATM    1  C   UNL     1     -10.989   6.712  67.466  1.00  0.00    -0.338 A  
HETATM    2  N   UNL     1     -10.809   5.720  66.593  1.00  0.00    -0.275 NA 
HETATM    3  O   UNL     1      -9.452   5.465  66.609  1.00  0.00    -0.132 OA 
HETATM    4  C   UNL     1      -8.839   6.286  67.509  1.00  0.00    -0.103 A  
HETATM    5  C   UNL     1      -9.787   7.114  68.098  1.00  0.00    -0.157 A  
ENDROOT
BRANCH   4   6
HETATM    6  C   UNL     1      -7.338   6.243  67.791  1.00  0.00    -0.084 C  
HETATM    7  C   UNL     1      -6.832   5.356  68.911  1.00  0.00    -0.055 C  
HETATM    8  C   UNL     1      -6.596   4.956  67.496  1.00  0.00    -0.047 C  
ENDBRANCH   4   6
BRANCH   5   9
HETATM    9  C   UNL     1      -9.526   8.154  69.084  1.00  0.00    -0.155 C  
HETATM   10  O   UNL     1      -8.978   7.881  70.143  1.00  0.00    -0.149 OA 
BRANCH   9  11
HETATM   11  C   UNL     1     -10.003   9.562  68.902  1.00  0.00    -0.187 A  
HETATM   12  C   UNL     1      -9.210  10.572  68.311  1.00  0.00    -0.152 A  
HETATM   13  C   UNL     1      -9.657  11.906  68.291  1.00  0.00    -0.201 A  
HETATM   14  C   UNL     1     -11.224   9.941  69.492  1.00  0.00    -0.220 A  
HETATM   15  C   UNL     1     -10.874  12.271  68.884  1.00  0.00    -0.238 A  
HETATM   16  F   UNL     1     -10.460  14.555  68.273  1.00  0.00    -0.225 F  
HETATM   17  F   UNL     1     -12.532  13.903  68.329  1.00  0.00    -0.349 F  
HETATM   18  F   UNL     1     -11.432  14.196  70.184  1.00  0.00    -0.299 F  
HETATM   19  C   UNL     1     -11.321  13.718  68.916  1.00  0.00    -0.288 C  
HETATM   20  C   UNL     1     -11.655  11.275  69.478  1.00  0.00    -0.398 A  
BRANCH  12  21
HETATM   21  S   UNL     1      -7.648  10.177  67.531  1.00  0.00    -0.090 S  
HETATM   22  C   UNL     1      -6.910  11.693  66.991  1.00  0.00    -0.144 C  
HETATM   23  O   UNL     1      -6.758   9.687  68.565  1.00  0.00    -0.052 OA 
HETATM   24  O   UNL     1      -7.985   9.426  66.336  1.00  0.00    -0.106 OA 
ENDBRANCH  12  21
ENDBRANCH   9  11
ENDBRANCH   5   9
TORSDOF 4
ENDMDL
MODEL      191
REMARK 921   NORMALIZED FREE ENERGY PREDICTED BY IDOCK:   -3.76 KCAL/MOL
REMARK 922        TOTAL FREE ENERGY PREDICTED BY IDOCK:   -5.15 KCAL/MOL
REMARK 923 INTER-LIGAND FREE ENERGY PREDICTED BY IDOCK:   -4.78 KCAL/MOL
REMARK 924 INTRA-LIGAND FREE ENERGY PREDICTED BY IDOCK:   -0.37 KCAL/MOL
REMARK 927      BINDING AFFINITY PREDICTED BY RF-SCORE:    0.00 PKD
ROOT
HETATM    1  C   UNL     1      -6.784   8.863  66.169  1.00  0.00    -0.069 A  
HETATM    2  N   UNL     1      -7.195   9.339  64.993  1.00  0.00    -0.096 NA 
HETATM    3  O   UNL     1      -8.380   9.995  65.262  1.00  0.00    -0.140 OA 
HETATM    4  C   UNL     1      -8.651   9.929  66.597  1.00  0.00    -0.125 A  
HETATM    5  C   UNL     1      -7.648   9.209  67.235  1.00  0.00    -0.088 A  
ENDROOT
BRANCH   4   6
HETATM    6  C   UNL     1      -9.878  10.580  67.233  1.00  0.00    -0.209 C  
HETATM    7  C   UNL     1      -9.938  12.092  67.324  1.00  0.00    -0.205 C  
HETATM    8  C   UNL     1     -10.801  11.381  66.340  1.00  0.00    -0.323 C  
ENDBRANCH   4   6
BRANCH   5   9
HETATM    9  C   UNL     1      -7.591   8.888  68.655  1.00  0.00    -0.096 C  
HETATM   10  O   UNL     1      -6.514   8.752  69.218  1.00  0.00    -0.041 OA 
BRANCH   9  11
HETATM   11  C   UNL     1      -8.825   8.607  69.458  1.00  0.00    -0.144 A  
HETATM   12  C   UNL     1      -9.587   7.426  69.306  1.00  0.00    -0.154 A  
HETATM   13  C   UNL     1     -10.810   7.278  69.986  1.00  0.00    -0.271 A  
HETATM   14  C   UNL     1      -9.343   9.628  70.276  1.00  0.00    -0.292 A  
HETATM   15  C   UNL     1     -11.317   8.304  70.797  1.00  0.00    -0.285 A  
HETATM   16  F   UNL     1     -13.250   6.955  71.254  1.00  0.00    -0.397 F  
HETATM   17  F   UNL     1     -12.584   8.301  72.826  1.00  0.00    -0.352 F  
HETATM   18  F   UNL     1     -13.556   9.097  71.049  1.00  0.00    -0.328 F  
HETATM   19  C   UNL     1     -12.664   8.165  71.476  1.00  0.00    -0.308 C  
HETATM   20  C   UNL     1     -10.568   9.476  70.941  1.00  0.00    -0.395 A  
BRANCH  12  21
HETATM   21  S   UNL     1      -9.000   6.074  68.290  1.00  0.00    -0.112 S  
HETATM   22  C   UNL     1      -9.899   4.620  68.746  1.00  0.00    -0.131 C  
HETATM   23  O   UNL     1      -9.412   6.345  66.927  1.00  0.00    -0.134 OA 
HETATM   24  O   UNL     1      -7.621   5.858  68.686  1.00  0.00    -0.087 OA 
ENDBRANCH  12  21
ENDBRANCH   9  11
ENDBRANCH   5   9
TORSDOF 4
ENDMDL
MODEL      192
REMARK 921   NORMALIZED FREE ENERGY PREDICTED BY IDOCK:   -3.69 KCAL/MOL
REMARK 922        TOTAL FREE ENERGY PREDICTED BY IDOCK:   -5.07 KCAL/MOL
REMARK 923 INTER-LIGAND FREE ENERGY PREDICTED BY IDOCK:   -4.64 KCAL/MOL
REMARK 924 INTRA-LIGAND FREE ENERGY PREDICTED BY IDOCK:   -0.42 KCAL/MOL
REMARK 927      BINDING AFFINITY PREDICTED BY RF-SCORE:    0.00 PKD
ROOT
HETATM    1  C   UNL     1      -9.893   6.392  72.579  1.00  0.00    -0.166 A  
HETATM    2  N   UNL     1     -10.081   7.115  73.684  1.00  0.00    -0.318 NA 
HETATM    3  O   UNL     1     -11.031   8.058  73.343  1.00  0.00    -0.172 OA 
HETATM    4  C   UNL     1     -11.421   7.873  72.049  1.00  0.00    -0.300 A  
HETATM    5  C   UNL     1     -10.718   6.805  71.505  1.00  0.00    -0.254 A  
ENDROOT
BRANCH   4   6
HETATM    6  C   UNL     1     -12.482   8.733  71.366  1.00  0.00    -0.348 C  
HETATM    7  C   UNL     1     -12.920  10.020  72.035  1.00  0.00    -0.514 C  
HETATM    8  C   UNL     1     -12.060  10.082  70.821  1.00  0.00    -0.418 C  
ENDBRANCH   4   6
BRANCH   5   9
HETATM    9  C   UNL     1     -10.823   6.314  70.137  1.00  0.00    -0.313 C  
HETATM   10  O   UNL     1     -11.908   6.283  69.571  1.00  0.00    -0.234 OA 
BRANCH   9  11
HETATM   11  C   UNL     1      -9.651   5.735  69.406  1.00  0.00    -0.179 A  
HETATM   12  C   UNL     1      -8.995   6.407  68.350  1.00  0.00    -0.120 A  
HETATM   13  C   UNL     1      -7.989   5.758  67.610  1.00  0.00    -0.102 A  
HETATM   14  C   UNL     1      -9.290   4.398  69.665  1.00  0.00    -0.228 A  
HETATM   15  C   UNL     1      -7.641   4.426  67.876  1.00  0.00    -0.076 A  
HETATM   16  F   UNL     1      -6.044   4.511  66.085  1.00  0.00    -0.027 F  
HETATM   17  F   UNL     1      -5.569   3.233  67.778  1.00  0.00    -0.015 F  
HETATM   18  F   UNL     1      -7.122   2.645  66.371  1.00  0.00    -0.048 F  
HETATM   19  C   UNL     1      -6.603   3.711  67.036  1.00  0.00    -0.045 C  
HETATM   20  C   UNL     1      -8.296   3.756  68.914  1.00  0.00    -0.088 A  
BRANCH  12  21
HETATM   21  S   UNL     1      -9.386   8.109  67.958  1.00  0.00    -0.135 S  
HETATM   22  C   UNL     1      -8.229   8.668  66.741  1.00  0.00    -0.108 C  
HETATM   23  O   UNL     1     -10.665   8.115  67.275  1.00  0.00    -0.298 OA 
HETATM   24  O   UNL     1      -9.118   8.862  69.169  1.00  0.00    -0.139 OA 
ENDBRANCH  12  21
ENDBRANCH   9  11
ENDBRANCH   5   9
TORSDOF 4
ENDMDL
MODEL      193
REMARK 921   NORMALIZED FREE ENERGY PREDICTED BY IDOCK:   -3.68 KCAL/MOL
REMARK 922        TOTAL FREE ENERGY PREDICTED BY IDOCK:   -5.07 KCAL/MOL
REMARK 923 INTER-LIGAND FREE ENERGY PREDICTED BY IDOCK:   -5.11 KCAL/MOL
REMARK 924 INTRA-LIGAND FREE ENERGY PREDICTED BY IDOCK:    0.05 KCAL/MOL
REMARK 927      BINDING AFFINITY PREDICTED BY RF-SCORE:    0.00 PKD
ROOT
HETATM    1  C   UNL     1     -11.244  15.445  68.702  1.00  0.00    -0.308 A  
HETATM    2  N   UNL     1     -11.274  16.723  69.080  1.00  0.00    -0.144 NA 
HETATM    3  O   UNL     1     -10.427  17.379  68.208  1.00  0.00    -0.352 OA 
HETATM    4  C   UNL     1      -9.923  16.493  67.301  1.00  0.00    -0.264 A  
HETATM    5  C   UNL     1     -10.421  15.225  67.572  1.00  0.00    -0.265 A  
ENDROOT
BRANCH   4   6
HETATM    6  C   UNL     1      -8.972  16.900  66.177  1.00  0.00    -0.271 C  
HETATM    7  C   UNL     1      -8.220  18.210  66.295  1.00  0.00    -0.243 C  
HETATM    8  C   UNL     1      -7.488  16.926  66.476  1.00  0.00    -0.328 C  
ENDBRANCH   4   6
BRANCH   5   9
HETATM    9  C   UNL     1     -10.093  14.001  66.851  1.00  0.00    -0.259 C  
HETATM   10  O   UNL     1      -9.856  14.032  65.651  1.00  0.00    -0.291 OA 
BRANCH   9  11
HETATM   11  C   UNL     1     -10.133  12.655  67.507  1.00  0.00    -0.212 A  
HETATM   12  C   UNL     1      -8.993  12.043  68.076  1.00  0.00    -0.187 A  
HETATM   13  C   UNL     1      -9.061  10.722  68.556  1.00  0.00    -0.170 A  
HETATM   14  C   UNL     1     -11.313  11.893  67.408  1.00  0.00    -0.389 A  
HETATM   15  C   UNL     1     -10.242   9.973  68.449  1.00  0.00    -0.196 A  
HETATM   16  F   UNL     1      -9.121   8.107  69.463  1.00  0.00    -0.146 F  
HETATM   17  F   UNL     1     -11.250   8.314  69.846  1.00  0.00    -0.246 F  
HETATM   18  F   UNL     1     -10.554   7.671  67.887  1.00  0.00    -0.245 F  
HETATM   19  C   UNL     1     -10.291   8.529  68.908  1.00  0.00    -0.210 C  
HETATM   20  C   UNL     1     -11.367  10.573  67.878  1.00  0.00    -0.297 A  
BRANCH  12  21
HETATM   21  S   UNL     1      -7.455  12.941  68.249  1.00  0.00    -0.134 S  
HETATM   22  C   UNL     1      -7.756  14.343  69.287  1.00  0.00    -0.002 C  
HETATM   23  O   UNL     1      -6.549  12.108  69.016  1.00  0.00    -0.087 OA 
HETATM   24  O   UNL     1      -7.151  13.455  66.927  1.00  0.00     0.135 OA 
ENDBRANCH  12  21
ENDBRANCH   9  11
ENDBRANCH   5   9
TORSDOF 4
ENDMDL
MODEL      194
REMARK 921   NORMALIZED FREE ENERGY PREDICTED BY IDOCK:   -3.67 KCAL/MOL
REMARK 922        TOTAL FREE ENERGY PREDICTED BY IDOCK:   -5.05 KCAL/MOL
REMARK 923 INTER-LIGAND FREE ENERGY PREDICTED BY IDOCK:   -4.51 KCAL/MOL
REMARK 924 INTRA-LIGAND FREE ENERGY PREDICTED BY IDOCK:   -0.54 KCAL/MOL
REMARK 927      BINDING AFFINITY PREDICTED BY RF-SCORE:    0.00 PKD
ROOT
HETATM    1  C   UNL     1      -8.992   4.867  66.978  1.00  0.00    -0.109 A  
HETATM    2  N   UNL     1      -9.269   4.106  65.918  1.00  0.00    -0.139 NA 
HETATM    3  O   UNL     1      -8.924   4.872  64.822  1.00  0.00    -0.154 OA 
HETATM    4  C   UNL     1      -8.420   6.069  65.236  1.00  0.00    -0.131 A  
HETATM    5  C   UNL     1      -8.437   6.120  66.624  1.00  0.00    -0.116 A  
ENDROOT
BRANCH   4   6
HETATM    6  C   UNL     1      -7.917   7.142  64.272  1.00  0.00    -0.088 C  
HETATM    7  C   UNL     1      -6.423   7.370  64.149  1.00  0.00    -0.048 C  
HETATM    8  C   UNL     1      -7.154   6.691  63.043  1.00  0.00    -0.054 C  
ENDBRANCH   4   6
BRANCH   5   9
HETATM    9  C   UNL     1      -8.014   7.246  67.448  1.00  0.00    -0.112 C  
HETATM   10  O   UNL     1      -7.051   7.141  68.195  1.00  0.00    -0.079 OA 
BRANCH   9  11
HETATM   11  C   UNL     1      -8.787   8.528  67.502  1.00  0.00    -0.139 A  
HETATM   12  C   UNL     1      -9.900   8.719  68.353  1.00  0.00    -0.171 A  
HETATM   13  C   UNL     1     -10.670   9.893  68.262  1.00  0.00    -0.276 A  
HETATM   14  C   UNL     1      -8.504   9.526  66.550  1.00  0.00    -0.130 A  
HETATM   15  C   UNL     1     -10.379  10.878  67.308  1.00  0.00    -0.255 A  
HETATM   16  F   UNL     1     -12.255  12.156  68.090  1.00  0.00    -0.374 F  
HETATM   17  F   UNL     1     -10.549  13.265  67.327  1.00  0.00    -0.241 F  
HETATM   18  F   UNL     1     -11.849  12.187  65.954  1.00  0.00    -0.424 F  
HETATM   19  C   UNL     1     -11.250  12.111  67.172  1.00  0.00    -0.314 C  
HETATM   20  C   UNL     1      -9.285  10.687  66.459  1.00  0.00    -0.187 A  
BRANCH  12  21
HETATM   21  S   UNL     1     -10.327   7.506  69.597  1.00  0.00    -0.229 S  
HETATM   22  C   UNL     1     -11.489   8.248  70.707  1.00  0.00    -0.252 C  
HETATM   23  O   UNL     1     -11.075   6.453  68.938  1.00  0.00    -0.329 OA 
HETATM   24  O   UNL     1      -9.111   7.275  70.354  1.00  0.00    -0.154 OA 
ENDBRANCH  12  21
ENDBRANCH   9  11
ENDBRANCH   5   9
TORSDOF 4
ENDMDL
MODEL      195
REMARK 921   NORMALIZED FREE ENERGY PREDICTED BY IDOCK:   -3.66 KCAL/MOL
REMARK 922        TOTAL FREE ENERGY PREDICTED BY IDOCK:   -5.03 KCAL/MOL
REMARK 923 INTER-LIGAND FREE ENERGY PREDICTED BY IDOCK:   -5.76 KCAL/MOL
REMARK 924 INTRA-LIGAND FREE ENERGY PREDICTED BY IDOCK:    0.73 KCAL/MOL
REMARK 927      BINDING AFFINITY PREDICTED BY RF-SCORE:    0.00 PKD
ROOT
HETATM    1  C   UNL     1     -11.882  15.585  68.742  1.00  0.00    -0.317 A  
HETATM    2  N   UNL     1     -11.938  16.574  69.634  1.00  0.00     0.294 NA 
HETATM    3  O   UNL     1     -10.812  17.339  69.397  1.00  0.00    -0.152 OA 
HETATM    4  C   UNL     1     -10.111  16.816  68.351  1.00  0.00    -0.285 A  
HETATM    5  C   UNL     1     -10.760  15.679  67.884  1.00  0.00    -0.294 A  
ENDROOT
BRANCH   4   6
HETATM    6  C   UNL     1      -8.825  17.440  67.813  1.00  0.00    -0.232 C  
HETATM    7  C   UNL     1      -8.258  18.661  68.511  1.00  0.00    -0.370 C  
HETATM    8  C   UNL     1      -7.578  17.345  68.668  1.00  0.00    -0.265 C  
ENDBRANCH   4   6
BRANCH   5   9
HETATM    9  C   UNL     1     -10.309  14.817  66.800  1.00  0.00    -0.268 C  
HETATM   10  O   UNL     1     -10.058  15.285  65.698  1.00  0.00    -0.319 OA 
BRANCH   9  11
HETATM   11  C   UNL     1     -10.235  13.327  66.946  1.00  0.00    -0.250 A  
HETATM   12  C   UNL     1     -11.077  12.443  66.234  1.00  0.00    -0.303 A  
HETATM   13  C   UNL     1     -11.056  11.064  66.512  1.00  0.00    -0.174 A  
HETATM   14  C   UNL     1      -9.411  12.790  67.953  1.00  0.00    -0.208 A  
HETATM   15  C   UNL     1     -10.233  10.541  67.521  1.00  0.00    -0.245 A  
HETATM   16  F   UNL     1     -11.100   8.350  67.058  1.00  0.00    -0.274 F  
HETATM   17  F   UNL     1      -9.041   8.479  67.744  1.00  0.00    -0.133 F  
HETATM   18  F   UNL     1     -10.677   8.836  69.134  1.00  0.00    -0.229 F  
HETATM   19  C   UNL     1     -10.262   9.065  67.860  1.00  0.00    -0.221 C  
HETATM   20  C   UNL     1      -9.407  11.416  68.232  1.00  0.00    -0.187 A  
BRANCH  12  21
HETATM   21  S   UNL     1     -12.149  13.040  64.931  1.00  0.00    -0.441 S  
HETATM   22  C   UNL     1     -13.022  14.451  65.548  1.00  0.00    -0.122 C  
HETATM   23  O   UNL     1     -11.301  13.567  63.879  1.00  0.00    -0.333 OA 
HETATM   24  O   UNL     1     -13.133  11.995  64.723  1.00  0.00    -0.430 OA 
ENDBRANCH  12  21
ENDBRANCH   9  11
ENDBRANCH   5   9
TORSDOF 4
ENDMDL
MODEL      196
REMARK 921   NORMALIZED FREE ENERGY PREDICTED BY IDOCK:   -3.65 KCAL/MOL
REMARK 922        TOTAL FREE ENERGY PREDICTED BY IDOCK:   -5.02 KCAL/MOL
REMARK 923 INTER-LIGAND FREE ENERGY PREDICTED BY IDOCK:   -5.31 KCAL/MOL
REMARK 924 INTRA-LIGAND FREE ENERGY PREDICTED BY IDOCK:    0.29 KCAL/MOL
REMARK 927      BINDING AFFINITY PREDICTED BY RF-SCORE:    0.00 PKD
ROOT
HETATM    1  C   UNL     1      -8.424  11.315  68.767  1.00  0.00    -0.112 A  
HETATM    2  N   UNL     1      -7.834  12.407  68.281  1.00  0.00    -0.144 NA 
HETATM    3  O   UNL     1      -8.836  13.103  67.632  1.00  0.00    -0.169 OA 
HETATM    4  C   UNL     1     -10.018  12.435  67.760  1.00  0.00    -0.205 A  
HETATM    5  C   UNL     1      -9.812  11.270  68.489  1.00  0.00    -0.198 A  
ENDROOT
BRANCH   4   6
HETATM    6  C   UNL     1     -11.334  12.948  67.179  1.00  0.00    -0.352 C  
HETATM    7  C   UNL     1     -11.297  14.103  66.198  1.00  0.00    -0.337 C  
HETATM    8  C   UNL     1     -11.593  12.729  65.703  1.00  0.00    -0.410 C  
ENDBRANCH   4   6
BRANCH   5   9
HETATM    9  C   UNL     1     -10.820  10.267  68.810  1.00  0.00    -0.230 C  
HETATM   10  O   UNL     1     -11.804  10.567  69.471  1.00  0.00    -0.262 OA 
BRANCH   9  11
HETATM   11  C   UNL     1     -10.651   8.824  68.447  1.00  0.00    -0.185 A  
HETATM   12  C   UNL     1     -10.373   7.819  69.401  1.00  0.00    -0.219 A  
HETATM   13  C   UNL     1     -10.089   6.504  68.987  1.00  0.00    -0.186 A  
HETATM   14  C   UNL     1     -10.599   8.474  67.084  1.00  0.00    -0.314 A  
HETATM   15  C   UNL     1     -10.038   6.169  67.626  1.00  0.00    -0.183 A  
HETATM   16  F   UNL     1      -9.467   3.916  68.227  1.00  0.00    -0.178 F  
HETATM   17  F   UNL     1     -10.629   4.195  66.412  1.00  0.00    -0.152 F  
HETATM   18  F   UNL     1      -8.524   4.743  66.452  1.00  0.00    -0.110 F  
HETATM   19  C   UNL     1      -9.669   4.768  67.184  1.00  0.00    -0.184 C  
HETATM   20  C   UNL     1     -10.303   7.164  66.681  1.00  0.00    -0.222 A  
BRANCH  12  21
HETATM   21  S   UNL     1     -10.425   8.174  71.155  1.00  0.00    -0.203 S  
HETATM   22  C   UNL     1     -12.113   8.460  71.603  1.00  0.00    -0.313 C  
HETATM   23  O   UNL     1     -10.063   6.957  71.855  1.00  0.00    -0.184 OA 
HETATM   24  O   UNL     1      -9.727   9.435  71.320  1.00  0.00    -0.262 OA 
ENDBRANCH  12  21
ENDBRANCH   9  11
ENDBRANCH   5   9
TORSDOF 4
ENDMDL
MODEL      197
REMARK 921   NORMALIZED FREE ENERGY PREDICTED BY IDOCK:   -3.62 KCAL/MOL
REMARK 922        TOTAL FREE ENERGY PREDICTED BY IDOCK:   -4.98 KCAL/MOL
REMARK 923 INTER-LIGAND FREE ENERGY PREDICTED BY IDOCK:   -6.98 KCAL/MOL
REMARK 924 INTRA-LIGAND FREE ENERGY PREDICTED BY IDOCK:    2.00 KCAL/MOL
REMARK 927      BINDING AFFINITY PREDICTED BY RF-SCORE:    0.00 PKD
ROOT
HETATM    1  C   UNL     1     -10.862  16.369  65.479  1.00  0.00    -0.215 A  
HETATM    2  N   UNL     1     -11.275  16.976  64.367  1.00  0.00    -1.077 NA 
HETATM    3  O   UNL     1     -11.924  15.998  63.639  1.00  0.00    -0.765 OA 
HETATM    4  C   UNL     1     -11.915  14.824  64.334  1.00  0.00    -0.417 A  
HETATM    5  C   UNL     1     -11.243  15.006  65.537  1.00  0.00    -0.344 A  
ENDROOT
BRANCH   4   6
HETATM    6  C   UNL     1     -12.574  13.545  63.821  1.00  0.00    -0.147 C  
HETATM    7  C   UNL     1     -11.699  12.467  63.212  1.00  0.00    -0.478 C  
HETATM    8  C   UNL     1     -12.291  12.254  64.562  1.00  0.00    -0.468 C  
ENDBRANCH   4   6
BRANCH   5   9
HETATM    9  C   UNL     1     -10.988  13.983  66.543  1.00  0.00    -0.306 C  
HETATM   10  O   UNL     1     -11.789  13.076  66.721  1.00  0.00    -0.368 OA 
BRANCH   9  11
HETATM   11  C   UNL     1      -9.810  14.049  67.465  1.00  0.00    -0.236 A  
HETATM   12  C   UNL     1      -9.802  14.824  68.647  1.00  0.00    -0.225 A  
HETATM   13  C   UNL     1      -8.622  14.957  69.402  1.00  0.00    -0.054 A  
HETATM   14  C   UNL     1      -8.602  13.451  67.059  1.00  0.00    -0.168 A  
HETATM   15  C   UNL     1      -7.425  14.358  68.985  1.00  0.00    -0.119 A  
HETATM   16  F   UNL     1      -6.317  15.300  70.896  1.00  0.00    -0.003 F  
HETATM   17  F   UNL     1      -5.591  13.383  70.172  1.00  0.00    -0.091 F  
HETATM   18  F   UNL     1      -5.189  15.197  69.040  1.00  0.00    -0.095 F  
HETATM   19  C   UNL     1      -6.142  14.557  69.767  1.00  0.00    -0.131 C  
HETATM   20  C   UNL     1      -7.429  13.599  67.811  1.00  0.00    -0.172 A  
BRANCH  12  21
HETATM   21  S   UNL     1     -11.295  15.613  69.242  1.00  0.00    -0.374 S  
HETATM   22  C   UNL     1     -11.198  15.704  71.007  1.00  0.00    -0.364 C  
HETATM   23  O   UNL     1     -11.260  16.994  68.803  1.00  0.00    -0.179 OA 
HETATM   24  O   UNL     1     -12.375  14.696  68.927  1.00  0.00    -0.181 OA 
ENDBRANCH  12  21
ENDBRANCH   9  11
ENDBRANCH   5   9
TORSDOF 4
ENDMDL
MODEL      198
REMARK 921   NORMALIZED FREE ENERGY PREDICTED BY IDOCK:   -3.61 KCAL/MOL
REMARK 922        TOTAL FREE ENERGY PREDICTED BY IDOCK:   -4.97 KCAL/MOL
REMARK 923 INTER-LIGAND FREE ENERGY PREDICTED BY IDOCK:   -5.05 KCAL/MOL
REMARK 924 INTRA-LIGAND FREE ENERGY PREDICTED BY IDOCK:    0.08 KCAL/MOL
REMARK 927      BINDING AFFINITY PREDICTED BY RF-SCORE:    0.00 PKD
ROOT
HETATM    1  C   UNL     1     -11.266   9.914  69.515  1.00  0.00    -0.177 A  
HETATM    2  N   UNL     1     -12.152  10.801  69.062  1.00  0.00    -0.398 NA 
HETATM    3  O   UNL     1     -11.801  11.024  67.745  1.00  0.00    -0.605 OA 
HETATM    4  C   UNL     1     -10.728  10.249  67.417  1.00  0.00    -0.281 A  
HETATM    5  C   UNL     1     -10.341   9.506  68.525  1.00  0.00    -0.234 A  
ENDROOT
BRANCH   4   6
HETATM    6  C   UNL     1     -10.103  10.235  66.023  1.00  0.00    -0.311 C  
HETATM    7  C   UNL     1     -10.629  11.199  64.978  1.00  0.00    -0.340 C  
HETATM    8  C   UNL     1      -9.295  11.442  65.594  1.00  0.00    -0.242 C  
ENDBRANCH   4   6
BRANCH   5   9
HETATM    9  C   UNL     1      -9.213   8.584  68.591  1.00  0.00    -0.142 C  
HETATM   10  O   UNL     1      -8.134   8.955  69.031  1.00  0.00    -0.110 OA 
BRANCH   9  11
HETATM   11  C   UNL     1      -9.287   7.196  68.033  1.00  0.00    -0.129 A  
HETATM   12  C   UNL     1      -9.420   6.047  68.847  1.00  0.00    -0.126 A  
HETATM   13  C   UNL     1      -9.345   4.762  68.279  1.00  0.00    -0.177 A  
HETATM   14  C   UNL     1      -9.046   7.008  66.659  1.00  0.00    -0.175 A  
HETATM   15  C   UNL     1      -9.102   4.589  66.908  1.00  0.00    -0.130 A  
HETATM   16  F   UNL     1      -9.149   2.209  67.225  1.00  0.00    -0.136 F  
HETATM   17  F   UNL     1      -9.850   2.970  65.314  1.00  0.00    -0.126 F  
HETATM   18  F   UNL     1      -7.725   2.994  65.783  1.00  0.00    -0.076 F  
HETATM   19  C   UNL     1      -8.959   3.203  66.313  1.00  0.00    -0.150 C  
HETATM   20  C   UNL     1      -8.961   5.724  66.104  1.00  0.00    -0.154 A  
BRANCH  12  21
HETATM   21  S   UNL     1      -9.735   6.193  70.602  1.00  0.00    -0.175 S  
HETATM   22  C   UNL     1     -11.415   6.711  70.813  1.00  0.00    -0.353 C  
HETATM   23  O   UNL     1      -9.693   4.857  71.163  1.00  0.00    -0.159 OA 
HETATM   24  O   UNL     1      -8.898   7.285  71.061  1.00  0.00    -0.142 OA 
ENDBRANCH  12  21
ENDBRANCH   9  11
ENDBRANCH   5   9
TORSDOF 4
ENDMDL
MODEL      199
REMARK 921   NORMALIZED FREE ENERGY PREDICTED BY IDOCK:   -3.60 KCAL/MOL
REMARK 922        TOTAL FREE ENERGY PREDICTED BY IDOCK:   -4.96 KCAL/MOL
REMARK 923 INTER-LIGAND FREE ENERGY PREDICTED BY IDOCK:   -4.38 KCAL/MOL
REMARK 924 INTRA-LIGAND FREE ENERGY PREDICTED BY IDOCK:   -0.58 KCAL/MOL
REMARK 927      BINDING AFFINITY PREDICTED BY RF-SCORE:    0.00 PKD
ROOT
HETATM    1  C   UNL     1      -9.645  12.329  67.898  1.00  0.00    -0.203 A  
HETATM    2  N   UNL     1      -9.527  13.400  67.112  1.00  0.00    -0.235 NA 
HETATM    3  O   UNL     1      -9.746  12.936  65.830  1.00  0.00    -0.252 OA 
HETATM    4  C   UNL     1     -10.018  11.600  65.864  1.00  0.00    -0.231 A  
HETATM    5  C   UNL     1      -9.970  11.154  67.179  1.00  0.00    -0.215 A  
ENDROOT
BRANCH   4   6
HETATM    6  C   UNL     1     -10.335  10.780  64.615  1.00  0.00    -0.394 C  
HETATM    7  C   UNL     1      -9.790  11.245  63.279  1.00  0.00    -0.418 C  
HETATM    8  C   UNL     1      -9.194  10.049  63.937  1.00  0.00    -0.317 C  
ENDBRANCH   4   6
BRANCH   5   9
HETATM    9  C   UNL     1     -10.169   9.782  67.629  1.00  0.00    -0.213 C  
HETATM   10  O   UNL     1     -11.019   9.075  67.106  1.00  0.00    -0.119 OA 
BRANCH   9  11
HETATM   11  C   UNL     1      -9.432   9.214  68.804  1.00  0.00    -0.147 A  
HETATM   12  C   UNL     1      -8.307   8.370  68.670  1.00  0.00    -0.120 A  
HETATM   13  C   UNL     1      -7.740   7.756  69.802  1.00  0.00    -0.097 A  
HETATM   14  C   UNL     1      -9.979   9.389  70.090  1.00  0.00    -0.269 A  
HETATM   15  C   UNL     1      -8.295   7.936  71.077  1.00  0.00    -0.112 A  
HETATM   16  F   UNL     1      -6.618   6.478  71.986  1.00  0.00    -0.053 F  
HETATM   17  F   UNL     1      -7.338   8.082  73.264  1.00  0.00    -0.113 F  
HETATM   18  F   UNL     1      -8.610   6.366  72.849  1.00  0.00    -0.123 F  
HETATM   19  C   UNL     1      -7.719   7.222  72.283  1.00  0.00    -0.092 C  
HETATM   20  C   UNL     1      -9.414   8.763  71.210  1.00  0.00    -0.320 A  
BRANCH  12  21
HETATM   21  S   UNL     1      -7.544   8.099  67.073  1.00  0.00    -0.097 S  
HETATM   22  C   UNL     1      -6.127   7.066  67.315  1.00  0.00    -0.040 C  
HETATM   23  O   UNL     1      -8.455   7.289  66.288  1.00  0.00    -0.121 OA 
HETATM   24  O   UNL     1      -7.051   9.396  66.649  1.00  0.00    -0.084 OA 
ENDBRANCH  12  21
ENDBRANCH   9  11
ENDBRANCH   5   9
TORSDOF 4
ENDMDL
MODEL      200
REMARK 921   NORMALIZED FREE ENERGY PREDICTED BY IDOCK:   -3.58 KCAL/MOL
REMARK 922        TOTAL FREE ENERGY PREDICTED BY IDOCK:   -4.94 KCAL/MOL
REMARK 923 INTER-LIGAND FREE ENERGY PREDICTED BY IDOCK:   -4.51 KCAL/MOL
REMARK 924 INTRA-LIGAND FREE ENERGY PREDICTED BY IDOCK:   -0.42 KCAL/MOL
REMARK 927      BINDING AFFINITY PREDICTED BY RF-SCORE:    0.00 PKD
ROOT
HETATM    1  C   UNL     1      -9.612   3.847  65.852  1.00  0.00    -0.181 A  
HETATM    2  N   UNL     1      -9.204   4.426  64.722  1.00  0.00    -0.154 NA 
HETATM    3  O   UNL     1      -8.510   5.551  65.121  1.00  0.00    -0.141 OA 
HETATM    4  C   UNL     1      -8.486   5.619  66.483  1.00  0.00    -0.114 A  
HETATM    5  C   UNL     1      -9.182   4.538  67.010  1.00  0.00    -0.145 A  
ENDROOT
BRANCH   4   6
HETATM    6  C   UNL     1      -7.773   6.731  67.251  1.00  0.00    -0.109 C  
HETATM    7  C   UNL     1      -7.174   7.886  66.474  1.00  0.00    -0.083 C  
HETATM    8  C   UNL     1      -8.413   8.103  67.271  1.00  0.00    -0.125 C  
ENDBRANCH   4   6
BRANCH   5   9
HETATM    9  C   UNL     1      -9.413   4.272  68.424  1.00  0.00    -0.155 C  
HETATM   10  O   UNL     1      -9.430   3.123  68.845  1.00  0.00    -0.168 OA 
BRANCH   9  11
HETATM   11  C   UNL     1      -9.743   5.363  69.396  1.00  0.00    -0.226 A  
HETATM   12  C   UNL     1      -9.050   5.542  70.615  1.00  0.00    -0.145 A  
HETATM   13  C   UNL     1      -9.492   6.496  71.551  1.00  0.00    -0.162 A  
HETATM   14  C   UNL     1     -10.895   6.140  69.171  1.00  0.00    -0.418 A  
HETATM   15  C   UNL     1     -10.643   7.262  71.315  1.00  0.00    -0.236 A  
HETATM   16  F   UNL     1     -10.349   8.317  73.452  1.00  0.00    -0.313 F  
HETATM   17  F   UNL     1     -11.246   9.509  71.871  1.00  0.00    -0.432 F  
HETATM   18  F   UNL     1     -12.387   7.913  72.812  1.00  0.00    -0.275 F  
HETATM   19  C   UNL     1     -11.151   8.242  72.353  1.00  0.00    -0.377 C  
HETATM   20  C   UNL     1     -11.334   7.080  70.114  1.00  0.00    -0.321 A  
BRANCH  12  21
HETATM   21  S   UNL     1      -7.571   4.602  70.981  1.00  0.00    -0.074 S  
HETATM   22  C   UNL     1      -6.776   5.356  72.371  1.00  0.00    -0.070 C  
HETATM   23  O   UNL     1      -7.992   3.301  71.463  1.00  0.00    -0.055 OA 
HETATM   24  O   UNL     1      -6.695   4.792  69.841  1.00  0.00    -0.035 OA 
ENDBRANCH  12  21
ENDBRANCH   9  11
ENDBRANCH   5   9
TORSDOF 4
ENDMDL
MODEL      201
REMARK 921   NORMALIZED FREE ENERGY PREDICTED BY IDOCK:   -3.58 KCAL/MOL
REMARK 922        TOTAL FREE ENERGY PREDICTED BY IDOCK:   -4.93 KCAL/MOL
REMARK 923 INTER-LIGAND FREE ENERGY PREDICTED BY IDOCK:   -4.55 KCAL/MOL
REMARK 924 INTRA-LIGAND FREE ENERGY PREDICTED BY IDOCK:   -0.38 KCAL/MOL
REMARK 927      BINDING AFFINITY PREDICTED BY RF-SCORE:    0.00 PKD
ROOT
HETATM    1  C   UNL     1     -11.007   8.963  70.406  1.00  0.00    -0.244 A  
HETATM    2  N   UNL     1     -12.013   9.251  71.233  1.00  0.00    -0.319 NA 
HETATM    3  O   UNL     1     -11.921   8.323  72.252  1.00  0.00    -0.341 OA 
HETATM    4  C   UNL     1     -10.847   7.509  72.039  1.00  0.00    -0.233 A  
HETATM    5  C   UNL     1     -10.216   7.881  70.858  1.00  0.00    -0.213 A  
ENDROOT
BRANCH   4   6
HETATM    6  C   UNL     1     -10.445   6.389  72.997  1.00  0.00    -0.253 C  
HETATM    7  C   UNL     1     -11.396   5.227  73.200  1.00  0.00    -0.358 C  
HETATM    8  C   UNL     1     -10.150   5.024  72.410  1.00  0.00    -0.238 C  
ENDBRANCH   4   6
BRANCH   5   9
HETATM    9  C   UNL     1      -9.051   7.234  70.266  1.00  0.00    -0.152 C  
HETATM   10  O   UNL     1      -7.945   7.367  70.770  1.00  0.00    -0.101 OA 
BRANCH   9  11
HETATM   11  C   UNL     1      -9.131   6.477  68.976  1.00  0.00    -0.132 A  
HETATM   12  C   UNL     1      -8.593   6.966  67.764  1.00  0.00    -0.122 A  
HETATM   13  C   UNL     1      -8.817   6.278  66.557  1.00  0.00    -0.140 A  
HETATM   14  C   UNL     1      -9.918   5.311  68.927  1.00  0.00    -0.250 A  
HETATM   15  C   UNL     1      -9.605   5.118  66.521  1.00  0.00    -0.166 A  
HETATM   16  F   UNL     1      -9.275   4.997  64.146  1.00  0.00    -0.123 F  
HETATM   17  F   UNL     1      -9.500   3.117  65.215  1.00  0.00    -0.151 F  
HETATM   18  F   UNL     1     -11.223   4.411  64.912  1.00  0.00    -0.363 F  
HETATM   19  C   UNL     1      -9.897   4.417  65.210  1.00  0.00    -0.199 C  
HETATM   20  C   UNL     1     -10.146   4.638  67.718  1.00  0.00    -0.097 A  
BRANCH  12  21
HETATM   21  S   UNL     1      -7.574   8.438  67.736  1.00  0.00    -0.103 S  
HETATM   22  C   UNL     1      -7.259   8.851  66.044  1.00  0.00    -0.089 C  
HETATM   23  O   UNL     1      -8.382   9.534  68.234  1.00  0.00    -0.116 OA 
HETATM   24  O   UNL     1      -6.304   8.046  68.317  1.00  0.00    -0.047 OA 
ENDBRANCH  12  21
ENDBRANCH   9  11
ENDBRANCH   5   9
TORSDOF 4
ENDMDL
MODEL      202
REMARK 921   NORMALIZED FREE ENERGY PREDICTED BY IDOCK:   -3.58 KCAL/MOL
REMARK 922        TOTAL FREE ENERGY PREDICTED BY IDOCK:   -4.93 KCAL/MOL
REMARK 923 INTER-LIGAND FREE ENERGY PREDICTED BY IDOCK:   -5.30 KCAL/MOL
REMARK 924 INTRA-LIGAND FREE ENERGY PREDICTED BY IDOCK:    0.37 KCAL/MOL
REMARK 927      BINDING AFFINITY PREDICTED BY RF-SCORE:    0.00 PKD
ROOT
HETATM    1  C   UNL     1      -7.335   8.394  68.097  1.00  0.00    -0.096 A  
HETATM    2  N   UNL     1      -7.151   7.862  66.889  1.00  0.00    -0.076 NA 
HETATM    3  O   UNL     1      -7.454   6.522  67.032  1.00  0.00    -0.084 OA 
HETATM    4  C   UNL     1      -7.842   6.272  68.315  1.00  0.00    -0.105 A  
HETATM    5  C   UNL     1      -7.787   7.450  69.051  1.00  0.00    -0.120 A  
ENDROOT
BRANCH   4   6
HETATM    6  C   UNL     1      -8.273   4.890  68.803  1.00  0.00    -0.083 C  
HETATM    7  C   UNL     1      -8.829   3.902  67.797  1.00  0.00    -0.135 C  
HETATM    8  C   UNL     1      -7.463   3.693  68.352  1.00  0.00    -0.054 C  
ENDBRANCH   4   6
BRANCH   5   9
HETATM    9  C   UNL     1      -8.091   7.592  70.469  1.00  0.00    -0.105 C  
HETATM   10  O   UNL     1      -7.310   7.181  71.315  1.00  0.00    -0.076 OA 
BRANCH   9  11
HETATM   11  C   UNL     1      -9.399   8.142  70.952  1.00  0.00    -0.173 A  
HETATM   12  C   UNL     1     -10.291   7.402  71.761  1.00  0.00    -0.192 A  
HETATM   13  C   UNL     1     -11.564   7.917  72.070  1.00  0.00    -0.357 A  
HETATM   14  C   UNL     1      -9.837   9.380  70.445  1.00  0.00    -0.313 A  
HETATM   15  C   UNL     1     -11.989   9.151  71.556  1.00  0.00    -0.422 A  
HETATM   16  F   UNL     1     -14.100   8.855  72.662  1.00  0.00    -0.464 F  
HETATM   17  F   UNL     1     -13.374  10.891  72.438  1.00  0.00    -0.533 F  
HETATM   18  F   UNL     1     -14.124   9.805  70.708  1.00  0.00    -0.290 F  
HETATM   19  C   UNL     1     -13.384   9.671  71.840  1.00  0.00    -0.438 C  
HETATM   20  C   UNL     1     -11.112   9.879  70.748  1.00  0.00    -0.417 A  
BRANCH  12  21
HETATM   21  S   UNL     1      -9.813   5.823  72.454  1.00  0.00    -0.164 S  
HETATM   22  C   UNL     1     -11.220   5.143  73.285  1.00  0.00    -0.321 C  
HETATM   23  O   UNL     1      -9.572   4.918  71.346  1.00  0.00    -0.151 OA 
HETATM   24  O   UNL     1      -8.827   6.124  73.474  1.00  0.00    -0.125 OA 
ENDBRANCH  12  21
ENDBRANCH   9  11
ENDBRANCH   5   9
TORSDOF 4
ENDMDL
MODEL      203
REMARK 921   NORMALIZED FREE ENERGY PREDICTED BY IDOCK:   -3.55 KCAL/MOL
REMARK 922        TOTAL FREE ENERGY PREDICTED BY IDOCK:   -4.90 KCAL/MOL
REMARK 923 INTER-LIGAND FREE ENERGY PREDICTED BY IDOCK:   -4.60 KCAL/MOL
REMARK 924 INTRA-LIGAND FREE ENERGY PREDICTED BY IDOCK:   -0.30 KCAL/MOL
REMARK 927      BINDING AFFINITY PREDICTED BY RF-SCORE:    0.00 PKD
ROOT
HETATM    1  C   UNL     1      -5.591  15.037  70.037  1.00  0.00    -0.121 A  
HETATM    2  N   UNL     1      -5.337  15.873  71.044  1.00  0.00    -0.100 NA 
HETATM    3  O   UNL     1      -5.760  17.112  70.602  1.00  0.00    -0.149 OA 
HETATM    4  C   UNL     1      -6.287  16.999  69.349  1.00  0.00    -0.236 A  
HETATM    5  C   UNL     1      -6.207  15.675  68.934  1.00  0.00    -0.109 A  
ENDROOT
BRANCH   4   6
HETATM    6  C   UNL     1      -6.872  18.182  68.580  1.00  0.00    -0.253 C  
HETATM    7  C   UNL     1      -6.746  19.571  69.172  1.00  0.00    -0.373 C  
HETATM    8  C   UNL     1      -5.911  19.197  67.998  1.00  0.00    -0.211 C  
ENDBRANCH   4   6
BRANCH   5   9
HETATM    9  C   UNL     1      -6.631  15.153  67.641  1.00  0.00    -0.171 C  
HETATM   10  O   UNL     1      -6.312  15.724  66.607  1.00  0.00    -0.098 OA 
BRANCH   9  11
HETATM   11  C   UNL     1      -7.551  13.977  67.520  1.00  0.00    -0.195 A  
HETATM   12  C   UNL     1      -8.902  14.013  67.932  1.00  0.00    -0.185 A  
HETATM   13  C   UNL     1      -9.680  12.840  67.923  1.00  0.00    -0.217 A  
HETATM   14  C   UNL     1      -7.009  12.735  67.137  1.00  0.00     0.004 A  
HETATM   15  C   UNL     1      -9.128  11.609  67.541  1.00  0.00    -0.172 A  
HETATM   16  F   UNL     1     -11.240  10.554  67.978  1.00  0.00    -0.286 F  
HETATM   17  F   UNL     1     -10.019   9.711  66.390  1.00  0.00    -0.246 F  
HETATM   18  F   UNL     1      -9.445   9.431  68.470  1.00  0.00    -0.142 F  
HETATM   19  C   UNL     1      -9.951  10.338  67.594  1.00  0.00    -0.179 C  
HETATM   20  C   UNL     1      -7.788  11.570  67.142  1.00  0.00    -0.160 A  
BRANCH  12  21
HETATM   21  S   UNL     1      -9.674  15.551  68.428  1.00  0.00    -0.206 S  
HETATM   22  C   UNL     1     -11.421  15.280  68.517  1.00  0.00    -0.342 C  
HETATM   23  O   UNL     1      -9.275  15.815  69.797  1.00  0.00    -0.225 OA 
HETATM   24  O   UNL     1      -9.447  16.474  67.332  1.00  0.00    -0.225 OA 
ENDBRANCH  12  21
ENDBRANCH   9  11
ENDBRANCH   5   9
TORSDOF 4
ENDMDL
MODEL      204
REMARK 921   NORMALIZED FREE ENERGY PREDICTED BY IDOCK:   -3.53 KCAL/MOL
REMARK 922        TOTAL FREE ENERGY PREDICTED BY IDOCK:   -4.87 KCAL/MOL
REMARK 923 INTER-LIGAND FREE ENERGY PREDICTED BY IDOCK:   -5.74 KCAL/MOL
REMARK 924 INTRA-LIGAND FREE ENERGY PREDICTED BY IDOCK:    0.87 KCAL/MOL
REMARK 927      BINDING AFFINITY PREDICTED BY RF-SCORE:    0.00 PKD
ROOT
HETATM    1  C   UNL     1      -8.954  10.806  65.125  1.00  0.00    -0.198 A  
HETATM    2  N   UNL     1      -9.233   9.908  64.179  1.00  0.00    -0.263 NA 
HETATM    3  O   UNL     1      -9.602   8.766  64.862  1.00  0.00     0.299 OA 
HETATM    4  C   UNL     1      -9.568   8.999  66.205  1.00  0.00    -0.272 A  
HETATM    5  C   UNL     1      -9.158  10.307  66.434  1.00  0.00    -0.174 A  
ENDROOT
BRANCH   4   6
HETATM    6  C   UNL     1      -9.948   7.948  67.245  1.00  0.00    -0.280 C  
HETATM    7  C   UNL     1     -11.004   6.919  66.891  1.00  0.00    -0.328 C  
HETATM    8  C   UNL     1      -9.575   6.506  66.968  1.00  0.00    -0.174 C  
ENDBRANCH   4   6
BRANCH   5   9
HETATM    9  C   UNL     1      -8.961  10.930  67.737  1.00  0.00    -0.139 C  
HETATM   10  O   UNL     1      -7.941  11.562  67.975  1.00  0.00    -0.117 OA 
BRANCH   9  11
HETATM   11  C   UNL     1      -9.930  10.741  68.864  1.00  0.00    -0.213 A  
HETATM   12  C   UNL     1      -9.643   9.948  69.999  1.00  0.00    -0.214 A  
HETATM   13  C   UNL     1     -10.639   9.695  70.959  1.00  0.00    -0.362 A  
HETATM   14  C   UNL     1     -11.240  11.233  68.715  1.00  0.00    -0.311 A  
HETATM   15  C   UNL     1     -11.942  10.189  70.798  1.00  0.00    -0.442 A  
HETATM   16  F   UNL     1     -12.576   9.117  72.851  1.00  0.00    -0.356 F  
HETATM   17  F   UNL     1     -13.590  10.972  72.345  1.00  0.00    -0.475 F  
HETATM   18  F   UNL     1     -14.045   9.148  71.249  1.00  0.00    -0.423 F  
HETATM   19  C   UNL     1     -13.028   9.860  71.803  1.00  0.00    -0.449 C  
HETATM   20  C   UNL     1     -12.230  10.965  69.672  1.00  0.00    -0.354 A  
BRANCH  12  21
HETATM   21  S   UNL     1      -8.001   9.289  70.271  1.00  0.00    -0.163 S  
HETATM   22  C   UNL     1      -6.861  10.643  70.253  1.00  0.00    -0.038 C  
HETATM   23  O   UNL     1      -7.953   8.790  71.631  1.00  0.00    -0.207 OA 
HETATM   24  O   UNL     1      -7.706   8.477  69.105  1.00  0.00    -0.088 OA 
ENDBRANCH  12  21
ENDBRANCH   9  11
ENDBRANCH   5   9
TORSDOF 4
ENDMDL
MODEL      205
REMARK 921   NORMALIZED FREE ENERGY PREDICTED BY IDOCK:   -3.52 KCAL/MOL
REMARK 922        TOTAL FREE ENERGY PREDICTED BY IDOCK:   -4.86 KCAL/MOL
REMARK 923 INTER-LIGAND FREE ENERGY PREDICTED BY IDOCK:   -4.52 KCAL/MOL
REMARK 924 INTRA-LIGAND FREE ENERGY PREDICTED BY IDOCK:   -0.34 KCAL/MOL
REMARK 927      BINDING AFFINITY PREDICTED BY RF-SCORE:    0.00 PKD
ROOT
HETATM    1  C   UNL     1     -11.088  14.447  69.729  1.00  0.00    -0.159 A  
HETATM    2  N   UNL     1     -11.132  15.745  70.031  1.00  0.00    -0.312 NA 
HETATM    3  O   UNL     1     -10.614  16.392  68.926  1.00  0.00    -0.265 OA 
HETATM    4  C   UNL     1     -10.293  15.478  67.966  1.00  0.00    -0.247 A  
HETATM    5  C   UNL     1     -10.582  14.201  68.431  1.00  0.00    -0.263 A  
ENDROOT
BRANCH   4   6
HETATM    6  C   UNL     1      -9.720  15.865  66.603  1.00  0.00    -0.270 C  
HETATM    7  C   UNL     1     -10.664  15.991  65.424  1.00  0.00    -0.399 C  
HETATM    8  C   UNL     1     -10.088  17.220  66.037  1.00  0.00    -0.275 C  
ENDBRANCH   4   6
BRANCH   5   9
HETATM    9  C   UNL     1     -10.348  12.953  67.716  1.00  0.00    -0.222 C  
HETATM   10  O   UNL     1     -11.055  12.639  66.768  1.00  0.00    -0.258 OA 
BRANCH   9  11
HETATM   11  C   UNL     1      -9.319  11.960  68.162  1.00  0.00    -0.191 A  
HETATM   12  C   UNL     1      -9.607  10.907  69.060  1.00  0.00    -0.156 A  
HETATM   13  C   UNL     1      -8.572  10.089  69.552  1.00  0.00    -0.197 A  
HETATM   14  C   UNL     1      -7.974  12.179  67.809  1.00  0.00    -0.151 A  
HETATM   15  C   UNL     1      -7.236  10.319  69.194  1.00  0.00    -0.083 A  
HETATM   16  F   UNL     1      -6.571   8.485  70.593  1.00  0.00    -0.035 F  
HETATM   17  F   UNL     1      -5.376   8.862  68.817  1.00  0.00    -0.032 F  
HETATM   18  F   UNL     1      -5.252  10.211  70.520  1.00  0.00    -0.036 F  
HETATM   19  C   UNL     1      -6.119   9.476  69.775  1.00  0.00    -0.039 C  
HETATM   20  C   UNL     1      -6.949  11.366  68.313  1.00  0.00    -0.072 A  
BRANCH  12  21
HETATM   21  S   UNL     1     -11.290  10.553  69.556  1.00  0.00    -0.288 S  
HETATM   22  C   UNL     1     -11.311   8.949  70.306  1.00  0.00    -0.159 C  
HETATM   23  O   UNL     1     -11.625  11.463  70.634  1.00  0.00    -0.222 OA 
HETATM   24  O   UNL     1     -12.048  10.451  68.324  1.00  0.00    -0.187 OA 
ENDBRANCH  12  21
ENDBRANCH   9  11
ENDBRANCH   5   9
TORSDOF 4
ENDMDL
MODEL      206
REMARK 921   NORMALIZED FREE ENERGY PREDICTED BY IDOCK:   -3.50 KCAL/MOL
REMARK 922        TOTAL FREE ENERGY PREDICTED BY IDOCK:   -4.84 KCAL/MOL
REMARK 923 INTER-LIGAND FREE ENERGY PREDICTED BY IDOCK:   -4.46 KCAL/MOL
REMARK 924 INTRA-LIGAND FREE ENERGY PREDICTED BY IDOCK:   -0.39 KCAL/MOL
REMARK 927      BINDING AFFINITY PREDICTED BY RF-SCORE:    0.00 PKD
ROOT
HETATM    1  C   UNL     1     -11.343  11.017  70.401  1.00  0.00    -0.132 A  
HETATM    2  N   UNL     1     -12.537  10.786  70.946  1.00  0.00    -0.371 NA 
HETATM    3  O   UNL     1     -12.598   9.417  71.121  1.00  0.00    -0.314 OA 
HETATM    4  C   UNL     1     -11.430   8.847  70.706  1.00  0.00    -0.275 A  
HETATM    5  C   UNL     1     -10.578   9.837  70.232  1.00  0.00    -0.348 A  
ENDROOT
BRANCH   4   6
HETATM    6  C   UNL     1     -11.158   7.347  70.789  1.00  0.00    -0.285 C  
HETATM    7  C   UNL     1     -10.559   6.783  72.062  1.00  0.00    -0.239 C  
HETATM    8  C   UNL     1     -11.992   6.525  71.750  1.00  0.00    -0.394 C  
ENDBRANCH   4   6
BRANCH   5   9
HETATM    9  C   UNL     1      -9.250   9.630  69.668  1.00  0.00    -0.211 C  
HETATM   10  O   UNL     1      -8.276   9.518  70.399  1.00  0.00    -0.173 OA 
BRANCH   9  11
HETATM   11  C   UNL     1      -9.001   9.653  68.191  1.00  0.00    -0.123 A  
HETATM   12  C   UNL     1      -8.229  10.654  67.557  1.00  0.00    -0.111 A  
HETATM   13  C   UNL     1      -8.143  10.702  66.154  1.00  0.00    -0.154 A  
HETATM   14  C   UNL     1      -9.697   8.739  67.377  1.00  0.00    -0.225 A  
HETATM   15  C   UNL     1      -8.843   9.787  65.354  1.00  0.00    -0.199 A  
HETATM   16  F   UNL     1      -7.982  10.879  63.396  1.00  0.00    -0.078 F  
HETATM   17  F   UNL     1      -8.346   8.741  63.261  1.00  0.00    -0.167 F  
HETATM   18  F   UNL     1     -10.021  10.130  63.303  1.00  0.00    -0.311 F  
HETATM   19  C   UNL     1      -8.797   9.883  63.842  1.00  0.00    -0.227 C  
HETATM   20  C   UNL     1      -9.614   8.803  65.979  1.00  0.00    -0.297 A  
BRANCH  12  21
HETATM   21  S   UNL     1      -7.306  11.850  68.516  1.00  0.00    -0.115 S  
HETATM   22  C   UNL     1      -6.614  13.031  67.394  1.00  0.00    -0.107 C  
HETATM   23  O   UNL     1      -8.261  12.609  69.300  1.00  0.00     0.447 OA 
HETATM   24  O   UNL     1      -6.195  11.117  69.093  1.00  0.00    -0.047 OA 
ENDBRANCH  12  21
ENDBRANCH   9  11
ENDBRANCH   5   9
TORSDOF 4
ENDMDL
MODEL      207
REMARK 921   NORMALIZED FREE ENERGY PREDICTED BY IDOCK:   -3.50 KCAL/MOL
REMARK 922        TOTAL FREE ENERGY PREDICTED BY IDOCK:   -4.84 KCAL/MOL
REMARK 923 INTER-LIGAND FREE ENERGY PREDICTED BY IDOCK:   -4.37 KCAL/MOL
REMARK 924 INTRA-LIGAND FREE ENERGY PREDICTED BY IDOCK:   -0.47 KCAL/MOL
REMARK 927      BINDING AFFINITY PREDICTED BY RF-SCORE:    0.00 PKD
ROOT
HETATM    1  C   UNL     1      -8.077   4.572  64.646  1.00  0.00    -0.101 A  
HETATM    2  N   UNL     1      -6.998   5.219  64.205  1.00  0.00    -0.048 NA 
HETATM    3  O   UNL     1      -6.971   6.404  64.914  1.00  0.00    -0.049 OA 
HETATM    4  C   UNL     1      -8.017   6.442  65.788  1.00  0.00    -0.117 A  
HETATM    5  C   UNL     1      -8.766   5.279  65.660  1.00  0.00    -0.146 A  
ENDROOT
BRANCH   4   6
HETATM    6  C   UNL     1      -8.264   7.607  66.745  1.00  0.00    -0.124 C  
HETATM    7  C   UNL     1      -7.120   8.094  67.612  1.00  0.00    -0.087 C  
HETATM    8  C   UNL     1      -7.569   8.922  66.458  1.00  0.00    -0.092 C  
ENDBRANCH   4   6
BRANCH   5   9
HETATM    9  C   UNL     1      -9.983   4.955  66.394  1.00  0.00    -0.234 C  
HETATM   10  O   UNL     1     -10.962   4.515  65.808  1.00  0.00    -0.165 OA 
BRANCH   9  11
HETATM   11  C   UNL     1     -10.131   5.242  67.857  1.00  0.00    -0.208 A  
HETATM   12  C   UNL     1      -9.535   4.443  68.861  1.00  0.00    -0.165 A  
HETATM   13  C   UNL     1      -9.821   4.679  70.218  1.00  0.00    -0.314 A  
HETATM   14  C   UNL     1     -11.033   6.245  68.259  1.00  0.00    -0.408 A  
HETATM   15  C   UNL     1     -10.723   5.680  70.605  1.00  0.00    -0.333 A  
HETATM   16  F   UNL     1     -10.389   5.060  72.901  1.00  0.00    -0.191 F  
HETATM   17  F   UNL     1     -10.814   7.151  72.489  1.00  0.00    -0.228 F  
HETATM   18  F   UNL     1     -12.393   5.664  72.314  1.00  0.00    -0.290 F  
HETATM   19  C   UNL     1     -11.075   5.887  72.064  1.00  0.00    -0.274 C  
HETATM   20  C   UNL     1     -11.320   6.465  69.614  1.00  0.00    -0.479 A  
BRANCH  12  21
HETATM   21  S   UNL     1      -8.371   3.151  68.439  1.00  0.00    -0.076 S  
HETATM   22  C   UNL     1      -7.972   2.272  69.923  1.00  0.00    -0.041 C  
HETATM   23  O   UNL     1      -9.074   2.183  67.620  1.00  0.00    -0.141 OA 
HETATM   24  O   UNL     1      -7.163   3.835  68.018  1.00  0.00    -0.057 OA 
ENDBRANCH  12  21
ENDBRANCH   9  11
ENDBRANCH   5   9
TORSDOF 4
ENDMDL
MODEL      208
REMARK 921   NORMALIZED FREE ENERGY PREDICTED BY IDOCK:   -3.48 KCAL/MOL
REMARK 922        TOTAL FREE ENERGY PREDICTED BY IDOCK:   -4.81 KCAL/MOL
REMARK 923 INTER-LIGAND FREE ENERGY PREDICTED BY IDOCK:   -4.39 KCAL/MOL
REMARK 924 INTRA-LIGAND FREE ENERGY PREDICTED BY IDOCK:   -0.43 KCAL/MOL
REMARK 927      BINDING AFFINITY PREDICTED BY RF-SCORE:    0.00 PKD
ROOT
HETATM    1  C   UNL     1      -8.958   4.978  70.765  1.00  0.00    -0.132 A  
HETATM    2  N   UNL     1      -7.756   4.966  71.342  1.00  0.00    -0.086 NA 
HETATM    3  O   UNL     1      -7.245   6.234  71.141  1.00  0.00    -0.075 OA 
HETATM    4  C   UNL     1      -8.155   6.997  70.472  1.00  0.00    -0.114 A  
HETATM    5  C   UNL     1      -9.287   6.236  70.205  1.00  0.00    -0.170 A  
ENDROOT
BRANCH   4   6
HETATM    6  C   UNL     1      -7.914   8.462  70.114  1.00  0.00    -0.102 C  
HETATM    7  C   UNL     1      -6.912   9.257  70.928  1.00  0.00    -0.107 C  
HETATM    8  C   UNL     1      -6.564   8.840  69.541  1.00  0.00    -0.044 C  
ENDBRANCH   4   6
BRANCH   5   9
HETATM    9  C   UNL     1     -10.469   6.679  69.477  1.00  0.00    -0.218 C  
HETATM   10  O   UNL     1     -11.580   6.280  69.796  1.00  0.00    -0.436 OA 
BRANCH   9  11
HETATM   11  C   UNL     1     -10.374   7.544  68.258  1.00  0.00    -0.233 A  
HETATM   12  C   UNL     1      -9.757   7.119  67.059  1.00  0.00    -0.170 A  
HETATM   13  C   UNL     1      -9.575   8.020  65.994  1.00  0.00    -0.072 A  
HETATM   14  C   UNL     1     -10.765   8.894  68.357  1.00  0.00    -0.126 A  
HETATM   15  C   UNL     1      -9.967   9.362  66.107  1.00  0.00    -0.351 A  
HETATM   16  F   UNL     1      -9.142   9.764  63.888  1.00  0.00    -0.224 F  
HETATM   17  F   UNL     1     -10.851  10.938  64.539  1.00  0.00    -0.404 F  
HETATM   18  F   UNL     1      -8.874  11.348  65.352  1.00  0.00    -0.184 F  
HETATM   19  C   UNL     1      -9.712  10.344  64.981  1.00  0.00    -0.300 C  
HETATM   20  C   UNL     1     -10.569   9.787  67.295  1.00  0.00    -0.320 A  
BRANCH  12  21
HETATM   21  S   UNL     1      -9.237   5.420  66.844  1.00  0.00    -0.125 S  
HETATM   22  C   UNL     1      -8.870   5.175  65.130  1.00  0.00    -0.146 C  
HETATM   23  O   UNL     1      -7.960   5.268  67.515  1.00  0.00    -0.099 OA 
HETATM   24  O   UNL     1     -10.404   4.612  67.144  1.00  0.00    -0.148 OA 
ENDBRANCH  12  21
ENDBRANCH   9  11
ENDBRANCH   5   9
TORSDOF 4
ENDMDL
MODEL      209
REMARK 921   NORMALIZED FREE ENERGY PREDICTED BY IDOCK:   -3.47 KCAL/MOL
REMARK 922        TOTAL FREE ENERGY PREDICTED BY IDOCK:   -4.80 KCAL/MOL
REMARK 923 INTER-LIGAND FREE ENERGY PREDICTED BY IDOCK:   -5.42 KCAL/MOL
REMARK 924 INTRA-LIGAND FREE ENERGY PREDICTED BY IDOCK:    0.63 KCAL/MOL
REMARK 927      BINDING AFFINITY PREDICTED BY RF-SCORE:    0.00 PKD
ROOT
HETATM    1  C   UNL     1      -6.608  17.216  69.443  1.00  0.00    -0.220 A  
HETATM    2  N   UNL     1      -5.995  18.227  70.060  1.00  0.00    -0.209 NA 
HETATM    3  O   UNL     1      -5.901  19.227  69.111  1.00  0.00    -0.216 OA 
HETATM    4  C   UNL     1      -6.482  18.815  67.948  1.00  0.00    -0.209 A  
HETATM    5  C   UNL     1      -6.960  17.520  68.106  1.00  0.00    -0.200 A  
ENDROOT
BRANCH   4   6
HETATM    6  C   UNL     1      -6.573  19.695  66.703  1.00  0.00    -0.197 C  
HETATM    7  C   UNL     1      -6.353  21.188  66.847  1.00  0.00    -0.397 C  
HETATM    8  C   UNL     1      -5.303  20.351  66.202  1.00  0.00    -0.199 C  
ENDBRANCH   4   6
BRANCH   5   9
HETATM    9  C   UNL     1      -7.614  16.714  67.082  1.00  0.00    -0.184 C  
HETATM   10  O   UNL     1      -7.954  17.218  66.021  1.00  0.00    -0.462 OA 
BRANCH   9  11
HETATM   11  C   UNL     1      -7.992  15.284  67.316  1.00  0.00    -0.231 A  
HETATM   12  C   UNL     1      -9.299  14.884  67.680  1.00  0.00    -0.191 A  
HETATM   13  C   UNL     1      -9.563  13.545  68.020  1.00  0.00    -0.221 A  
HETATM   14  C   UNL     1      -6.973  14.313  67.340  1.00  0.00    -0.077 A  
HETATM   15  C   UNL     1      -8.538  12.588  68.042  1.00  0.00    -0.185 A  
HETATM   16  F   UNL     1     -10.129  10.936  68.754  1.00  0.00    -0.164 F  
HETATM   17  F   UNL     1      -8.477  10.255  67.517  1.00  0.00    -0.117 F  
HETATM   18  F   UNL     1      -8.127  10.815  69.590  1.00  0.00    -0.140 F  
HETATM   19  C   UNL     1      -8.816  11.161  68.471  1.00  0.00    -0.161 C  
HETATM   20  C   UNL     1      -7.244  12.983  67.692  1.00  0.00    -0.151 A  
BRANCH  12  21
HETATM   21  S   UNL     1     -10.656  16.051  67.669  1.00  0.00    -0.313 S  
HETATM   22  C   UNL     1     -10.269  17.347  68.812  1.00  0.00    -0.361 C  
HETATM   23  O   UNL     1     -10.660  16.700  66.372  1.00  0.00    -0.284 OA 
HETATM   24  O   UNL     1     -11.793  15.335  68.214  1.00  0.00    -0.336 OA 
ENDBRANCH  12  21
ENDBRANCH   9  11
ENDBRANCH   5   9
TORSDOF 4
ENDMDL
MODEL      210
REMARK 921   NORMALIZED FREE ENERGY PREDICTED BY IDOCK:   -3.46 KCAL/MOL
REMARK 922        TOTAL FREE ENERGY PREDICTED BY IDOCK:   -4.79 KCAL/MOL
REMARK 923 INTER-LIGAND FREE ENERGY PREDICTED BY IDOCK:   -4.95 KCAL/MOL
REMARK 924 INTRA-LIGAND FREE ENERGY PREDICTED BY IDOCK:    0.16 KCAL/MOL
REMARK 927      BINDING AFFINITY PREDICTED BY RF-SCORE:    0.00 PKD
ROOT
HETATM    1  C   UNL     1      -8.957   5.493  71.658  1.00  0.00    -0.136 A  
HETATM    2  N   UNL     1      -7.638   5.330  71.766  1.00  0.00    -0.104 NA 
HETATM    3  O   UNL     1      -7.102   6.592  71.596  1.00  0.00    -0.077 OA 
HETATM    4  C   UNL     1      -8.105   7.498  71.417  1.00  0.00    -0.096 A  
HETATM    5  C   UNL     1      -9.330   6.843  71.451  1.00  0.00    -0.156 A  
ENDROOT
BRANCH   4   6
HETATM    6  C   UNL     1      -7.855   8.993  71.227  1.00  0.00    -0.128 C  
HETATM    7  C   UNL     1      -6.444   9.466  70.938  1.00  0.00    -0.096 C  
HETATM    8  C   UNL     1      -7.459   9.478  69.848  1.00  0.00    -0.113 C  
ENDBRANCH   4   6
BRANCH   5   9
HETATM    9  C   UNL     1     -10.638   7.456  71.263  1.00  0.00    -0.216 C  
HETATM   10  O   UNL     1     -11.605   7.064  71.902  1.00  0.00    -0.264 OA 
BRANCH   9  11
HETATM   11  C   UNL     1     -10.884   8.504  70.222  1.00  0.00    -0.249 A  
HETATM   12  C   UNL     1     -10.846   8.232  68.835  1.00  0.00     0.034 A  
HETATM   13  C   UNL     1     -10.948   9.281  67.902  1.00  0.00    -0.076 A  
HETATM   14  C   UNL     1     -10.993   9.847  70.630  1.00  0.00    -0.405 A  
HETATM   15  C   UNL     1     -11.053  10.615  68.322  1.00  0.00    -0.334 A  
HETATM   16  F   UNL     1     -11.087  11.310  66.024  1.00  0.00    -0.328 F  
HETATM   17  F   UNL     1     -12.213  12.513  67.441  1.00  0.00    -0.385 F  
HETATM   18  F   UNL     1     -10.039  12.588  67.435  1.00  0.00    -0.204 F  
HETATM   19  C   UNL     1     -11.099  11.746  67.314  1.00  0.00    -0.287 C  
HETATM   20  C   UNL     1     -11.082  10.886  69.693  1.00  0.00    -0.328 A  
BRANCH  12  21
HETATM   21  S   UNL     1     -10.718   6.554  68.228  1.00  0.00    -0.292 S  
HETATM   22  C   UNL     1      -8.999   6.138  68.133  1.00  0.00    -0.114 C  
HETATM   23  O   UNL     1     -11.247   5.679  69.256  1.00  0.00    -0.206 OA 
HETATM   24  O   UNL     1     -11.217   6.589  66.867  1.00  0.00    -0.387 OA 
ENDBRANCH  12  21
ENDBRANCH   9  11
ENDBRANCH   5   9
TORSDOF 4
ENDMDL
MODEL      211
REMARK 921   NORMALIZED FREE ENERGY PREDICTED BY IDOCK:   -3.40 KCAL/MOL
REMARK 922        TOTAL FREE ENERGY PREDICTED BY IDOCK:   -4.72 KCAL/MOL
REMARK 923 INTER-LIGAND FREE ENERGY PREDICTED BY IDOCK:   -4.13 KCAL/MOL
REMARK 924 INTRA-LIGAND FREE ENERGY PREDICTED BY IDOCK:   -0.58 KCAL/MOL
REMARK 927      BINDING AFFINITY PREDICTED BY RF-SCORE:    0.00 PKD
ROOT
HETATM    1  C   UNL     1      -9.342   5.990  71.595  1.00  0.00    -0.148 A  
HETATM    2  N   UNL     1      -9.554   6.134  72.903  1.00  0.00    -0.154 NA 
HETATM    3  O   UNL     1     -10.744   6.829  73.003  1.00  0.00    -0.248 OA 
HETATM    4  C   UNL     1     -11.243   7.069  71.757  1.00  0.00    -0.246 A  
HETATM    5  C   UNL     1     -10.377   6.545  70.805  1.00  0.00    -0.241 A  
ENDROOT
BRANCH   4   6
HETATM    6  C   UNL     1     -12.565   7.795  71.513  1.00  0.00    -0.356 C  
HETATM    7  C   UNL     1     -13.067   8.768  72.561  1.00  0.00    -0.392 C  
HETATM    8  C   UNL     1     -12.521   9.291  71.278  1.00  0.00    -0.389 C  
ENDBRANCH   4   6
BRANCH   5   9
HETATM    9  C   UNL     1     -10.539   6.627  69.359  1.00  0.00    -0.240 C  
HETATM   10  O   UNL     1     -11.637   6.461  68.847  1.00  0.00    -0.230 OA 
BRANCH   9  11
HETATM   11  C   UNL     1      -9.372   6.808  68.437  1.00  0.00    -0.124 A  
HETATM   12  C   UNL     1      -8.956   8.073  67.963  1.00  0.00    -0.130 A  
HETATM   13  C   UNL     1      -7.942   8.170  66.992  1.00  0.00    -0.104 A  
HETATM   14  C   UNL     1      -8.767   5.663  67.884  1.00  0.00    -0.107 A  
HETATM   15  C   UNL     1      -7.349   7.021  66.447  1.00  0.00    -0.080 A  
HETATM   16  F   UNL     1      -5.993   8.418  65.042  1.00  0.00    -0.046 F  
HETATM   17  F   UNL     1      -5.131   6.533  65.698  1.00  0.00    -0.015 F  
HETATM   18  F   UNL     1      -6.706   6.547  64.196  1.00  0.00    -0.035 F  
HETATM   19  C   UNL     1      -6.303   7.129  65.356  1.00  0.00    -0.037 C  
HETATM   20  C   UNL     1      -7.766   5.769  66.908  1.00  0.00    -0.101 A  
BRANCH  12  21
HETATM   21  S   UNL     1      -9.665   9.580  68.617  1.00  0.00    -0.159 S  
HETATM   22  C   UNL     1      -8.794  10.946  67.904  1.00  0.00    -0.134 C  
HETATM   23  O   UNL     1     -11.011   9.691  68.088  1.00  0.00    -0.216 OA 
HETATM   24  O   UNL     1      -9.355   9.577  70.034  1.00  0.00    -0.201 OA 
ENDBRANCH  12  21
ENDBRANCH   9  11
ENDBRANCH   5   9
TORSDOF 4
ENDMDL
MODEL      212
REMARK 921   NORMALIZED FREE ENERGY PREDICTED BY IDOCK:   -3.40 KCAL/MOL
REMARK 922        TOTAL FREE ENERGY PREDICTED BY IDOCK:   -4.71 KCAL/MOL
REMARK 923 INTER-LIGAND FREE ENERGY PREDICTED BY IDOCK:   -4.47 KCAL/MOL
REMARK 924 INTRA-LIGAND FREE ENERGY PREDICTED BY IDOCK:   -0.24 KCAL/MOL
REMARK 927      BINDING AFFINITY PREDICTED BY RF-SCORE:    0.00 PKD
ROOT
HETATM    1  C   UNL     1     -10.958   8.076  71.263  1.00  0.00    -0.236 A  
HETATM    2  N   UNL     1     -11.146   8.097  72.583  1.00  0.00    -0.384 NA 
HETATM    3  O   UNL     1     -10.913   6.802  73.003  1.00  0.00    -0.267 OA 
HETATM    4  C   UNL     1     -10.562   6.027  71.937  1.00  0.00    -0.226 A  
HETATM    5  C   UNL     1     -10.571   6.802  70.783  1.00  0.00    -0.254 A  
ENDROOT
BRANCH   4   6
HETATM    6  C   UNL     1     -10.210   4.546  72.060  1.00  0.00    -0.251 C  
HETATM    7  C   UNL     1      -9.050   4.143  72.948  1.00  0.00    -0.126 C  
HETATM    8  C   UNL     1     -10.444   3.869  73.395  1.00  0.00    -0.254 C  
ENDBRANCH   4   6
BRANCH   5   9
HETATM    9  C   UNL     1     -10.287   6.334  69.432  1.00  0.00    -0.216 C  
HETATM   10  O   UNL     1     -10.412   5.151  69.146  1.00  0.00    -0.198 OA 
BRANCH   9  11
HETATM   11  C   UNL     1      -9.734   7.241  68.375  1.00  0.00    -0.151 A  
HETATM   12  C   UNL     1      -8.395   7.695  68.376  1.00  0.00    -0.125 A  
HETATM   13  C   UNL     1      -7.969   8.653  67.437  1.00  0.00    -0.102 A  
HETATM   14  C   UNL     1     -10.622   7.800  67.437  1.00  0.00    -0.345 A  
HETATM   15  C   UNL     1      -8.864   9.204  66.509  1.00  0.00    -0.156 A  
HETATM   16  F   UNL     1      -7.091  10.578  65.652  1.00  0.00    -0.129 F  
HETATM   17  F   UNL     1      -8.617   9.935  64.244  1.00  0.00    -0.140 F  
HETATM   18  F   UNL     1      -9.079  11.453  65.733  1.00  0.00    -0.201 F  
HETATM   19  C   UNL     1      -8.416  10.282  65.542  1.00  0.00    -0.162 C  
HETATM   20  C   UNL     1     -10.191   8.763  66.513  1.00  0.00    -0.314 A  
BRANCH  12  21
HETATM   21  S   UNL     1      -7.198   7.032  69.529  1.00  0.00    -0.082 S  
HETATM   22  C   UNL     1      -5.603   7.653  69.077  1.00  0.00    -0.022 C  
HETATM   23  O   UNL     1      -7.467   7.627  70.824  1.00  0.00    -0.069 OA 
HETATM   24  O   UNL     1      -7.175   5.601  69.291  1.00  0.00    -0.063 OA 
ENDBRANCH  12  21
ENDBRANCH   9  11
ENDBRANCH   5   9
TORSDOF 4
ENDMDL
MODEL      213
REMARK 921   NORMALIZED FREE ENERGY PREDICTED BY IDOCK:   -3.34 KCAL/MOL
REMARK 922        TOTAL FREE ENERGY PREDICTED BY IDOCK:   -4.64 KCAL/MOL
REMARK 923 INTER-LIGAND FREE ENERGY PREDICTED BY IDOCK:   -4.18 KCAL/MOL
REMARK 924 INTRA-LIGAND FREE ENERGY PREDICTED BY IDOCK:   -0.46 KCAL/MOL
REMARK 927      BINDING AFFINITY PREDICTED BY RF-SCORE:    0.00 PKD
ROOT
HETATM    1  C   UNL     1      -9.385   6.593  67.907  1.00  0.00    -0.109 A  
HETATM    2  N   UNL     1     -10.061   5.449  68.010  1.00  0.00    -0.171 NA 
HETATM    3  O   UNL     1      -9.901   4.822  66.789  1.00  0.00    -0.170 OA 
HETATM    4  C   UNL     1      -9.110   5.584  65.981  1.00  0.00    -0.156 A  
HETATM    5  C   UNL     1      -8.743   6.742  66.654  1.00  0.00    -0.128 A  
ENDROOT
BRANCH   4   6
HETATM    6  C   UNL     1      -8.713   5.164  64.567  1.00  0.00    -0.106 C  
HETATM    7  C   UNL     1      -7.673   4.074  64.394  1.00  0.00    -0.084 C  
HETATM    8  C   UNL     1      -9.103   3.777  64.101  1.00  0.00    -0.128 C  
ENDBRANCH   4   6
BRANCH   5   9
HETATM    9  C   UNL     1      -7.930   7.827  66.119  1.00  0.00    -0.105 C  
HETATM   10  O   UNL     1      -6.757   7.638  65.830  1.00  0.00    -0.045 OA 
BRANCH   9  11
HETATM   11  C   UNL     1      -8.449   9.227  65.999  1.00  0.00    -0.144 A  
HETATM   12  C   UNL     1      -8.175  10.232  66.954  1.00  0.00    -0.123 A  
HETATM   13  C   UNL     1      -8.801  11.489  66.862  1.00  0.00    -0.182 A  
HETATM   14  C   UNL     1      -9.386   9.514  64.987  1.00  0.00    -0.294 A  
HETATM   15  C   UNL     1      -9.733  11.761  65.851  1.00  0.00    -0.259 A  
HETATM   16  F   UNL     1     -10.046  13.960  66.764  1.00  0.00    -0.246 F  
HETATM   17  F   UNL     1     -10.263  13.739  64.613  1.00  0.00    -0.408 F  
HETATM   18  F   UNL     1     -11.796  12.962  65.948  1.00  0.00    -0.368 F  
HETATM   19  C   UNL     1     -10.452  13.094  65.794  1.00  0.00    -0.283 C  
HETATM   20  C   UNL     1     -10.013  10.765  64.911  1.00  0.00    -0.374 A  
BRANCH  12  21
HETATM   21  S   UNL     1      -6.992   9.956  68.269  1.00  0.00    -0.072 S  
HETATM   22  C   UNL     1      -6.955  11.407  69.282  1.00  0.00    -0.115 C  
HETATM   23  O   UNL     1      -7.535   8.924  69.130  1.00  0.00    -0.070 OA 
HETATM   24  O   UNL     1      -5.698   9.864  67.619  1.00  0.00    -0.039 OA 
ENDBRANCH  12  21
ENDBRANCH   9  11
ENDBRANCH   5   9
TORSDOF 4
ENDMDL
MODEL      214
REMARK 921   NORMALIZED FREE ENERGY PREDICTED BY IDOCK:   -3.28 KCAL/MOL
REMARK 922        TOTAL FREE ENERGY PREDICTED BY IDOCK:   -4.56 KCAL/MOL
REMARK 923 INTER-LIGAND FREE ENERGY PREDICTED BY IDOCK:   -4.94 KCAL/MOL
REMARK 924 INTRA-LIGAND FREE ENERGY PREDICTED BY IDOCK:    0.37 KCAL/MOL
REMARK 927      BINDING AFFINITY PREDICTED BY RF-SCORE:    0.00 PKD
ROOT
HETATM    1  C   UNL     1     -10.741  11.893  66.147  1.00  0.00    -0.278 A  
HETATM    2  N   UNL     1     -12.027  12.221  66.272  1.00  0.00    -0.626 NA 
HETATM    3  O   UNL     1     -12.335  11.982  67.597  1.00  0.00    -0.345 OA 
HETATM    4  C   UNL     1     -11.226  11.541  68.256  1.00  0.00    -0.261 A  
HETATM    5  C   UNL     1     -10.161  11.466  67.366  1.00  0.00    -0.221 A  
ENDROOT
BRANCH   4   6
HETATM    6  C   UNL     1     -11.216  11.210  69.747  1.00  0.00    -0.318 C  
HETATM    7  C   UNL     1     -12.408  11.615  70.592  1.00  0.00    -0.437 C  
HETATM    8  C   UNL     1     -12.205  10.179  70.252  1.00  0.00    -0.248 C  
ENDBRANCH   4   6
BRANCH   5   9
HETATM    9  C   UNL     1      -8.813  11.006  67.674  1.00  0.00    -0.131 C  
HETATM   10  O   UNL     1      -7.840  11.562  67.186  1.00  0.00    -0.144 OA 
BRANCH   9  11
HETATM   11  C   UNL     1      -8.560   9.784  68.503  1.00  0.00    -0.120 A  
HETATM   12  C   UNL     1      -8.701   8.470  67.999  1.00  0.00    -0.142 A  
HETATM   13  C   UNL     1      -8.585   7.363  68.859  1.00  0.00    -0.129 A  
HETATM   14  C   UNL     1      -8.336   9.941  69.884  1.00  0.00    -0.200 A  
HETATM   15  C   UNL     1      -8.364   7.533  70.233  1.00  0.00    -0.133 A  
HETATM   16  F   UNL     1      -8.422   5.149  70.514  1.00  0.00    -0.101 F  
HETATM   17  F   UNL     1      -7.133   6.276  71.854  1.00  0.00    -0.076 F  
HETATM   18  F   UNL     1      -9.294   6.360  72.094  1.00  0.00    -0.150 F  
HETATM   19  C   UNL     1      -8.302   6.340  71.165  1.00  0.00    -0.124 C  
HETATM   20  C   UNL     1      -8.233   8.832  70.735  1.00  0.00    -0.178 A  
BRANCH  12  21
HETATM   21  S   UNL     1      -8.979   8.178  66.255  1.00  0.00    -0.185 S  
HETATM   22  C   UNL     1      -7.776   9.107  65.348  1.00  0.00    -0.098 C  
HETATM   23  O   UNL     1      -8.647   6.792  65.989  1.00  0.00    -0.137 OA 
HETATM   24  O   UNL     1     -10.272   8.766  65.961  1.00  0.00    -0.157 OA 
ENDBRANCH  12  21
ENDBRANCH   9  11
ENDBRANCH   5   9
TORSDOF 4
ENDMDL
MODEL      215
REMARK 921   NORMALIZED FREE ENERGY PREDICTED BY IDOCK:   -3.26 KCAL/MOL
REMARK 922        TOTAL FREE ENERGY PREDICTED BY IDOCK:   -4.55 KCAL/MOL
REMARK 923 INTER-LIGAND FREE ENERGY PREDICTED BY IDOCK:   -4.47 KCAL/MOL
REMARK 924 INTRA-LIGAND FREE ENERGY PREDICTED BY IDOCK:   -0.07 KCAL/MOL
REMARK 927      BINDING AFFINITY PREDICTED BY RF-SCORE:    0.00 PKD
ROOT
HETATM    1  C   UNL     1      -8.131   9.602  69.628  1.00  0.00    -0.141 A  
HETATM    2  N   UNL     1      -8.032   9.521  70.955  1.00  0.00    -0.313 NA 
HETATM    3  O   UNL     1      -9.165   8.846  71.363  1.00  0.00    -0.230 OA 
HETATM    4  C   UNL     1      -9.916   8.506  70.276  1.00  0.00    -0.183 A  
HETATM    5  C   UNL     1      -9.292   8.968  69.123  1.00  0.00    -0.148 A  
ENDROOT
BRANCH   4   6
HETATM    6  C   UNL     1     -11.225   7.725  70.376  1.00  0.00    -0.246 C  
HETATM    7  C   UNL     1     -11.262   6.296  69.873  1.00  0.00    -0.498 C  
HETATM    8  C   UNL     1     -11.283   6.557  71.339  1.00  0.00    -0.331 C  
ENDBRANCH   4   6
BRANCH   5   9
HETATM    9  C   UNL     1      -9.796   8.837  67.762  1.00  0.00    -0.174 C  
HETATM   10  O   UNL     1     -10.818   9.416  67.420  1.00  0.00    -0.263 OA 
BRANCH   9  11
HETATM   11  C   UNL     1      -9.162   7.918  66.764  1.00  0.00    -0.206 A  
HETATM   12  C   UNL     1      -8.576   8.376  65.561  1.00  0.00    -0.176 A  
HETATM   13  C   UNL     1      -8.119   7.458  64.598  1.00  0.00    -0.092 A  
HETATM   14  C   UNL     1      -9.299   6.529  66.944  1.00  0.00    -0.166 A  
HETATM   15  C   UNL     1      -8.264   6.076  64.790  1.00  0.00    -0.123 A  
HETATM   16  F   UNL     1      -7.253   5.698  62.645  1.00  0.00    -0.040 F  
HETATM   17  F   UNL     1      -6.915   4.197  64.180  1.00  0.00    -0.042 F  
HETATM   18  F   UNL     1      -8.868   4.367  63.234  1.00  0.00    -0.106 F  
HETATM   19  C   UNL     1      -7.828   5.094  63.722  1.00  0.00    -0.091 C  
HETATM   20  C   UNL     1      -8.851   5.622  65.974  1.00  0.00    -0.147 A  
BRANCH  12  21
HETATM   21  S   UNL     1      -8.355  10.125  65.253  1.00  0.00    -0.165 S  
HETATM   22  C   UNL     1      -9.930  10.806  64.819  1.00  0.00    -0.320 C  
HETATM   23  O   UNL     1      -8.024  10.751  66.519  1.00  0.00    -0.132 OA 
HETATM   24  O   UNL     1      -7.519  10.212  64.071  1.00  0.00    -0.139 OA 
ENDBRANCH  12  21
ENDBRANCH   9  11
ENDBRANCH   5   9
TORSDOF 4
ENDMDL
MODEL      216
REMARK 921   NORMALIZED FREE ENERGY PREDICTED BY IDOCK:   -3.25 KCAL/MOL
REMARK 922        TOTAL FREE ENERGY PREDICTED BY IDOCK:   -4.53 KCAL/MOL
REMARK 923 INTER-LIGAND FREE ENERGY PREDICTED BY IDOCK:   -3.93 KCAL/MOL
REMARK 924 INTRA-LIGAND FREE ENERGY PREDICTED BY IDOCK:   -0.60 KCAL/MOL
REMARK 927      BINDING AFFINITY PREDICTED BY RF-SCORE:    0.00 PKD
ROOT
HETATM    1  C   UNL     1      -8.196   5.353  68.552  1.00  0.00    -0.094 A  
HETATM    2  N   UNL     1      -7.889   5.140  69.832  1.00  0.00    -0.074 NA 
HETATM    3  O   UNL     1      -8.456   6.194  70.521  1.00  0.00    -0.132 OA 
HETATM    4  C   UNL     1      -9.118   7.010  69.652  1.00  0.00    -0.144 A  
HETATM    5  C   UNL     1      -8.986   6.512  68.361  1.00  0.00    -0.125 A  
ENDROOT
BRANCH   4   6
HETATM    6  C   UNL     1      -9.881   8.257  70.094  1.00  0.00    -0.184 C  
HETATM    7  C   UNL     1      -9.906   8.613  71.568  1.00  0.00    -0.342 C  
HETATM    8  C   UNL     1      -9.081   9.426  70.631  1.00  0.00    -0.292 C  
ENDBRANCH   4   6
BRANCH   5   9
HETATM    9  C   UNL     1      -9.520   7.118  67.148  1.00  0.00    -0.147 C  
HETATM   10  O   UNL     1      -9.839   6.420  66.195  1.00  0.00    -0.052 OA 
BRANCH   9  11
HETATM   11  C   UNL     1      -9.601   8.603  66.969  1.00  0.00    -0.240 A  
HETATM   12  C   UNL     1      -8.462   9.416  66.771  1.00  0.00    -0.127 A  
HETATM   13  C   UNL     1      -8.585  10.818  66.746  1.00  0.00    -0.136 A  
HETATM   14  C   UNL     1     -10.840   9.239  67.171  1.00  0.00    -0.113 A  
HETATM   15  C   UNL     1      -9.825  11.439  66.952  1.00  0.00    -0.218 A  
HETATM   16  F   UNL     1      -8.760  13.581  66.745  1.00  0.00    -0.223 F  
HETATM   17  F   UNL     1     -10.818  13.427  66.065  1.00  0.00    -0.272 F  
HETATM   18  F   UNL     1     -10.370  13.405  68.194  1.00  0.00    -0.220 F  
HETATM   19  C   UNL     1      -9.942  12.949  66.988  1.00  0.00    -0.244 C  
HETATM   20  C   UNL     1     -10.951  10.636  67.157  1.00  0.00    -0.312 A  
BRANCH  12  21
HETATM   21  S   UNL     1      -6.848   8.691  66.498  1.00  0.00    -0.072 S  
HETATM   22  C   UNL     1      -5.753   9.980  65.974  1.00  0.00    -0.062 C  
HETATM   23  O   UNL     1      -6.334   8.278  67.789  1.00  0.00    -0.051 OA 
HETATM   24  O   UNL     1      -7.008   7.792  65.371  1.00  0.00    -0.054 OA 
ENDBRANCH  12  21
ENDBRANCH   9  11
ENDBRANCH   5   9
TORSDOF 4
ENDMDL
MODEL      217
REMARK 921   NORMALIZED FREE ENERGY PREDICTED BY IDOCK:   -3.23 KCAL/MOL
REMARK 922        TOTAL FREE ENERGY PREDICTED BY IDOCK:   -4.50 KCAL/MOL
REMARK 923 INTER-LIGAND FREE ENERGY PREDICTED BY IDOCK:   -4.81 KCAL/MOL
REMARK 924 INTRA-LIGAND FREE ENERGY PREDICTED BY IDOCK:    0.31 KCAL/MOL
REMARK 927      BINDING AFFINITY PREDICTED BY RF-SCORE:    0.00 PKD
ROOT
HETATM    1  C   UNL     1      -9.778   4.336  69.011  1.00  0.00    -0.139 A  
HETATM    2  N   UNL     1      -9.762   4.004  70.302  1.00  0.00    -0.201 NA 
HETATM    3  O   UNL     1     -10.396   5.045  70.952  1.00  0.00    -0.230 OA 
HETATM    4  C   UNL     1     -10.807   5.974  70.042  1.00  0.00    -0.359 A  
HETATM    5  C   UNL     1     -10.436   5.565  68.767  1.00  0.00    -0.261 A  
ENDROOT
BRANCH   4   6
HETATM    6  C   UNL     1     -11.567   7.241  70.428  1.00  0.00    -0.253 C  
HETATM    7  C   UNL     1     -12.678   7.142  71.455  1.00  0.00    -0.433 C  
HETATM    8  C   UNL     1     -11.386   7.779  71.832  1.00  0.00    -0.315 C  
ENDBRANCH   4   6
BRANCH   5   9
HETATM    9  C   UNL     1     -10.663   6.299  67.529  1.00  0.00    -0.319 C  
HETATM   10  O   UNL     1     -11.284   5.787  66.608  1.00  0.00    -0.135 OA 
BRANCH   9  11
HETATM   11  C   UNL     1     -10.065   7.651  67.285  1.00  0.00    -0.306 A  
HETATM   12  C   UNL     1      -8.744   7.835  66.818  1.00  0.00    -0.135 A  
HETATM   13  C   UNL     1      -8.191   9.126  66.739  1.00  0.00    -0.119 A  
HETATM   14  C   UNL     1     -10.786   8.790  67.694  1.00  0.00    -0.206 A  
HETATM   15  C   UNL     1      -8.918  10.252  67.152  1.00  0.00    -0.145 A  
HETATM   16  F   UNL     1      -7.032  11.638  66.615  1.00  0.00    -0.134 F  
HETATM   17  F   UNL     1      -9.008  12.511  66.369  1.00  0.00    -0.214 F  
HETATM   18  F   UNL     1      -8.202  12.182  68.364  1.00  0.00    -0.140 F  
HETATM   19  C   UNL     1      -8.296  11.633  67.124  1.00  0.00    -0.164 C  
HETATM   20  C   UNL     1     -10.222  10.071  67.623  1.00  0.00    -0.249 A  
BRANCH  12  21
HETATM   21  S   UNL     1      -7.759   6.444  66.270  1.00  0.00    -0.101 S  
HETATM   22  C   UNL     1      -6.966   5.745  67.689  1.00  0.00    -0.066 C  
HETATM   23  O   UNL     1      -8.676   5.414  65.820  1.00  0.00    -0.139 OA 
HETATM   24  O   UNL     1      -6.713   7.008  65.438  1.00  0.00    -0.049 OA 
ENDBRANCH  12  21
ENDBRANCH   9  11
ENDBRANCH   5   9
TORSDOF 4
ENDMDL
MODEL      218
REMARK 921   NORMALIZED FREE ENERGY PREDICTED BY IDOCK:   -3.19 KCAL/MOL
REMARK 922        TOTAL FREE ENERGY PREDICTED BY IDOCK:   -4.46 KCAL/MOL
REMARK 923 INTER-LIGAND FREE ENERGY PREDICTED BY IDOCK:   -4.57 KCAL/MOL
REMARK 924 INTRA-LIGAND FREE ENERGY PREDICTED BY IDOCK:    0.12 KCAL/MOL
REMARK 927      BINDING AFFINITY PREDICTED BY RF-SCORE:    0.00 PKD
ROOT
HETATM    1  C   UNL     1     -11.030   7.649  69.616  1.00  0.00    -0.137 A  
HETATM    2  N   UNL     1     -11.282   6.673  68.744  1.00  0.00    -0.222 NA 
HETATM    3  O   UNL     1     -10.565   7.004  67.611  1.00  0.00    -0.212 OA 
HETATM    4  C   UNL     1      -9.869   8.157  67.827  1.00  0.00    -0.166 A  
HETATM    5  C   UNL     1     -10.130   8.619  69.112  1.00  0.00    -0.203 A  
ENDROOT
BRANCH   4   6
HETATM    6  C   UNL     1      -8.951   8.786  66.782  1.00  0.00    -0.161 C  
HETATM    7  C   UNL     1      -9.082   8.348  65.336  1.00  0.00    -0.050 C  
HETATM    8  C   UNL     1      -9.574   9.694  65.741  1.00  0.00    -0.329 C  
ENDBRANCH   4   6
BRANCH   5   9
HETATM    9  C   UNL     1      -9.606   9.840  69.709  1.00  0.00    -0.230 C  
HETATM   10  O   UNL     1      -8.934   9.792  70.731  1.00  0.00    -0.149 OA 
BRANCH   9  11
HETATM   11  C   UNL     1      -9.946  11.198  69.174  1.00  0.00    -0.104 A  
HETATM   12  C   UNL     1     -11.203  11.811  69.378  1.00  0.00    -0.234 A  
HETATM   13  C   UNL     1     -11.514  13.025  68.738  1.00  0.00    -0.340 A  
HETATM   14  C   UNL     1      -9.042  11.820  68.292  1.00  0.00    -0.187 A  
HETATM   15  C   UNL     1     -10.605  13.633  67.860  1.00  0.00    -0.255 A  
HETATM   16  F   UNL     1     -12.200  15.383  67.460  1.00  0.00    -0.102 F  
HETATM   17  F   UNL     1     -10.096  15.918  67.369  1.00  0.00    -0.237 F  
HETATM   18  F   UNL     1     -10.989  14.735  65.775  1.00  0.00    -0.301 F  
HETATM   19  C   UNL     1     -10.969  14.907  67.124  1.00  0.00    -0.323 C  
HETATM   20  C   UNL     1      -9.365  13.023  67.650  1.00  0.00    -0.202 A  
BRANCH  12  21
HETATM   21  S   UNL     1     -12.409  11.093  70.489  1.00  0.00    -0.360 S  
HETATM   22  C   UNL     1     -13.196  12.414  71.367  1.00  0.00    -0.098 C  
HETATM   23  O   UNL     1     -13.462  10.519  69.674  1.00  0.00     0.300 OA 
HETATM   24  O   UNL     1     -11.644  10.338  71.463  1.00  0.00    -0.273 OA 
ENDBRANCH  12  21
ENDBRANCH   9  11
ENDBRANCH   5   9
TORSDOF 4
ENDMDL
MODEL      219
REMARK 921   NORMALIZED FREE ENERGY PREDICTED BY IDOCK:   -3.18 KCAL/MOL
REMARK 922        TOTAL FREE ENERGY PREDICTED BY IDOCK:   -4.44 KCAL/MOL
REMARK 923 INTER-LIGAND FREE ENERGY PREDICTED BY IDOCK:   -4.03 KCAL/MOL
REMARK 924 INTRA-LIGAND FREE ENERGY PREDICTED BY IDOCK:   -0.41 KCAL/MOL
REMARK 927      BINDING AFFINITY PREDICTED BY RF-SCORE:    0.00 PKD
ROOT
HETATM    1  C   UNL     1     -11.665   6.592  70.778  1.00  0.00    -0.388 A  
HETATM    2  N   UNL     1     -12.438   7.082  71.747  1.00  0.00    -0.353 NA 
HETATM    3  O   UNL     1     -11.570   7.697  72.628  1.00  0.00    -0.339 OA 
HETATM    4  C   UNL     1     -10.292   7.593  72.164  1.00  0.00    -0.221 A  
HETATM    5  C   UNL     1     -10.293   6.889  70.965  1.00  0.00    -0.224 A  
ENDROOT
BRANCH   4   6
HETATM    6  C   UNL     1      -9.088   8.193  72.889  1.00  0.00    -0.337 C  
HETATM    7  C   UNL     1      -8.768   7.714  74.291  1.00  0.00    -0.261 C  
HETATM    8  C   UNL     1      -7.899   7.294  73.156  1.00  0.00    -0.114 C  
ENDBRANCH   4   6
BRANCH   5   9
HETATM    9  C   UNL     1      -9.121   6.538  70.174  1.00  0.00    -0.155 C  
HETATM   10  O   UNL     1      -8.436   5.571  70.476  1.00  0.00    -0.118 OA 
BRANCH   9  11
HETATM   11  C   UNL     1      -8.644   7.389  69.037  1.00  0.00    -0.133 A  
HETATM   12  C   UNL     1      -8.559   6.918  67.707  1.00  0.00    -0.122 A  
HETATM   13  C   UNL     1      -7.974   7.716  66.706  1.00  0.00    -0.111 A  
HETATM   14  C   UNL     1      -8.098   8.654  69.326  1.00  0.00    -0.112 A  
HETATM   15  C   UNL     1      -7.433   8.974  67.008  1.00  0.00    -0.087 A  
HETATM   16  F   UNL     1      -6.785   9.219  64.709  1.00  0.00    -0.075 F  
HETATM   17  F   UNL     1      -7.311  11.029  65.790  1.00  0.00    -0.132 F  
HETATM   18  F   UNL     1      -5.434  10.014  66.215  1.00  0.00    -0.041 F  
HETATM   19  C   UNL     1      -6.748   9.802  65.940  1.00  0.00    -0.091 C  
HETATM   20  C   UNL     1      -7.507   9.437  68.325  1.00  0.00    -0.078 A  
BRANCH  12  21
HETATM   21  S   UNL     1      -9.234   5.324  67.250  1.00  0.00    -0.115 S  
HETATM   22  C   UNL     1      -9.200   5.204  65.484  1.00  0.00    -0.136 C  
HETATM   23  O   UNL     1      -8.299   4.312  67.702  1.00  0.00    -0.098 OA 
HETATM   24  O   UNL     1     -10.630   5.363  67.642  1.00  0.00    -0.192 OA 
ENDBRANCH  12  21
ENDBRANCH   9  11
ENDBRANCH   5   9
TORSDOF 4
ENDMDL
MODEL      220
REMARK 921   NORMALIZED FREE ENERGY PREDICTED BY IDOCK:   -3.13 KCAL/MOL
REMARK 922        TOTAL FREE ENERGY PREDICTED BY IDOCK:   -4.38 KCAL/MOL
REMARK 923 INTER-LIGAND FREE ENERGY PREDICTED BY IDOCK:   -4.42 KCAL/MOL
REMARK 924 INTRA-LIGAND FREE ENERGY PREDICTED BY IDOCK:    0.03 KCAL/MOL
REMARK 927      BINDING AFFINITY PREDICTED BY RF-SCORE:    0.00 PKD
ROOT
HETATM    1  C   UNL     1      -9.358  15.251  66.856  1.00  0.00    -0.237 A  
HETATM    2  N   UNL     1     -10.345  16.130  66.681  1.00  0.00    -0.291 NA 
HETATM    3  O   UNL     1     -11.112  16.046  67.827  1.00  0.00    -0.327 OA 
HETATM    4  C   UNL     1     -10.561  15.141  68.686  1.00  0.00    -0.234 A  
HETATM    5  C   UNL     1      -9.420  14.597  68.110  1.00  0.00    -0.212 A  
ENDROOT
BRANCH   4   6
HETATM    6  C   UNL     1     -11.149  14.830  70.061  1.00  0.00    -0.240 C  
HETATM    7  C   UNL     1     -12.454  15.487  70.462  1.00  0.00    -0.472 C  
HETATM    8  C   UNL     1     -12.438  14.038  70.120  1.00  0.00    -0.380 C  
ENDBRANCH   4   6
BRANCH   5   9
HETATM    9  C   UNL     1      -8.569  13.568  68.696  1.00  0.00    -0.009 C  
HETATM   10  O   UNL     1      -7.561  13.877  69.317  1.00  0.00    -0.005 OA 
BRANCH   9  11
HETATM   11  C   UNL     1      -8.821  12.108  68.480  1.00  0.00    -0.079 A  
HETATM   12  C   UNL     1      -7.904  11.259  67.819  1.00  0.00    -0.115 A  
HETATM   13  C   UNL     1      -8.253   9.928  67.523  1.00  0.00    -0.114 A  
HETATM   14  C   UNL     1     -10.092  11.590  68.795  1.00  0.00    -0.191 A  
HETATM   15  C   UNL     1      -9.523   9.426  67.841  1.00  0.00    -0.150 A  
HETATM   16  F   UNL     1      -8.907   7.320  66.865  1.00  0.00    -0.119 F  
HETATM   17  F   UNL     1     -10.294   7.271  68.537  1.00  0.00    -0.169 F  
HETATM   18  F   UNL     1     -10.959   7.982  66.591  1.00  0.00    -0.329 F  
HETATM   19  C   UNL     1      -9.917   8.012  67.463  1.00  0.00    -0.194 C  
HETATM   20  C   UNL     1     -10.435  10.266  68.486  1.00  0.00    -0.217 A  
BRANCH  12  21
HETATM   21  S   UNL     1      -6.264  11.833  67.388  1.00  0.00    -0.123 S  
HETATM   22  C   UNL     1      -5.694  10.872  66.015  1.00  0.00    -0.149 C  
HETATM   23  O   UNL     1      -6.399  13.177  66.861  1.00  0.00    -0.017 OA 
HETATM   24  O   UNL     1      -5.420  11.493  68.518  1.00  0.00    -0.043 OA 
ENDBRANCH  12  21
ENDBRANCH   9  11
ENDBRANCH   5   9
TORSDOF 4
ENDMDL
MODEL      221
REMARK 921   NORMALIZED FREE ENERGY PREDICTED BY IDOCK:   -3.10 KCAL/MOL
REMARK 922        TOTAL FREE ENERGY PREDICTED BY IDOCK:   -4.34 KCAL/MOL
REMARK 923 INTER-LIGAND FREE ENERGY PREDICTED BY IDOCK:   -4.59 KCAL/MOL
REMARK 924 INTRA-LIGAND FREE ENERGY PREDICTED BY IDOCK:    0.25 KCAL/MOL
REMARK 927      BINDING AFFINITY PREDICTED BY RF-SCORE:    0.00 PKD
ROOT
HETATM    1  C   UNL     1      -9.597  10.457  65.041  1.00  0.00    -0.280 A  
HETATM    2  N   UNL     1      -9.152   9.488  64.240  1.00  0.00    -0.215 NA 
HETATM    3  O   UNL     1      -8.354   8.695  65.040  1.00  0.00    -0.155 OA 
HETATM    4  C   UNL     1      -8.352   9.179  66.315  1.00  0.00    -0.119 A  
HETATM    5  C   UNL     1      -9.144  10.319  66.375  1.00  0.00    -0.174 A  
ENDROOT
BRANCH   4   6
HETATM    6  C   UNL     1      -7.588   8.517  67.460  1.00  0.00    -0.098 C  
HETATM    7  C   UNL     1      -6.100   8.273  67.299  1.00  0.00    -0.055 C  
HETATM    8  C   UNL     1      -6.572   9.351  68.213  1.00  0.00    -0.058 C  
ENDBRANCH   4   6
BRANCH   5   9
HETATM    9  C   UNL     1      -9.369  11.149  67.552  1.00  0.00    -0.168 C  
HETATM   10  O   UNL     1      -9.878  10.674  68.558  1.00  0.00    -0.156 OA 
BRANCH   9  11
HETATM   11  C   UNL     1      -9.093  12.621  67.553  1.00  0.00    -0.192 A  
HETATM   12  C   UNL     1     -10.112  13.594  67.439  1.00  0.00    -0.241 A  
HETATM   13  C   UNL     1      -9.783  14.956  67.307  1.00  0.00    -0.228 A  
HETATM   14  C   UNL     1      -7.755  13.056  67.496  1.00  0.00    -0.168 A  
HETATM   15  C   UNL     1      -8.446  15.375  67.250  1.00  0.00    -0.214 A  
HETATM   16  F   UNL     1      -9.193  17.642  66.989  1.00  0.00    -0.232 F  
HETATM   17  F   UNL     1      -7.316  17.330  68.040  1.00  0.00    -0.173 F  
HETATM   18  F   UNL     1      -7.419  17.045  65.885  1.00  0.00    -0.317 F  
HETATM   19  C   UNL     1      -8.097  16.835  67.044  1.00  0.00    -0.194 C  
HETATM   20  C   UNL     1      -7.437  14.413  67.353  1.00  0.00    -0.183 A  
BRANCH  12  21
HETATM   21  S   UNL     1     -11.839  13.131  67.510  1.00  0.00    -0.333 S  
HETATM   22  C   UNL     1     -12.190  12.585  69.157  1.00  0.00    -0.004 C  
HETATM   23  O   UNL     1     -12.620  14.343  67.354  1.00  0.00    -0.018 OA 
HETATM   24  O   UNL     1     -11.970  11.973  66.646  1.00  0.00    -0.614 OA 
ENDBRANCH  12  21
ENDBRANCH   9  11
ENDBRANCH   5   9
TORSDOF 4
ENDMDL
MODEL      222
REMARK 921   NORMALIZED FREE ENERGY PREDICTED BY IDOCK:   -3.06 KCAL/MOL
REMARK 922        TOTAL FREE ENERGY PREDICTED BY IDOCK:   -4.30 KCAL/MOL
REMARK 923 INTER-LIGAND FREE ENERGY PREDICTED BY IDOCK:   -4.57 KCAL/MOL
REMARK 924 INTRA-LIGAND FREE ENERGY PREDICTED BY IDOCK:    0.27 KCAL/MOL
REMARK 927      BINDING AFFINITY PREDICTED BY RF-SCORE:    0.00 PKD
ROOT
HETATM    1  C   UNL     1      -8.107   9.897  69.188  1.00  0.00    -0.118 A  
HETATM    2  N   UNL     1      -8.093   8.569  69.311  1.00  0.00    -0.111 NA 
HETATM    3  O   UNL     1      -7.890   8.088  68.032  1.00  0.00    -0.121 OA 
HETATM    4  C   UNL     1      -7.757   9.131  67.163  1.00  0.00    -0.098 A  
HETATM    5  C   UNL     1      -7.885  10.328  67.858  1.00  0.00    -0.101 A  
ENDROOT
BRANCH   4   6
HETATM    6  C   UNL     1      -7.493   8.945  65.670  1.00  0.00    -0.086 C  
HETATM    7  C   UNL     1      -7.210   7.551  65.147  1.00  0.00    -0.066 C  
HETATM    8  C   UNL     1      -8.523   8.190  64.856  1.00  0.00    -0.094 C  
ENDBRANCH   4   6
BRANCH   5   9
HETATM    9  C   UNL     1      -7.839  11.665  67.281  1.00  0.00    -0.157 C  
HETATM   10  O   UNL     1      -7.022  11.939  66.412  1.00  0.00     0.095 OA 
BRANCH   9  11
HETATM   11  C   UNL     1      -8.701  12.781  67.787  1.00  0.00    -0.184 A  
HETATM   12  C   UNL     1     -10.053  12.943  67.405  1.00  0.00    -0.223 A  
HETATM   13  C   UNL     1     -10.772  14.085  67.803  1.00  0.00    -0.248 A  
HETATM   14  C   UNL     1      -8.100  13.807  68.541  1.00  0.00    -0.128 A  
HETATM   15  C   UNL     1     -10.161  15.100  68.552  1.00  0.00    -0.228 A  
HETATM   16  F   UNL     1     -12.219  16.337  68.509  1.00  0.00    -0.200 F  
HETATM   17  F   UNL     1     -10.960  16.565  70.266  1.00  0.00    -0.339 F  
HETATM   18  F   UNL     1     -10.371  17.474  68.378  1.00  0.00    -0.299 F  
HETATM   19  C   UNL     1     -10.922  16.357  68.924  1.00  0.00    -0.332 C  
HETATM   20  C   UNL     1      -8.822  14.946  68.923  1.00  0.00    -0.184 A  
BRANCH  12  21
HETATM   21  S   UNL     1     -10.897  11.684  66.452  1.00  0.00    -0.291 S  
HETATM   22  C   UNL     1     -11.095  10.260  67.485  1.00  0.00    -0.232 C  
HETATM   23  O   UNL     1     -12.248  12.153  66.215  1.00  0.00    -0.604 OA 
HETATM   24  O   UNL     1      -9.978  11.311  65.394  1.00  0.00    -0.225 OA 
ENDBRANCH  12  21
ENDBRANCH   9  11
ENDBRANCH   5   9
TORSDOF 4
ENDMDL
MODEL      223
REMARK 921   NORMALIZED FREE ENERGY PREDICTED BY IDOCK:   -3.05 KCAL/MOL
REMARK 922        TOTAL FREE ENERGY PREDICTED BY IDOCK:   -4.28 KCAL/MOL
REMARK 923 INTER-LIGAND FREE ENERGY PREDICTED BY IDOCK:   -4.91 KCAL/MOL
REMARK 924 INTRA-LIGAND FREE ENERGY PREDICTED BY IDOCK:    0.63 KCAL/MOL
REMARK 927      BINDING AFFINITY PREDICTED BY RF-SCORE:    0.00 PKD
ROOT
HETATM    1  C   UNL     1     -11.018  11.157  69.221  1.00  0.00    -0.247 A  
HETATM    2  N   UNL     1     -12.073  11.817  69.700  1.00  0.00    -0.283 NA 
HETATM    3  O   UNL     1     -12.615  10.985  70.661  1.00  0.00    -0.337 OA 
HETATM    4  C   UNL     1     -11.864   9.852  70.767  1.00  0.00    -0.330 A  
HETATM    5  C   UNL     1     -10.813   9.911  69.860  1.00  0.00    -0.316 A  
ENDROOT
BRANCH   4   6
HETATM    6  C   UNL     1     -12.174   8.734  71.760  1.00  0.00    -0.415 C  
HETATM    7  C   UNL     1     -13.378   8.880  72.670  1.00  0.00    -0.375 C  
HETATM    8  C   UNL     1     -13.428   7.914  71.538  1.00  0.00    -0.352 C  
ENDBRANCH   4   6
BRANCH   5   9
HETATM    9  C   UNL     1      -9.808   8.877  69.641  1.00  0.00    -0.180 C  
HETATM   10  O   UNL     1      -9.191   8.403  70.584  1.00  0.00    -0.147 OA 
BRANCH   9  11
HETATM   11  C   UNL     1      -9.412   8.430  68.267  1.00  0.00    -0.147 A  
HETATM   12  C   UNL     1      -9.536   7.092  67.829  1.00  0.00    -0.124 A  
HETATM   13  C   UNL     1      -9.021   6.702  66.579  1.00  0.00    -0.155 A  
HETATM   14  C   UNL     1      -8.734   9.339  67.432  1.00  0.00    -0.121 A  
HETATM   15  C   UNL     1      -8.345   7.617  65.758  1.00  0.00    -0.144 A  
HETATM   16  F   UNL     1      -7.977   5.868  64.155  1.00  0.00    -0.098 F  
HETATM   17  F   UNL     1      -8.214   7.887  63.385  1.00  0.00    -0.155 F  
HETATM   18  F   UNL     1      -6.386   7.325  64.423  1.00  0.00    -0.038 F  
HETATM   19  C   UNL     1      -7.737   7.178  64.441  1.00  0.00    -0.117 C  
HETATM   20  C   UNL     1      -8.214   8.939  66.194  1.00  0.00    -0.116 A  
BRANCH  12  21
HETATM   21  S   UNL     1     -10.389   5.873  68.823  1.00  0.00    -0.244 S  
HETATM   22  C   UNL     1      -9.433   5.596  70.287  1.00  0.00    -0.161 C  
HETATM   23  O   UNL     1     -11.616   6.483  69.300  1.00  0.00    -0.309 OA 
HETATM   24  O   UNL     1     -10.349   4.642  68.056  1.00  0.00    -0.005 OA 
ENDBRANCH  12  21
ENDBRANCH   9  11
ENDBRANCH   5   9
TORSDOF 4
ENDMDL
MODEL      224
REMARK 921   NORMALIZED FREE ENERGY PREDICTED BY IDOCK:   -3.04 KCAL/MOL
REMARK 922        TOTAL FREE ENERGY PREDICTED BY IDOCK:   -4.27 KCAL/MOL
REMARK 923 INTER-LIGAND FREE ENERGY PREDICTED BY IDOCK:   -3.84 KCAL/MOL
REMARK 924 INTRA-LIGAND FREE ENERGY PREDICTED BY IDOCK:   -0.43 KCAL/MOL
REMARK 927      BINDING AFFINITY PREDICTED BY RF-SCORE:    0.00 PKD
ROOT
HETATM    1  C   UNL     1      -6.228  15.124  69.258  1.00  0.00    -0.112 A  
HETATM    2  N   UNL     1      -6.389  15.213  70.579  1.00  0.00    -0.035 NA 
HETATM    3  O   UNL     1      -7.735  15.461  70.764  1.00  0.00     1.052 OA 
HETATM    4  C   UNL     1      -8.369  15.490  69.557  1.00  0.00    -0.206 A  
HETATM    5  C   UNL     1      -7.441  15.274  68.545  1.00  0.00    -0.121 A  
ENDROOT
BRANCH   4   6
HETATM    6  C   UNL     1      -9.873  15.715  69.408  1.00  0.00    -0.284 C  
HETATM    7  C   UNL     1     -10.790  14.509  69.371  1.00  0.00    -0.249 C  
HETATM    8  C   UNL     1     -10.762  15.371  70.585  1.00  0.00    -0.255 C  
ENDBRANCH   4   6
BRANCH   5   9
HETATM    9  C   UNL     1      -7.717  15.267  67.114  1.00  0.00    -0.203 C  
HETATM   10  O   UNL     1      -7.026  15.921  66.345  1.00  0.00     0.000 OA 
BRANCH   9  11
HETATM   11  C   UNL     1      -8.904  14.558  66.536  1.00  0.00    -0.156 A  
HETATM   12  C   UNL     1      -9.022  13.150  66.514  1.00  0.00    -0.059 A  
HETATM   13  C   UNL     1     -10.092  12.537  65.836  1.00  0.00    -0.270 A  
HETATM   14  C   UNL     1      -9.863  15.313  65.835  1.00  0.00    -0.385 A  
HETATM   15  C   UNL     1     -11.040  13.300  65.140  1.00  0.00    -0.315 A  
HETATM   16  F   UNL     1     -12.144  11.275  64.471  1.00  0.00    -0.060 F  
HETATM   17  F   UNL     1     -13.387  13.034  64.763  1.00  0.00    -0.272 F  
HETATM   18  F   UNL     1     -12.082  12.899  63.027  1.00  0.00    -0.597 F  
HETATM   19  C   UNL     1     -12.154  12.633  64.358  1.00  0.00    -0.415 C  
HETATM   20  C   UNL     1     -10.919  14.693  65.152  1.00  0.00    -0.395 A  
BRANCH  12  21
HETATM   21  S   UNL     1      -7.852  12.113  67.385  1.00  0.00    -0.177 S  
HETATM   22  C   UNL     1      -8.028  10.461  66.776  1.00  0.00    -0.117 C  
HETATM   23  O   UNL     1      -6.522  12.515  66.968  1.00  0.00    -0.148 OA 
HETATM   24  O   UNL     1      -8.292  12.101  68.768  1.00  0.00    -0.062 OA 
ENDBRANCH  12  21
ENDBRANCH   9  11
ENDBRANCH   5   9
TORSDOF 4
ENDMDL
MODEL      225
REMARK 921   NORMALIZED FREE ENERGY PREDICTED BY IDOCK:   -3.00 KCAL/MOL
REMARK 922        TOTAL FREE ENERGY PREDICTED BY IDOCK:   -4.21 KCAL/MOL
REMARK 923 INTER-LIGAND FREE ENERGY PREDICTED BY IDOCK:   -3.92 KCAL/MOL
REMARK 924 INTRA-LIGAND FREE ENERGY PREDICTED BY IDOCK:   -0.30 KCAL/MOL
REMARK 927      BINDING AFFINITY PREDICTED BY RF-SCORE:    0.00 PKD
ROOT
HETATM    1  C   UNL     1      -9.368   2.349  70.639  1.00  0.00    -0.138 A  
HETATM    2  N   UNL     1      -9.450   1.696  69.480  1.00  0.00    -0.089 NA 
HETATM    3  O   UNL     1      -9.639   2.675  68.524  1.00  0.00    -0.176 OA 
HETATM    4  C   UNL     1      -9.640   3.903  69.117  1.00  0.00    -0.148 A  
HETATM    5  C   UNL     1      -9.465   3.753  70.487  1.00  0.00    -0.254 A  
ENDROOT
BRANCH   4   6
HETATM    6  C   UNL     1      -9.800   5.207  68.337  1.00  0.00    -0.211 C  
HETATM    7  C   UNL     1      -8.706   5.618  67.371  1.00  0.00    -0.107 C  
HETATM    8  C   UNL     1     -10.003   5.118  66.839  1.00  0.00    -0.227 C  
ENDBRANCH   4   6
BRANCH   5   9
HETATM    9  C   UNL     1      -9.445   4.826  71.474  1.00  0.00    -0.153 C  
HETATM   10  O   UNL     1     -10.092   4.730  72.508  1.00  0.00    -0.168 OA 
BRANCH   9  11
HETATM   11  C   UNL     1      -8.733   6.121  71.228  1.00  0.00    -0.132 A  
HETATM   12  C   UNL     1      -9.402   7.364  71.157  1.00  0.00    -0.155 A  
HETATM   13  C   UNL     1      -8.703   8.528  70.787  1.00  0.00    -0.183 A  
HETATM   14  C   UNL     1      -7.368   6.084  70.886  1.00  0.00    -0.082 A  
HETATM   15  C   UNL     1      -7.343   8.477  70.447  1.00  0.00    -0.054 A  
HETATM   16  F   UNL     1      -7.390  10.838  70.011  1.00  0.00    -0.154 F  
HETATM   17  F   UNL     1      -5.528  10.003  70.760  1.00  0.00    -0.043 F  
HETATM   18  F   UNL     1      -6.152   9.610  68.713  1.00  0.00    -0.042 F  
HETATM   19  C   UNL     1      -6.610   9.721  69.988  1.00  0.00    -0.081 C  
HETATM   20  C   UNL     1      -6.682   7.247  70.507  1.00  0.00    -0.048 A  
BRANCH  12  21
HETATM   21  S   UNL     1     -11.135   7.503  71.582  1.00  0.00    -0.244 S  
HETATM   22  C   UNL     1     -11.715   9.071  71.002  1.00  0.00    -0.296 C  
HETATM   23  O   UNL     1     -11.857   6.530  70.785  1.00  0.00    -0.373 OA 
HETATM   24  O   UNL     1     -11.181   7.548  73.032  1.00  0.00    -0.361 OA 
ENDBRANCH  12  21
ENDBRANCH   9  11
ENDBRANCH   5   9
TORSDOF 4
ENDMDL
MODEL      226
REMARK 921   NORMALIZED FREE ENERGY PREDICTED BY IDOCK:   -2.99 KCAL/MOL
REMARK 922        TOTAL FREE ENERGY PREDICTED BY IDOCK:   -4.21 KCAL/MOL
REMARK 923 INTER-LIGAND FREE ENERGY PREDICTED BY IDOCK:   -4.43 KCAL/MOL
REMARK 924 INTRA-LIGAND FREE ENERGY PREDICTED BY IDOCK:    0.22 KCAL/MOL
REMARK 927      BINDING AFFINITY PREDICTED BY RF-SCORE:    0.00 PKD
ROOT
HETATM    1  C   UNL     1     -10.315  12.160  68.141  1.00  0.00    -0.207 A  
HETATM    2  N   UNL     1      -9.510  13.217  68.022  1.00  0.00    -0.214 NA 
HETATM    3  O   UNL     1      -8.353  12.728  67.448  1.00  0.00    -0.170 OA 
HETATM    4  C   UNL     1      -8.487  11.393  67.204  1.00  0.00    -0.153 A  
HETATM    5  C   UNL     1      -9.741  10.971  67.630  1.00  0.00    -0.184 A  
ENDROOT
BRANCH   4   6
HETATM    6  C   UNL     1      -7.396  10.550  66.547  1.00  0.00    -0.125 C  
HETATM    7  C   UNL     1      -6.022  11.160  66.350  1.00  0.00    -0.145 C  
HETATM    8  C   UNL     1      -6.219  10.122  67.399  1.00  0.00    -0.058 C  
ENDBRANCH   4   6
BRANCH   5   9
HETATM    9  C   UNL     1     -10.253   9.608  67.576  1.00  0.00    -0.220 C  
HETATM   10  O   UNL     1     -10.722   9.162  66.538  1.00  0.00    -0.107 OA 
BRANCH   9  11
HETATM   11  C   UNL     1     -10.329   8.737  68.792  1.00  0.00    -0.234 A  
HETATM   12  C   UNL     1     -10.034   7.355  68.767  1.00  0.00    -0.169 A  
HETATM   13  C   UNL     1     -10.255   6.560  69.907  1.00  0.00    -0.219 A  
HETATM   14  C   UNL     1     -10.877   9.275  69.973  1.00  0.00    -0.264 A  
HETATM   15  C   UNL     1     -10.803   7.108  71.076  1.00  0.00    -0.262 A  
HETATM   16  F   UNL     1     -10.723   4.938  72.102  1.00  0.00    -0.265 F  
HETATM   17  F   UNL     1     -10.461   6.661  73.401  1.00  0.00    -0.209 F  
HETATM   18  F   UNL     1     -12.424   6.204  72.581  1.00  0.00    -0.174 F  
HETATM   19  C   UNL     1     -11.099   6.235  72.279  1.00  0.00    -0.271 C  
HETATM   20  C   UNL     1     -11.105   8.473  71.099  1.00  0.00    -0.312 A  
BRANCH  12  21
HETATM   21  S   UNL     1      -9.328   6.590  67.312  1.00  0.00    -0.124 S  
HETATM   22  C   UNL     1      -8.721   4.993  67.775  1.00  0.00    -0.103 C  
HETATM   23  O   UNL     1     -10.417   6.314  66.395  1.00  0.00    -0.119 OA 
HETATM   24  O   UNL     1      -8.171   7.395  66.968  1.00  0.00    -0.117 OA 
ENDBRANCH  12  21
ENDBRANCH   9  11
ENDBRANCH   5   9
TORSDOF 4
ENDMDL
MODEL      227
REMARK 921   NORMALIZED FREE ENERGY PREDICTED BY IDOCK:   -2.99 KCAL/MOL
REMARK 922        TOTAL FREE ENERGY PREDICTED BY IDOCK:   -4.21 KCAL/MOL
REMARK 923 INTER-LIGAND FREE ENERGY PREDICTED BY IDOCK:   -4.38 KCAL/MOL
REMARK 924 INTRA-LIGAND FREE ENERGY PREDICTED BY IDOCK:    0.18 KCAL/MOL
REMARK 927      BINDING AFFINITY PREDICTED BY RF-SCORE:    0.00 PKD
ROOT
HETATM    1  C   UNL     1      -9.397   5.844  66.829  1.00  0.00    -0.136 A  
HETATM    2  N   UNL     1      -9.793   4.580  66.981  1.00  0.00    -0.205 NA 
HETATM    3  O   UNL     1      -9.676   4.324  68.333  1.00  0.00    -0.152 OA 
HETATM    4  C   UNL     1      -9.240   5.444  68.979  1.00  0.00    -0.120 A  
HETATM    5  C   UNL     1      -9.046   6.462  68.053  1.00  0.00    -0.113 A  
ENDROOT
BRANCH   4   6
HETATM    6  C   UNL     1      -9.032   5.509  70.490  1.00  0.00    -0.153 C  
HETATM    7  C   UNL     1     -10.225   5.302  71.401  1.00  0.00    -0.279 C  
HETATM    8  C   UNL     1      -9.198   4.231  71.286  1.00  0.00    -0.197 C  
ENDBRANCH   4   6
BRANCH   5   9
HETATM    9  C   UNL     1      -8.551   7.802  68.341  1.00  0.00    -0.128 C  
HETATM   10  O   UNL     1      -7.592   7.963  69.082  1.00  0.00    -0.094 OA 
BRANCH   9  11
HETATM   11  C   UNL     1      -9.245   9.032  67.840  1.00  0.00    -0.151 A  
HETATM   12  C   UNL     1      -8.684   9.887  66.865  1.00  0.00    -0.128 A  
HETATM   13  C   UNL     1      -9.318  11.099  66.534  1.00  0.00    -0.199 A  
HETATM   14  C   UNL     1     -10.426   9.447  68.484  1.00  0.00    -0.239 A  
HETATM   15  C   UNL     1     -10.493  11.503  67.184  1.00  0.00    -0.259 A  
HETATM   16  F   UNL     1     -10.490  13.521  65.884  1.00  0.00    -0.271 F  
HETATM   17  F   UNL     1     -12.425  12.712  66.456  1.00  0.00    -0.365 F  
HETATM   18  F   UNL     1     -11.159  13.667  67.947  1.00  0.00    -0.248 F  
HETATM   19  C   UNL     1     -11.137  12.838  66.869  1.00  0.00    -0.270 C  
HETATM   20  C   UNL     1     -11.044  10.662  68.156  1.00  0.00    -0.343 A  
BRANCH  12  21
HETATM   21  S   UNL     1      -7.189   9.433  65.992  1.00  0.00    -0.093 S  
HETATM   22  C   UNL     1      -5.828   9.623  67.107  1.00  0.00    -0.051 C  
HETATM   23  O   UNL     1      -7.253   8.008  65.734  1.00  0.00    -0.069 OA 
HETATM   24  O   UNL     1      -7.024  10.432  64.953  1.00  0.00    -0.122 OA 
ENDBRANCH  12  21
ENDBRANCH   9  11
ENDBRANCH   5   9
TORSDOF 4
ENDMDL
MODEL      228
REMARK 921   NORMALIZED FREE ENERGY PREDICTED BY IDOCK:   -2.93 KCAL/MOL
REMARK 922        TOTAL FREE ENERGY PREDICTED BY IDOCK:   -4.13 KCAL/MOL
REMARK 923 INTER-LIGAND FREE ENERGY PREDICTED BY IDOCK:   -4.28 KCAL/MOL
REMARK 924 INTRA-LIGAND FREE ENERGY PREDICTED BY IDOCK:    0.15 KCAL/MOL
REMARK 927      BINDING AFFINITY PREDICTED BY RF-SCORE:    0.00 PKD
ROOT
HETATM    1  C   UNL     1      -7.322   9.344  71.028  1.00  0.00    -0.024 A  
HETATM    2  N   UNL     1      -6.294  10.189  70.947  1.00  0.00    -0.295 NA 
HETATM    3  O   UNL     1      -6.642  11.091  69.960  1.00  0.00    -0.149 OA 
HETATM    4  C   UNL     1      -7.884  10.794  69.482  1.00  0.00    -0.035 A  
HETATM    5  C   UNL     1      -8.375   9.672  70.140  1.00  0.00    -0.221 A  
ENDROOT
BRANCH   4   6
HETATM    6  C   UNL     1      -8.580  11.615  68.398  1.00  0.00    -0.156 C  
HETATM    7  C   UNL     1      -7.738  12.241  67.304  1.00  0.00    -0.161 C  
HETATM    8  C   UNL     1      -8.594  11.064  66.988  1.00  0.00    -0.140 C  
ENDBRANCH   4   6
BRANCH   5   9
HETATM    9  C   UNL     1      -9.653   9.020  69.889  1.00  0.00    -0.183 C  
HETATM   10  O   UNL     1     -10.688   9.488  70.342  1.00  0.00    -0.239 OA 
BRANCH   9  11
HETATM   11  C   UNL     1      -9.751   7.710  69.169  1.00  0.00    -0.164 A  
HETATM   12  C   UNL     1     -10.072   6.497  69.821  1.00  0.00    -0.178 A  
HETATM   13  C   UNL     1     -10.015   5.277  69.122  1.00  0.00    -0.275 A  
HETATM   14  C   UNL     1      -9.345   7.649  67.823  1.00  0.00    -0.153 A  
HETATM   15  C   UNL     1      -9.606   5.230  67.781  1.00  0.00    -0.157 A  
HETATM   16  F   UNL     1      -9.864   2.843  67.811  1.00  0.00    -0.225 F  
HETATM   17  F   UNL     1     -10.249   3.860  65.929  1.00  0.00    -0.176 F  
HETATM   18  F   UNL     1      -8.209   3.651  66.657  1.00  0.00    -0.096 F  
HETATM   19  C   UNL     1      -9.484   3.908  67.051  1.00  0.00    -0.200 C  
HETATM   20  C   UNL     1      -9.279   6.428  67.137  1.00  0.00    -0.128 A  
BRANCH  12  21
HETATM   21  S   UNL     1     -10.606   6.483  71.529  1.00  0.00    -0.235 S  
HETATM   22  C   UNL     1     -12.216   7.216  71.603  1.00  0.00    -0.350 C  
HETATM   23  O   UNL     1     -10.819   5.099  71.906  1.00  0.00    -0.193 OA 
HETATM   24  O   UNL     1      -9.704   7.378  72.229  1.00  0.00    -0.151 OA 
ENDBRANCH  12  21
ENDBRANCH   9  11
ENDBRANCH   5   9
TORSDOF 4
ENDMDL
MODEL      229
REMARK 921   NORMALIZED FREE ENERGY PREDICTED BY IDOCK:   -2.86 KCAL/MOL
REMARK 922        TOTAL FREE ENERGY PREDICTED BY IDOCK:   -4.05 KCAL/MOL
REMARK 923 INTER-LIGAND FREE ENERGY PREDICTED BY IDOCK:   -4.56 KCAL/MOL
REMARK 924 INTRA-LIGAND FREE ENERGY PREDICTED BY IDOCK:    0.50 KCAL/MOL
REMARK 927      BINDING AFFINITY PREDICTED BY RF-SCORE:    0.00 PKD
ROOT
HETATM    1  C   UNL     1     -10.957  10.031  70.897  1.00  0.00    -0.267 A  
HETATM    2  N   UNL     1     -11.739   9.056  71.360  1.00  0.00    -0.298 NA 
HETATM    3  O   UNL     1     -11.589   8.015  70.463  1.00  0.00    -0.241 OA 
HETATM    4  C   UNL     1     -10.699   8.369  69.492  1.00  0.00    -0.175 A  
HETATM    5  C   UNL     1     -10.255   9.665  69.724  1.00  0.00    -0.262 A  
ENDROOT
BRANCH   4   6
HETATM    6  C   UNL     1     -10.286   7.433  68.358  1.00  0.00    -0.224 C  
HETATM    7  C   UNL     1     -10.206   5.944  68.633  1.00  0.00    -0.243 C  
HETATM    8  C   UNL     1     -11.326   6.478  67.809  1.00  0.00    -0.095 C  
ENDBRANCH   4   6
BRANCH   5   9
HETATM    9  C   UNL     1      -9.325  10.416  68.891  1.00  0.00    -0.186 C  
HETATM   10  O   UNL     1      -8.786  11.427  69.320  1.00  0.00     0.108 OA 
BRANCH   9  11
HETATM   11  C   UNL     1      -9.070  10.058  67.459  1.00  0.00    -0.144 A  
HETATM   12  C   UNL     1      -9.927  10.449  66.405  1.00  0.00    -0.221 A  
HETATM   13  C   UNL     1      -9.714   9.968  65.100  1.00  0.00    -0.380 A  
HETATM   14  C   UNL     1      -8.031   9.155  67.165  1.00  0.00    -0.106 A  
HETATM   15  C   UNL     1      -8.676   9.068  64.821  1.00  0.00    -0.187 A  
HETATM   16  F   UNL     1      -9.376   9.010  62.525  1.00  0.00    -0.187 F  
HETATM   17  F   UNL     1      -7.254   8.759  62.922  1.00  0.00    -0.094 F  
HETATM   18  F   UNL     1      -8.647   7.154  63.391  1.00  0.00     0.062 F  
HETATM   19  C   UNL     1      -8.489   8.504  63.427  1.00  0.00    -0.035 C  
HETATM   20  C   UNL     1      -7.833   8.672  65.864  1.00  0.00    -0.102 A  
BRANCH  12  21
HETATM   21  S   UNL     1     -11.269  11.599  66.688  1.00  0.00    -0.254 S  
HETATM   22  C   UNL     1     -10.592  13.053  67.438  1.00  0.00    -0.234 C  
HETATM   23  O   UNL     1     -11.740  12.045  65.390  1.00  0.00    -0.343 OA 
HETATM   24  O   UNL     1     -12.121  10.972  67.680  1.00  0.00    -0.447 OA 
ENDBRANCH  12  21
ENDBRANCH   9  11
ENDBRANCH   5   9
TORSDOF 4
ENDMDL
MODEL      230
REMARK 921   NORMALIZED FREE ENERGY PREDICTED BY IDOCK:   -2.75 KCAL/MOL
REMARK 922        TOTAL FREE ENERGY PREDICTED BY IDOCK:   -3.91 KCAL/MOL
REMARK 923 INTER-LIGAND FREE ENERGY PREDICTED BY IDOCK:   -4.28 KCAL/MOL
REMARK 924 INTRA-LIGAND FREE ENERGY PREDICTED BY IDOCK:    0.38 KCAL/MOL
REMARK 927      BINDING AFFINITY PREDICTED BY RF-SCORE:    0.00 PKD
ROOT
HETATM    1  C   UNL     1      -6.421  16.751  68.040  1.00  0.00    -0.143 A  
HETATM    2  N   UNL     1      -6.235  17.951  67.488  1.00  0.00    -0.157 NA 
HETATM    3  O   UNL     1      -7.501  18.405  67.174  1.00  0.00    -0.213 OA 
HETATM    4  C   UNL     1      -8.431  17.487  67.565  1.00  0.00    -0.213 A  
HETATM    5  C   UNL     1      -7.788  16.396  68.136  1.00  0.00    -0.158 A  
ENDROOT
BRANCH   4   6
HETATM    6  C   UNL     1      -9.934  17.694  67.387  1.00  0.00    -0.321 C  
HETATM    7  C   UNL     1     -10.634  18.732  68.242  1.00  0.00    -0.214 C  
HETATM    8  C   UNL     1     -10.406  19.006  66.796  1.00  0.00    -0.486 C  
ENDBRANCH   4   6
BRANCH   5   9
HETATM    9  C   UNL     1      -8.430  15.190  68.645  1.00  0.00    -0.170 C  
HETATM   10  O   UNL     1      -9.381  15.270  69.410  1.00  0.00    -0.237 OA 
BRANCH   9  11
HETATM   11  C   UNL     1      -7.900  13.821  68.349  1.00  0.00    -0.143 A  
HETATM   12  C   UNL     1      -8.610  12.873  67.576  1.00  0.00    -0.188 A  
HETATM   13  C   UNL     1      -8.127  11.558  67.446  1.00  0.00    -0.146 A  
HETATM   14  C   UNL     1      -6.728  13.396  69.003  1.00  0.00    -0.108 A  
HETATM   15  C   UNL     1      -6.959  11.147  68.105  1.00  0.00    -0.069 A  
HETATM   16  F   UNL     1      -7.255   8.942  67.202  1.00  0.00    -0.078 F  
HETATM   17  F   UNL     1      -5.215   9.617  67.524  1.00  0.00    -0.036 F  
HETATM   18  F   UNL     1      -6.470   9.093  69.223  1.00  0.00    -0.043 F  
HETATM   19  C   UNL     1      -6.479   9.713  68.013  1.00  0.00    -0.057 C  
HETATM   20  C   UNL     1      -6.262  12.080  68.877  1.00  0.00    -0.072 A  
BRANCH  12  21
HETATM   21  S   UNL     1     -10.105  13.330  66.704  1.00  0.00    -0.272 S  
HETATM   22  C   UNL     1      -9.726  14.704  65.654  1.00  0.00    -0.266 C  
HETATM   23  O   UNL     1     -10.421  12.249  65.790  1.00  0.00    -0.243 OA 
HETATM   24  O   UNL     1     -11.018  13.817  67.721  1.00  0.00    -0.249 OA 
ENDBRANCH  12  21
ENDBRANCH   9  11
ENDBRANCH   5   9
TORSDOF 4
ENDMDL
MODEL      231
REMARK 921   NORMALIZED FREE ENERGY PREDICTED BY IDOCK:   -2.74 KCAL/MOL
REMARK 922        TOTAL FREE ENERGY PREDICTED BY IDOCK:   -3.89 KCAL/MOL
REMARK 923 INTER-LIGAND FREE ENERGY PREDICTED BY IDOCK:   -4.26 KCAL/MOL
REMARK 924 INTRA-LIGAND FREE ENERGY PREDICTED BY IDOCK:    0.36 KCAL/MOL
REMARK 927      BINDING AFFINITY PREDICTED BY RF-SCORE:    0.00 PKD
ROOT
HETATM    1  C   UNL     1      -9.828  14.240  68.139  1.00  0.00    -0.226 A  
HETATM    2  N   UNL     1     -10.629  14.893  67.297  1.00  0.00    -0.268 NA 
HETATM    3  O   UNL     1     -10.705  14.092  66.174  1.00  0.00    -0.290 OA 
HETATM    4  C   UNL     1      -9.972  12.958  66.366  1.00  0.00    -0.267 A  
HETATM    5  C   UNL     1      -9.384  12.998  67.624  1.00  0.00    -0.202 A  
ENDROOT
BRANCH   4   6
HETATM    6  C   UNL     1      -9.867  11.846  65.325  1.00  0.00    -0.255 C  
HETATM    7  C   UNL     1     -11.131  11.133  64.888  1.00  0.00    -0.118 C  
HETATM    8  C   UNL     1     -10.472  12.092  63.958  1.00  0.00    -0.418 C  
ENDBRANCH   4   6
BRANCH   5   9
HETATM    9  C   UNL     1      -8.496  11.990  68.190  1.00  0.00    -0.171 C  
HETATM   10  O   UNL     1      -7.414  12.310  68.662  1.00  0.00    -0.111 OA 
BRANCH   9  11
HETATM   11  C   UNL     1      -8.811  10.527  68.127  1.00  0.00    -0.134 A  
HETATM   12  C   UNL     1      -8.127   9.630  67.275  1.00  0.00    -0.110 A  
HETATM   13  C   UNL     1      -8.557   8.295  67.156  1.00  0.00    -0.123 A  
HETATM   14  C   UNL     1      -9.942  10.051  68.817  1.00  0.00    -0.181 A  
HETATM   15  C   UNL     1      -9.687   7.834  67.848  1.00  0.00    -0.181 A  
HETATM   16  F   UNL     1      -9.391   5.674  66.841  1.00  0.00    -0.119 F  
HETATM   17  F   UNL     1     -10.243   5.730  68.840  1.00  0.00    -0.180 F  
HETATM   18  F   UNL     1     -11.431   6.367  67.132  1.00  0.00    -0.406 F  
HETATM   19  C   UNL     1     -10.182   6.414  67.668  1.00  0.00    -0.169 C  
HETATM   20  C   UNL     1     -10.370   8.722  68.684  1.00  0.00    -0.230 A  
BRANCH  12  21
HETATM   21  S   UNL     1      -6.675  10.148  66.367  1.00  0.00    -0.098 S  
HETATM   22  C   UNL     1      -6.672   9.300  64.813  1.00  0.00    -0.080 C  
HETATM   23  O   UNL     1      -6.856  11.545  66.020  1.00  0.00     0.125 OA 
HETATM   24  O   UNL     1      -5.542   9.647  67.121  1.00  0.00    -0.046 OA 
ENDBRANCH  12  21
ENDBRANCH   9  11
ENDBRANCH   5   9
TORSDOF 4
ENDMDL
MODEL      232
REMARK 921   NORMALIZED FREE ENERGY PREDICTED BY IDOCK:   -2.70 KCAL/MOL
REMARK 922        TOTAL FREE ENERGY PREDICTED BY IDOCK:   -3.85 KCAL/MOL
REMARK 923 INTER-LIGAND FREE ENERGY PREDICTED BY IDOCK:   -3.69 KCAL/MOL
REMARK 924 INTRA-LIGAND FREE ENERGY PREDICTED BY IDOCK:   -0.17 KCAL/MOL
REMARK 927      BINDING AFFINITY PREDICTED BY RF-SCORE:    0.00 PKD
ROOT
HETATM    1  C   UNL     1     -10.200   3.812  64.310  1.00  0.00    -0.235 A  
HETATM    2  N   UNL     1      -9.758   4.038  63.073  1.00  0.00    -0.149 NA 
HETATM    3  O   UNL     1      -8.721   4.938  63.218  1.00  0.00    -0.139 OA 
HETATM    4  C   UNL     1      -8.536   5.220  64.539  1.00  0.00    -0.133 A  
HETATM    5  C   UNL     1      -9.465   4.515  65.294  1.00  0.00    -0.175 A  
ENDROOT
BRANCH   4   6
HETATM    6  C   UNL     1      -7.447   6.163  65.047  1.00  0.00    -0.082 C  
HETATM    7  C   UNL     1      -5.995   5.793  64.817  1.00  0.00    -0.025 C  
HETATM    8  C   UNL     1      -6.605   6.895  64.023  1.00  0.00    -0.039 C  
ENDBRANCH   4   6
BRANCH   5   9
HETATM    9  C   UNL     1      -9.617   4.573  66.743  1.00  0.00    -0.190 C  
HETATM   10  O   UNL     1      -9.776   3.548  67.391  1.00  0.00    -0.180 OA 
BRANCH   9  11
HETATM   11  C   UNL     1      -9.692   5.872  67.484  1.00  0.00    -0.123 A  
HETATM   12  C   UNL     1      -8.969   6.122  68.672  1.00  0.00    -0.126 A  
HETATM   13  C   UNL     1      -9.184   7.308  69.399  1.00  0.00    -0.148 A  
HETATM   14  C   UNL     1     -10.647   6.825  67.078  1.00  0.00    -0.405 A  
HETATM   15  C   UNL     1     -10.140   8.247  68.986  1.00  0.00    -0.208 A  
HETATM   16  F   UNL     1      -9.607   9.596  70.900  1.00  0.00    -0.310 F  
HETATM   17  F   UNL     1     -10.230  10.635  69.095  1.00  0.00    -0.187 F  
HETATM   18  F   UNL     1     -11.688   9.531  70.275  1.00  0.00    -0.274 F  
HETATM   19  C   UNL     1     -10.413   9.492  69.806  1.00  0.00    -0.231 C  
HETATM   20  C   UNL     1     -10.862   7.997  67.815  1.00  0.00    -0.081 A  
BRANCH  12  21
HETATM   21  S   UNL     1      -7.731   4.969  69.257  1.00  0.00    -0.076 S  
HETATM   22  C   UNL     1      -6.797   5.771  70.528  1.00  0.00    -0.056 C  
HETATM   23  O   UNL     1      -8.426   3.895  69.938  1.00  0.00    -0.059 OA 
HETATM   24  O   UNL     1      -6.829   4.763  68.139  1.00  0.00    -0.053 OA 
ENDBRANCH  12  21
ENDBRANCH   9  11
ENDBRANCH   5   9
TORSDOF 4
ENDMDL
MODEL      233
REMARK 921   NORMALIZED FREE ENERGY PREDICTED BY IDOCK:   -2.60 KCAL/MOL
REMARK 922        TOTAL FREE ENERGY PREDICTED BY IDOCK:   -3.72 KCAL/MOL
REMARK 923 INTER-LIGAND FREE ENERGY PREDICTED BY IDOCK:   -4.35 KCAL/MOL
REMARK 924 INTRA-LIGAND FREE ENERGY PREDICTED BY IDOCK:    0.63 KCAL/MOL
REMARK 927      BINDING AFFINITY PREDICTED BY RF-SCORE:    0.00 PKD
ROOT
HETATM    1  C   UNL     1     -11.134  17.176  65.492  1.00  0.00     0.216 A  
HETATM    2  N   UNL     1     -11.231  17.150  64.163  1.00  0.00    -0.503 NA 
HETATM    3  O   UNL     1     -11.245  15.811  63.827  1.00  0.00    -0.067 OA 
HETATM    4  C   UNL     1     -11.184  15.050  64.957  1.00  0.00    -0.409 A  
HETATM    5  C   UNL     1     -11.114  15.883  66.068  1.00  0.00    -0.037 A  
ENDROOT
BRANCH   4   6
HETATM    6  C   UNL     1     -11.208  13.523  64.939  1.00  0.00    -0.353 C  
HETATM    7  C   UNL     1     -11.407  12.812  63.616  1.00  0.00    -0.514 C  
HETATM    8  C   UNL     1     -10.064  12.803  64.258  1.00  0.00    -0.277 C  
ENDBRANCH   4   6
BRANCH   5   9
HETATM    9  C   UNL     1     -11.000  15.455  67.456  1.00  0.00    -0.315 C  
HETATM   10  O   UNL     1     -11.800  15.848  68.294  1.00  0.00    -0.277 OA 
BRANCH   9  11
HETATM   11  C   UNL     1      -9.857  14.616  67.940  1.00  0.00    -0.217 A  
HETATM   12  C   UNL     1      -8.682  15.167  68.500  1.00  0.00    -0.172 A  
HETATM   13  C   UNL     1      -7.586  14.340  68.810  1.00  0.00    -0.130 A  
HETATM   14  C   UNL     1      -9.877  13.233  67.675  1.00  0.00    -0.230 A  
HETATM   15  C   UNL     1      -7.619  12.965  68.539  1.00  0.00    -0.120 A  
HETATM   16  F   UNL     1      -5.380  12.770  69.386  1.00  0.00    -0.071 F  
HETATM   17  F   UNL     1      -6.696  11.062  69.658  1.00  0.00    -0.083 F  
HETATM   18  F   UNL     1      -5.912  11.529  67.683  1.00  0.00    -0.046 F  
HETATM   19  C   UNL     1      -6.413  12.090  68.815  1.00  0.00    -0.077 C  
HETATM   20  C   UNL     1      -8.776  12.419  67.976  1.00  0.00    -0.186 A  
BRANCH  12  21
HETATM   21  S   UNL     1      -8.573  16.914  68.877  1.00  0.00    -0.153 S  
HETATM   22  C   UNL     1      -8.381  17.789  67.350  1.00  0.00    -0.222 C  
HETATM   23  O   UNL     1      -9.869  17.332  69.376  1.00  0.00    -0.127 OA 
HETATM   24  O   UNL     1      -7.335  17.079  69.614  1.00  0.00     0.016 OA 
ENDBRANCH  12  21
ENDBRANCH   9  11
ENDBRANCH   5   9
TORSDOF 4
ENDMDL
MODEL      234
REMARK 921   NORMALIZED FREE ENERGY PREDICTED BY IDOCK:   -2.57 KCAL/MOL
REMARK 922        TOTAL FREE ENERGY PREDICTED BY IDOCK:   -3.69 KCAL/MOL
REMARK 923 INTER-LIGAND FREE ENERGY PREDICTED BY IDOCK:   -4.37 KCAL/MOL
REMARK 924 INTRA-LIGAND FREE ENERGY PREDICTED BY IDOCK:    0.69 KCAL/MOL
REMARK 927      BINDING AFFINITY PREDICTED BY RF-SCORE:    0.00 PKD
ROOT
HETATM    1  C   UNL     1     -11.377   9.160  70.724  1.00  0.00    -0.280 A  
HETATM    2  N   UNL     1     -11.401   8.635  71.950  1.00  0.00    -0.323 NA 
HETATM    3  O   UNL     1     -10.833   7.383  71.818  1.00  0.00    -0.221 OA 
HETATM    4  C   UNL     1     -10.451   7.183  70.524  1.00  0.00    -0.212 A  
HETATM    5  C   UNL     1     -10.776   8.305  69.771  1.00  0.00    -0.221 A  
ENDROOT
BRANCH   4   6
HETATM    6  C   UNL     1      -9.762   5.907  70.044  1.00  0.00    -0.209 C  
HETATM    7  C   UNL     1      -8.391   5.567  70.593  1.00  0.00    -0.117 C  
HETATM    8  C   UNL     1      -9.574   4.783  71.042  1.00  0.00    -0.242 C  
ENDBRANCH   4   6
BRANCH   5   9
HETATM    9  C   UNL     1     -10.562   8.468  68.338  1.00  0.00    -0.111 C  
HETATM   10  O   UNL     1     -10.822   9.530  67.790  1.00  0.00    -0.269 OA 
BRANCH   9  11
HETATM   11  C   UNL     1     -10.125   7.333  67.464  1.00  0.00    -0.250 A  
HETATM   12  C   UNL     1      -8.905   7.340  66.749  1.00  0.00    -0.134 A  
HETATM   13  C   UNL     1      -8.611   6.309  65.837  1.00  0.00    -0.150 A  
HETATM   14  C   UNL     1     -11.036   6.291  67.207  1.00  0.00    -0.387 A  
HETATM   15  C   UNL     1      -9.528   5.278  65.589  1.00  0.00    -0.097 A  
HETATM   16  F   UNL     1      -8.004   4.340  63.989  1.00  0.00    -0.082 F  
HETATM   17  F   UNL     1      -9.269   2.954  65.086  1.00  0.00    -0.134 F  
HETATM   18  F   UNL     1     -10.125   4.216  63.534  1.00  0.00    -0.166 F  
HETATM   19  C   UNL     1      -9.233   4.206  64.559  1.00  0.00    -0.151 C  
HETATM   20  C   UNL     1     -10.739   5.275  66.288  1.00  0.00    -0.260 A  
BRANCH  12  21
HETATM   21  S   UNL     1      -7.687   8.622  67.018  1.00  0.00    -0.096 S  
HETATM   22  C   UNL     1      -7.585   8.920  68.761  1.00  0.00    -0.091 C  
HETATM   23  O   UNL     1      -6.392   8.072  66.667  1.00  0.00    -0.052 OA 
HETATM   24  O   UNL     1      -8.240   9.822  66.419  1.00  0.00    -0.118 OA 
ENDBRANCH  12  21
ENDBRANCH   9  11
ENDBRANCH   5   9
TORSDOF 4
ENDMDL
MODEL      235
REMARK 921   NORMALIZED FREE ENERGY PREDICTED BY IDOCK:   -2.57 KCAL/MOL
REMARK 922        TOTAL FREE ENERGY PREDICTED BY IDOCK:   -3.69 KCAL/MOL
REMARK 923 INTER-LIGAND FREE ENERGY PREDICTED BY IDOCK:   -4.84 KCAL/MOL
REMARK 924 INTRA-LIGAND FREE ENERGY PREDICTED BY IDOCK:    1.16 KCAL/MOL
REMARK 927      BINDING AFFINITY PREDICTED BY RF-SCORE:    0.00 PKD
ROOT
HETATM    1  C   UNL     1      -6.693  10.040  71.002  1.00  0.00     0.173 A  
HETATM    2  N   UNL     1      -5.764  10.970  71.227  1.00  0.00    -0.347 NA 
HETATM    3  O   UNL     1      -5.752  11.753  70.089  1.00  0.00    -0.112 OA 
HETATM    4  C   UNL     1      -6.690  11.302  69.209  1.00  0.00    -0.110 A  
HETATM    5  C   UNL     1      -7.333  10.195  69.749  1.00  0.00    -0.159 A  
ENDROOT
BRANCH   4   6
HETATM    6  C   UNL     1      -6.954  11.964  67.858  1.00  0.00    -0.085 C  
HETATM    7  C   UNL     1      -5.773  12.336  66.984  1.00  0.00    -0.035 C  
HETATM    8  C   UNL     1      -6.629  11.178  66.605  1.00  0.00    -0.137 C  
ENDBRANCH   4   6
BRANCH   5   9
HETATM    9  C   UNL     1      -8.373   9.405  69.102  1.00  0.00    -0.125 C  
HETATM   10  O   UNL     1      -8.200   8.951  67.979  1.00  0.00    -0.109 OA 
BRANCH   9  11
HETATM   11  C   UNL     1      -9.722   9.205  69.722  1.00  0.00    -0.191 A  
HETATM   12  C   UNL     1     -10.818  10.062  69.471  1.00  0.00    -0.253 A  
HETATM   13  C   UNL     1     -12.020   9.907  70.186  1.00  0.00    -0.146 A  
HETATM   14  C   UNL     1      -9.864   8.226  70.724  1.00  0.00    -0.205 A  
HETATM   15  C   UNL     1     -12.148   8.929  71.183  1.00  0.00    -0.326 A  
HETATM   16  F   UNL     1     -14.388   9.684  71.602  1.00  0.00    -0.152 F  
HETATM   17  F   UNL     1     -13.979   7.571  71.908  1.00  0.00    -0.382 F  
HETATM   18  F   UNL     1     -13.216   9.043  73.317  1.00  0.00    -0.268 F  
HETATM   19  C   UNL     1     -13.422   8.807  71.994  1.00  0.00    -0.418 C  
HETATM   20  C   UNL     1     -11.062   8.087  71.439  1.00  0.00    -0.278 A  
BRANCH  12  21
HETATM   21  S   UNL     1     -10.727  11.328  68.209  1.00  0.00    -0.210 S  
HETATM   22  C   UNL     1     -10.265  10.550  66.688  1.00  0.00    -0.233 C  
HETATM   23  O   UNL     1     -12.076  11.808  67.978  1.00  0.00    -0.572 OA 
HETATM   24  O   UNL     1      -9.623  12.187  68.595  1.00  0.00    -0.165 OA 
ENDBRANCH  12  21
ENDBRANCH   9  11
ENDBRANCH   5   9
TORSDOF 4
ENDMDL
MODEL      236
REMARK 921   NORMALIZED FREE ENERGY PREDICTED BY IDOCK:   -2.56 KCAL/MOL
REMARK 922        TOTAL FREE ENERGY PREDICTED BY IDOCK:   -3.68 KCAL/MOL
REMARK 923 INTER-LIGAND FREE ENERGY PREDICTED BY IDOCK:   -5.01 KCAL/MOL
REMARK 924 INTRA-LIGAND FREE ENERGY PREDICTED BY IDOCK:    1.34 KCAL/MOL
REMARK 927      BINDING AFFINITY PREDICTED BY RF-SCORE:    0.00 PKD
ROOT
HETATM    1  C   UNL     1      -5.359  19.985  69.264  1.00  0.00    -0.210 A  
HETATM    2  N   UNL     1      -5.789  20.697  70.306  1.00  0.00    -0.510 NA 
HETATM    3  O   UNL     1      -7.154  20.491  70.347  1.00  0.00     0.044 OA 
HETATM    4  C   UNL     1      -7.522  19.638  69.349  1.00  0.00    -0.145 A  
HETATM    5  C   UNL     1      -6.399  19.275  68.616  1.00  0.00    -0.278 A  
ENDROOT
BRANCH   4   6
HETATM    6  C   UNL     1      -8.963  19.180  69.130  1.00  0.00    -0.153 C  
HETATM    7  C   UNL     1     -10.091  20.136  69.463  1.00  0.00     0.009 C  
HETATM    8  C   UNL     1      -9.766  19.854  68.037  1.00  0.00    -0.510 C  
ENDBRANCH   4   6
BRANCH   5   9
HETATM    9  C   UNL     1      -6.379  18.406  67.446  1.00  0.00    -0.182 C  
HETATM   10  O   UNL     1      -5.492  18.511  66.610  1.00  0.00    -0.140 OA 
BRANCH   9  11
HETATM   11  C   UNL     1      -7.482  17.434  67.158  1.00  0.00    -0.219 A  
HETATM   12  C   UNL     1      -7.540  16.145  67.735  1.00  0.00    -0.138 A  
HETATM   13  C   UNL     1      -8.522  15.225  67.323  1.00  0.00    -0.216 A  
HETATM   14  C   UNL     1      -8.409  17.748  66.146  1.00  0.00    -0.171 A  
HETATM   15  C   UNL     1      -9.438  15.550  66.312  1.00  0.00    -0.356 A  
HETATM   16  F   UNL     1     -10.397  13.357  66.510  1.00  0.00    -0.266 F  
HETATM   17  F   UNL     1     -11.732  14.977  65.947  1.00  0.00    -0.335 F  
HETATM   18  F   UNL     1     -10.279  14.216  64.517  1.00  0.00    -0.452 F  
HETATM   19  C   UNL     1     -10.453  14.534  65.827  1.00  0.00    -0.323 C  
HETATM   20  C   UNL     1      -9.377  16.821  65.734  1.00  0.00    -0.032 A  
BRANCH  12  21
HETATM   21  S   UNL     1      -6.406  15.665  69.033  1.00  0.00    -0.130 S  
HETATM   22  C   UNL     1      -5.565  14.198  68.508  1.00  0.00    -0.096 C  
HETATM   23  O   UNL     1      -5.368  16.676  69.099  1.00  0.00    -0.128 OA 
HETATM   24  O   UNL     1      -7.237  15.291  70.162  1.00  0.00    -0.075 OA 
ENDBRANCH  12  21
ENDBRANCH   9  11
ENDBRANCH   5   9
TORSDOF 4
ENDMDL
MODEL      237
REMARK 921   NORMALIZED FREE ENERGY PREDICTED BY IDOCK:   -2.56 KCAL/MOL
REMARK 922        TOTAL FREE ENERGY PREDICTED BY IDOCK:   -3.67 KCAL/MOL
REMARK 923 INTER-LIGAND FREE ENERGY PREDICTED BY IDOCK:   -3.30 KCAL/MOL
REMARK 924 INTRA-LIGAND FREE ENERGY PREDICTED BY IDOCK:   -0.37 KCAL/MOL
REMARK 927      BINDING AFFINITY PREDICTED BY RF-SCORE:    0.00 PKD
ROOT
HETATM    1  C   UNL     1      -9.430   4.183  65.675  1.00  0.00    -0.177 A  
HETATM    2  N   UNL     1      -9.065   3.900  64.425  1.00  0.00    -0.130 NA 
HETATM    3  O   UNL     1      -8.253   4.949  64.038  1.00  0.00    -0.109 OA 
HETATM    4  C   UNL     1      -8.119   5.832  65.069  1.00  0.00    -0.131 A  
HETATM    5  C   UNL     1      -8.858   5.385  66.157  1.00  0.00    -0.139 A  
ENDROOT
BRANCH   4   6
HETATM    6  C   UNL     1      -7.262   7.093  64.981  1.00  0.00    -0.074 C  
HETATM    7  C   UNL     1      -6.801   7.570  63.618  1.00  0.00    -0.054 C  
HETATM    8  C   UNL     1      -7.868   8.321  64.335  1.00  0.00    -0.135 C  
ENDBRANCH   4   6
BRANCH   5   9
HETATM    9  C   UNL     1      -9.001   6.067  67.437  1.00  0.00    -0.108 C  
HETATM   10  O   UNL     1      -8.943   5.438  68.485  1.00  0.00    -0.107 OA 
BRANCH   9  11
HETATM   11  C   UNL     1      -9.329   7.526  67.530  1.00  0.00    -0.157 A  
HETATM   12  C   UNL     1      -8.518   8.452  68.224  1.00  0.00    -0.135 A  
HETATM   13  C   UNL     1      -8.945   9.782  68.395  1.00  0.00    -0.123 A  
HETATM   14  C   UNL     1     -10.577   7.967  67.051  1.00  0.00    -0.364 A  
HETATM   15  C   UNL     1     -10.192  10.209  67.915  1.00  0.00    -0.217 A  
HETATM   16  F   UNL     1      -9.760  12.395  68.809  1.00  0.00    -0.186 F  
HETATM   17  F   UNL     1     -10.964  12.281  67.003  1.00  0.00    -0.251 F  
HETATM   18  F   UNL     1     -11.804  11.663  68.913  1.00  0.00    -0.297 F  
HETATM   19  C   UNL     1     -10.675  11.625  68.157  1.00  0.00    -0.213 C  
HETATM   20  C   UNL     1     -10.999   9.291  67.236  1.00  0.00     0.011 A  
BRANCH  12  21
HETATM   21  S   UNL     1      -6.913   7.978  68.859  1.00  0.00    -0.063 S  
HETATM   22  C   UNL     1      -6.020   9.457  69.243  1.00  0.00    -0.037 C  
HETATM   23  O   UNL     1      -7.126   7.337  70.143  1.00  0.00    -0.062 OA 
HETATM   24  O   UNL     1      -6.224   7.347  67.750  1.00  0.00    -0.040 OA 
ENDBRANCH  12  21
ENDBRANCH   9  11
ENDBRANCH   5   9
TORSDOF 4
ENDMDL
MODEL      238
REMARK 921   NORMALIZED FREE ENERGY PREDICTED BY IDOCK:   -2.48 KCAL/MOL
REMARK 922        TOTAL FREE ENERGY PREDICTED BY IDOCK:   -3.58 KCAL/MOL
REMARK 923 INTER-LIGAND FREE ENERGY PREDICTED BY IDOCK:   -5.10 KCAL/MOL
REMARK 924 INTRA-LIGAND FREE ENERGY PREDICTED BY IDOCK:    1.52 KCAL/MOL
REMARK 927      BINDING AFFINITY PREDICTED BY RF-SCORE:    0.00 PKD
ROOT
HETATM    1  C   UNL     1     -12.095   9.597  71.760  1.00  0.00    -0.369 A  
HETATM    2  N   UNL     1     -13.193  10.346  71.658  1.00  0.00    -0.408 NA 
HETATM    3  O   UNL     1     -13.121  10.925  70.406  1.00  0.00    -0.176 OA 
HETATM    4  C   UNL     1     -11.998  10.496  69.763  1.00  0.00    -0.238 A  
HETATM    5  C   UNL     1     -11.296   9.630  70.592  1.00  0.00    -0.379 A  
ENDROOT
BRANCH   4   6
HETATM    6  C   UNL     1     -11.632  10.926  68.344  1.00  0.00    -0.346 C  
HETATM    7  C   UNL     1     -12.142  12.259  67.831  1.00  0.00    -0.052 C  
HETATM    8  C   UNL     1     -10.701  12.110  68.178  1.00  0.00    -0.238 C  
ENDBRANCH   4   6
BRANCH   5   9
HETATM    9  C   UNL     1     -10.025   8.986  70.284  1.00  0.00    -0.195 C  
HETATM   10  O   UNL     1      -8.986   9.392  70.787  1.00  0.00    -0.238 OA 
BRANCH   9  11
HETATM   11  C   UNL     1      -9.914   7.888  69.272  1.00  0.00    -0.190 A  
HETATM   12  C   UNL     1      -9.041   7.951  68.161  1.00  0.00    -0.133 A  
HETATM   13  C   UNL     1      -9.079   6.953  67.170  1.00  0.00    -0.137 A  
HETATM   14  C   UNL     1     -10.832   6.822  69.331  1.00  0.00    -0.312 A  
HETATM   15  C   UNL     1     -10.000   5.898  67.240  1.00  0.00    -0.179 A  
HETATM   16  F   UNL     1      -9.148   5.049  65.162  1.00  0.00    -0.151 F  
HETATM   17  F   UNL     1      -9.892   3.596  66.597  1.00  0.00    -0.220 F  
HETATM   18  F   UNL     1     -11.285   4.867  65.510  1.00  0.00    -0.287 F  
HETATM   19  C   UNL     1     -10.080   4.861  66.138  1.00  0.00    -0.254 C  
HETATM   20  C   UNL     1     -10.870   5.839  68.332  1.00  0.00    -0.251 A  
BRANCH  12  21
HETATM   21  S   UNL     1      -7.837   9.266  68.011  1.00  0.00    -0.092 S  
HETATM   22  C   UNL     1      -6.556   8.971  69.197  1.00  0.00    -0.050 C  
HETATM   23  O   UNL     1      -7.184   9.112  66.725  1.00  0.00    -0.084 OA 
HETATM   24  O   UNL     1      -8.523  10.475  68.425  1.00  0.00    -0.117 OA 
ENDBRANCH  12  21
ENDBRANCH   9  11
ENDBRANCH   5   9
TORSDOF 4
ENDMDL
MODEL      239
REMARK 921   NORMALIZED FREE ENERGY PREDICTED BY IDOCK:   -2.41 KCAL/MOL
REMARK 922        TOTAL FREE ENERGY PREDICTED BY IDOCK:   -3.49 KCAL/MOL
REMARK 923 INTER-LIGAND FREE ENERGY PREDICTED BY IDOCK:   -4.35 KCAL/MOL
REMARK 924 INTRA-LIGAND FREE ENERGY PREDICTED BY IDOCK:    0.86 KCAL/MOL
REMARK 927      BINDING AFFINITY PREDICTED BY RF-SCORE:    0.00 PKD
ROOT
HETATM    1  C   UNL     1      -7.580  10.445  65.170  1.00  0.00    -0.103 A  
HETATM    2  N   UNL     1      -7.204   9.533  64.274  1.00  0.00    -0.110 NA 
HETATM    3  O   UNL     1      -6.885   8.410  65.011  1.00  0.00    -0.066 OA 
HETATM    4  C   UNL     1      -7.098   8.652  66.336  1.00  0.00    -0.079 A  
HETATM    5  C   UNL     1      -7.553   9.955  66.498  1.00  0.00    -0.103 A  
ENDROOT
BRANCH   4   6
HETATM    6  C   UNL     1      -6.868   7.605  67.425  1.00  0.00    -0.069 C  
HETATM    7  C   UNL     1      -7.753   6.375  67.452  1.00  0.00    -0.104 C  
HETATM    8  C   UNL     1      -6.338   6.250  67.006  1.00  0.00    -0.041 C  
ENDBRANCH   4   6
BRANCH   5   9
HETATM    9  C   UNL     1      -7.861  10.607  67.765  1.00  0.00    -0.108 C  
HETATM   10  O   UNL     1      -7.450  11.735  67.999  1.00  0.00    -0.089 OA 
BRANCH   9  11
HETATM   11  C   UNL     1      -8.591   9.901  68.866  1.00  0.00    -0.135 A  
HETATM   12  C   UNL     1      -9.917  10.221  69.237  1.00  0.00    -0.227 A  
HETATM   13  C   UNL     1     -10.503   9.621  70.367  1.00  0.00    -0.352 A  
HETATM   14  C   UNL     1      -7.877   8.998  69.677  1.00  0.00    -0.088 A  
HETATM   15  C   UNL     1      -9.780   8.725  71.168  1.00  0.00    -0.315 A  
HETATM   16  F   UNL     1     -11.687   8.514  72.612  1.00  0.00    -0.437 F  
HETATM   17  F   UNL     1     -10.406   6.772  72.399  1.00  0.00    -0.188 F  
HETATM   18  F   UNL     1      -9.724   8.492  73.545  1.00  0.00    -0.197 F  
HETATM   19  C   UNL     1     -10.395   8.130  72.419  1.00  0.00    -0.311 C  
HETATM   20  C   UNL     1      -8.466   8.414  70.807  1.00  0.00    -0.151 A  
BRANCH  12  21
HETATM   21  S   UNL     1     -10.900  11.352  68.259  1.00  0.00    -0.228 S  
HETATM   22  C   UNL     1     -10.978  10.719  66.608  1.00  0.00    -0.106 C  
HETATM   23  O   UNL     1     -12.264  11.274  68.744  1.00  0.00    -0.532 OA 
HETATM   24  O   UNL     1     -10.137  12.585  68.201  1.00  0.00    -0.213 OA 
ENDBRANCH  12  21
ENDBRANCH   9  11
ENDBRANCH   5   9
TORSDOF 4
ENDMDL
MODEL      240
REMARK 921   NORMALIZED FREE ENERGY PREDICTED BY IDOCK:   -2.36 KCAL/MOL
REMARK 922        TOTAL FREE ENERGY PREDICTED BY IDOCK:   -3.43 KCAL/MOL
REMARK 923 INTER-LIGAND FREE ENERGY PREDICTED BY IDOCK:   -4.53 KCAL/MOL
REMARK 924 INTRA-LIGAND FREE ENERGY PREDICTED BY IDOCK:    1.10 KCAL/MOL
REMARK 927      BINDING AFFINITY PREDICTED BY RF-SCORE:    0.00 PKD
ROOT
HETATM    1  C   UNL     1      -9.257   9.769  65.693  1.00  0.00    -0.199 A  
HETATM    2  N   UNL     1      -8.689   9.285  64.588  1.00  0.00    -0.194 NA 
HETATM    3  O   UNL     1      -7.329   9.404  64.798  1.00  0.00    -0.101 OA 
HETATM    4  C   UNL     1      -7.097   9.932  66.034  1.00  0.00    -0.105 A  
HETATM    5  C   UNL     1      -8.311  10.185  66.661  1.00  0.00    -0.123 A  
ENDROOT
BRANCH   4   6
HETATM    6  C   UNL     1      -5.695  10.170  66.591  1.00  0.00    -0.051 C  
HETATM    7  C   UNL     1      -5.160  11.587  66.638  1.00  0.00    -0.112 C  
HETATM    8  C   UNL     1      -5.569  10.916  67.903  1.00  0.00    -0.039 C  
ENDBRANCH   4   6
BRANCH   5   9
HETATM    9  C   UNL     1      -8.490  10.781  67.979  1.00  0.00    -0.124 C  
HETATM   10  O   UNL     1      -8.251  10.135  68.990  1.00  0.00    -0.112 OA 
BRANCH   9  11
HETATM   11  C   UNL     1      -9.066  12.151  68.161  1.00  0.00    -0.196 A  
HETATM   12  C   UNL     1     -10.423  12.377  68.488  1.00  0.00    -0.228 A  
HETATM   13  C   UNL     1     -10.941  13.685  68.511  1.00  0.00    -0.289 A  
HETATM   14  C   UNL     1      -8.272  13.266  67.832  1.00  0.00    -0.163 A  
HETATM   15  C   UNL     1     -10.139  14.787  68.178  1.00  0.00    -0.221 A  
HETATM   16  F   UNL     1     -12.026  16.232  68.517  1.00  0.00    -0.329 F  
HETATM   17  F   UNL     1     -10.061  17.043  68.970  1.00  0.00    -0.247 F  
HETATM   18  F   UNL     1     -10.663  16.736  66.901  1.00  0.00    -0.310 F  
HETATM   19  C   UNL     1     -10.717  16.187  68.143  1.00  0.00    -0.315 C  
HETATM   20  C   UNL     1      -8.799  14.565  67.846  1.00  0.00    -0.176 A  
BRANCH  12  21
HETATM   21  S   UNL     1     -11.503  11.019  68.928  1.00  0.00    -0.323 S  
HETATM   22  C   UNL     1     -10.736  10.117  70.244  1.00  0.00    -0.293 C  
HETATM   23  O   UNL     1     -12.696  11.588  69.523  1.00  0.00     0.003 OA 
HETATM   24  O   UNL     1     -11.520  10.142  67.772  1.00  0.00    -0.287 OA 
ENDBRANCH  12  21
ENDBRANCH   9  11
ENDBRANCH   5   9
TORSDOF 4
ENDMDL
MODEL      241
REMARK 921   NORMALIZED FREE ENERGY PREDICTED BY IDOCK:   -2.32 KCAL/MOL
REMARK 922        TOTAL FREE ENERGY PREDICTED BY IDOCK:   -3.38 KCAL/MOL
REMARK 923 INTER-LIGAND FREE ENERGY PREDICTED BY IDOCK:   -3.21 KCAL/MOL
REMARK 924 INTRA-LIGAND FREE ENERGY PREDICTED BY IDOCK:   -0.17 KCAL/MOL
REMARK 927      BINDING AFFINITY PREDICTED BY RF-SCORE:    0.00 PKD
ROOT
HETATM    1  C   UNL     1     -10.639   8.748  71.970  1.00  0.00    -0.344 A  
HETATM    2  N   UNL     1     -11.731   7.990  72.071  1.00  0.00    -0.303 NA 
HETATM    3  O   UNL     1     -11.737   7.210  70.931  1.00  0.00    -0.301 OA 
HETATM    4  C   UNL     1     -10.637   7.488  70.176  1.00  0.00    -0.235 A  
HETATM    5  C   UNL     1      -9.887   8.476  70.802  1.00  0.00    -0.220 A  
ENDROOT
BRANCH   4   6
HETATM    6  C   UNL     1     -10.326   6.777  68.860  1.00  0.00    -0.208 C  
HETATM    7  C   UNL     1     -10.115   5.276  68.873  1.00  0.00    -0.254 C  
HETATM    8  C   UNL     1     -11.370   5.835  68.297  1.00  0.00     0.531 C  
ENDBRANCH   4   6
BRANCH   5   9
HETATM    9  C   UNL     1      -8.657   9.072  70.294  1.00  0.00    -0.178 C  
HETATM   10  O   UNL     1      -8.043   9.892  70.964  1.00  0.00    -0.091 OA 
BRANCH   9  11
HETATM   11  C   UNL     1      -8.152   8.799  68.911  1.00  0.00    -0.114 A  
HETATM   12  C   UNL     1      -8.656   9.455  67.765  1.00  0.00    -0.116 A  
HETATM   13  C   UNL     1      -8.242   9.060  66.480  1.00  0.00    -0.114 A  
HETATM   14  C   UNL     1      -7.257   7.729  68.720  1.00  0.00    -0.081 A  
HETATM   15  C   UNL     1      -7.352   7.991  66.303  1.00  0.00    -0.078 A  
HETATM   16  F   UNL     1      -7.504   8.288  63.925  1.00  0.00    -0.091 F  
HETATM   17  F   UNL     1      -5.614   7.563  64.716  1.00  0.00    -0.031 F  
HETATM   18  F   UNL     1      -7.349   6.251  64.666  1.00  0.00    -0.058 F  
HETATM   19  C   UNL     1      -6.957   7.528  64.915  1.00  0.00    -0.055 C  
HETATM   20  C   UNL     1      -6.859   7.335  67.435  1.00  0.00    -0.077 A  
BRANCH  12  21
HETATM   21  S   UNL     1      -9.791  10.831  67.916  1.00  0.00    -0.170 S  
HETATM   22  C   UNL     1     -10.106  11.458  66.291  1.00  0.00    -0.224 C  
HETATM   23  O   UNL     1     -11.066  10.296  68.353  1.00  0.00    -0.253 OA 
HETATM   24  O   UNL     1      -9.064  11.862  68.631  1.00  0.00    -0.144 OA 
ENDBRANCH  12  21
ENDBRANCH   9  11
ENDBRANCH   5   9
TORSDOF 4
ENDMDL
MODEL      242
REMARK 921   NORMALIZED FREE ENERGY PREDICTED BY IDOCK:   -2.30 KCAL/MOL
REMARK 922        TOTAL FREE ENERGY PREDICTED BY IDOCK:   -3.35 KCAL/MOL
REMARK 923 INTER-LIGAND FREE ENERGY PREDICTED BY IDOCK:   -3.73 KCAL/MOL
REMARK 924 INTRA-LIGAND FREE ENERGY PREDICTED BY IDOCK:    0.38 KCAL/MOL
REMARK 927      BINDING AFFINITY PREDICTED BY RF-SCORE:    0.00 PKD
ROOT
HETATM    1  C   UNL     1      -7.733   8.122  69.396  1.00  0.00    -0.103 A  
HETATM    2  N   UNL     1      -8.527   7.147  69.838  1.00  0.00    -0.139 NA 
HETATM    3  O   UNL     1      -9.648   7.787  70.329  1.00  0.00    -0.174 OA 
HETATM    4  C   UNL     1      -9.526   9.133  70.152  1.00  0.00    -0.208 A  
HETATM    5  C   UNL     1      -8.305   9.408  69.548  1.00  0.00    -0.127 A  
ENDROOT
BRANCH   4   6
HETATM    6  C   UNL     1     -10.607  10.131  70.561  1.00  0.00    -0.243 C  
HETATM    7  C   UNL     1     -11.826  10.292  69.675  1.00  0.00    -0.181 C  
HETATM    8  C   UNL     1     -11.957   9.585  70.979  1.00  0.00    -0.407 C  
ENDBRANCH   4   6
BRANCH   5   9
HETATM    9  C   UNL     1      -7.786  10.731  69.223  1.00  0.00    -0.122 C  
HETATM   10  O   UNL     1      -6.700  11.094  69.653  1.00  0.00    -0.120 OA 
BRANCH   9  11
HETATM   11  C   UNL     1      -8.588  11.734  68.451  1.00  0.00    -0.156 A  
HETATM   12  C   UNL     1      -8.640  11.753  67.039  1.00  0.00    -0.173 A  
HETATM   13  C   UNL     1      -9.297  12.800  66.366  1.00  0.00    -0.196 A  
HETATM   14  C   UNL     1      -9.181  12.803  69.150  1.00  0.00     0.686 A  
HETATM   15  C   UNL     1      -9.882  13.861  67.074  1.00  0.00    -0.257 A  
HETATM   16  F   UNL     1     -10.527  14.863  64.990  1.00  0.00    -0.351 F  
HETATM   17  F   UNL     1     -11.833  15.191  66.695  1.00  0.00    -0.281 F  
HETATM   18  F   UNL     1      -9.908  16.200  66.588  1.00  0.00    -0.221 F  
HETATM   19  C   UNL     1     -10.533  15.017  66.343  1.00  0.00    -0.294 C  
HETATM   20  C   UNL     1      -9.823  13.847  68.470  1.00  0.00    -0.214 A  
BRANCH  12  21
HETATM   21  S   UNL     1      -7.919  10.431  66.072  1.00  0.00    -0.149 S  
HETATM   22  C   UNL     1      -6.161  10.513  66.261  1.00  0.00    -0.105 C  
HETATM   23  O   UNL     1      -8.295   9.179  66.701  1.00  0.00    -0.120 OA 
HETATM   24  O   UNL     1      -8.209  10.754  64.688  1.00  0.00    -0.075 OA 
ENDBRANCH  12  21
ENDBRANCH   9  11
ENDBRANCH   5   9
TORSDOF 4
ENDMDL
MODEL      243
REMARK 921   NORMALIZED FREE ENERGY PREDICTED BY IDOCK:   -2.13 KCAL/MOL
REMARK 922        TOTAL FREE ENERGY PREDICTED BY IDOCK:   -3.15 KCAL/MOL
REMARK 923 INTER-LIGAND FREE ENERGY PREDICTED BY IDOCK:   -3.53 KCAL/MOL
REMARK 924 INTRA-LIGAND FREE ENERGY PREDICTED BY IDOCK:    0.37 KCAL/MOL
REMARK 927      BINDING AFFINITY PREDICTED BY RF-SCORE:    0.00 PKD
ROOT
HETATM    1  C   UNL     1      -8.108  10.198  64.200  1.00  0.00    -0.158 A  
HETATM    2  N   UNL     1      -7.554   9.169  63.559  1.00  0.00    -0.105 NA 
HETATM    3  O   UNL     1      -7.113   8.317  64.553  1.00  0.00    -0.074 OA 
HETATM    4  C   UNL     1      -7.433   8.831  65.775  1.00  0.00    -0.085 A  
HETATM    5  C   UNL     1      -8.082  10.048  65.607  1.00  0.00    -0.138 A  
ENDROOT
BRANCH   4   6
HETATM    6  C   UNL     1      -7.111   8.122  67.089  1.00  0.00    -0.079 C  
HETATM    7  C   UNL     1      -7.815   6.818  67.406  1.00  0.00    -0.110 C  
HETATM    8  C   UNL     1      -6.376   6.800  67.022  1.00  0.00    -0.041 C  
ENDBRANCH   4   6
BRANCH   5   9
HETATM    9  C   UNL     1      -8.552  10.926  66.672  1.00  0.00    -0.148 C  
HETATM   10  O   UNL     1      -8.507  12.141  66.539  1.00  0.00    -0.139 OA 
BRANCH   9  11
HETATM   11  C   UNL     1      -9.005  10.396  67.998  1.00  0.00    -0.129 A  
HETATM   12  C   UNL     1      -8.250  10.547  69.183  1.00  0.00    -0.150 A  
HETATM   13  C   UNL     1      -8.657   9.911  70.371  1.00  0.00     0.035 A  
HETATM   14  C   UNL     1     -10.145   9.571  68.040  1.00  0.00    -0.226 A  
HETATM   15  C   UNL     1      -9.794   9.090  70.399  1.00  0.00    -0.242 A  
HETATM   16  F   UNL     1      -9.380   8.638  72.721  1.00  0.00    -0.322 F  
HETATM   17  F   UNL     1     -11.453   8.662  72.068  1.00  0.00    -0.343 F  
HETATM   18  F   UNL     1     -10.155   7.006  71.511  1.00  0.00    -0.186 F  
HETATM   19  C   UNL     1     -10.192   8.357  71.664  1.00  0.00    -0.241 C  
HETATM   20  C   UNL     1     -10.536   8.933  69.225  1.00  0.00    -0.219 A  
BRANCH  12  21
HETATM   21  S   UNL     1      -6.792  11.583  69.221  1.00  0.00    -0.096 S  
HETATM   22  C   UNL     1      -7.295  13.245  68.874  1.00  0.00    -0.023 C  
HETATM   23  O   UNL     1      -6.323  11.624  70.593  1.00  0.00    -0.257 OA 
HETATM   24  O   UNL     1      -5.973  11.150  68.105  1.00  0.00    -0.046 OA 
ENDBRANCH  12  21
ENDBRANCH   9  11
ENDBRANCH   5   9
TORSDOF 4
ENDMDL
MODEL      244
REMARK 921   NORMALIZED FREE ENERGY PREDICTED BY IDOCK:   -2.02 KCAL/MOL
REMARK 922        TOTAL FREE ENERGY PREDICTED BY IDOCK:   -3.01 KCAL/MOL
REMARK 923 INTER-LIGAND FREE ENERGY PREDICTED BY IDOCK:   -2.68 KCAL/MOL
REMARK 924 INTRA-LIGAND FREE ENERGY PREDICTED BY IDOCK:   -0.32 KCAL/MOL
REMARK 927      BINDING AFFINITY PREDICTED BY RF-SCORE:    0.00 PKD
ROOT
HETATM    1  C   UNL     1      -7.153  11.734  69.508  1.00  0.00     0.092 A  
HETATM    2  N   UNL     1      -6.750  12.956  69.159  1.00  0.00    -0.104 NA 
HETATM    3  O   UNL     1      -7.847  13.543  68.561  1.00  0.00    -0.136 OA 
HETATM    4  C   UNL     1      -8.902  12.678  68.582  1.00  0.00     0.052 A  
HETATM    5  C   UNL     1      -8.510  11.490  69.188  1.00  0.00     0.214 A  
ENDROOT
BRANCH   4   6
HETATM    6  C   UNL     1     -10.280  13.027  68.023  1.00  0.00    -0.233 C  
HETATM    7  C   UNL     1     -10.637  14.486  67.821  1.00  0.00    -0.250 C  
HETATM    8  C   UNL     1     -10.352  13.630  66.636  1.00  0.00    -0.275 C  
ENDBRANCH   4   6
BRANCH   5   9
HETATM    9  C   UNL     1      -9.338  10.305  69.371  1.00  0.00    -0.199 C  
HETATM   10  O   UNL     1     -10.234  10.297  70.204  1.00  0.00    -0.230 OA 
BRANCH   9  11
HETATM   11  C   UNL     1      -9.070   9.025  68.640  1.00  0.00    -0.137 A  
HETATM   12  C   UNL     1      -8.352   7.950  69.211  1.00  0.00    -0.136 A  
HETATM   13  C   UNL     1      -8.012   6.829  68.431  1.00  0.00    -0.115 A  
HETATM   14  C   UNL     1      -9.397   8.950  67.272  1.00  0.00    -0.173 A  
HETATM   15  C   UNL     1      -8.342   6.767  67.069  1.00  0.00    -0.114 A  
HETATM   16  F   UNL     1      -7.267   4.625  66.931  1.00  0.00    -0.069 F  
HETATM   17  F   UNL     1      -8.971   4.966  65.626  1.00  0.00    -0.127 F  
HETATM   18  F   UNL     1      -7.073   5.949  65.218  1.00  0.00    -0.058 F  
HETATM   19  C   UNL     1      -7.918   5.587  66.219  1.00  0.00    -0.105 C  
HETATM   20  C   UNL     1      -9.043   7.834  66.501  1.00  0.00    -0.208 A  
BRANCH  12  21
HETATM   21  S   UNL     1      -7.903   7.959  70.943  1.00  0.00    -0.091 S  
HETATM   22  C   UNL     1      -7.330   6.338  71.366  1.00  0.00    -0.085 C  
HETATM   23  O   UNL     1      -6.735   8.806  71.084  1.00  0.00    -0.060 OA 
HETATM   24  O   UNL     1      -9.141   8.170  71.668  1.00  0.00    -0.139 OA 
ENDBRANCH  12  21
ENDBRANCH   9  11
ENDBRANCH   5   9
TORSDOF 4
ENDMDL
MODEL      245
REMARK 921   NORMALIZED FREE ENERGY PREDICTED BY IDOCK:   -1.70 KCAL/MOL
REMARK 922        TOTAL FREE ENERGY PREDICTED BY IDOCK:   -2.61 KCAL/MOL
REMARK 923 INTER-LIGAND FREE ENERGY PREDICTED BY IDOCK:   -2.23 KCAL/MOL
REMARK 924 INTRA-LIGAND FREE ENERGY PREDICTED BY IDOCK:   -0.38 KCAL/MOL
REMARK 927      BINDING AFFINITY PREDICTED BY RF-SCORE:    0.00 PKD
ROOT
HETATM    1  C   UNL     1      -6.112  14.036  69.267  1.00  0.00    -0.100 A  
HETATM    2  N   UNL     1      -6.210  13.894  70.589  1.00  0.00    -0.121 NA 
HETATM    3  O   UNL     1      -7.419  14.469  70.927  1.00  0.00     0.989 OA 
HETATM    4  C   UNL     1      -8.044  14.924  69.803  1.00  0.00     0.116 A  
HETATM    5  C   UNL     1      -7.244  14.667  68.696  1.00  0.00    -0.122 A  
ENDROOT
BRANCH   4   6
HETATM    6  C   UNL     1      -9.418  15.590  69.823  1.00  0.00    -0.178 C  
HETATM    7  C   UNL     1     -10.646  14.739  69.568  1.00  0.00    -0.200 C  
HETATM    8  C   UNL     1     -10.368  15.228  70.946  1.00  0.00     0.317 C  
ENDBRANCH   4   6
BRANCH   5   9
HETATM    9  C   UNL     1      -7.543  15.031  67.317  1.00  0.00    -0.194 C  
HETATM   10  O   UNL     1      -7.163  14.324  66.393  1.00  0.00     1.182 OA 
BRANCH   9  11
HETATM   11  C   UNL     1      -8.222  16.318  66.963  1.00  0.00    -0.238 A  
HETATM   12  C   UNL     1      -7.677  17.585  67.272  1.00  0.00    -0.202 A  
HETATM   13  C   UNL     1      -8.422  18.756  67.038  1.00  0.00    -0.289 A  
HETATM   14  C   UNL     1      -9.533  16.269  66.452  1.00  0.00    -0.322 A  
HETATM   15  C   UNL     1      -9.728  18.693  66.531  1.00  0.00    -0.369 A  
HETATM   16  F   UNL     1      -9.864  21.087  66.654  1.00  0.00    -0.413 F  
HETATM   17  F   UNL     1     -10.974  20.110  65.061  1.00  0.00    -0.505 F  
HETATM   18  F   UNL     1     -11.665  19.962  67.119  1.00  0.00    -0.124 F  
HETATM   19  C   UNL     1     -10.550  19.952  66.342  1.00  0.00    -0.420 C  
HETATM   20  C   UNL     1     -10.273  17.440  66.234  1.00  0.00    -0.344 A  
BRANCH  12  21
HETATM   21  S   UNL     1      -6.015  17.740  67.917  1.00  0.00    -0.159 S  
HETATM   22  C   UNL     1      -5.479  19.405  67.649  1.00  0.00    -0.178 C  
HETATM   23  O   UNL     1      -6.095  17.610  69.359  1.00  0.00    -0.219 OA 
HETATM   24  O   UNL     1      -5.188  16.893  67.078  1.00  0.00    -0.138 OA 
ENDBRANCH  12  21
ENDBRANCH   9  11
ENDBRANCH   5   9
TORSDOF 4
ENDMDL
MODEL      246
REMARK 921   NORMALIZED FREE ENERGY PREDICTED BY IDOCK:   -1.66 KCAL/MOL
REMARK 922        TOTAL FREE ENERGY PREDICTED BY IDOCK:   -2.57 KCAL/MOL
REMARK 923 INTER-LIGAND FREE ENERGY PREDICTED BY IDOCK:   -4.20 KCAL/MOL
REMARK 924 INTRA-LIGAND FREE ENERGY PREDICTED BY IDOCK:    1.63 KCAL/MOL
REMARK 927      BINDING AFFINITY PREDICTED BY RF-SCORE:    0.00 PKD
ROOT
HETATM    1  C   UNL     1      -9.852   3.808  63.971  1.00  0.00    -0.179 A  
HETATM    2  N   UNL     1      -9.321   4.469  62.941  1.00  0.00    -0.121 NA 
HETATM    3  O   UNL     1      -8.328   5.257  63.490  1.00  0.00    -0.125 OA 
HETATM    4  C   UNL     1      -8.257   5.040  64.835  1.00  0.00    -0.132 A  
HETATM    5  C   UNL     1      -9.220   4.108  65.201  1.00  0.00    -0.153 A  
ENDROOT
BRANCH   4   6
HETATM    6  C   UNL     1      -7.243   5.737  65.740  1.00  0.00    -0.075 C  
HETATM    7  C   UNL     1      -5.999   4.979  66.160  1.00  0.00    -0.023 C  
HETATM    8  C   UNL     1      -5.887   6.077  65.159  1.00  0.00    -0.025 C  
ENDBRANCH   4   6
BRANCH   5   9
HETATM    9  C   UNL     1      -9.487   3.636  66.554  1.00  0.00    -0.170 C  
HETATM   10  O   UNL     1      -9.505   2.438  66.801  1.00  0.00    -0.021 OA 
BRANCH   9  11
HETATM   11  C   UNL     1      -9.854   4.570  67.666  1.00  0.00    -0.181 A  
HETATM   12  C   UNL     1      -9.592   4.287  69.026  1.00  0.00    -0.170 A  
HETATM   13  C   UNL     1     -10.081   5.137  70.036  1.00  0.00    -0.345 A  
HETATM   14  C   UNL     1     -10.640   5.699  67.365  1.00  0.00    -0.312 A  
HETATM   15  C   UNL     1     -10.865   6.257  69.722  1.00  0.00    -0.399 A  
HETATM   16  F   UNL     1     -11.065   6.741  72.066  1.00  0.00    -0.243 F  
HETATM   17  F   UNL     1     -11.062   8.431  70.699  1.00  0.00    -0.239 F  
HETATM   18  F   UNL     1     -12.801   7.128  70.816  1.00  0.00    -0.354 F  
HETATM   19  C   UNL     1     -11.442   7.132  70.816  1.00  0.00    -0.305 C  
HETATM   20  C   UNL     1     -11.133   6.533  68.378  1.00  0.00    -0.340 A  
BRANCH  12  21
HETATM   21  S   UNL     1      -8.594   2.878  69.498  1.00  0.00    -0.075 S  
HETATM   22  C   UNL     1      -7.274   2.729  68.328  1.00  0.00    -0.049 C  
HETATM   23  O   UNL     1      -7.938   3.210  70.748  1.00  0.00    -0.049 OA 
HETATM   24  O   UNL     1      -9.446   1.718  69.320  1.00  0.00    -0.117 OA 
ENDBRANCH  12  21
ENDBRANCH   9  11
ENDBRANCH   5   9
TORSDOF 4
ENDMDL
MODEL      247
REMARK 921   NORMALIZED FREE ENERGY PREDICTED BY IDOCK:   -1.63 KCAL/MOL
REMARK 922        TOTAL FREE ENERGY PREDICTED BY IDOCK:   -2.53 KCAL/MOL
REMARK 923 INTER-LIGAND FREE ENERGY PREDICTED BY IDOCK:   -4.01 KCAL/MOL
REMARK 924 INTRA-LIGAND FREE ENERGY PREDICTED BY IDOCK:    1.48 KCAL/MOL
REMARK 927      BINDING AFFINITY PREDICTED BY RF-SCORE:    0.00 PKD
ROOT
HETATM    1  C   UNL     1      -7.459   6.476  68.829  1.00  0.00    -0.088 A  
HETATM    2  N   UNL     1      -7.154   5.521  67.950  1.00  0.00    -0.069 NA 
HETATM    3  O   UNL     1      -7.076   6.164  66.730  1.00  0.00    -0.069 OA 
HETATM    4  C   UNL     1      -7.307   7.498  66.896  1.00  0.00    -0.093 A  
HETATM    5  C   UNL     1      -7.558   7.758  68.237  1.00  0.00    -0.109 A  
ENDROOT
BRANCH   4   6
HETATM    6  C   UNL     1      -7.267   8.501  65.745  1.00  0.00    -0.076 C  
HETATM    7  C   UNL     1      -6.196   8.352  64.683  1.00  0.00    -0.065 C  
HETATM    8  C   UNL     1      -7.606   8.003  64.355  1.00  0.00    -0.116 C  
ENDBRANCH   4   6
BRANCH   5   9
HETATM    9  C   UNL     1      -7.884   9.056  68.815  1.00  0.00    -0.096 C  
HETATM   10  O   UNL     1      -7.009   9.890  68.998  1.00  0.00    -0.056 OA 
BRANCH   9  11
HETATM   11  C   UNL     1      -9.261   9.387  69.302  1.00  0.00    -0.159 A  
HETATM   12  C   UNL     1     -10.009  10.480  68.808  1.00  0.00    -0.192 A  
HETATM   13  C   UNL     1     -11.239  10.825  69.399  1.00  0.00    -0.337 A  
HETATM   14  C   UNL     1      -9.768   8.688  70.414  1.00  0.00    -0.200 A  
HETATM   15  C   UNL     1     -11.731  10.121  70.508  1.00  0.00    -0.407 A  
HETATM   16  F   UNL     1     -13.635  11.584  70.559  1.00  0.00     0.312 F  
HETATM   17  F   UNL     1     -13.940   9.534  71.214  1.00  0.00    -0.390 F  
HETATM   18  F   UNL     1     -12.834  10.925  72.469  1.00  0.00    -0.328 F  
HETATM   19  C   UNL     1     -13.024  10.537  71.181  1.00  0.00    -0.411 C  
HETATM   20  C   UNL     1     -10.988   9.046  71.004  1.00  0.00    -0.352 A  
BRANCH  12  21
HETATM   21  S   UNL     1      -9.443  11.419  67.393  1.00  0.00    -0.168 S  
HETATM   22  C   UNL     1     -10.431  10.954  66.000  1.00  0.00    -0.225 C  
HETATM   23  O   UNL     1      -9.781  12.809  67.632  1.00  0.00    -0.196 OA 
HETATM   24  O   UNL     1      -8.096  10.952  67.127  1.00  0.00    -0.120 OA 
ENDBRANCH  12  21
ENDBRANCH   9  11
ENDBRANCH   5   9
TORSDOF 4
ENDMDL
MODEL      248
REMARK 921   NORMALIZED FREE ENERGY PREDICTED BY IDOCK:   -1.52 KCAL/MOL
REMARK 922        TOTAL FREE ENERGY PREDICTED BY IDOCK:   -2.39 KCAL/MOL
REMARK 923 INTER-LIGAND FREE ENERGY PREDICTED BY IDOCK:   -2.78 KCAL/MOL
REMARK 924 INTRA-LIGAND FREE ENERGY PREDICTED BY IDOCK:    0.39 KCAL/MOL
REMARK 927      BINDING AFFINITY PREDICTED BY RF-SCORE:    0.00 PKD
ROOT
HETATM    1  C   UNL     1     -10.246   9.754  70.289  1.00  0.00    -0.289 A  
HETATM    2  N   UNL     1     -11.004  10.358  69.374  1.00  0.00    -0.235 NA 
HETATM    3  O   UNL     1     -10.258  10.335  68.212  1.00  0.00    -0.149 OA 
HETATM    4  C   UNL     1      -9.075   9.695  68.436  1.00  0.00    -0.123 A  
HETATM    5  C   UNL     1      -9.014   9.294  69.765  1.00  0.00    -0.180 A  
ENDROOT
BRANCH   4   6
HETATM    6  C   UNL     1      -8.027   9.473  67.348  1.00  0.00    -0.106 C  
HETATM    7  C   UNL     1      -8.121   8.228  66.487  1.00  0.00    -0.105 C  
HETATM    8  C   UNL     1      -8.474   9.552  65.903  1.00  0.00    -0.133 C  
ENDBRANCH   4   6
BRANCH   5   9
HETATM    9  C   UNL     1      -7.897   8.610  70.405  1.00  0.00    -0.091 C  
HETATM   10  O   UNL     1      -6.961   9.248  70.866  1.00  0.00    -0.094 OA 
BRANCH   9  11
HETATM   11  C   UNL     1      -7.790   7.116  70.436  1.00  0.00    -0.100 A  
HETATM   12  C   UNL     1      -8.049   6.351  71.596  1.00  0.00    -0.109 A  
HETATM   13  C   UNL     1      -7.800   4.966  71.604  1.00  0.00    -0.106 A  
HETATM   14  C   UNL     1      -7.249   6.457  69.316  1.00  0.00    -0.090 A  
HETATM   15  C   UNL     1      -7.258   4.322  70.482  1.00  0.00    -0.041 A  
HETATM   16  F   UNL     1      -7.275   2.249  71.695  1.00  0.00    -0.032 F  
HETATM   17  F   UNL     1      -7.574   2.144  69.544  1.00  0.00    -0.043 F  
HETATM   18  F   UNL     1      -5.605   2.602  70.349  1.00  0.00    -0.013 F  
HETATM   19  C   UNL     1      -6.932   2.842  70.517  1.00  0.00    -0.033 C  
HETATM   20  C   UNL     1      -6.993   5.079  69.337  1.00  0.00    -0.055 A  
BRANCH  12  21
HETATM   21  S   UNL     1      -8.745   7.106  73.062  1.00  0.00    -0.130 S  
HETATM   22  C   UNL     1      -7.405   7.594  74.111  1.00  0.00    -0.126 C  
HETATM   23  O   UNL     1      -9.362   8.354  72.655  1.00  0.00    -0.262 OA 
HETATM   24  O   UNL     1      -9.454   6.045  73.751  1.00  0.00    -0.137 OA 
ENDBRANCH  12  21
ENDBRANCH   9  11
ENDBRANCH   5   9
TORSDOF 4
ENDMDL
MODEL      249
REMARK 921   NORMALIZED FREE ENERGY PREDICTED BY IDOCK:   -1.27 KCAL/MOL
REMARK 922        TOTAL FREE ENERGY PREDICTED BY IDOCK:   -2.09 KCAL/MOL
REMARK 923 INTER-LIGAND FREE ENERGY PREDICTED BY IDOCK:   -3.88 KCAL/MOL
REMARK 924 INTRA-LIGAND FREE ENERGY PREDICTED BY IDOCK:    1.79 KCAL/MOL
REMARK 927      BINDING AFFINITY PREDICTED BY RF-SCORE:    0.00 PKD
ROOT
HETATM    1  C   UNL     1     -10.807  16.420  66.062  1.00  0.00    -0.093 A  
HETATM    2  N   UNL     1     -10.551  17.667  65.666  1.00  0.00    -0.569 NA 
HETATM    3  O   UNL     1      -9.192  17.834  65.852  1.00  0.00    -0.519 OA 
HETATM    4  C   UNL     1      -8.647  16.679  66.329  1.00  0.00    -0.324 A  
HETATM    5  C   UNL     1      -9.647  15.727  66.482  1.00  0.00    -0.288 A  
ENDROOT
BRANCH   4   6
HETATM    6  C   UNL     1      -7.156  16.517  66.618  1.00  0.00    -0.220 C  
HETATM    7  C   UNL     1      -6.436  17.614  67.376  1.00  0.00    -0.177 C  
HETATM    8  C   UNL     1      -6.728  16.323  68.058  1.00  0.00    -0.143 C  
ENDBRANCH   4   6
BRANCH   5   9
HETATM    9  C   UNL     1      -9.475  14.376  67.001  1.00  0.00    -0.248 C  
HETATM   10  O   UNL     1      -8.638  13.627  66.516  1.00  0.00    -0.009 OA 
BRANCH   9  11
HETATM   11  C   UNL     1     -10.369  13.810  68.061  1.00  0.00    -0.246 A  
HETATM   12  C   UNL     1     -11.131  12.633  67.877  1.00  0.00    -0.247 A  
HETATM   13  C   UNL     1     -12.057  12.226  68.855  1.00  0.00    -0.177 A  
HETATM   14  C   UNL     1     -10.593  14.567  69.228  1.00  0.00    -0.224 A  
HETATM   15  C   UNL     1     -12.272  12.990  70.011  1.00  0.00    -0.306 A  
HETATM   16  F   UNL     1     -13.933  11.406  70.718  1.00  0.00     0.840 F  
HETATM   17  F   UNL     1     -12.793  12.410  72.273  1.00  0.00    -0.390 F  
HETATM   18  F   UNL     1     -14.306  13.503  71.155  1.00  0.00     0.114 F  
HETATM   19  C   UNL     1     -13.316  12.580  71.030  1.00  0.00     0.405 C  
HETATM   20  C   UNL     1     -11.527  14.158  70.191  1.00  0.00    -0.227 A  
BRANCH  12  21
HETATM   21  S   UNL     1     -10.905  11.608  66.428  1.00  0.00    -0.291 S  
HETATM   22  C   UNL     1     -10.985   9.915  66.940  1.00  0.00     0.023 C  
HETATM   23  O   UNL     1     -12.069  11.788  65.583  1.00  0.00    -0.336 OA 
HETATM   24  O   UNL     1      -9.544  11.849  65.985  1.00  0.00    -0.229 OA 
ENDBRANCH  12  21
ENDBRANCH   9  11
ENDBRANCH   5   9
TORSDOF 4
ENDMDL
MODEL      250
REMARK 921   NORMALIZED FREE ENERGY PREDICTED BY IDOCK:   -1.08 KCAL/MOL
REMARK 922        TOTAL FREE ENERGY PREDICTED BY IDOCK:   -1.85 KCAL/MOL
REMARK 923 INTER-LIGAND FREE ENERGY PREDICTED BY IDOCK:   -3.41 KCAL/MOL
REMARK 924 INTRA-LIGAND FREE ENERGY PREDICTED BY IDOCK:    1.56 KCAL/MOL
REMARK 927      BINDING AFFINITY PREDICTED BY RF-SCORE:    0.00 PKD
ROOT
HETATM    1  C   UNL     1      -9.411   9.615  70.332  1.00  0.00    -0.222 A  
HETATM    2  N   UNL     1      -9.942  10.247  69.284  1.00  0.00    -0.217 NA 
HETATM    3  O   UNL     1      -9.560   9.506  68.183  1.00  0.00    -0.137 OA 
HETATM    4  C   UNL     1      -8.830   8.427  68.583  1.00  0.00    -0.136 A  
HETATM    5  C   UNL     1      -8.704   8.444  69.967  1.00  0.00    -0.133 A  
ENDROOT
BRANCH   4   6
HETATM    6  C   UNL     1      -8.275   7.386  67.612  1.00  0.00    -0.118 C  
HETATM    7  C   UNL     1      -9.106   6.155  67.310  1.00  0.00    -0.115 C  
HETATM    8  C   UNL     1      -8.971   7.219  66.277  1.00  0.00    -0.185 C  
ENDBRANCH   4   6
BRANCH   5   9
HETATM    9  C   UNL     1      -7.966   7.481  70.775  1.00  0.00    -0.103 C  
HETATM   10  O   UNL     1      -6.744   7.514  70.817  1.00  0.00    -0.043 OA 
BRANCH   9  11
HETATM   11  C   UNL     1      -8.647   6.357  71.494  1.00  0.00    -0.130 A  
HETATM   12  C   UNL     1      -8.095   5.727  72.633  1.00  0.00    -0.105 A  
HETATM   13  C   UNL     1      -8.711   4.588  73.183  1.00  0.00    -0.108 A  
HETATM   14  C   UNL     1      -9.801   5.791  70.919  1.00  0.00    -0.229 A  
HETATM   15  C   UNL     1      -9.859   4.033  72.600  1.00  0.00    -0.208 A  
HETATM   16  F   UNL     1      -9.849   2.313  74.275  1.00  0.00    -0.104 F  
HETATM   17  F   UNL     1     -11.784   2.942  73.510  1.00  0.00    -0.321 F  
HETATM   18  F   UNL     1     -10.458   1.744  72.268  1.00  0.00    -0.216 F  
HETATM   19  C   UNL     1     -10.483   2.770  73.159  1.00  0.00    -0.158 C  
HETATM   20  C   UNL     1     -10.401   4.650  71.468  1.00  0.00    -0.174 A  
BRANCH  12  21
HETATM   21  S   UNL     1      -6.634   6.384  73.432  1.00  0.00    -0.074 S  
HETATM   22  C   UNL     1      -5.294   6.291  72.279  1.00  0.00    -0.031 C  
HETATM   23  O   UNL     1      -6.849   7.805  73.627  1.00  0.00    -0.082 OA 
HETATM   24  O   UNL     1      -6.328   5.461  74.508  1.00  0.00    -0.066 OA 
ENDBRANCH  12  21
ENDBRANCH   9  11
ENDBRANCH   5   9
TORSDOF 4
ENDMDL
MODEL      251
REMARK 921   NORMALIZED FREE ENERGY PREDICTED BY IDOCK:   -1.00 KCAL/MOL
REMARK 922        TOTAL FREE ENERGY PREDICTED BY IDOCK:   -1.76 KCAL/MOL
REMARK 923 INTER-LIGAND FREE ENERGY PREDICTED BY IDOCK:   -1.37 KCAL/MOL
REMARK 924 INTRA-LIGAND FREE ENERGY PREDICTED BY IDOCK:   -0.39 KCAL/MOL
REMARK 927      BINDING AFFINITY PREDICTED BY RF-SCORE:    0.00 PKD
ROOT
HETATM    1  C   UNL     1      -7.605  11.136  69.299  1.00  0.00    -0.055 A  
HETATM    2  N   UNL     1      -7.886  10.107  70.098  1.00  0.00    -0.156 NA 
HETATM    3  O   UNL     1      -7.953   9.008  69.263  1.00  0.00    -0.092 OA 
HETATM    4  C   UNL     1      -7.685   9.386  67.981  1.00  0.00    -0.084 A  
HETATM    5  C   UNL     1      -7.448  10.755  67.944  1.00  0.00    -0.090 A  
ENDROOT
BRANCH   4   6
HETATM    6  C   UNL     1      -7.651   8.404  66.811  1.00  0.00    -0.090 C  
HETATM    7  C   UNL     1      -8.694   7.307  66.748  1.00  0.00    -0.132 C  
HETATM    8  C   UNL     1      -8.783   8.457  65.806  1.00  0.00    -0.199 C  
ENDBRANCH   4   6
BRANCH   5   9
HETATM    9  C   UNL     1      -7.161  11.546  66.754  1.00  0.00    -0.111 C  
HETATM   10  O   UNL     1      -6.076  11.457  66.198  1.00  0.00    -0.096 OA 
BRANCH   9  11
HETATM   11  C   UNL     1      -8.122  12.567  66.226  1.00  0.00     0.607 A  
HETATM   12  C   UNL     1      -8.115  13.917  66.645  1.00  0.00     0.519 A  
HETATM   13  C   UNL     1      -9.126  14.798  66.220  1.00  0.00    -0.231 A  
HETATM   14  C   UNL     1      -9.181  12.134  65.407  1.00  0.00     0.160 A  
HETATM   15  C   UNL     1     -10.177  14.354  65.405  1.00  0.00    -0.408 A  
HETATM   16  F   UNL     1     -11.120  16.562  65.460  1.00  0.00    -0.244 F  
HETATM   17  F   UNL     1     -11.432  15.394  63.654  1.00  0.00     0.135 F  
HETATM   18  F   UNL     1     -12.505  14.887  65.477  1.00  0.00    -0.210 F  
HETATM   19  C   UNL     1     -11.298  15.291  65.002  1.00  0.00    -0.358 C  
HETATM   20  C   UNL     1     -10.191  13.017  64.998  1.00  0.00    -0.287 A  
BRANCH  12  21
HETATM   21  S   UNL     1      -6.801  14.553  67.681  1.00  0.00    -0.152 S  
HETATM   22  C   UNL     1      -7.133  16.264  67.994  1.00  0.00    -0.133 C  
HETATM   23  O   UNL     1      -6.923  13.916  68.978  1.00  0.00    -0.108 OA 
HETATM   24  O   UNL     1      -5.601  14.500  66.869  1.00  0.00     0.441 OA 
ENDBRANCH  12  21
ENDBRANCH   9  11
ENDBRANCH   5   9
TORSDOF 4
ENDMDL
MODEL      252
REMARK 921   NORMALIZED FREE ENERGY PREDICTED BY IDOCK:   -0.59 KCAL/MOL
REMARK 922        TOTAL FREE ENERGY PREDICTED BY IDOCK:   -1.24 KCAL/MOL
REMARK 923 INTER-LIGAND FREE ENERGY PREDICTED BY IDOCK:   -1.73 KCAL/MOL
REMARK 924 INTRA-LIGAND FREE ENERGY PREDICTED BY IDOCK:    0.49 KCAL/MOL
REMARK 927      BINDING AFFINITY PREDICTED BY RF-SCORE:    0.00 PKD
ROOT
HETATM    1  C   UNL     1      -5.188  20.482  69.537  1.00  0.00    -0.292 A  
HETATM    2  N   UNL     1      -5.629  20.865  70.736  1.00  0.00    -0.552 NA 
HETATM    3  O   UNL     1      -6.918  20.377  70.821  1.00  0.00    -0.160 OA 
HETATM    4  C   UNL     1      -7.225  19.686  69.686  1.00  0.00    -0.101 A  
HETATM    5  C   UNL     1      -6.139  19.718  68.820  1.00  0.00    -0.287 A  
ENDROOT
BRANCH   4   6
HETATM    6  C   UNL     1      -8.568  18.992  69.468  1.00  0.00     0.363 C  
HETATM    7  C   UNL     1      -9.634  19.113  70.540  1.00  0.00     1.724 C  
HETATM    8  C   UNL     1      -9.791  19.861  69.262  1.00  0.00    -0.238 C  
ENDBRANCH   4   6
BRANCH   5   9
HETATM    9  C   UNL     1      -6.083  19.125  67.489  1.00  0.00    -0.191 C  
HETATM   10  O   UNL     1      -5.301  19.554  66.651  1.00  0.00    -0.164 OA 
BRANCH   9  11
HETATM   11  C   UNL     1      -7.035  18.054  67.054  1.00  0.00    -0.214 A  
HETATM   12  C   UNL     1      -8.238  18.329  66.365  1.00  0.00    -0.251 A  
HETATM   13  C   UNL     1      -9.160  17.298  66.103  1.00  0.00    -0.193 A  
HETATM   14  C   UNL     1      -6.812  16.735  67.493  1.00  0.00    -0.170 A  
HETATM   15  C   UNL     1      -8.926  15.989  66.548  1.00  0.00    -0.327 A  
HETATM   16  F   UNL     1     -11.033  15.320  65.611  1.00  0.00    -0.315 F  
HETATM   17  F   UNL     1      -9.441  13.841  65.631  1.00  0.00    -0.214 F  
HETATM   18  F   UNL     1     -10.437  14.393  67.485  1.00  0.00    -0.246 F  
HETATM   19  C   UNL     1      -9.950  14.896  66.320  1.00  0.00    -0.282 C  
HETATM   20  C   UNL     1      -7.741  15.717  67.238  1.00  0.00    -0.239 A  
BRANCH  12  21
HETATM   21  S   UNL     1      -8.600  19.976  65.764  1.00  0.00     0.250 S  
HETATM   22  C   UNL     1     -10.324  20.046  65.370  1.00  0.00    -0.005 C  
HETATM   23  O   UNL     1      -8.444  20.889  66.880  1.00  0.00    -0.102 OA 
HETATM   24  O   UNL     1      -7.877  20.104  64.513  1.00  0.00     0.470 OA 
ENDBRANCH  12  21
ENDBRANCH   9  11
ENDBRANCH   5   9
TORSDOF 4
ENDMDL
MODEL      253
REMARK 921   NORMALIZED FREE ENERGY PREDICTED BY IDOCK:    0.02 KCAL/MOL
REMARK 922        TOTAL FREE ENERGY PREDICTED BY IDOCK:   -0.50 KCAL/MOL
REMARK 923 INTER-LIGAND FREE ENERGY PREDICTED BY IDOCK:   -1.95 KCAL/MOL
REMARK 924 INTRA-LIGAND FREE ENERGY PREDICTED BY IDOCK:    1.45 KCAL/MOL
REMARK 927      BINDING AFFINITY PREDICTED BY RF-SCORE:    0.00 PKD
ROOT
HETATM    1  C   UNL     1      -7.116  12.924  68.112  1.00  0.00    -0.108 A  
HETATM    2  N   UNL     1      -6.796  12.781  69.398  1.00  0.00    -0.022 NA 
HETATM    3  O   UNL     1      -7.590  13.687  70.073  1.00  0.00     0.779 OA 
HETATM    4  C   UNL     1      -8.396  14.342  69.188  1.00  0.00     0.124 A  
HETATM    5  C   UNL     1      -8.134  13.885  67.902  1.00  0.00    -0.158 A  
ENDROOT
BRANCH   4   6
HETATM    6  C   UNL     1      -9.418  15.394  69.611  1.00  0.00    -0.220 C  
HETATM    7  C   UNL     1     -10.894  15.074  69.478  1.00  0.00    -0.272 C  
HETATM    8  C   UNL     1     -10.271  15.107  70.830  1.00  0.00     0.395 C  
ENDBRANCH   4   6
BRANCH   5   9
HETATM    9  C   UNL     1      -8.762  14.362  66.676  1.00  0.00    -0.099 C  
HETATM   10  O   UNL     1      -8.829  13.639  65.692  1.00  0.00     0.691 OA 
BRANCH   9  11
HETATM   11  C   UNL     1      -9.250  15.771  66.528  1.00  0.00    -0.314 A  
HETATM   12  C   UNL     1     -10.399  16.111  65.779  1.00  0.00    -0.378 A  
HETATM   13  C   UNL     1     -10.732  17.461  65.560  1.00  0.00    -0.081 A  
HETATM   14  C   UNL     1      -8.442  16.818  67.011  1.00  0.00    -0.225 A  
HETATM   15  C   UNL     1      -9.917  18.494  66.045  1.00  0.00    -0.239 A  
HETATM   16  F   UNL     1     -11.402  20.098  65.051  1.00  0.00    -0.344 F  
HETATM   17  F   UNL     1     -10.390  20.684  66.883  1.00  0.00    -0.522 F  
HETATM   18  F   UNL     1      -9.277  20.554  65.018  1.00  0.00     0.195 F  
HETATM   19  C   UNL     1     -10.244  19.944  65.753  1.00  0.00    -0.386 C  
HETATM   20  C   UNL     1      -8.775  18.159  66.778  1.00  0.00    -0.275 A  
BRANCH  12  21
HETATM   21  S   UNL     1     -11.487  14.844  65.135  1.00  0.00    -0.338 S  
HETATM   22  C   UNL     1     -12.643  15.621  64.043  1.00  0.00     0.565 C  
HETATM   23  O   UNL     1     -10.693  13.987  64.274  1.00  0.00    -0.301 OA 
HETATM   24  O   UNL     1     -12.243  14.360  66.274  1.00  0.00    -0.412 OA 
ENDBRANCH  12  21
ENDBRANCH   9  11
ENDBRANCH   5   9
TORSDOF 4
ENDMDL
MODEL      254
REMARK 921   NORMALIZED FREE ENERGY PREDICTED BY IDOCK:    0.25 KCAL/MOL
REMARK 922        TOTAL FREE ENERGY PREDICTED BY IDOCK:   -0.21 KCAL/MOL
REMARK 923 INTER-LIGAND FREE ENERGY PREDICTED BY IDOCK:   -2.04 KCAL/MOL
REMARK 924 INTRA-LIGAND FREE ENERGY PREDICTED BY IDOCK:    1.83 KCAL/MOL
REMARK 927      BINDING AFFINITY PREDICTED BY RF-SCORE:    0.00 PKD
ROOT
HETATM    1  C   UNL     1      -6.351  10.649  71.138  1.00  0.00     0.486 A  
HETATM    2  N   UNL     1      -5.919  11.887  71.380  1.00  0.00     0.063 NA 
HETATM    3  O   UNL     1      -6.008  12.545  70.169  1.00  0.00    -0.150 OA 
HETATM    4  C   UNL     1      -6.517  11.704  69.224  1.00  0.00    -0.105 A  
HETATM    5  C   UNL     1      -6.762  10.462  69.797  1.00  0.00    -0.117 A  
ENDROOT
BRANCH   4   6
HETATM    6  C   UNL     1      -6.770  12.128  67.778  1.00  0.00    -0.103 C  
HETATM    7  C   UNL     1      -6.199  13.445  67.294  1.00  0.00     0.232 C  
HETATM    8  C   UNL     1      -5.587  12.168  66.833  1.00  0.00    -0.009 C  
ENDBRANCH   4   6
BRANCH   5   9
HETATM    9  C   UNL     1      -7.273   9.283  69.108  1.00  0.00    -0.067 C  
HETATM   10  O   UNL     1      -7.258   9.224  67.886  1.00  0.00    -0.078 OA 
BRANCH   9  11
HETATM   11  C   UNL     1      -7.929   8.154  69.842  1.00  0.00    -0.109 A  
HETATM   12  C   UNL     1      -9.006   7.412  69.305  1.00  0.00    -0.136 A  
HETATM   13  C   UNL     1      -9.672   6.455  70.093  1.00  0.00    -0.185 A  
HETATM   14  C   UNL     1      -7.575   7.928  71.186  1.00  0.00    -0.080 A  
HETATM   15  C   UNL     1      -9.311   6.241  71.431  1.00  0.00    -0.160 A  
HETATM   16  F   UNL     1     -11.054   4.601  71.614  1.00  0.00    -0.044 F  
HETATM   17  F   UNL     1      -9.270   4.291  72.816  1.00  0.00    -0.117 F  
HETATM   18  F   UNL     1     -10.683   5.857  73.349  1.00  0.00    -0.228 F  
HETATM   19  C   UNL     1     -10.072   5.255  72.294  1.00  0.00    -0.189 C  
HETATM   20  C   UNL     1      -8.252   6.981  71.966  1.00  0.00    -0.101 A  
BRANCH  12  21
HETATM   21  S   UNL     1      -9.517   7.629  67.604  1.00  0.00    -0.146 S  
HETATM   22  C   UNL     1     -10.884   6.546  67.303  1.00  0.00    -0.390 C  
HETATM   23  O   UNL     1     -10.076   8.962  67.486  1.00  0.00    -0.194 OA 
HETATM   24  O   UNL     1      -8.413   7.146  66.797  1.00  0.00    -0.115 OA 
ENDBRANCH  12  21
ENDBRANCH   9  11
ENDBRANCH   5   9
TORSDOF 4
ENDMDL
MODEL      255
REMARK 921   NORMALIZED FREE ENERGY PREDICTED BY IDOCK:    1.35 KCAL/MOL
REMARK 922        TOTAL FREE ENERGY PREDICTED BY IDOCK:    1.15 KCAL/MOL
REMARK 923 INTER-LIGAND FREE ENERGY PREDICTED BY IDOCK:   -3.79 KCAL/MOL
REMARK 924 INTRA-LIGAND FREE ENERGY PREDICTED BY IDOCK:    4.94 KCAL/MOL
REMARK 927      BINDING AFFINITY PREDICTED BY RF-SCORE:    0.00 PKD
ROOT
HETATM    1  C   UNL     1      -7.149  14.144  67.120  1.00  0.00     0.310 A  
HETATM    2  N   UNL     1      -7.047  15.457  66.915  1.00  0.00    -0.153 NA 
HETATM    3  O   UNL     1      -8.314  15.867  66.550  1.00  0.00    -0.265 OA 
HETATM    4  C   UNL     1      -9.166  14.802  66.567  1.00  0.00    -0.276 A  
HETATM    5  C   UNL     1      -8.465  13.659  66.933  1.00  0.00    -0.073 A  
ENDROOT
BRANCH   4   6
HETATM    6  C   UNL     1     -10.653  14.916  66.238  1.00  0.00    -0.309 C  
HETATM    7  C   UNL     1     -11.069  15.095  64.791  1.00  0.00    -0.395 C  
HETATM    8  C   UNL     1     -11.298  13.786  65.463  1.00  0.00    -0.313 C  
ENDBRANCH   4   6
BRANCH   5   9
HETATM    9  C   UNL     1      -9.012  12.311  67.032  1.00  0.00    -0.204 C  
HETATM   10  O   UNL     1     -10.065  12.026  66.478  1.00  0.00    -0.197 OA 
BRANCH   9  11
HETATM   11  C   UNL     1      -8.381  11.257  67.890  1.00  0.00    -0.131 A  
HETATM   12  C   UNL     1      -8.958   9.982  68.089  1.00  0.00    -0.122 A  
HETATM   13  C   UNL     1      -8.393   9.083  69.013  1.00  0.00    -0.124 A  
HETATM   14  C   UNL     1      -7.256  11.602  68.662  1.00  0.00    -0.104 A  
HETATM   15  C   UNL     1      -7.273   9.440  69.778  1.00  0.00    -0.076 A  
HETATM   16  F   UNL     1      -7.357   7.297  70.856  1.00  0.00    -0.069 F  
HETATM   17  F   UNL     1      -5.398   8.202  70.598  1.00  0.00    -0.025 F  
HETATM   18  F   UNL     1      -6.781   9.002  72.074  1.00  0.00    -0.084 F  
HETATM   19  C   UNL     1      -6.707   8.493  70.816  1.00  0.00    -0.043 C  
HETATM   20  C   UNL     1      -6.707  10.704  69.588  1.00  0.00    -0.116 A  
BRANCH  12  21
HETATM   21  S   UNL     1     -10.384   9.458  67.144  1.00  0.00    -0.251 S  
HETATM   22  C   UNL     1      -9.995   9.637  65.426  1.00  0.00    -0.160 C  
HETATM   23  O   UNL     1     -10.531   8.028  67.337  1.00  0.00    -0.258 OA 
HETATM   24  O   UNL     1     -11.427  10.421  67.441  1.00  0.00    -0.354 OA 
ENDBRANCH  12  21
ENDBRANCH   9  11
ENDBRANCH   5   9
TORSDOF 4
ENDMDL
MODEL      256
REMARK 921   NORMALIZED FREE ENERGY PREDICTED BY IDOCK:    1.84 KCAL/MOL
REMARK 922        TOTAL FREE ENERGY PREDICTED BY IDOCK:    1.75 KCAL/MOL
REMARK 923 INTER-LIGAND FREE ENERGY PREDICTED BY IDOCK:   -1.99 KCAL/MOL
REMARK 924 INTRA-LIGAND FREE ENERGY PREDICTED BY IDOCK:    3.74 KCAL/MOL
REMARK 927      BINDING AFFINITY PREDICTED BY RF-SCORE:    0.00 PKD
ROOT
HETATM    1  C   UNL     1      -5.623  13.304  68.238  1.00  0.00    -0.095 A  
HETATM    2  N   UNL     1      -5.242  12.957  69.468  1.00  0.00    -0.075 NA 
HETATM    3  O   UNL     1      -6.182  13.518  70.310  1.00  0.00    -0.131 OA 
HETATM    4  C   UNL     1      -7.129  14.169  69.576  1.00  0.00    -0.003 A  
HETATM    5  C   UNL     1      -6.819  14.061  68.225  1.00  0.00    -0.108 A  
ENDROOT
BRANCH   4   6
HETATM    6  C   UNL     1      -8.329  14.877  70.201  1.00  0.00     0.673 C  
HETATM    7  C   UNL     1      -9.099  15.882  69.367  1.00  0.00    -0.222 C  
HETATM    8  C   UNL     1      -9.706  14.554  69.659  1.00  0.00     0.311 C  
ENDBRANCH   4   6
BRANCH   5   9
HETATM    9  C   UNL     1      -7.566  14.652  67.122  1.00  0.00    -0.044 C  
HETATM   10  O   UNL     1      -8.176  13.941  66.335  1.00  0.00     0.417 OA 
BRANCH   9  11
HETATM   11  C   UNL     1      -7.537  16.122  66.838  1.00  0.00    -0.275 A  
HETATM   12  C   UNL     1      -8.651  16.829  66.331  1.00  0.00    -0.303 A  
HETATM   13  C   UNL     1      -8.525  18.179  65.953  1.00  0.00     0.120 A  
HETATM   14  C   UNL     1      -6.305  16.799  66.919  1.00  0.00    -0.229 A  
HETATM   15  C   UNL     1      -7.292  18.841  66.037  1.00  0.00    -0.283 A  
HETATM   16  F   UNL     1      -8.321  20.818  65.143  1.00  0.00     0.262 F  
HETATM   17  F   UNL     1      -6.687  21.098  66.548  1.00  0.00    -0.327 F  
HETATM   18  F   UNL     1      -6.279  20.394  64.530  1.00  0.00    -0.247 F  
HETATM   19  C   UNL     1      -7.146  20.275  65.570  1.00  0.00    -0.254 C  
HETATM   20  C   UNL     1      -6.187  18.141  66.530  1.00  0.00    -0.215 A  
BRANCH  12  21
HETATM   21  S   UNL     1     -10.256  16.048  66.201  1.00  0.00    -0.342 S  
HETATM   22  C   UNL     1     -11.118  16.795  64.848  1.00  0.00    -0.054 C  
HETATM   23  O   UNL     1     -10.039  14.676  65.783  1.00  0.00    -0.304 OA 
HETATM   24  O   UNL     1     -10.970  16.416  67.409  1.00  0.00    -0.263 OA 
ENDBRANCH  12  21
ENDBRANCH   9  11
ENDBRANCH   5   9
TORSDOF 4
ENDMDL
MODEL      257
REMARK 921   NORMALIZED FREE ENERGY PREDICTED BY IDOCK:    2.31 KCAL/MOL
REMARK 922        TOTAL FREE ENERGY PREDICTED BY IDOCK:    2.34 KCAL/MOL
REMARK 923 INTER-LIGAND FREE ENERGY PREDICTED BY IDOCK:    1.34 KCAL/MOL
REMARK 924 INTRA-LIGAND FREE ENERGY PREDICTED BY IDOCK:    0.99 KCAL/MOL
REMARK 927      BINDING AFFINITY PREDICTED BY RF-SCORE:    0.00 PKD
ROOT
HETATM    1  C   UNL     1     -11.319   7.634  70.560  1.00  0.00    -0.250 A  
HETATM    2  N   UNL     1     -11.823   8.651  71.260  1.00  0.00    -0.288 NA 
HETATM    3  O   UNL     1     -10.894   9.666  71.145  1.00  0.00    -0.337 OA 
HETATM    4  C   UNL     1      -9.859   9.257  70.356  1.00  0.00    -0.241 A  
HETATM    5  C   UNL     1     -10.083   7.948  69.946  1.00  0.00    -0.197 A  
ENDROOT
BRANCH   4   6
HETATM    6  C   UNL     1      -8.673  10.152  70.004  1.00  0.00    -0.011 C  
HETATM    7  C   UNL     1      -7.959  10.890  71.119  1.00  0.00     4.540 C  
HETATM    8  C   UNL     1      -7.297   9.725  70.471  1.00  0.00    -0.126 C  
ENDBRANCH   4   6
BRANCH   5   9
HETATM    9  C   UNL     1      -9.192   7.141  69.122  1.00  0.00    -0.139 C  
HETATM   10  O   UNL     1      -8.675   6.129  69.574  1.00  0.00    -0.128 OA 
BRANCH   9  11
HETATM   11  C   UNL     1      -8.785   7.561  67.742  1.00  0.00    -0.123 A  
HETATM   12  C   UNL     1      -8.879   6.707  66.620  1.00  0.00    -0.136 A  
HETATM   13  C   UNL     1      -8.355   7.106  65.377  1.00  0.00    -0.122 A  
HETATM   14  C   UNL     1      -8.128   8.796  67.580  1.00  0.00    -0.106 A  
HETATM   15  C   UNL     1      -7.700   8.338  65.229  1.00  0.00    -0.106 A  
HETATM   16  F   UNL     1      -7.293   7.817  62.921  1.00  0.00    -0.081 F  
HETATM   17  F   UNL     1      -7.575   9.911  63.432  1.00  0.00    -0.120 F  
HETATM   18  F   UNL     1      -5.735   8.892  63.990  1.00  0.00    -0.065 F  
HETATM   19  C   UNL     1      -7.082   8.736  63.905  1.00  0.00    -0.091 C  
HETATM   20  C   UNL     1      -7.599   9.180  66.341  1.00  0.00    -0.093 A  
BRANCH  12  21
HETATM   21  S   UNL     1      -9.706   5.123  66.735  1.00  0.00    -0.184 S  
HETATM   22  C   UNL     1      -9.814   4.446  65.103  1.00  0.00    -0.182 C  
HETATM   23  O   UNL     1      -8.819   4.222  67.445  1.00  0.00    -0.104 OA 
HETATM   24  O   UNL     1     -11.061   5.418  67.158  1.00  0.00     0.033 OA 
ENDBRANCH  12  21
ENDBRANCH   9  11
ENDBRANCH   5   9
TORSDOF 4
ENDMDL
MODEL      258
REMARK 921   NORMALIZED FREE ENERGY PREDICTED BY IDOCK:    5.06 KCAL/MOL
REMARK 922        TOTAL FREE ENERGY PREDICTED BY IDOCK:    5.72 KCAL/MOL
REMARK 923 INTER-LIGAND FREE ENERGY PREDICTED BY IDOCK:    4.15 KCAL/MOL
REMARK 924 INTRA-LIGAND FREE ENERGY PREDICTED BY IDOCK:    1.57 KCAL/MOL
REMARK 927      BINDING AFFINITY PREDICTED BY RF-SCORE:    0.00 PKD
ROOT
HETATM    1  C   UNL     1     -10.039  16.249  64.902  1.00  0.00     0.580 A  
HETATM    2  N   UNL     1     -10.478  17.499  65.047  1.00  0.00    -0.279 NA 
HETATM    3  O   UNL     1      -9.956  17.930  66.251  1.00  0.00    -0.334 OA 
HETATM    4  C   UNL     1      -9.188  16.945  66.799  1.00  0.00    -0.247 A  
HETATM    5  C   UNL     1      -9.203  15.833  65.966  1.00  0.00    -0.379 A  
ENDROOT
BRANCH   4   6
HETATM    6  C   UNL     1      -8.441  17.107  68.121  1.00  0.00    -0.227 C  
HETATM    7  C   UNL     1      -9.055  17.969  69.206  1.00  0.00     0.233 C  
HETATM    8  C   UNL     1      -9.050  16.488  69.362  1.00  0.00     0.015 C  
ENDBRANCH   4   6
BRANCH   5   9
HETATM    9  C   UNL     1      -8.534  14.562  66.217  1.00  0.00     0.532 C  
HETATM   10  O   UNL     1      -7.450  14.321  65.705  1.00  0.00     3.334 OA 
BRANCH   9  11
HETATM   11  C   UNL     1      -9.178  13.467  67.010  1.00  0.00    -0.242 A  
HETATM   12  C   UNL     1      -9.572  12.235  66.439  1.00  0.00    -0.237 A  
HETATM   13  C   UNL     1     -10.295  11.298  67.200  1.00  0.00    -0.244 A  
HETATM   14  C   UNL     1      -9.561  13.733  68.338  1.00  0.00    -0.206 A  
HETATM   15  C   UNL     1     -10.673  11.576  68.522  1.00  0.00    -0.242 A  
HETATM   16  F   UNL     1     -11.768   9.443  68.633  1.00  0.00     0.181 F  
HETATM   17  F   UNL     1     -10.902  10.210  70.472  1.00  0.00    -0.317 F  
HETATM   18  F   UNL     1     -12.715  11.103  69.667  1.00  0.00    -0.276 F  
HETATM   19  C   UNL     1     -11.506  10.591  69.316  1.00  0.00    -0.256 C  
HETATM   20  C   UNL     1     -10.292  12.798  69.085  1.00  0.00     0.158 A  
BRANCH  12  21
HETATM   21  S   UNL     1      -9.121  11.811  64.760  1.00  0.00     0.437 S  
HETATM   22  C   UNL     1      -7.716  10.737  64.827  1.00  0.00     0.209 C  
HETATM   23  O   UNL     1     -10.184  10.987  64.219  1.00  0.00    -0.301 OA 
HETATM   24  O   UNL     1      -8.674  13.049  64.150  1.00  0.00     2.259 OA 
ENDBRANCH  12  21
ENDBRANCH   9  11
ENDBRANCH   5   9
TORSDOF 4
ENDMDL
MODEL      259
REMARK 921   NORMALIZED FREE ENERGY PREDICTED BY IDOCK:    5.28 KCAL/MOL
REMARK 922        TOTAL FREE ENERGY PREDICTED BY IDOCK:    6.00 KCAL/MOL
REMARK 923 INTER-LIGAND FREE ENERGY PREDICTED BY IDOCK:    2.61 KCAL/MOL
REMARK 924 INTRA-LIGAND FREE ENERGY PREDICTED BY IDOCK:    3.39 KCAL/MOL
REMARK 927      BINDING AFFINITY PREDICTED BY RF-SCORE:    0.00 PKD
ROOT
HETATM    1  C   UNL     1     -11.941  14.736  64.352  1.00  0.00    -0.417 A  
HETATM    2  N   UNL     1     -12.543  13.575  64.094  1.00  0.00    -0.669 NA 
HETATM    3  O   UNL     1     -12.080  12.704  65.060  1.00  0.00    -0.394 OA 
HETATM    4  C   UNL     1     -11.228  13.359  65.901  1.00  0.00    -0.300 A  
HETATM    5  C   UNL     1     -11.103  14.681  65.491  1.00  0.00    -0.345 A  
ENDROOT
BRANCH   4   6
HETATM    6  C   UNL     1     -10.559  12.689  67.099  1.00  0.00    -0.252 C  
HETATM    7  C   UNL     1     -11.423  11.937  68.092  1.00  0.00    -0.384 C  
HETATM    8  C   UNL     1     -10.551  11.175  67.155  1.00  0.00    -0.286 C  
ENDBRANCH   4   6
BRANCH   5   9
HETATM    9  C   UNL     1     -10.257  15.695  66.107  1.00  0.00    -0.311 C  
HETATM   10  O   UNL     1      -9.213  16.040  65.572  1.00  0.00    -0.354 OA 
BRANCH   9  11
HETATM   11  C   UNL     1     -10.563  16.276  67.454  1.00  0.00    -0.307 A  
HETATM   12  C   UNL     1      -9.801  17.317  68.033  1.00  0.00    -0.284 A  
HETATM   13  C   UNL     1     -10.049  17.728  69.355  1.00  0.00    -0.019 A  
HETATM   14  C   UNL     1     -11.543  15.653  68.249  1.00  0.00    -0.326 A  
HETATM   15  C   UNL     1     -11.027  17.097  70.138  1.00  0.00     0.556 A  
HETATM   16  F   UNL     1     -10.456  18.540  71.970  1.00  0.00     1.659 F  
HETATM   17  F   UNL     1     -12.525  17.892  71.825  1.00  0.00     4.360 F  
HETATM   18  F   UNL     1     -10.985  16.487  72.447  1.00  0.00     0.249 F  
HETATM   19  C   UNL     1     -11.247  17.501  71.582  1.00  0.00     1.979 C  
HETATM   20  C   UNL     1     -11.775  16.062  69.570  1.00  0.00    -0.275 A  
BRANCH  12  21
HETATM   21  S   UNL     1      -8.540  18.169  67.090  1.00  0.00    -0.253 S  
HETATM   22  C   UNL     1      -7.106  18.325  68.115  1.00  0.00    -0.236 C  
HETATM   23  O   UNL     1      -8.128  17.285  66.018  1.00  0.00    -0.477 OA 
HETATM   24  O   UNL     1      -9.051  19.510  66.876  1.00  0.00    -0.304 OA 
ENDBRANCH  12  21
ENDBRANCH   9  11
ENDBRANCH   5   9
TORSDOF 4
ENDMDL
MODEL      260
REMARK 921   NORMALIZED FREE ENERGY PREDICTED BY IDOCK:    9.69 KCAL/MOL
REMARK 922        TOTAL FREE ENERGY PREDICTED BY IDOCK:   11.44 KCAL/MOL
REMARK 923 INTER-LIGAND FREE ENERGY PREDICTED BY IDOCK:    6.14 KCAL/MOL
REMARK 924 INTRA-LIGAND FREE ENERGY PREDICTED BY IDOCK:    5.30 KCAL/MOL
REMARK 927      BINDING AFFINITY PREDICTED BY RF-SCORE:    0.00 PKD
ROOT
HETATM    1  C   UNL     1     -10.606  16.583  65.981  1.00  0.00    -0.253 A  
HETATM    2  N   UNL     1     -10.802  16.964  64.719  1.00  0.00    -0.816 NA 
HETATM    3  O   UNL     1      -9.897  17.986  64.503  1.00  0.00     2.801 OA 
HETATM    4  C   UNL     1      -9.152  18.186  65.628  1.00  0.00     0.711 A  
HETATM    5  C   UNL     1      -9.565  17.302  66.617  1.00  0.00    -0.286 A  
ENDROOT
BRANCH   4   6
HETATM    6  C   UNL     1      -8.038  19.227  65.717  1.00  0.00     0.029 C  
HETATM    7  C   UNL     1      -8.303  20.625  65.192  1.00  0.00     1.126 C  
HETATM    8  C   UNL     1      -8.232  20.395  66.662  1.00  0.00    -0.236 C  
ENDBRANCH   4   6
BRANCH   5   9
HETATM    9  C   UNL     1      -9.040  17.225  67.974  1.00  0.00    -0.249 C  
HETATM   10  O   UNL     1      -7.839  17.330  68.181  1.00  0.00    -0.205 OA 
BRANCH   9  11
HETATM   11  C   UNL     1      -9.914  16.911  69.150  1.00  0.00    -0.239 A  
HETATM   12  C   UNL     1     -10.569  15.669  69.310  1.00  0.00    -0.238 A  
HETATM   13  C   UNL     1     -11.486  15.479  70.361  1.00  0.00    -0.364 A  
HETATM   14  C   UNL     1     -10.232  17.947  70.048  1.00  0.00     0.909 A  
HETATM   15  C   UNL     1     -11.796  16.520  71.247  1.00  0.00     0.045 A  
HETATM   16  F   UNL     1     -13.339  15.067  72.376  1.00  0.00    -0.356 F  
HETATM   17  F   UNL     1     -12.330  16.570  73.578  1.00  0.00    -0.516 F  
HETATM   18  F   UNL     1     -13.897  17.160  72.188  1.00  0.00     2.937 F  
HETATM   19  C   UNL     1     -12.830  16.331  72.338  1.00  0.00    -0.071 C  
HETATM   20  C   UNL     1     -11.155  17.752  71.085  1.00  0.00     2.373 A  
BRANCH  12  21
HETATM   21  S   UNL     1     -10.218  14.294  68.219  1.00  0.00    -0.249 S  
HETATM   22  C   UNL     1     -10.545  14.818  66.560  1.00  0.00    -0.299 C  
HETATM   23  O   UNL     1      -8.786  14.067  68.254  1.00  0.00    -0.175 OA 
HETATM   24  O   UNL     1     -11.201  13.277  68.539  1.00  0.00    -0.240 OA 
ENDBRANCH  12  21
ENDBRANCH   9  11
ENDBRANCH   5   9
TORSDOF 4
ENDMDL
MODEL      261
REMARK 921   NORMALIZED FREE ENERGY PREDICTED BY IDOCK:   13.27 KCAL/MOL
REMARK 922        TOTAL FREE ENERGY PREDICTED BY IDOCK:   15.86 KCAL/MOL
REMARK 923 INTER-LIGAND FREE ENERGY PREDICTED BY IDOCK:   10.34 KCAL/MOL
REMARK 924 INTRA-LIGAND FREE ENERGY PREDICTED BY IDOCK:    5.52 KCAL/MOL
REMARK 927      BINDING AFFINITY PREDICTED BY RF-SCORE:    0.00 PKD
ROOT
HETATM    1  C   UNL     1     -10.022  16.255  64.892  1.00  0.00     0.797 A  
HETATM    2  N   UNL     1     -10.509  17.482  65.077  1.00  0.00    -0.279 NA 
HETATM    3  O   UNL     1      -9.978  17.906  66.280  1.00  0.00    -0.334 OA 
HETATM    4  C   UNL     1      -9.158  16.942  66.787  1.00  0.00    -0.245 A  
HETATM    5  C   UNL     1      -9.145  15.850  65.927  1.00  0.00    -0.304 A  
ENDROOT
BRANCH   4   6
HETATM    6  C   UNL     1      -8.388  17.104  68.096  1.00  0.00    -0.226 C  
HETATM    7  C   UNL     1      -9.013  17.912  69.215  1.00  0.00     0.254 C  
HETATM    8  C   UNL     1      -8.941  16.429  69.334  1.00  0.00    -0.014 C  
ENDBRANCH   4   6
BRANCH   5   9
HETATM    9  C   UNL     1      -8.419  14.603  66.132  1.00  0.00     0.683 C  
HETATM   10  O   UNL     1      -8.316  13.789  65.225  1.00  0.00     2.845 OA 
BRANCH   9  11
HETATM   11  C   UNL     1      -7.865  14.214  67.469  1.00  0.00    -0.207 A  
HETATM   12  C   UNL     1      -8.348  13.111  68.209  1.00  0.00    -0.152 A  
HETATM   13  C   UNL     1      -7.886  12.876  69.517  1.00  0.00     0.960 A  
HETATM   14  C   UNL     1      -6.944  15.077  68.093  1.00  0.00    -0.130 A  
HETATM   15  C   UNL     1      -6.970  13.744  70.128  1.00  0.00     0.433 A  
HETATM   16  F   UNL     1      -7.055  12.397  72.114  1.00  0.00     5.062 F  
HETATM   17  F   UNL     1      -5.176  13.395  71.671  1.00  0.00    -0.138 F  
HETATM   18  F   UNL     1      -6.881  14.548  72.376  1.00  0.00     0.689 F  
HETATM   19  C   UNL     1      -6.524  13.522  71.559  1.00  0.00     1.531 C  
HETATM   20  C   UNL     1      -6.498  14.841  69.401  1.00  0.00    -0.131 A  
BRANCH  12  21
HETATM   21  S   UNL     1      -9.515  11.960  67.490  1.00  0.00    -0.180 S  
HETATM   22  C   UNL     1      -8.614  10.533  66.955  1.00  0.00    -0.127 C  
HETATM   23  O   UNL     1     -10.362  11.474  68.563  1.00  0.00    -0.197 OA 
HETATM   24  O   UNL     1     -10.022  12.609  66.296  1.00  0.00    -0.248 OA 
ENDBRANCH  12  21
ENDBRANCH   9  11
ENDBRANCH   5   9
TORSDOF 4
ENDMDL
MODEL      262
REMARK 921   NORMALIZED FREE ENERGY PREDICTED BY IDOCK:   13.57 KCAL/MOL
REMARK 922        TOTAL FREE ENERGY PREDICTED BY IDOCK:   16.23 KCAL/MOL
REMARK 923 INTER-LIGAND FREE ENERGY PREDICTED BY IDOCK:    6.45 KCAL/MOL
REMARK 924 INTRA-LIGAND FREE ENERGY PREDICTED BY IDOCK:    9.78 KCAL/MOL
REMARK 927      BINDING AFFINITY PREDICTED BY RF-SCORE:    0.00 PKD
ROOT
HETATM    1  C   UNL     1     -10.108  10.784  64.548  1.00  0.00    -0.350 A  
HETATM    2  N   UNL     1      -9.524   9.852  63.794  1.00  0.00    -0.218 NA 
HETATM    3  O   UNL     1      -9.463   8.726  64.592  1.00  0.00     0.340 OA 
HETATM    4  C   UNL     1     -10.035   8.987  65.802  1.00  0.00     0.004 A  
HETATM    5  C   UNL     1     -10.474  10.305  65.829  1.00  0.00    -0.159 A  
ENDROOT
BRANCH   4   6
HETATM    6  C   UNL     1     -10.157   7.943  66.910  1.00  0.00    -0.362 C  
HETATM    7  C   UNL     1      -8.892   7.340  67.487  1.00  0.00    -0.119 C  
HETATM    8  C   UNL     1      -9.672   8.317  68.295  1.00  0.00    -0.173 C  
ENDBRANCH   4   6
BRANCH   5   9
HETATM    9  C   UNL     1     -11.107  10.977  66.956  1.00  0.00    -0.244 C  
HETATM   10  O   UNL     1     -11.024  12.191  67.081  1.00  0.00    -0.243 OA 
BRANCH   9  11
HETATM   11  C   UNL     1     -11.786  10.219  68.056  1.00  0.00     0.370 A  
HETATM   12  C   UNL     1     -12.151  10.813  69.286  1.00  0.00    -0.207 A  
HETATM   13  C   UNL     1     -12.660  10.022  70.333  1.00  0.00    -0.142 A  
HETATM   14  C   UNL     1     -11.916   8.823  67.931  1.00  0.00     3.616 A  
HETATM   15  C   UNL     1     -12.783   8.632  70.196  1.00  0.00     1.263 A  
HETATM   16  F   UNL     1     -13.613   8.508  72.446  1.00  0.00    -0.344 F  
HETATM   17  F   UNL     1     -14.371   7.047  71.026  1.00  0.00    -0.475 F  
HETATM   18  F   UNL     1     -12.331   6.889  71.767  1.00  0.00    -0.336 F  
HETATM   19  C   UNL     1     -13.271   7.777  71.348  1.00  0.00    -0.267 C  
HETATM   20  C   UNL     1     -12.413   8.042  68.984  1.00  0.00     3.773 A  
BRANCH  12  21
HETATM   21  S   UNL     1     -12.026  12.581  69.529  1.00  0.00    -0.222 S  
HETATM   22  C   UNL     1     -10.414  13.091  69.005  1.00  0.00     0.007 C  
HETATM   23  O   UNL     1     -12.931  13.214  68.588  1.00  0.00     1.158 OA 
HETATM   24  O   UNL     1     -12.086  12.786  70.964  1.00  0.00    -0.221 OA 
ENDBRANCH  12  21
ENDBRANCH   9  11
ENDBRANCH   5   9
TORSDOF 4
ENDMDL
MODEL      263
REMARK 921   NORMALIZED FREE ENERGY PREDICTED BY IDOCK:   13.97 KCAL/MOL
REMARK 922        TOTAL FREE ENERGY PREDICTED BY IDOCK:   16.72 KCAL/MOL
REMARK 923 INTER-LIGAND FREE ENERGY PREDICTED BY IDOCK:    5.69 KCAL/MOL
REMARK 924 INTRA-LIGAND FREE ENERGY PREDICTED BY IDOCK:   11.03 KCAL/MOL
REMARK 927      BINDING AFFINITY PREDICTED BY RF-SCORE:    0.00 PKD
ROOT
HETATM    1  C   UNL     1      -9.234  10.342  71.436  1.00  0.00     3.974 A  
HETATM    2  N   UNL     1      -9.798  11.373  70.805  1.00  0.00     3.592 NA 
HETATM    3  O   UNL     1      -9.578  11.141  69.462  1.00  0.00     0.096 OA 
HETATM    4  C   UNL     1      -8.909   9.963  69.301  1.00  0.00    -0.174 A  
HETATM    5  C   UNL     1      -8.663   9.400  70.547  1.00  0.00    -0.276 A  
ENDROOT
BRANCH   4   6
HETATM    6  C   UNL     1      -8.531   9.397  67.934  1.00  0.00    -0.116 C  
HETATM    7  C   UNL     1      -9.403   8.317  67.324  1.00  0.00    -0.181 C  
HETATM    8  C   UNL     1      -9.446   9.696  66.764  1.00  0.00    -0.209 C  
ENDBRANCH   4   6
BRANCH   5   9
HETATM    9  C   UNL     1      -7.942   8.159  70.802  1.00  0.00    -0.097 C  
HETATM   10  O   UNL     1      -7.466   7.934  71.907  1.00  0.00    -0.069 OA 
BRANCH   9  11
HETATM   11  C   UNL     1      -7.658   7.166  69.718  1.00  0.00    -0.103 A  
HETATM   12  C   UNL     1      -7.134   5.878  69.973  1.00  0.00    -0.071 A  
HETATM   13  C   UNL     1      -6.759   5.039  68.907  1.00  0.00    -0.050 A  
HETATM   14  C   UNL     1      -7.759   7.585  68.377  1.00  0.00    -0.120 A  
HETATM   15  C   UNL     1      -6.862   5.470  67.576  1.00  0.00    -0.060 A  
HETATM   16  F   UNL     1      -5.952   3.369  66.852  1.00  0.00    -0.021 F  
HETATM   17  F   UNL     1      -7.383   4.339  65.534  1.00  0.00    -0.070 F  
HETATM   18  F   UNL     1      -5.371   5.143  65.738  1.00  0.00    -0.011 F  
HETATM   19  C   UNL     1      -6.397   4.588  66.435  1.00  0.00    -0.033 C  
HETATM   20  C   UNL     1      -7.372   6.747  67.323  1.00  0.00    -0.091 A  
BRANCH  12  21
HETATM   21  S   UNL     1      -6.979   5.262  71.646  1.00  0.00    -0.068 S  
HETATM   22  C   UNL     1      -5.378   5.717  72.249  1.00  0.00    -0.021 C  
HETATM   23  O   UNL     1      -7.906   6.011  72.472  1.00  0.00    -0.103 OA 
HETATM   24  O   UNL     1      -6.990   3.816  71.534  1.00  0.00    -0.030 OA 
ENDBRANCH  12  21
ENDBRANCH   9  11
ENDBRANCH   5   9
TORSDOF 4
ENDMDL
MODEL      264
REMARK 921   NORMALIZED FREE ENERGY PREDICTED BY IDOCK:   14.48 KCAL/MOL
REMARK 922        TOTAL FREE ENERGY PREDICTED BY IDOCK:   17.35 KCAL/MOL
REMARK 923 INTER-LIGAND FREE ENERGY PREDICTED BY IDOCK:    8.07 KCAL/MOL
REMARK 924 INTRA-LIGAND FREE ENERGY PREDICTED BY IDOCK:    9.28 KCAL/MOL
REMARK 927      BINDING AFFINITY PREDICTED BY RF-SCORE:    0.00 PKD
ROOT
HETATM    1  C   UNL     1     -12.136  10.775  63.726  1.00  0.00     2.426 A  
HETATM    2  N   UNL     1     -12.234  11.193  62.464  1.00  0.00     1.259 NA 
HETATM    3  O   UNL     1     -12.033  12.559  62.518  1.00  0.00     0.659 OA 
HETATM    4  C   UNL     1     -11.791  12.939  63.805  1.00  0.00    -0.504 A  
HETATM    5  C   UNL     1     -11.842  11.822  64.632  1.00  0.00    -0.203 A  
ENDROOT
BRANCH   4   6
HETATM    6  C   UNL     1     -11.500  14.383  64.209  1.00  0.00    -0.226 C  
HETATM    7  C   UNL     1     -12.655  15.361  64.302  1.00  0.00     0.226 C  
HETATM    8  C   UNL     1     -12.015  14.862  65.551  1.00  0.00    -0.098 C  
ENDBRANCH   4   6
BRANCH   5   9
HETATM    9  C   UNL     1     -11.671  11.817  66.079  1.00  0.00    -0.022 C  
HETATM   10  O   UNL     1     -12.514  11.302  66.801  1.00  0.00     1.175 OA 
BRANCH   9  11
HETATM   11  C   UNL     1     -10.532  12.521  66.749  1.00  0.00    -0.243 A  
HETATM   12  C   UNL     1      -9.222  12.543  66.217  1.00  0.00    -0.132 A  
HETATM   13  C   UNL     1      -8.164  13.102  66.957  1.00  0.00    -0.062 A  
HETATM   14  C   UNL     1     -10.729  13.041  68.043  1.00  0.00    -0.248 A  
HETATM   15  C   UNL     1      -8.373  13.614  68.246  1.00  0.00    -0.165 A  
HETATM   16  F   UNL     1      -6.034  14.136  68.391  1.00  0.00    -0.078 F  
HETATM   17  F   UNL     1      -7.411  15.446  69.446  1.00  0.00    -0.150 F  
HETATM   18  F   UNL     1      -7.014  13.445  70.204  1.00  0.00     0.117 F  
HETATM   19  C   UNL     1      -7.218  14.157  69.064  1.00  0.00    -0.110 C  
HETATM   20  C   UNL     1      -9.666  13.585  68.777  1.00  0.00    -0.016 A  
BRANCH  12  21
HETATM   21  S   UNL     1      -8.884  11.911  64.578  1.00  0.00     0.999 S  
HETATM   22  C   UNL     1      -9.001  10.146  64.639  1.00  0.00    -0.209 C  
HETATM   23  O   UNL     1      -9.979  12.319  63.720  1.00  0.00    -0.359 OA 
HETATM   24  O   UNL     1      -7.494  12.230  64.313  1.00  0.00     4.032 OA 
ENDBRANCH  12  21
ENDBRANCH   9  11
ENDBRANCH   5   9
TORSDOF 4
ENDMDL
MODEL      265
REMARK 921   NORMALIZED FREE ENERGY PREDICTED BY IDOCK:   16.14 KCAL/MOL
REMARK 922        TOTAL FREE ENERGY PREDICTED BY IDOCK:   19.39 KCAL/MOL
REMARK 923 INTER-LIGAND FREE ENERGY PREDICTED BY IDOCK:   15.66 KCAL/MOL
REMARK 924 INTRA-LIGAND FREE ENERGY PREDICTED BY IDOCK:    3.73 KCAL/MOL
REMARK 927      BINDING AFFINITY PREDICTED BY RF-SCORE:    0.00 PKD
ROOT
HETATM    1  C   UNL     1     -10.800  15.352  70.027  1.00  0.00    -0.305 A  
HETATM    2  N   UNL     1     -11.048  16.652  70.195  1.00  0.00    -0.212 NA 
HETATM    3  O   UNL     1     -10.425  17.280  69.134  1.00  0.00    -0.329 OA 
HETATM    4  C   UNL     1      -9.836  16.350  68.329  1.00  0.00    -0.229 A  
HETATM    5  C   UNL     1     -10.050  15.082  68.858  1.00  0.00    -0.234 A  
ENDROOT
BRANCH   4   6
HETATM    6  C   UNL     1      -9.084  16.709  67.049  1.00  0.00    -0.232 C  
HETATM    7  C   UNL     1      -9.669  17.762  66.130  1.00  0.00    -0.230 C  
HETATM    8  C   UNL     1      -8.470  18.090  66.950  1.00  0.00    -0.262 C  
ENDBRANCH   4   6
BRANCH   5   9
HETATM    9  C   UNL     1      -9.550  13.827  68.310  1.00  0.00    -0.219 C  
HETATM   10  O   UNL     1      -8.381  13.502  68.471  1.00  0.00    -0.155 OA 
BRANCH   9  11
HETATM   11  C   UNL     1     -10.396  12.942  67.448  1.00  0.00    -0.233 A  
HETATM   12  C   UNL     1      -9.874  11.840  66.732  1.00  0.00    -0.198 A  
HETATM   13  C   UNL     1     -10.687  11.128  65.831  1.00  0.00    -0.261 A  
HETATM   14  C   UNL     1     -11.731  13.316  67.204  1.00  0.00    -0.425 A  
HETATM   15  C   UNL     1     -12.015  11.512  65.596  1.00  0.00     0.568 A  
HETATM   16  F   UNL     1     -12.224   9.726  64.005  1.00  0.00     5.519 F  
HETATM   17  F   UNL     1     -14.008  10.278  65.118  1.00  0.00     8.871 F  
HETATM   18  F   UNL     1     -13.251  11.587  63.553  1.00  0.00    -0.485 F  
HETATM   19  C   UNL     1     -12.867  10.782  64.578  1.00  0.00     4.843 C  
HETATM   20  C   UNL     1     -12.530  12.607  66.296  1.00  0.00     0.210 A  
BRANCH  12  21
HETATM   21  S   UNL     1      -8.190  11.291  66.987  1.00  0.00    -0.157 S  
HETATM   22  C   UNL     1      -8.246   9.666  67.687  1.00  0.00    -0.114 C  
HETATM   23  O   UNL     1      -7.592  11.104  65.679  1.00  0.00     0.035 OA 
HETATM   24  O   UNL     1      -7.641  12.168  68.004  1.00  0.00    -0.105 OA 
ENDBRANCH  12  21
ENDBRANCH   9  11
ENDBRANCH   5   9
TORSDOF 4
ENDMDL
MODEL      266
REMARK 921   NORMALIZED FREE ENERGY PREDICTED BY IDOCK:   18.46 KCAL/MOL
REMARK 922        TOTAL FREE ENERGY PREDICTED BY IDOCK:   22.25 KCAL/MOL
REMARK 923 INTER-LIGAND FREE ENERGY PREDICTED BY IDOCK:    6.24 KCAL/MOL
REMARK 924 INTRA-LIGAND FREE ENERGY PREDICTED BY IDOCK:   16.01 KCAL/MOL
REMARK 927      BINDING AFFINITY PREDICTED BY RF-SCORE:    0.00 PKD
ROOT
HETATM    1  C   UNL     1     -11.253  16.117  65.990  1.00  0.00     0.205 A  
HETATM    2  N   UNL     1     -10.793  15.754  64.793  1.00  0.00    -0.524 NA 
HETATM    3  O   UNL     1     -10.033  14.624  65.023  1.00  0.00    -0.339 OA 
HETATM    4  C   UNL     1     -10.069  14.307  66.349  1.00  0.00    -0.288 A  
HETATM    5  C   UNL     1     -10.848  15.239  67.024  1.00  0.00    -0.321 A  
ENDROOT
BRANCH   4   6
HETATM    6  C   UNL     1      -9.353  13.092  66.937  1.00  0.00    -0.246 C  
HETATM    7  C   UNL     1      -8.287  12.403  66.109  1.00  0.00     0.475 C  
HETATM    8  C   UNL     1      -7.884  13.231  67.280  1.00  0.00    -0.118 C  
ENDBRANCH   4   6
BRANCH   5   9
HETATM    9  C   UNL     1     -11.102  15.268  68.459  1.00  0.00    -0.282 C  
HETATM   10  O   UNL     1     -11.090  16.328  69.070  1.00  0.00    -0.305 OA 
BRANCH   9  11
HETATM   11  C   UNL     1     -11.279  14.016  69.262  1.00  0.00    -0.304 A  
HETATM   12  C   UNL     1     -11.805  12.822  68.717  1.00  0.00    -0.307 A  
HETATM   13  C   UNL     1     -12.077  11.720  69.549  1.00  0.00    -0.314 A  
HETATM   14  C   UNL     1     -11.074  14.073  70.653  1.00  0.00     0.535 A  
HETATM   15  C   UNL     1     -11.870  11.792  70.935  1.00  0.00     0.092 A  
HETATM   16  F   UNL     1     -12.685   9.543  71.147  1.00  0.00    -0.342 F  
HETATM   17  F   UNL     1     -11.164  10.185  72.561  1.00  0.00     1.087 F  
HETATM   18  F   UNL     1     -13.198  10.942  72.730  1.00  0.00    -0.080 F  
HETATM   19  C   UNL     1     -12.225  10.625  71.835  1.00  0.00     0.209 C  
HETATM   20  C   UNL     1     -11.360  12.975  71.476  1.00  0.00     3.081 A  
BRANCH  12  21
HETATM   21  S   UNL     1     -12.089  12.659  66.957  1.00  0.00     0.034 S  
HETATM   22  C   UNL     1     -13.428  13.731  66.520  1.00  0.00     2.853 C  
HETATM   23  O   UNL     1     -10.937  13.221  66.278  1.00  0.00    -0.282 OA 
HETATM   24  O   UNL     1     -12.556  11.300  66.760  1.00  0.00     1.724 OA 
ENDBRANCH  12  21
ENDBRANCH   9  11
ENDBRANCH   5   9
TORSDOF 4
ENDMDL
MODEL      267
REMARK 921   NORMALIZED FREE ENERGY PREDICTED BY IDOCK:   23.36 KCAL/MOL
REMARK 922        TOTAL FREE ENERGY PREDICTED BY IDOCK:   28.30 KCAL/MOL
REMARK 923 INTER-LIGAND FREE ENERGY PREDICTED BY IDOCK:   17.10 KCAL/MOL
REMARK 924 INTRA-LIGAND FREE ENERGY PREDICTED BY IDOCK:   11.20 KCAL/MOL
REMARK 927      BINDING AFFINITY PREDICTED BY RF-SCORE:    0.00 PKD
ROOT
HETATM    1  C   UNL     1     -10.623  15.787  65.849  1.00  0.00    -0.339 A  
HETATM    2  N   UNL     1     -10.348  15.893  64.548  1.00  0.00    -0.062 NA 
HETATM    3  O   UNL     1      -8.994  16.160  64.485  1.00  0.00     2.769 OA 
HETATM    4  C   UNL     1      -8.470  16.185  65.743  1.00  0.00     0.411 A  
HETATM    5  C   UNL     1      -9.480  15.945  66.668  1.00  0.00    -0.263 A  
ENDROOT
BRANCH   4   6
HETATM    6  C   UNL     1      -6.989  16.428  66.026  1.00  0.00     1.036 C  
HETATM    7  C   UNL     1      -6.265  17.509  65.247  1.00  0.00     0.672 C  
HETATM    8  C   UNL     1      -6.596  17.736  66.681  1.00  0.00    -0.239 C  
ENDBRANCH   4   6
BRANCH   5   9
HETATM    9  C   UNL     1      -9.331  15.925  68.117  1.00  0.00    -0.198 C  
HETATM   10  O   UNL     1      -9.784  16.833  68.800  1.00  0.00    -0.243 OA 
BRANCH   9  11
HETATM   11  C   UNL     1      -8.536  14.868  68.821  1.00  0.00    -0.177 A  
HETATM   12  C   UNL     1      -8.369  13.562  68.307  1.00  0.00    -0.165 A  
HETATM   13  C   UNL     1      -7.730  12.572  69.076  1.00  0.00     0.186 A  
HETATM   14  C   UNL     1      -8.077  15.128  70.126  1.00  0.00     0.501 A  
HETATM   15  C   UNL     1      -7.279  12.843  70.375  1.00  0.00     2.082 A  
HETATM   16  F   UNL     1      -6.532  10.570  70.565  1.00  0.00    -0.118 F  
HETATM   17  F   UNL     1      -5.396  12.080  71.639  1.00  0.00    -0.098 F  
HETATM   18  F   UNL     1      -7.370  11.494  72.345  1.00  0.00     6.607 F  
HETATM   19  C   UNL     1      -6.649  11.757  71.223  1.00  0.00     2.633 C  
HETATM   20  C   UNL     1      -7.452  14.132  70.889  1.00  0.00     2.195 A  
BRANCH  12  21
HETATM   21  S   UNL     1      -8.916  13.146  66.654  1.00  0.00    -0.057 S  
HETATM   22  C   UNL     1     -10.413  12.212  66.795  1.00  0.00    -0.218 C  
HETATM   23  O   UNL     1      -9.317  14.380  66.006  1.00  0.00    -0.242 OA 
HETATM   24  O   UNL     1      -7.909  12.248  66.122  1.00  0.00     0.429 OA 
ENDBRANCH  12  21
ENDBRANCH   9  11
ENDBRANCH   5   9
TORSDOF 4
ENDMDL
MODEL      268
REMARK 921   NORMALIZED FREE ENERGY PREDICTED BY IDOCK:   27.13 KCAL/MOL
REMARK 922        TOTAL FREE ENERGY PREDICTED BY IDOCK:   32.95 KCAL/MOL
REMARK 923 INTER-LIGAND FREE ENERGY PREDICTED BY IDOCK:   29.94 KCAL/MOL
REMARK 924 INTRA-LIGAND FREE ENERGY PREDICTED BY IDOCK:    3.01 KCAL/MOL
REMARK 927      BINDING AFFINITY PREDICTED BY RF-SCORE:    0.00 PKD
ROOT
HETATM    1  C   UNL     1      -7.935  14.008  67.005  1.00  0.00     0.055 A  
HETATM    2  N   UNL     1      -8.221  13.402  65.853  1.00  0.00     1.666 NA 
HETATM    3  O   UNL     1      -8.993  14.306  65.149  1.00  0.00     1.171 OA 
HETATM    4  C   UNL     1      -9.136  15.452  65.874  1.00  0.00    -0.153 A  
HETATM    5  C   UNL     1      -8.468  15.317  67.085  1.00  0.00    -0.235 A  
ENDROOT
BRANCH   4   6
HETATM    6  C   UNL     1      -9.912  16.668  65.370  1.00  0.00     0.049 C  
HETATM    7  C   UNL     1      -9.444  18.052  65.777  1.00  0.00     0.298 C  
HETATM    8  C   UNL     1      -9.227  17.586  64.379  1.00  0.00     7.140 C  
ENDBRANCH   4   6
BRANCH   5   9
HETATM    9  C   UNL     1      -8.414  16.309  68.152  1.00  0.00    -0.174 C  
HETATM   10  O   UNL     1      -7.581  17.204  68.125  1.00  0.00    -0.194 OA 
BRANCH   9  11
HETATM   11  C   UNL     1      -9.287  16.220  69.366  1.00  0.00    -0.138 A  
HETATM   12  C   UNL     1      -8.928  16.780  70.614  1.00  0.00     3.811 A  
HETATM   13  C   UNL     1      -9.722  16.547  71.752  1.00  0.00     5.983 A  
HETATM   14  C   UNL     1     -10.434  15.406  69.313  1.00  0.00    -0.251 A  
HETATM   15  C   UNL     1     -10.861  15.732  71.686  1.00  0.00     0.266 A  
HETATM   16  F   UNL     1     -11.215  16.078  74.036  1.00  0.00     0.404 F  
HETATM   17  F   UNL     1     -12.978  15.799  72.796  1.00  0.00    -0.415 F  
HETATM   18  F   UNL     1     -11.679  14.110  73.237  1.00  0.00     0.201 F  
HETATM   19  C   UNL     1     -11.676  15.434  72.928  1.00  0.00    -0.401 C  
HETATM   20  C   UNL     1     -11.213  15.171  70.455  1.00  0.00    -0.310 A  
BRANCH  12  21
HETATM   21  S   UNL     1      -7.490  17.834  70.770  1.00  0.00     4.631 S  
HETATM   22  C   UNL     1      -6.153  17.065  69.901  1.00  0.00    -0.185 C  
HETATM   23  O   UNL     1      -7.759  19.048  70.025  1.00  0.00     0.554 OA 
HETATM   24  O   UNL     1      -7.141  17.814  72.178  1.00  0.00     6.162 OA 
ENDBRANCH  12  21
ENDBRANCH   9  11
ENDBRANCH   5   9
TORSDOF 4
ENDMDL
MODEL      269
REMARK 921   NORMALIZED FREE ENERGY PREDICTED BY IDOCK:   27.71 KCAL/MOL
REMARK 922        TOTAL FREE ENERGY PREDICTED BY IDOCK:   33.67 KCAL/MOL
REMARK 923 INTER-LIGAND FREE ENERGY PREDICTED BY IDOCK:   31.23 KCAL/MOL
REMARK 924 INTRA-LIGAND FREE ENERGY PREDICTED BY IDOCK:    2.44 KCAL/MOL
REMARK 927      BINDING AFFINITY PREDICTED BY RF-SCORE:    0.00 PKD
ROOT
HETATM    1  C   UNL     1     -12.493   9.954  63.613  1.00  0.00     9.759 A  
HETATM    2  N   UNL     1     -12.513  10.537  62.415  1.00  0.00     3.056 NA 
HETATM    3  O   UNL     1     -12.179  11.857  62.647  1.00  0.00     0.383 OA 
HETATM    4  C   UNL     1     -11.935  12.043  63.976  1.00  0.00    -0.403 A  
HETATM    5  C   UNL     1     -12.120  10.842  64.651  1.00  0.00     2.020 A  
ENDROOT
BRANCH   4   6
HETATM    6  C   UNL     1     -11.513  13.386  64.568  1.00  0.00    -0.402 C  
HETATM    7  C   UNL     1     -12.570  14.448  64.796  1.00  0.00    -0.282 C  
HETATM    8  C   UNL     1     -11.989  13.729  65.964  1.00  0.00    -0.443 C  
ENDBRANCH   4   6
BRANCH   5   9
HETATM    9  C   UNL     1     -11.991  10.635  66.088  1.00  0.00     2.577 C  
HETATM   10  O   UNL     1     -12.977  10.395  66.771  1.00  0.00     6.997 OA 
BRANCH   9  11
HETATM   11  C   UNL     1     -10.686  10.808  66.803  1.00  0.00    -0.291 A  
HETATM   12  C   UNL     1      -9.645   9.854  66.743  1.00  0.00    -0.183 A  
HETATM   13  C   UNL     1      -8.497  10.003  67.544  1.00  0.00    -0.118 A  
HETATM   14  C   UNL     1     -10.550  11.881  67.705  1.00  0.00    -0.241 A  
HETATM   15  C   UNL     1      -8.375  11.075  68.441  1.00  0.00    -0.139 A  
HETATM   16  F   UNL     1      -6.244  10.217  69.137  1.00  0.00    -0.040 F  
HETATM   17  F   UNL     1      -6.508  12.374  69.181  1.00  0.00    -0.074 F  
HETATM   18  F   UNL     1      -7.499  11.125  70.662  1.00  0.00     0.732 F  
HETATM   19  C   UNL     1      -7.167  11.197  69.346  1.00  0.00    -0.091 C  
HETATM   20  C   UNL     1      -9.408  12.015  68.507  1.00  0.00    -0.127 A  
BRANCH  12  21
HETATM   21  S   UNL     1      -9.732   8.464  65.619  1.00  0.00     0.520 S  
HETATM   22  C   UNL     1     -11.424   7.955  65.512  1.00  0.00     7.732 C  
HETATM   23  O   UNL     1      -9.416   8.958  64.293  1.00  0.00     0.447 OA 
HETATM   24  O   UNL     1      -9.010   7.387  66.270  1.00  0.00    -0.156 OA 
ENDBRANCH  12  21
ENDBRANCH   9  11
ENDBRANCH   5   9
TORSDOF 4
ENDMDL
MODEL      270
REMARK 921   NORMALIZED FREE ENERGY PREDICTED BY IDOCK:   45.38 KCAL/MOL
REMARK 922        TOTAL FREE ENERGY PREDICTED BY IDOCK:   55.47 KCAL/MOL
REMARK 923 INTER-LIGAND FREE ENERGY PREDICTED BY IDOCK:   49.11 KCAL/MOL
REMARK 924 INTRA-LIGAND FREE ENERGY PREDICTED BY IDOCK:    6.36 KCAL/MOL
REMARK 927      BINDING AFFINITY PREDICTED BY RF-SCORE:    0.00 PKD
ROOT
HETATM    1  C   UNL     1      -9.068  15.956  72.353  1.00  0.00     9.302 A  
HETATM    2  N   UNL     1     -10.020  15.177  72.867  1.00  0.00     4.318 NA 
HETATM    3  O   UNL     1     -10.694  14.662  71.778  1.00  0.00     0.756 OA 
HETATM    4  C   UNL     1     -10.123  15.115  70.625  1.00  0.00     0.464 A  
HETATM    5  C   UNL     1      -9.061  15.956  70.938  1.00  0.00     2.791 A  
ENDROOT
BRANCH   4   6
HETATM    6  C   UNL     1     -10.612  14.712  69.236  1.00  0.00    -0.236 C  
HETATM    7  C   UNL     1     -11.952  15.231  68.755  1.00  0.00    -0.279 C  
HETATM    8  C   UNL     1     -10.699  15.788  68.173  1.00  0.00    -0.285 C  
ENDBRANCH   4   6
BRANCH   5   9
HETATM    9  C   UNL     1      -8.220  16.668  69.985  1.00  0.00     1.515 C  
HETATM   10  O   UNL     1      -7.295  17.367  70.375  1.00  0.00     1.655 OA 
BRANCH   9  11
HETATM   11  C   UNL     1      -8.506  16.668  68.514  1.00  0.00    -0.233 A  
HETATM   12  C   UNL     1      -7.949  15.722  67.623  1.00  0.00    -0.146 A  
HETATM   13  C   UNL     1      -8.143  15.853  66.235  1.00  0.00    -0.052 A  
HETATM   14  C   UNL     1      -9.224  17.749  67.967  1.00  0.00    -0.273 A  
HETATM   15  C   UNL     1      -8.858  16.936  65.704  1.00  0.00     0.389 A  
HETATM   16  F   UNL     1      -8.444  16.092  63.494  1.00  0.00    10.712 F  
HETATM   17  F   UNL     1     -10.310  17.159  63.816  1.00  0.00     2.807 F  
HETATM   18  F   UNL     1      -8.428  18.250  63.755  1.00  0.00     8.560 F  
HETATM   19  C   UNL     1      -9.009  17.107  64.206  1.00  0.00     8.367 C  
HETATM   20  C   UNL     1      -9.402  17.877  66.583  1.00  0.00    -0.293 A  
BRANCH  12  21
HETATM   21  S   UNL     1      -7.029  14.313  68.232  1.00  0.00    -0.125 S  
HETATM   22  C   UNL     1      -8.124  12.922  68.270  1.00  0.00    -0.151 C  
HETATM   23  O   UNL     1      -6.041  13.972  67.227  1.00  0.00    -0.309 OA 
HETATM   24  O   UNL     1      -6.700  14.626  69.610  1.00  0.00    -0.143 OA 
ENDBRANCH  12  21
ENDBRANCH   9  11
ENDBRANCH   5   9
TORSDOF 4
ENDMDL
MODEL      271
REMARK 921   NORMALIZED FREE ENERGY PREDICTED BY IDOCK:   49.44 KCAL/MOL
REMARK 922        TOTAL FREE ENERGY PREDICTED BY IDOCK:   60.48 KCAL/MOL
REMARK 923 INTER-LIGAND FREE ENERGY PREDICTED BY IDOCK:   29.27 KCAL/MOL
REMARK 924 INTRA-LIGAND FREE ENERGY PREDICTED BY IDOCK:   31.21 KCAL/MOL
REMARK 927      BINDING AFFINITY PREDICTED BY RF-SCORE:    0.00 PKD
ROOT
HETATM    1  C   UNL     1     -11.975  16.811  66.716  1.00  0.00     2.098 A  
HETATM    2  N   UNL     1     -12.303  17.285  65.513  1.00  0.00     3.973 NA 
HETATM    3  O   UNL     1     -11.441  16.663  64.631  1.00  0.00    -0.579 OA 
HETATM    4  C   UNL     1     -10.627  15.805  65.310  1.00  0.00    -0.423 A  
HETATM    5  C   UNL     1     -10.931  15.857  66.665  1.00  0.00    -0.136 A  
ENDROOT
BRANCH   4   6
HETATM    6  C   UNL     1      -9.572  14.938  64.625  1.00  0.00     1.351 C  
HETATM    7  C   UNL     1      -9.142  15.289  63.215  1.00  0.00    15.515 C  
HETATM    8  C   UNL     1      -8.215  15.553  64.351  1.00  0.00    10.537 C  
ENDBRANCH   4   6
BRANCH   5   9
HETATM    9  C   UNL     1     -10.260  15.115  67.724  1.00  0.00    -0.236 C  
HETATM   10  O   UNL     1      -9.725  15.706  68.653  1.00  0.00    -0.193 OA 
BRANCH   9  11
HETATM   11  C   UNL     1     -10.100  13.626  67.676  1.00  0.00    -0.242 A  
HETATM   12  C   UNL     1     -10.590  12.835  66.611  1.00  0.00    -0.256 A  
HETATM   13  C   UNL     1     -10.534  11.431  66.685  1.00  0.00    -0.285 A  
HETATM   14  C   UNL     1      -9.593  12.966  68.811  1.00  0.00     0.089 A  
HETATM   15  C   UNL     1     -10.028  10.786  67.823  1.00  0.00    -0.195 A  
HETATM   16  F   UNL     1     -10.500   8.665  66.800  1.00  0.00    -0.340 F  
HETATM   17  F   UNL     1      -8.786   8.765  68.132  1.00  0.00    -0.130 F  
HETATM   18  F   UNL     1     -10.803   8.825  68.946  1.00  0.00    -0.229 F  
HETATM   19  C   UNL     1     -10.028   9.274  67.924  1.00  0.00    -0.187 C  
HETATM   20  C   UNL     1      -9.552  11.566  68.880  1.00  0.00    -0.045 A  
BRANCH  12  21
HETATM   21  S   UNL     1     -11.244  13.592  65.127  1.00  0.00    -0.320 S  
HETATM   22  C   UNL     1     -12.380  14.858  65.616  1.00  0.00     0.117 C  
HETATM   23  O   UNL     1     -10.156  14.306  64.488  1.00  0.00    -0.254 OA 
HETATM   24  O   UNL     1     -12.023  12.559  64.471  1.00  0.00    -0.362 OA 
ENDBRANCH  12  21
ENDBRANCH   9  11
ENDBRANCH   5   9
TORSDOF 4
ENDMDL
