MODEL        1
REMARK 921   NORMALIZED FREE ENERGY PREDICTED BY IDOCK:   -6.33 KCAL/MOL
REMARK 922        TOTAL FREE ENERGY PREDICTED BY IDOCK:  -10.01 KCAL/MOL
REMARK 923 INTER-LIGAND FREE ENERGY PREDICTED BY IDOCK:   -8.56 KCAL/MOL
REMARK 924 INTRA-LIGAND FREE ENERGY PREDICTED BY IDOCK:   -1.46 KCAL/MOL
REMARK 927      BINDING AFFINITY PREDICTED BY RF-SCORE:    0.00 PKD
ROOT
HETATM    1  C   UNL     1     -10.591   9.963  70.122  1.00  0.00    -0.297 C  
HETATM    2  O   UNL     1     -10.474  11.297  69.618  1.00  0.00    -0.070 OA 
ENDROOT
BRANCH   2   3
HETATM    3  C   UNL     1     -11.544  11.822  68.983  1.00  0.00    -0.311 C  
HETATM    4  O   UNL     1     -12.525  11.190  68.619  1.00  0.00    -0.463 OA 
BRANCH   3   5
HETATM    5  C   UNL     1     -11.350  13.280  68.735  1.00  0.00    -0.331 C  
HETATM    6  C   UNL     1     -11.756  14.161  69.683  1.00  0.00    -0.316 C  
HETATM    7  C   UNL     1     -12.539  13.839  70.937  1.00  0.00    -0.428 C  
HETATM    8  N   UNL     1     -11.459  15.501  69.543  1.00  0.00    -0.307 NA 
HETATM    9  C   UNL     1     -10.844  16.077  68.452  1.00  0.00    -0.310 C  
HETATM   10  C   UNL     1     -10.698  17.581  68.527  1.00  0.00    -0.237 C  
HETATM   11  C   UNL     1     -10.420  15.300  67.423  1.00  0.00    -0.270 C  
HETATM   12  C   UNL     1     -10.568  13.767  67.487  1.00  0.00    -0.246 C  
BRANCH  11  13
HETATM   13  C   UNL     1      -9.906  15.970  66.194  1.00  0.00    -0.325 C  
HETATM   14  O   UNL     1     -10.623  16.612  65.433  1.00  0.00    -0.537 OA 
BRANCH  13  15
HETATM   15  O   UNL     1      -8.588  15.746  65.975  1.00  0.00    -0.277 OA 
BRANCH  15  16
HETATM   16  C   UNL     1      -7.708  16.536  66.810  1.00  0.00    -0.259 C  
HETATM   17  C   UNL     1      -7.070  17.625  65.961  1.00  0.00    -0.318 C  
HETATM   18  C   UNL     1      -6.643  15.636  67.433  1.00  0.00    -0.194 C  
ENDBRANCH  15  16
ENDBRANCH  13  15
ENDBRANCH  11  13
BRANCH  12  19
HETATM   19  C   UNL     1     -11.109  13.191  66.191  1.00  0.00    -0.301 A  
HETATM   20  C   UNL     1     -10.424  12.213  65.421  1.00  0.00    -0.270 A  
HETATM   21  C   UNL     1     -12.375  13.545  65.651  1.00  0.00    -0.522 A  
HETATM   22  N   UNL     1      -9.233  11.641  65.640  1.00  0.00    -0.184 NA 
HETATM   23  O   UNL     1      -9.042  10.747  64.602  1.00  0.00    -0.199 OA 
HETATM   24  C   UNL     1     -12.907  12.987  64.459  1.00  0.00    -0.225 A  
HETATM   25  C   UNL     1     -12.235  12.016  63.694  1.00  0.00    -0.642 A  
HETATM   26  C   UNL     1     -10.980  11.639  64.203  1.00  0.00    -0.376 A  
HETATM   27  N   UNL     1     -10.109  10.743  63.723  1.00  0.00    -0.340 NA 
ENDBRANCH  12  19
ENDBRANCH   3   5
ENDBRANCH   2   3
TORSDOF 6
ENDMDL
MODEL        2
REMARK 921   NORMALIZED FREE ENERGY PREDICTED BY IDOCK:   -6.25 KCAL/MOL
REMARK 922        TOTAL FREE ENERGY PREDICTED BY IDOCK:   -9.90 KCAL/MOL
REMARK 923 INTER-LIGAND FREE ENERGY PREDICTED BY IDOCK:   -8.99 KCAL/MOL
REMARK 924 INTRA-LIGAND FREE ENERGY PREDICTED BY IDOCK:   -0.91 KCAL/MOL
REMARK 927      BINDING AFFINITY PREDICTED BY RF-SCORE:    0.00 PKD
ROOT
HETATM    1  C   UNL     1      -8.283  10.036  64.541  1.00  0.00    -0.164 C  
HETATM    2  O   UNL     1      -8.994  10.923  65.410  1.00  0.00    -0.193 OA 
ENDROOT
BRANCH   2   3
HETATM    3  C   UNL     1      -8.514  11.092  66.661  1.00  0.00    -0.153 C  
HETATM    4  O   UNL     1      -7.331  11.084  66.967  1.00  0.00    -0.109 OA 
BRANCH   3   5
HETATM    5  C   UNL     1      -9.629  11.238  67.641  1.00  0.00    -0.180 C  
HETATM    6  C   UNL     1     -10.171  10.119  68.181  1.00  0.00    -0.171 C  
HETATM    7  C   UNL     1      -9.870   8.689  67.787  1.00  0.00    -0.218 C  
HETATM    8  N   UNL     1     -11.102  10.229  69.194  1.00  0.00    -0.233 NA 
HETATM    9  C   UNL     1     -11.627  11.410  69.675  1.00  0.00    -0.330 C  
HETATM   10  C   UNL     1     -12.683  11.245  70.746  1.00  0.00    -0.360 C  
HETATM   11  C   UNL     1     -11.185  12.598  69.189  1.00  0.00    -0.300 C  
HETATM   12  C   UNL     1     -10.055  12.643  68.141  1.00  0.00    -0.231 C  
BRANCH  11  13
HETATM   13  C   UNL     1     -11.885  13.843  69.615  1.00  0.00    -0.327 C  
HETATM   14  O   UNL     1     -12.654  14.461  68.886  1.00  0.00    -0.037 OA 
BRANCH  13  15
HETATM   15  O   UNL     1     -11.540  14.251  70.861  1.00  0.00    -0.234 OA 
BRANCH  15  16
HETATM   16  C   UNL     1     -12.529  15.090  71.504  1.00  0.00    -0.333 C  
HETATM   17  C   UNL     1     -11.814  16.126  72.358  1.00  0.00    -0.637 C  
HETATM   18  C   UNL     1     -13.460  14.230  72.355  1.00  0.00    -0.586 C  
ENDBRANCH  15  16
ENDBRANCH  13  15
ENDBRANCH  11  13
BRANCH  12  19
HETATM   19  C   UNL     1     -10.369  13.602  67.006  1.00  0.00    -0.260 A  
HETATM   20  C   UNL     1     -11.402  13.381  66.056  1.00  0.00    -0.309 A  
HETATM   21  C   UNL     1      -9.687  14.834  66.818  1.00  0.00    -0.264 A  
HETATM   22  N   UNL     1     -12.249  12.349  65.947  1.00  0.00    -0.632 NA 
HETATM   23  O   UNL     1     -13.062  12.636  64.865  1.00  0.00    -0.850 OA 
HETATM   24  C   UNL     1      -9.996  15.755  65.783  1.00  0.00    -0.389 A  
HETATM   25  C   UNL     1     -11.019  15.544  64.841  1.00  0.00    -0.452 A  
HETATM   26  C   UNL     1     -11.718  14.335  65.002  1.00  0.00    -0.383 A  
HETATM   27  N   UNL     1     -12.741  13.850  64.287  1.00  0.00    -0.649 NA 
ENDBRANCH  12  19
ENDBRANCH   3   5
ENDBRANCH   2   3
TORSDOF 6
ENDMDL
MODEL        3
REMARK 921   NORMALIZED FREE ENERGY PREDICTED BY IDOCK:   -6.21 KCAL/MOL
REMARK 922        TOTAL FREE ENERGY PREDICTED BY IDOCK:   -9.84 KCAL/MOL
REMARK 923 INTER-LIGAND FREE ENERGY PREDICTED BY IDOCK:   -8.66 KCAL/MOL
REMARK 924 INTRA-LIGAND FREE ENERGY PREDICTED BY IDOCK:   -1.18 KCAL/MOL
REMARK 927      BINDING AFFINITY PREDICTED BY RF-SCORE:    0.00 PKD
ROOT
HETATM    1  C   UNL     1     -11.979  16.035  72.560  1.00  0.00    -0.545 C  
HETATM    2  O   UNL     1     -11.507  15.557  71.296  1.00  0.00    -0.339 OA 
ENDROOT
BRANCH   2   3
HETATM    3  C   UNL     1     -12.429  15.157  70.394  1.00  0.00    -0.368 C  
HETATM    4  O   UNL     1     -13.525  15.671  70.234  1.00  0.00    -0.173 OA 
BRANCH   3   5
HETATM    5  C   UNL     1     -11.951  13.958  69.646  1.00  0.00    -0.399 C  
HETATM    6  C   UNL     1     -12.188  12.729  70.168  1.00  0.00    -0.249 C  
HETATM    7  C   UNL     1     -12.766  12.424  71.532  1.00  0.00    -0.333 C  
HETATM    8  N   UNL     1     -11.886  11.602  69.430  1.00  0.00    -0.326 NA 
HETATM    9  C   UNL     1     -11.262  11.592  68.201  1.00  0.00    -0.263 C  
HETATM   10  C   UNL     1     -10.989  10.214  67.639  1.00  0.00    -0.331 C  
HETATM   11  C   UNL     1     -10.945  12.762  67.590  1.00  0.00    -0.274 C  
HETATM   12  C   UNL     1     -11.332  14.110  68.232  1.00  0.00    -0.319 C  
BRANCH  11  13
HETATM   13  C   UNL     1     -10.131  12.713  66.342  1.00  0.00    -0.253 C  
HETATM   14  O   UNL     1      -8.927  12.477  66.338  1.00  0.00    -0.179 OA 
BRANCH  13  15
HETATM   15  O   UNL     1     -10.841  13.015  65.228  1.00  0.00    -0.281 OA 
BRANCH  15  16
HETATM   16  C   UNL     1     -11.115  11.878  64.376  1.00  0.00    -0.336 C  
HETATM   17  C   UNL     1     -10.040  11.798  63.302  1.00  0.00    -0.448 C  
HETATM   18  C   UNL     1     -12.500  12.024  63.751  1.00  0.00    -0.594 C  
ENDBRANCH  15  16
ENDBRANCH  13  15
ENDBRANCH  11  13
BRANCH  12  19
HETATM   19  C   UNL     1     -10.188  15.108  68.195  1.00  0.00    -0.227 A  
HETATM   20  C   UNL     1     -10.072  16.131  67.215  1.00  0.00    -0.265 A  
HETATM   21  C   UNL     1      -9.152  15.140  69.166  1.00  0.00    -0.215 A  
HETATM   22  N   UNL     1     -10.871  16.407  66.177  1.00  0.00    -0.151 NA 
HETATM   23  O   UNL     1     -10.317  17.509  65.550  1.00  0.00    -0.620 OA 
HETATM   24  C   UNL     1      -8.097  16.091  69.161  1.00  0.00    -0.238 A  
HETATM   25  C   UNL     1      -7.978  17.107  68.196  1.00  0.00    -0.216 A  
HETATM   26  C   UNL     1      -8.991  17.107  67.222  1.00  0.00    -0.221 A  
HETATM   27  N   UNL     1      -9.168  17.940  66.188  1.00  0.00    -0.501 NA 
ENDBRANCH  12  19
ENDBRANCH   3   5
ENDBRANCH   2   3
TORSDOF 6
ENDMDL
MODEL        4
REMARK 921   NORMALIZED FREE ENERGY PREDICTED BY IDOCK:   -6.13 KCAL/MOL
REMARK 922        TOTAL FREE ENERGY PREDICTED BY IDOCK:   -9.73 KCAL/MOL
REMARK 923 INTER-LIGAND FREE ENERGY PREDICTED BY IDOCK:   -8.30 KCAL/MOL
REMARK 924 INTRA-LIGAND FREE ENERGY PREDICTED BY IDOCK:   -1.44 KCAL/MOL
REMARK 927      BINDING AFFINITY PREDICTED BY RF-SCORE:    0.00 PKD
ROOT
HETATM    1  C   UNL     1     -11.323   9.809  71.012  1.00  0.00    -0.387 C  
HETATM    2  O   UNL     1     -10.784  10.815  70.149  1.00  0.00    -0.188 OA 
ENDROOT
BRANCH   2   3
HETATM    3  C   UNL     1     -11.629  11.413  69.282  1.00  0.00    -0.317 C  
HETATM    4  O   UNL     1     -12.553  10.859  68.705  1.00  0.00    -0.255 OA 
BRANCH   3   5
HETATM    5  C   UNL     1     -11.254  12.843  69.079  1.00  0.00    -0.320 C  
HETATM    6  C   UNL     1     -11.803  13.781  69.890  1.00  0.00    -0.327 C  
HETATM    7  C   UNL     1     -12.894  13.561  70.914  1.00  0.00    -0.298 C  
HETATM    8  N   UNL     1     -11.365  15.088  69.818  1.00  0.00    -0.268 NA 
HETATM    9  C   UNL     1     -10.453  15.579  68.909  1.00  0.00    -0.223 C  
HETATM   10  C   UNL     1     -10.199  17.067  69.006  1.00  0.00    -0.313 C  
HETATM   11  C   UNL     1      -9.859  14.741  68.022  1.00  0.00    -0.218 C  
HETATM   12  C   UNL     1     -10.150  13.227  68.060  1.00  0.00    -0.235 C  
BRANCH  11  13
HETATM   13  C   UNL     1      -9.003  15.330  66.953  1.00  0.00    -0.249 C  
HETATM   14  O   UNL     1      -9.443  16.056  66.068  1.00  0.00    -0.307 OA 
BRANCH  13  15
HETATM   15  O   UNL     1      -7.708  14.934  67.026  1.00  0.00    -0.185 OA 
BRANCH  15  16
HETATM   16  C   UNL     1      -6.966  15.536  68.113  1.00  0.00    -0.122 C  
HETATM   17  C   UNL     1      -6.159  16.705  67.569  1.00  0.00    -0.180 C  
HETATM   18  C   UNL     1      -6.053  14.494  68.754  1.00  0.00    -0.087 C  
ENDBRANCH  15  16
ENDBRANCH  13  15
ENDBRANCH  11  13
BRANCH  12  19
HETATM   19  C   UNL     1     -10.404  12.661  66.674  1.00  0.00    -0.249 A  
HETATM   20  C   UNL     1     -11.491  13.063  65.850  1.00  0.00    -0.337 A  
HETATM   21  C   UNL     1      -9.550  11.711  66.053  1.00  0.00    -0.249 A  
HETATM   22  N   UNL     1     -12.467  13.944  66.103  1.00  0.00    -0.458 NA 
HETATM   23  O   UNL     1     -13.256  13.976  64.967  1.00  0.00    -0.720 OA 
HETATM   24  C   UNL     1      -9.758  11.202  64.743  1.00  0.00    -0.303 A  
HETATM   25  C   UNL     1     -10.830  11.597  63.922  1.00  0.00    -0.471 A  
HETATM   26  C   UNL     1     -11.693  12.542  64.505  1.00  0.00    -0.362 A  
HETATM   27  N   UNL     1     -12.784  13.121  63.988  1.00  0.00    -0.669 NA 
ENDBRANCH  12  19
ENDBRANCH   3   5
ENDBRANCH   2   3
TORSDOF 6
ENDMDL
MODEL        5
REMARK 921   NORMALIZED FREE ENERGY PREDICTED BY IDOCK:   -6.08 KCAL/MOL
REMARK 922        TOTAL FREE ENERGY PREDICTED BY IDOCK:   -9.67 KCAL/MOL
REMARK 923 INTER-LIGAND FREE ENERGY PREDICTED BY IDOCK:   -8.09 KCAL/MOL
REMARK 924 INTRA-LIGAND FREE ENERGY PREDICTED BY IDOCK:   -1.58 KCAL/MOL
REMARK 927      BINDING AFFINITY PREDICTED BY RF-SCORE:    0.00 PKD
ROOT
HETATM    1  C   UNL     1      -6.413  17.242  66.685  1.00  0.00    -0.228 C  
HETATM    2  O   UNL     1      -6.628  15.829  66.753  1.00  0.00    -0.224 OA 
ENDROOT
BRANCH   2   3
HETATM    3  C   UNL     1      -6.769  15.275  67.977  1.00  0.00    -0.144 C  
HETATM    4  O   UNL     1      -5.989  15.418  68.907  1.00  0.00    -0.099 OA 
BRANCH   3   5
HETATM    5  C   UNL     1      -7.987  14.416  68.032  1.00  0.00    -0.139 C  
HETATM    6  C   UNL     1      -7.884  13.118  67.652  1.00  0.00    -0.169 C  
HETATM    7  C   UNL     1      -6.680  12.455  67.021  1.00  0.00    -0.005 C  
HETATM    8  N   UNL     1      -8.956  12.266  67.829  1.00  0.00    -0.169 NA 
HETATM    9  C   UNL     1     -10.203  12.631  68.290  1.00  0.00    -0.239 C  
HETATM   10  C   UNL     1     -11.219  11.511  68.326  1.00  0.00    -0.322 C  
HETATM   11  C   UNL     1     -10.437  13.913  68.672  1.00  0.00    -0.249 C  
HETATM   12  C   UNL     1      -9.302  14.956  68.651  1.00  0.00    -0.194 C  
BRANCH  11  13
HETATM   13  C   UNL     1     -11.834  14.307  69.011  1.00  0.00    -0.335 C  
HETATM   14  O   UNL     1     -12.649  14.675  68.171  1.00  0.00     0.132 OA 
BRANCH  13  15
HETATM   15  O   UNL     1     -12.090  14.275  70.342  1.00  0.00    -0.296 OA 
BRANCH  15  16
HETATM   16  C   UNL     1     -12.697  15.484  70.856  1.00  0.00    -0.468 C  
HETATM   17  C   UNL     1     -11.685  16.210  71.729  1.00  0.00    -0.568 C  
HETATM   18  C   UNL     1     -13.951  15.133  71.653  1.00  0.00    -0.618 C  
ENDBRANCH  15  16
ENDBRANCH  13  15
ENDBRANCH  11  13
BRANCH  12  19
HETATM   19  C   UNL     1      -9.747  16.270  68.034  1.00  0.00    -0.230 A  
HETATM   20  C   UNL     1     -10.182  16.396  66.686  1.00  0.00    -0.294 A  
HETATM   21  C   UNL     1      -9.815  17.488  68.762  1.00  0.00    -0.326 A  
HETATM   22  N   UNL     1     -10.268  15.461  65.731  1.00  0.00    -0.325 NA 
HETATM   23  O   UNL     1     -10.764  16.104  64.611  1.00  0.00    -0.637 OA 
HETATM   24  C   UNL     1     -10.265  18.715  68.205  1.00  0.00    -0.423 A  
HETATM   25  C   UNL     1     -10.698  18.845  66.873  1.00  0.00    -0.447 A  
HETATM   26  C   UNL     1     -10.649  17.656  66.125  1.00  0.00    -0.220 A  
HETATM   27  N   UNL     1     -10.999  17.446  64.850  1.00  0.00    -0.851 NA 
ENDBRANCH  12  19
ENDBRANCH   3   5
ENDBRANCH   2   3
TORSDOF 6
ENDMDL
MODEL        6
REMARK 921   NORMALIZED FREE ENERGY PREDICTED BY IDOCK:   -5.98 KCAL/MOL
REMARK 922        TOTAL FREE ENERGY PREDICTED BY IDOCK:   -9.53 KCAL/MOL
REMARK 923 INTER-LIGAND FREE ENERGY PREDICTED BY IDOCK:   -8.42 KCAL/MOL
REMARK 924 INTRA-LIGAND FREE ENERGY PREDICTED BY IDOCK:   -1.11 KCAL/MOL
REMARK 927      BINDING AFFINITY PREDICTED BY RF-SCORE:    0.00 PKD
ROOT
HETATM    1  C   UNL     1     -12.854  12.311  63.540  1.00  0.00    -0.283 C  
HETATM    2  O   UNL     1     -12.876  12.511  64.957  1.00  0.00    -0.742 OA 
ENDROOT
BRANCH   2   3
HETATM    3  C   UNL     1     -11.719  12.339  65.631  1.00  0.00    -0.382 C  
HETATM    4  O   UNL     1     -11.001  11.353  65.556  1.00  0.00    -0.261 OA 
BRANCH   3   5
HETATM    5  C   UNL     1     -11.451  13.500  66.529  1.00  0.00    -0.365 C  
HETATM    6  C   UNL     1     -10.913  14.624  65.996  1.00  0.00    -0.325 C  
HETATM    7  C   UNL     1     -10.399  14.796  64.583  1.00  0.00    -0.092 C  
HETATM    8  N   UNL     1     -10.789  15.759  66.772  1.00  0.00    -0.295 NA 
HETATM    9  C   UNL     1     -11.087  15.847  68.115  1.00  0.00    -0.338 C  
HETATM   10  C   UNL     1     -10.797  17.193  68.742  1.00  0.00    -0.211 C  
HETATM   11  C   UNL     1     -11.604  14.776  68.769  1.00  0.00    -0.347 C  
HETATM   12  C   UNL     1     -11.918  13.471  68.008  1.00  0.00    -0.372 C  
BRANCH  11  13
HETATM   13  C   UNL     1     -11.764  14.857  70.249  1.00  0.00    -0.303 C  
HETATM   14  O   UNL     1     -10.815  14.976  71.018  1.00  0.00    -0.183 OA 
BRANCH  13  15
HETATM   15  O   UNL     1     -13.050  14.725  70.656  1.00  0.00    -0.356 OA 
BRANCH  15  16
HETATM   16  C   UNL     1     -13.200  14.504  72.078  1.00  0.00    -0.362 C  
HETATM   17  C   UNL     1     -13.990  13.222  72.295  1.00  0.00    -0.559 C  
HETATM   18  C   UNL     1     -13.910  15.696  72.714  1.00  0.00    -0.628 C  
ENDBRANCH  15  16
ENDBRANCH  13  15
ENDBRANCH  11  13
BRANCH  12  19
HETATM   19  C   UNL     1     -11.429  12.244  68.756  1.00  0.00    -0.360 A  
HETATM   20  C   UNL     1     -10.074  11.816  68.760  1.00  0.00    -0.140 A  
HETATM   21  C   UNL     1     -12.276  11.436  69.562  1.00  0.00    -0.303 A  
HETATM   22  N   UNL     1      -9.014  12.346  68.136  1.00  0.00    -0.193 NA 
HETATM   23  O   UNL     1      -7.933  11.557  68.484  1.00  0.00    -0.132 OA 
HETATM   24  C   UNL     1     -11.823  10.308  70.296  1.00  0.00    -0.372 A  
HETATM   25  C   UNL     1     -10.483   9.880  70.306  1.00  0.00    -0.348 A  
HETATM   26  C   UNL     1      -9.616  10.661  69.522  1.00  0.00    -0.031 A  
HETATM   27  N   UNL     1      -8.297  10.527  69.332  1.00  0.00    -0.141 NA 
ENDBRANCH  12  19
ENDBRANCH   3   5
ENDBRANCH   2   3
TORSDOF 6
ENDMDL
MODEL        7
REMARK 921   NORMALIZED FREE ENERGY PREDICTED BY IDOCK:   -5.95 KCAL/MOL
REMARK 922        TOTAL FREE ENERGY PREDICTED BY IDOCK:   -9.49 KCAL/MOL
REMARK 923 INTER-LIGAND FREE ENERGY PREDICTED BY IDOCK:   -8.49 KCAL/MOL
REMARK 924 INTRA-LIGAND FREE ENERGY PREDICTED BY IDOCK:   -1.01 KCAL/MOL
REMARK 927      BINDING AFFINITY PREDICTED BY RF-SCORE:    0.00 PKD
ROOT
HETATM    1  C   UNL     1     -10.510   8.212  67.163  1.00  0.00    -0.326 C  
HETATM    2  O   UNL     1     -11.051   9.474  67.566  1.00  0.00    -0.173 OA 
ENDROOT
BRANCH   2   3
HETATM    3  C   UNL     1     -10.427  10.131  68.566  1.00  0.00    -0.195 C  
HETATM    4  O   UNL     1      -9.738   9.608  69.429  1.00  0.00    -0.173 OA 
BRANCH   3   5
HETATM    5  C   UNL     1     -10.732  11.590  68.513  1.00  0.00    -0.242 C  
HETATM    6  C   UNL     1     -11.569  12.114  69.443  1.00  0.00    -0.317 C  
HETATM    7  C   UNL     1     -12.370  11.346  70.471  1.00  0.00    -0.439 C  
HETATM    8  N   UNL     1     -11.755  13.481  69.504  1.00  0.00    -0.306 NA 
HETATM    9  C   UNL     1     -11.225  14.402  68.626  1.00  0.00    -0.259 C  
HETATM   10  C   UNL     1     -11.641  15.834  68.882  1.00  0.00    -0.400 C  
HETATM   11  C   UNL     1     -10.397  13.994  67.631  1.00  0.00    -0.242 C  
HETATM   12  C   UNL     1      -9.992  12.511  67.508  1.00  0.00    -0.201 C  
BRANCH  11  13
HETATM   13  C   UNL     1      -9.972  14.992  66.608  1.00  0.00    -0.256 C  
HETATM   14  O   UNL     1     -10.700  15.361  65.692  1.00  0.00    -0.330 OA 
BRANCH  13  15
HETATM   15  O   UNL     1      -8.688  15.399  66.759  1.00  0.00    -0.228 OA 
BRANCH  15  16
HETATM   16  C   UNL     1      -8.542  16.821  66.988  1.00  0.00    -0.209 C  
HETATM   17  C   UNL     1      -7.417  17.348  66.111  1.00  0.00    -0.331 C  
HETATM   18  C   UNL     1      -8.250  17.078  68.465  1.00  0.00    -0.259 C  
ENDBRANCH  15  16
ENDBRANCH  13  15
ENDBRANCH  11  13
BRANCH  12  19
HETATM   19  C   UNL     1     -10.083  12.014  66.076  1.00  0.00    -0.257 A  
HETATM   20  C   UNL     1     -11.264  12.097  65.290  1.00  0.00    -0.332 A  
HETATM   21  C   UNL     1      -8.979  11.461  65.373  1.00  0.00    -0.055 A  
HETATM   22  N   UNL     1     -12.471  12.576  65.619  1.00  0.00    -0.611 NA 
HETATM   23  O   UNL     1     -13.257  12.439  64.489  1.00  0.00    -0.834 OA 
HETATM   24  C   UNL     1      -9.042  11.026  64.023  1.00  0.00    -0.115 A  
HETATM   25  C   UNL     1     -10.207  11.108  63.239  1.00  0.00    -0.403 A  
HETATM   26  C   UNL     1     -11.319  11.656  63.903  1.00  0.00    -0.371 A  
HETATM   27  N   UNL     1     -12.555  11.878  63.438  1.00  0.00    -0.623 NA 
ENDBRANCH  12  19
ENDBRANCH   3   5
ENDBRANCH   2   3
TORSDOF 6
ENDMDL
MODEL        8
REMARK 921   NORMALIZED FREE ENERGY PREDICTED BY IDOCK:   -5.91 KCAL/MOL
REMARK 922        TOTAL FREE ENERGY PREDICTED BY IDOCK:   -9.44 KCAL/MOL
REMARK 923 INTER-LIGAND FREE ENERGY PREDICTED BY IDOCK:   -8.38 KCAL/MOL
REMARK 924 INTRA-LIGAND FREE ENERGY PREDICTED BY IDOCK:   -1.06 KCAL/MOL
REMARK 927      BINDING AFFINITY PREDICTED BY RF-SCORE:    0.00 PKD
ROOT
HETATM    1  C   UNL     1      -5.672  14.138  68.259  1.00  0.00    -0.117 C  
HETATM    2  O   UNL     1      -7.022  13.843  67.888  1.00  0.00    -0.123 OA 
ENDROOT
BRANCH   2   3
HETATM    3  C   UNL     1      -7.999  14.612  68.415  1.00  0.00    -0.137 C  
HETATM    4  O   UNL     1      -8.044  14.994  69.575  1.00  0.00    -0.195 OA 
BRANCH   3   5
HETATM    5  C   UNL     1      -9.055  14.895  67.401  1.00  0.00    -0.196 C  
HETATM    6  C   UNL     1      -8.965  16.034  66.669  1.00  0.00    -0.260 C  
HETATM    7  C   UNL     1      -7.970  17.156  66.866  1.00  0.00    -0.250 C  
HETATM    8  N   UNL     1      -9.845  16.250  65.628  1.00  0.00    -0.503 NA 
HETATM    9  C   UNL     1     -10.908  15.437  65.296  1.00  0.00    -0.409 C  
HETATM   10  C   UNL     1     -11.757  15.941  64.150  1.00  0.00    -0.028 C  
HETATM   11  C   UNL     1     -11.121  14.283  65.978  1.00  0.00    -0.319 C  
HETATM   12  C   UNL     1     -10.147  13.840  67.089  1.00  0.00    -0.241 C  
BRANCH  11  13
HETATM   13  C   UNL     1     -12.366  13.513  65.698  1.00  0.00    -0.476 C  
HETATM   14  O   UNL     1     -13.480  14.027  65.679  1.00  0.00    -0.604 OA 
BRANCH  13  15
HETATM   15  O   UNL     1     -12.148  12.186  65.529  1.00  0.00    -0.517 OA 
BRANCH  15  16
HETATM   16  C   UNL     1     -11.027  11.877  64.668  1.00  0.00    -0.316 C  
HETATM   17  C   UNL     1     -11.514  11.819  63.228  1.00  0.00    -0.332 C  
HETATM   18  C   UNL     1     -10.406  10.547  65.088  1.00  0.00    -0.310 C  
ENDBRANCH  15  16
ENDBRANCH  13  15
ENDBRANCH  11  13
BRANCH  12  19
HETATM   19  C   UNL     1     -10.879  13.364  68.331  1.00  0.00    -0.284 A  
HETATM   20  C   UNL     1     -11.581  14.234  69.209  1.00  0.00    -0.306 A  
HETATM   21  C   UNL     1     -10.970  11.997  68.705  1.00  0.00    -0.282 A  
HETATM   22  N   UNL     1     -11.724  15.565  69.151  1.00  0.00    -0.349 NA 
HETATM   23  O   UNL     1     -12.512  15.912  70.234  1.00  0.00    -0.339 OA 
HETATM   24  C   UNL     1     -11.682  11.537  69.845  1.00  0.00    -0.420 A  
HETATM   25  C   UNL     1     -12.381  12.393  70.716  1.00  0.00    -0.377 A  
HETATM   26  C   UNL     1     -12.316  13.754  70.371  1.00  0.00    -0.353 A  
HETATM   27  N   UNL     1     -12.876  14.807  70.980  1.00  0.00    -0.332 NA 
ENDBRANCH  12  19
ENDBRANCH   3   5
ENDBRANCH   2   3
TORSDOF 6
ENDMDL
MODEL        9
REMARK 921   NORMALIZED FREE ENERGY PREDICTED BY IDOCK:   -5.79 KCAL/MOL
REMARK 922        TOTAL FREE ENERGY PREDICTED BY IDOCK:   -9.28 KCAL/MOL
REMARK 923 INTER-LIGAND FREE ENERGY PREDICTED BY IDOCK:   -7.79 KCAL/MOL
REMARK 924 INTRA-LIGAND FREE ENERGY PREDICTED BY IDOCK:   -1.49 KCAL/MOL
REMARK 927      BINDING AFFINITY PREDICTED BY RF-SCORE:    0.00 PKD
ROOT
HETATM    1  C   UNL     1     -11.486  16.310  64.571  1.00  0.00    -0.169 C  
HETATM    2  O   UNL     1     -12.053  15.102  64.055  1.00  0.00    -0.546 OA 
ENDROOT
BRANCH   2   3
HETATM    3  C   UNL     1     -12.464  14.173  64.946  1.00  0.00    -0.401 C  
HETATM    4  O   UNL     1     -13.528  14.198  65.547  1.00  0.00    -0.643 OA 
BRANCH   3   5
HETATM    5  C   UNL     1     -11.417  13.129  65.143  1.00  0.00    -0.327 C  
HETATM    6  C   UNL     1     -11.379  12.077  64.288  1.00  0.00    -0.364 C  
HETATM    7  C   UNL     1     -12.392  11.751  63.213  1.00  0.00    -0.412 C  
HETATM    8  N   UNL     1     -10.337  11.175  64.359  1.00  0.00    -0.321 NA 
HETATM    9  C   UNL     1      -9.334  11.181  65.306  1.00  0.00    -0.219 C  
HETATM   10  C   UNL     1      -8.351  10.037  65.195  1.00  0.00    -0.156 C  
HETATM   11  C   UNL     1      -9.285  12.167  66.237  1.00  0.00    -0.183 C  
HETATM   12  C   UNL     1     -10.309  13.320  66.211  1.00  0.00    -0.290 C  
BRANCH  11  13
HETATM   13  C   UNL     1      -8.286  12.054  67.338  1.00  0.00    -0.171 C  
HETATM   14  O   UNL     1      -8.423  11.290  68.289  1.00  0.00    -0.137 OA 
BRANCH  13  15
HETATM   15  O   UNL     1      -7.250  12.919  67.211  1.00  0.00    -0.143 OA 
BRANCH  15  16
HETATM   16  C   UNL     1      -7.218  13.955  68.220  1.00  0.00    -0.112 C  
HETATM   17  C   UNL     1      -7.099  15.307  67.534  1.00  0.00    -0.224 C  
HETATM   18  C   UNL     1      -6.044  13.718  69.166  1.00  0.00    -0.095 C  
ENDBRANCH  15  16
ENDBRANCH  13  15
ENDBRANCH  11  13
BRANCH  12  19
HETATM   19  C   UNL     1     -10.866  13.618  67.592  1.00  0.00    -0.268 A  
HETATM   20  C   UNL     1     -11.524  12.650  68.397  1.00  0.00    -0.310 A  
HETATM   21  C   UNL     1     -10.737  14.883  68.226  1.00  0.00    -0.249 A  
HETATM   22  N   UNL     1     -11.797  11.367  68.130  1.00  0.00    -0.589 NA 
HETATM   23  O   UNL     1     -12.434  10.870  69.253  1.00  0.00    -0.392 OA 
HETATM   24  C   UNL     1     -11.222  15.163  69.531  1.00  0.00    -0.286 A  
HETATM   25  C   UNL     1     -11.872  14.209  70.334  1.00  0.00    -0.367 A  
HETATM   26  C   UNL     1     -12.011  12.943  69.738  1.00  0.00    -0.296 A  
HETATM   27  N   UNL     1     -12.565  11.831  70.238  1.00  0.00    -0.117 NA 
ENDBRANCH  12  19
ENDBRANCH   3   5
ENDBRANCH   2   3
TORSDOF 6
ENDMDL
MODEL       10
REMARK 921   NORMALIZED FREE ENERGY PREDICTED BY IDOCK:   -5.78 KCAL/MOL
REMARK 922        TOTAL FREE ENERGY PREDICTED BY IDOCK:   -9.26 KCAL/MOL
REMARK 923 INTER-LIGAND FREE ENERGY PREDICTED BY IDOCK:   -7.95 KCAL/MOL
REMARK 924 INTRA-LIGAND FREE ENERGY PREDICTED BY IDOCK:   -1.32 KCAL/MOL
REMARK 927      BINDING AFFINITY PREDICTED BY RF-SCORE:    0.00 PKD
ROOT
HETATM    1  C   UNL     1      -9.610  11.214  62.896  1.00  0.00    -0.348 C  
HETATM    2  O   UNL     1     -10.212  12.325  63.568  1.00  0.00    -0.427 OA 
ENDROOT
BRANCH   2   3
HETATM    3  C   UNL     1     -11.475  12.172  64.022  1.00  0.00    -0.411 C  
HETATM    4  O   UNL     1     -12.417  11.772  63.355  1.00  0.00    -0.555 OA 
BRANCH   3   5
HETATM    5  C   UNL     1     -11.583  12.610  65.444  1.00  0.00    -0.400 C  
HETATM    6  C   UNL     1     -11.883  13.907  65.704  1.00  0.00    -0.371 C  
HETATM    7  C   UNL     1     -11.980  15.030  64.695  1.00  0.00    -0.363 C  
HETATM    8  N   UNL     1     -12.130  14.305  67.002  1.00  0.00    -0.428 NA 
HETATM    9  C   UNL     1     -12.014  13.508  68.121  1.00  0.00    -0.341 C  
HETATM   10  C   UNL     1     -12.280  14.213  69.432  1.00  0.00    -0.329 C  
HETATM   11  C   UNL     1     -11.687  12.197  67.991  1.00  0.00    -0.409 C  
HETATM   12  C   UNL     1     -11.501  11.572  66.593  1.00  0.00    -0.205 C  
BRANCH  11  13
HETATM   13  C   UNL     1     -11.414  11.408  69.225  1.00  0.00    -0.303 C  
HETATM   14  O   UNL     1     -10.296  11.307  69.721  1.00  0.00     0.072 OA 
BRANCH  13  15
HETATM   15  O   UNL     1     -12.509  10.768  69.704  1.00  0.00    -0.289 OA 
BRANCH  15  16
HETATM   16  C   UNL     1     -12.509  10.592  71.141  1.00  0.00    -0.418 C  
HETATM   17  C   UNL     1     -13.194   9.276  71.475  1.00  0.00    -0.433 C  
HETATM   18  C   UNL     1     -13.228  11.765  71.804  1.00  0.00    -0.434 C  
ENDBRANCH  15  16
ENDBRANCH  13  15
ENDBRANCH  11  13
BRANCH  12  19
HETATM   19  C   UNL     1     -10.257  10.706  66.517  1.00  0.00    -0.288 A  
HETATM   20  C   UNL     1      -8.938  11.214  66.666  1.00  0.00    -0.170 A  
HETATM   21  C   UNL     1     -10.299   9.297  66.338  1.00  0.00    -0.238 A  
HETATM   22  N   UNL     1      -8.531  12.473  66.868  1.00  0.00    -0.167 NA 
HETATM   23  O   UNL     1      -7.151  12.419  66.957  1.00  0.00    -0.116 OA 
HETATM   24  C   UNL     1      -9.143   8.472  66.302  1.00  0.00    -0.232 A  
HETATM   25  C   UNL     1      -7.836   8.969  66.451  1.00  0.00    -0.099 A  
HETATM   26  C   UNL     1      -7.758  10.360  66.635  1.00  0.00    -0.117 A  
HETATM   27  N   UNL     1      -6.676  11.128  66.817  1.00  0.00    -0.125 NA 
ENDBRANCH  12  19
ENDBRANCH   3   5
ENDBRANCH   2   3
TORSDOF 6
ENDMDL
MODEL       11
REMARK 921   NORMALIZED FREE ENERGY PREDICTED BY IDOCK:   -5.68 KCAL/MOL
REMARK 922        TOTAL FREE ENERGY PREDICTED BY IDOCK:   -9.13 KCAL/MOL
REMARK 923 INTER-LIGAND FREE ENERGY PREDICTED BY IDOCK:   -7.73 KCAL/MOL
REMARK 924 INTRA-LIGAND FREE ENERGY PREDICTED BY IDOCK:   -1.39 KCAL/MOL
REMARK 927      BINDING AFFINITY PREDICTED BY RF-SCORE:    0.00 PKD
ROOT
HETATM    1  C   UNL     1     -11.586   9.293  71.263  1.00  0.00    -0.349 C  
HETATM    2  O   UNL     1     -11.071  10.380  70.487  1.00  0.00    -0.311 OA 
ENDROOT
BRANCH   2   3
HETATM    3  C   UNL     1     -11.946  11.080  69.734  1.00  0.00    -0.356 C  
HETATM    4  O   UNL     1     -12.728  10.594  68.930  1.00  0.00    -0.070 OA 
BRANCH   3   5
HETATM    5  C   UNL     1     -11.799  12.545  69.974  1.00  0.00    -0.363 C  
HETATM    6  C   UNL     1     -12.433  13.096  71.039  1.00  0.00    -0.318 C  
HETATM    7  C   UNL     1     -13.420  12.409  71.956  1.00  0.00    -0.460 C  
HETATM    8  N   UNL     1     -12.198  14.416  71.367  1.00  0.00    -0.350 NA 
HETATM    9  C   UNL     1     -11.422  15.296  70.643  1.00  0.00    -0.319 C  
HETATM   10  C   UNL     1     -11.385  16.706  71.190  1.00  0.00     0.115 C  
HETATM   11  C   UNL     1     -10.761  14.869  69.537  1.00  0.00    -0.256 C  
HETATM   12  C   UNL     1     -10.823  13.387  69.112  1.00  0.00    -0.156 C  
BRANCH  11  13
HETATM   13  C   UNL     1     -10.063  15.880  68.693  1.00  0.00    -0.216 C  
HETATM   14  O   UNL     1      -8.847  16.041  68.711  1.00  0.00    -0.200 OA 
BRANCH  13  15
HETATM   15  O   UNL     1     -10.912  16.637  67.955  1.00  0.00    -0.355 OA 
BRANCH  15  16
HETATM   16  C   UNL     1     -10.251  17.561  67.058  1.00  0.00    -0.327 C  
HETATM   17  C   UNL     1     -10.755  18.967  67.340  1.00  0.00    -0.559 C  
HETATM   18  C   UNL     1     -10.529  17.162  65.611  1.00  0.00    -0.208 C  
ENDBRANCH  15  16
ENDBRANCH  13  15
ENDBRANCH  11  13
BRANCH  12  19
HETATM   19  C   UNL     1     -11.069  13.232  67.622  1.00  0.00    -0.292 A  
HETATM   20  C   UNL     1     -10.228  12.474  66.763  1.00  0.00    -0.231 A  
HETATM   21  C   UNL     1     -12.191  13.794  66.956  1.00  0.00    -0.381 A  
HETATM   22  N   UNL     1      -9.108  11.798  67.051  1.00  0.00    -0.181 NA 
HETATM   23  O   UNL     1      -8.693  11.224  65.863  1.00  0.00    -0.193 OA 
HETATM   24  C   UNL     1     -12.451  13.625  65.570  1.00  0.00    -0.544 A  
HETATM   25  C   UNL     1     -11.624  12.874  64.716  1.00  0.00    -0.373 A  
HETATM   26  C   UNL     1     -10.505  12.299  65.344  1.00  0.00    -0.269 A  
HETATM   27  N   UNL     1      -9.546  11.528  64.819  1.00  0.00    -0.210 NA 
ENDBRANCH  12  19
ENDBRANCH   3   5
ENDBRANCH   2   3
TORSDOF 6
ENDMDL
MODEL       12
REMARK 921   NORMALIZED FREE ENERGY PREDICTED BY IDOCK:   -5.67 KCAL/MOL
REMARK 922        TOTAL FREE ENERGY PREDICTED BY IDOCK:   -9.11 KCAL/MOL
REMARK 923 INTER-LIGAND FREE ENERGY PREDICTED BY IDOCK:   -7.64 KCAL/MOL
REMARK 924 INTRA-LIGAND FREE ENERGY PREDICTED BY IDOCK:   -1.47 KCAL/MOL
REMARK 927      BINDING AFFINITY PREDICTED BY RF-SCORE:    0.00 PKD
ROOT
HETATM    1  C   UNL     1     -11.481  16.270  64.566  1.00  0.00    -0.169 C  
HETATM    2  O   UNL     1     -12.089  15.059  64.108  1.00  0.00    -0.524 OA 
ENDROOT
BRANCH   2   3
HETATM    3  C   UNL     1     -12.479  14.163  65.041  1.00  0.00    -0.419 C  
HETATM    4  O   UNL     1     -13.525  14.215  65.671  1.00  0.00    -0.576 OA 
BRANCH   3   5
HETATM    5  C   UNL     1     -11.434  13.119  65.242  1.00  0.00    -0.328 C  
HETATM    6  C   UNL     1     -11.357  12.096  64.355  1.00  0.00    -0.344 C  
HETATM    7  C   UNL     1     -12.328  11.799  63.233  1.00  0.00    -0.412 C  
HETATM    8  N   UNL     1     -10.312  11.197  64.435  1.00  0.00    -0.321 NA 
HETATM    9  C   UNL     1      -9.346  11.177  65.418  1.00  0.00    -0.219 C  
HETATM   10  C   UNL     1      -8.351  10.043  65.306  1.00  0.00    -0.157 C  
HETATM   11  C   UNL     1      -9.337  12.133  66.382  1.00  0.00    -0.225 C  
HETATM   12  C   UNL     1     -10.367  13.281  66.356  1.00  0.00    -0.286 C  
BRANCH  11  13
HETATM   13  C   UNL     1      -8.378  11.989  67.514  1.00  0.00    -0.166 C  
HETATM   14  O   UNL     1      -8.566  11.225  68.456  1.00  0.00    -0.149 OA 
BRANCH  13  15
HETATM   15  O   UNL     1      -7.317  12.828  67.427  1.00  0.00    -0.144 OA 
BRANCH  15  16
HETATM   16  C   UNL     1      -7.387  13.965  68.320  1.00  0.00    -0.117 C  
HETATM   17  C   UNL     1      -6.975  15.215  67.557  1.00  0.00    -0.220 C  
HETATM   18  C   UNL     1      -6.475  13.733  69.522  1.00  0.00    -0.105 C  
ENDBRANCH  15  16
ENDBRANCH  13  15
ENDBRANCH  11  13
BRANCH  12  19
HETATM   19  C   UNL     1     -10.976  13.531  67.724  1.00  0.00    -0.284 A  
HETATM   20  C   UNL     1     -10.943  14.792  68.378  1.00  0.00    -0.252 A  
HETATM   21  C   UNL     1     -11.678  12.536  68.456  1.00  0.00    -0.369 A  
HETATM   22  N   UNL     1     -10.392  15.944  67.975  1.00  0.00    -0.256 NA 
HETATM   23  O   UNL     1     -10.658  16.864  68.973  1.00  0.00    -0.323 OA 
HETATM   24  C   UNL     1     -12.282  12.768  69.720  1.00  0.00    -0.213 A  
HETATM   25  C   UNL     1     -12.256  14.014  70.372  1.00  0.00    -0.433 A  
HETATM   26  C   UNL     1     -11.572  15.024  69.671  1.00  0.00    -0.304 A  
HETATM   27  N   UNL     1     -11.380  16.305  70.010  1.00  0.00    -0.318 NA 
ENDBRANCH  12  19
ENDBRANCH   3   5
ENDBRANCH   2   3
TORSDOF 6
ENDMDL
MODEL       13
REMARK 921   NORMALIZED FREE ENERGY PREDICTED BY IDOCK:   -5.65 KCAL/MOL
REMARK 922        TOTAL FREE ENERGY PREDICTED BY IDOCK:   -9.08 KCAL/MOL
REMARK 923 INTER-LIGAND FREE ENERGY PREDICTED BY IDOCK:   -8.53 KCAL/MOL
REMARK 924 INTRA-LIGAND FREE ENERGY PREDICTED BY IDOCK:   -0.56 KCAL/MOL
REMARK 927      BINDING AFFINITY PREDICTED BY RF-SCORE:    0.00 PKD
ROOT
HETATM    1  C   UNL     1      -9.573  11.024  64.454  1.00  0.00    -0.259 C  
HETATM    2  O   UNL     1      -9.966  10.440  65.700  1.00  0.00    -0.241 OA 
ENDROOT
BRANCH   2   3
HETATM    3  C   UNL     1      -9.330  10.859  66.815  1.00  0.00    -0.165 C  
HETATM    4  O   UNL     1      -8.118  10.947  66.942  1.00  0.00    -0.126 OA 
BRANCH   3   5
HETATM    5  C   UNL     1     -10.308  11.154  67.902  1.00  0.00    -0.211 C  
HETATM    6  C   UNL     1     -10.828  10.118  68.607  1.00  0.00    -0.235 C  
HETATM    7  C   UNL     1     -10.642   8.645  68.318  1.00  0.00    -0.181 C  
HETATM    8  N   UNL     1     -11.621  10.370  69.709  1.00  0.00    -0.269 NA 
HETATM    9  C   UNL     1     -12.030  11.616  70.134  1.00  0.00    -0.359 C  
HETATM   10  C   UNL     1     -12.952  11.606  71.333  1.00  0.00    -0.426 C  
HETATM   11  C   UNL     1     -11.599  12.730  69.488  1.00  0.00    -0.342 C  
HETATM   12  C   UNL     1     -10.606  12.619  68.313  1.00  0.00    -0.250 C  
BRANCH  11  13
HETATM   13  C   UNL     1     -12.185  14.045  69.874  1.00  0.00    -0.340 C  
HETATM   14  O   UNL     1     -12.773  14.774  69.081  1.00  0.00     0.076 OA 
BRANCH  13  15
HETATM   15  O   UNL     1     -11.951  14.376  71.168  1.00  0.00    -0.334 OA 
BRANCH  15  16
HETATM   16  C   UNL     1     -12.709  15.518  71.632  1.00  0.00    -0.434 C  
HETATM   17  C   UNL     1     -11.926  16.210  72.738  1.00  0.00    -0.638 C  
HETATM   18  C   UNL     1     -14.076  15.061  72.135  1.00  0.00    -0.629 C  
ENDBRANCH  15  16
ENDBRANCH  13  15
ENDBRANCH  11  13
BRANCH  12  19
HETATM   19  C   UNL     1     -11.015  13.489  67.138  1.00  0.00    -0.302 A  
HETATM   20  C   UNL     1     -10.342  14.688  66.779  1.00  0.00    -0.268 A  
HETATM   21  C   UNL     1     -12.081  13.159  66.259  1.00  0.00    -0.460 A  
HETATM   22  N   UNL     1      -9.293  15.281  67.363  1.00  0.00    -0.196 NA 
HETATM   23  O   UNL     1      -9.023  16.408  66.610  1.00  0.00    -0.217 OA 
HETATM   24  C   UNL     1     -12.449  13.946  65.136  1.00  0.00    -0.479 A  
HETATM   25  C   UNL     1     -11.785  15.132  64.774  1.00  0.00    -0.331 A  
HETATM   26  C   UNL     1     -10.720  15.485  65.620  1.00  0.00    -0.366 A  
HETATM   27  N   UNL     1      -9.893  16.535  65.542  1.00  0.00    -0.542 NA 
ENDBRANCH  12  19
ENDBRANCH   3   5
ENDBRANCH   2   3
TORSDOF 6
ENDMDL
MODEL       14
REMARK 921   NORMALIZED FREE ENERGY PREDICTED BY IDOCK:   -5.57 KCAL/MOL
REMARK 922        TOTAL FREE ENERGY PREDICTED BY IDOCK:   -8.98 KCAL/MOL
REMARK 923 INTER-LIGAND FREE ENERGY PREDICTED BY IDOCK:   -7.36 KCAL/MOL
REMARK 924 INTRA-LIGAND FREE ENERGY PREDICTED BY IDOCK:   -1.63 KCAL/MOL
REMARK 927      BINDING AFFINITY PREDICTED BY RF-SCORE:    0.00 PKD
ROOT
HETATM    1  C   UNL     1      -6.297  11.402  66.739  1.00  0.00    -0.142 C  
HETATM    2  O   UNL     1      -6.239  12.806  67.010  1.00  0.00    -0.252 OA 
ENDROOT
BRANCH   2   3
HETATM    3  C   UNL     1      -7.111  13.306  67.912  1.00  0.00    -0.133 C  
HETATM    4  O   UNL     1      -7.098  13.068  69.110  1.00  0.00    -0.069 OA 
BRANCH   3   5
HETATM    5  C   UNL     1      -8.138  14.155  67.241  1.00  0.00    -0.188 C  
HETATM    6  C   UNL     1      -7.913  15.489  67.140  1.00  0.00    -0.221 C  
HETATM    7  C   UNL     1      -6.780  16.264  67.776  1.00  0.00    -0.162 C  
HETATM    8  N   UNL     1      -8.775  16.274  66.400  1.00  0.00    -0.291 NA 
HETATM    9  C   UNL     1      -9.938  15.841  65.800  1.00  0.00    -0.358 C  
HETATM   10  C   UNL     1     -10.733  16.924  65.104  1.00  0.00    -0.118 C  
HETATM   11  C   UNL     1     -10.287  14.531  65.859  1.00  0.00    -0.332 C  
HETATM   12  C   UNL     1      -9.361  13.505  66.544  1.00  0.00    -0.227 C  
BRANCH  11  13
HETATM   13  C   UNL     1     -11.625  14.129  65.339  1.00  0.00    -0.334 C  
HETATM   14  O   UNL     1     -12.651  14.199  66.008  1.00  0.00    -0.478 OA 
BRANCH  13  15
HETATM   15  O   UNL     1     -11.580  13.624  64.082  1.00  0.00    -0.383 OA 
BRANCH  15  16
HETATM   16  C   UNL     1     -11.641  12.180  64.022  1.00  0.00    -0.423 C  
HETATM   17  C   UNL     1     -10.396  11.664  63.317  1.00  0.00    -0.444 C  
HETATM   18  C   UNL     1     -12.905  11.747  63.284  1.00  0.00    -0.224 C  
ENDBRANCH  15  16
ENDBRANCH  13  15
ENDBRANCH  11  13
BRANCH  12  19
HETATM   19  C   UNL     1     -10.129  12.566  67.457  1.00  0.00    -0.207 A  
HETATM   20  C   UNL     1     -10.850  13.001  68.602  1.00  0.00    -0.259 A  
HETATM   21  C   UNL     1     -10.237  11.169  67.224  1.00  0.00    -0.227 A  
HETATM   22  N   UNL     1     -10.984  14.237  69.102  1.00  0.00    -0.259 NA 
HETATM   23  O   UNL     1     -11.799  14.112  70.213  1.00  0.00    -0.287 OA 
HETATM   24  C   UNL     1     -10.982  10.287  68.051  1.00  0.00    -0.345 A  
HETATM   25  C   UNL     1     -11.700  10.712  69.183  1.00  0.00    -0.324 A  
HETATM   26  C   UNL     1     -11.619  12.092  69.440  1.00  0.00    -0.330 A  
HETATM   27  N   UNL     1     -12.190  12.803  70.421  1.00  0.00    -0.338 NA 
ENDBRANCH  12  19
ENDBRANCH   3   5
ENDBRANCH   2   3
TORSDOF 6
ENDMDL
MODEL       15
REMARK 921   NORMALIZED FREE ENERGY PREDICTED BY IDOCK:   -5.57 KCAL/MOL
REMARK 922        TOTAL FREE ENERGY PREDICTED BY IDOCK:   -8.98 KCAL/MOL
REMARK 923 INTER-LIGAND FREE ENERGY PREDICTED BY IDOCK:   -7.54 KCAL/MOL
REMARK 924 INTRA-LIGAND FREE ENERGY PREDICTED BY IDOCK:   -1.43 KCAL/MOL
REMARK 927      BINDING AFFINITY PREDICTED BY RF-SCORE:    0.00 PKD
ROOT
HETATM    1  C   UNL     1     -11.579  15.747  64.344  1.00  0.00    -0.240 C  
HETATM    2  O   UNL     1     -10.495  14.943  64.820  1.00  0.00    -0.398 OA 
ENDROOT
BRANCH   2   3
HETATM    3  C   UNL     1      -9.828  15.375  65.912  1.00  0.00    -0.356 C  
HETATM    4  O   UNL     1      -8.805  16.043  65.891  1.00  0.00    -0.311 OA 
BRANCH   3   5
HETATM    5  C   UNL     1     -10.480  14.882  67.160  1.00  0.00    -0.271 C  
HETATM    6  C   UNL     1     -10.890  15.790  68.080  1.00  0.00    -0.307 C  
HETATM    7  C   UNL     1     -10.628  17.279  68.059  1.00  0.00    -0.394 C  
HETATM    8  N   UNL     1     -11.622  15.372  69.174  1.00  0.00    -0.318 NA 
HETATM    9  C   UNL     1     -11.917  14.062  69.488  1.00  0.00    -0.339 C  
HETATM   10  C   UNL     1     -12.680  13.877  70.781  1.00  0.00    -0.383 C  
HETATM   11  C   UNL     1     -11.530  13.060  68.658  1.00  0.00    -0.344 C  
HETATM   12  C   UNL     1     -10.812  13.377  67.330  1.00  0.00    -0.279 C  
BRANCH  11  13
HETATM   13  C   UNL     1     -11.725  11.652  69.107  1.00  0.00    -0.326 C  
HETATM   14  O   UNL     1     -12.527  10.887  68.581  1.00  0.00    -0.418 OA 
BRANCH  13  15
HETATM   15  O   UNL     1     -10.974  11.327  70.187  1.00  0.00    -0.079 OA 
BRANCH  15  16
HETATM   16  C   UNL     1     -10.630   9.923  70.266  1.00  0.00    -0.301 C  
HETATM   17  C   UNL     1     -11.170   9.358  71.571  1.00  0.00    -0.457 C  
HETATM   18  C   UNL     1      -9.114   9.758  70.186  1.00  0.00    -0.240 C  
ENDBRANCH  15  16
ENDBRANCH  13  15
ENDBRANCH  11  13
BRANCH  12  19
HETATM   19  C   UNL     1      -9.609  12.479  67.106  1.00  0.00    -0.208 A  
HETATM   20  C   UNL     1      -9.543  11.498  66.079  1.00  0.00    -0.228 A  
HETATM   21  C   UNL     1      -8.417  12.569  67.873  1.00  0.00    -0.171 A  
HETATM   22  N   UNL     1     -10.465  11.161  65.167  1.00  0.00    -0.283 NA 
HETATM   23  O   UNL     1      -9.892  10.164  64.397  1.00  0.00    -0.322 OA 
HETATM   24  C   UNL     1      -7.272  11.759  67.648  1.00  0.00    -0.111 A  
HETATM   25  C   UNL     1      -7.200  10.788  66.632  1.00  0.00    -0.134 A  
HETATM   26  C   UNL     1      -8.363  10.677  65.850  1.00  0.00    -0.161 A  
HETATM   27  N   UNL     1      -8.607   9.868  64.811  1.00  0.00    -0.164 NA 
ENDBRANCH  12  19
ENDBRANCH   3   5
ENDBRANCH   2   3
TORSDOF 6
ENDMDL
MODEL       16
REMARK 921   NORMALIZED FREE ENERGY PREDICTED BY IDOCK:   -5.53 KCAL/MOL
REMARK 922        TOTAL FREE ENERGY PREDICTED BY IDOCK:   -8.92 KCAL/MOL
REMARK 923 INTER-LIGAND FREE ENERGY PREDICTED BY IDOCK:   -8.28 KCAL/MOL
REMARK 924 INTRA-LIGAND FREE ENERGY PREDICTED BY IDOCK:   -0.64 KCAL/MOL
REMARK 927      BINDING AFFINITY PREDICTED BY RF-SCORE:    0.00 PKD
ROOT
HETATM    1  C   UNL     1      -9.949   9.607  69.665  1.00  0.00    -0.221 C  
HETATM    2  O   UNL     1     -10.766  10.669  70.167  1.00  0.00    -0.238 OA 
ENDROOT
BRANCH   2   3
HETATM    3  C   UNL     1     -11.586  11.294  69.295  1.00  0.00    -0.322 C  
HETATM    4  O   UNL     1     -12.500  10.761  68.683  1.00  0.00    -0.348 OA 
BRANCH   3   5
HETATM    5  C   UNL     1     -11.195  12.725  69.132  1.00  0.00    -0.294 C  
HETATM    6  C   UNL     1     -11.749  13.648  69.958  1.00  0.00    -0.249 C  
HETATM    7  C   UNL     1     -12.860  13.413  70.958  1.00  0.00    -0.329 C  
HETATM    8  N   UNL     1     -11.299  14.952  69.925  1.00  0.00    -0.265 NA 
HETATM    9  C   UNL     1     -10.368  15.457  69.043  1.00  0.00    -0.243 C  
HETATM   10  C   UNL     1     -10.103  16.940  69.181  1.00  0.00    -0.269 C  
HETATM   11  C   UNL     1      -9.766  14.636  68.146  1.00  0.00    -0.220 C  
HETATM   12  C   UNL     1     -10.071  13.124  68.142  1.00  0.00    -0.237 C  
BRANCH  11  13
HETATM   13  C   UNL     1      -8.887  15.243  67.106  1.00  0.00    -0.212 C  
HETATM   14  O   UNL     1      -7.757  15.658  67.345  1.00  0.00    -0.152 OA 
BRANCH  13  15
HETATM   15  O   UNL     1      -9.484  15.344  65.893  1.00  0.00    -0.327 OA 
BRANCH  15  16
HETATM   16  C   UNL     1     -10.487  16.384  65.813  1.00  0.00    -0.354 C  
HETATM   17  C   UNL     1     -11.182  16.294  64.463  1.00  0.00    -0.218 C  
HETATM   18  C   UNL     1      -9.830  17.750  65.999  1.00  0.00    -0.181 C  
ENDBRANCH  15  16
ENDBRANCH  13  15
ENDBRANCH  11  13
BRANCH  12  19
HETATM   19  C   UNL     1     -10.307  12.594  66.738  1.00  0.00    -0.246 A  
HETATM   20  C   UNL     1     -11.470  12.885  65.975  1.00  0.00    -0.340 A  
HETATM   21  C   UNL     1      -9.362  11.796  66.039  1.00  0.00    -0.231 A  
HETATM   22  N   UNL     1     -12.542  13.617  66.307  1.00  0.00    -0.353 NA 
HETATM   23  O   UNL     1     -13.375  13.596  65.203  1.00  0.00    -0.677 OA 
HETATM   24  C   UNL     1      -9.556  11.325  64.714  1.00  0.00    -0.269 A  
HETATM   25  C   UNL     1     -10.704  11.612  63.952  1.00  0.00    -0.459 A  
HETATM   26  C   UNL     1     -11.658  12.405  64.613  1.00  0.00    -0.343 A  
HETATM   27  N   UNL     1     -12.836  12.857  64.165  1.00  0.00    -0.688 NA 
ENDBRANCH  12  19
ENDBRANCH   3   5
ENDBRANCH   2   3
TORSDOF 6
ENDMDL
MODEL       17
REMARK 921   NORMALIZED FREE ENERGY PREDICTED BY IDOCK:   -5.52 KCAL/MOL
REMARK 922        TOTAL FREE ENERGY PREDICTED BY IDOCK:   -8.92 KCAL/MOL
REMARK 923 INTER-LIGAND FREE ENERGY PREDICTED BY IDOCK:   -7.65 KCAL/MOL
REMARK 924 INTRA-LIGAND FREE ENERGY PREDICTED BY IDOCK:   -1.26 KCAL/MOL
REMARK 927      BINDING AFFINITY PREDICTED BY RF-SCORE:    0.00 PKD
ROOT
HETATM    1  C   UNL     1     -11.269  15.716  64.607  1.00  0.00    -0.369 C  
HETATM    2  O   UNL     1     -11.529  15.005  65.822  1.00  0.00    -0.327 OA 
ENDROOT
BRANCH   2   3
HETATM    3  C   UNL     1     -12.281  13.886  65.743  1.00  0.00    -0.460 C  
HETATM    4  O   UNL     1     -13.502  13.862  65.694  1.00  0.00    -0.590 OA 
BRANCH   3   5
HETATM    5  C   UNL     1     -11.422  12.667  65.777  1.00  0.00    -0.399 C  
HETATM    6  C   UNL     1     -11.382  11.869  64.682  1.00  0.00    -0.293 C  
HETATM    7  C   UNL     1     -12.244  11.992  63.444  1.00  0.00    -0.627 C  
HETATM    8  N   UNL     1     -10.489  10.818  64.633  1.00  0.00    -0.329 NA 
HETATM    9  C   UNL     1      -9.659  10.423  65.660  1.00  0.00    -0.226 C  
HETATM   10  C   UNL     1      -8.826   9.195  65.365  1.00  0.00    -0.236 C  
HETATM   11  C   UNL     1      -9.633  11.125  66.821  1.00  0.00    -0.215 C  
HETATM   12  C   UNL     1     -10.483  12.402  66.983  1.00  0.00    -0.238 C  
BRANCH  11  13
HETATM   13  C   UNL     1      -8.846  10.579  67.963  1.00  0.00    -0.131 C  
HETATM   14  O   UNL     1      -7.843  11.130  68.408  1.00  0.00    -0.117 OA 
BRANCH  13  15
HETATM   15  O   UNL     1      -9.313   9.390  68.414  1.00  0.00    -0.134 OA 
BRANCH  15  16
HETATM   16  C   UNL     1      -8.759   8.981  69.687  1.00  0.00    -0.143 C  
HETATM   17  C   UNL     1      -8.460   7.491  69.638  1.00  0.00    -0.135 C  
HETATM   18  C   UNL     1      -9.746   9.303  70.807  1.00  0.00    -0.348 C  
ENDBRANCH  15  16
ENDBRANCH  13  15
ENDBRANCH  11  13
BRANCH  12  19
HETATM   19  C   UNL     1     -11.210  12.437  68.315  1.00  0.00    -0.309 A  
HETATM   20  C   UNL     1     -11.178  13.551  69.197  1.00  0.00    -0.260 A  
HETATM   21  C   UNL     1     -12.031  11.375  68.781  1.00  0.00    -0.353 A  
HETATM   22  N   UNL     1     -10.532  14.717  69.069  1.00  0.00    -0.244 NA 
HETATM   23  O   UNL     1     -10.848  15.454  70.196  1.00  0.00    -0.273 OA 
HETATM   24  C   UNL     1     -12.744  11.411  70.009  1.00  0.00    -0.015 A  
HETATM   25  C   UNL     1     -12.719  12.511  70.885  1.00  0.00    -0.270 A  
HETATM   26  C   UNL     1     -11.919  13.583  70.450  1.00  0.00    -0.295 A  
HETATM   27  N   UNL     1     -11.697  14.764  71.042  1.00  0.00    -0.315 NA 
ENDBRANCH  12  19
ENDBRANCH   3   5
ENDBRANCH   2   3
TORSDOF 6
ENDMDL
MODEL       18
REMARK 921   NORMALIZED FREE ENERGY PREDICTED BY IDOCK:   -5.52 KCAL/MOL
REMARK 922        TOTAL FREE ENERGY PREDICTED BY IDOCK:   -8.91 KCAL/MOL
REMARK 923 INTER-LIGAND FREE ENERGY PREDICTED BY IDOCK:   -7.62 KCAL/MOL
REMARK 924 INTRA-LIGAND FREE ENERGY PREDICTED BY IDOCK:   -1.28 KCAL/MOL
REMARK 927      BINDING AFFINITY PREDICTED BY RF-SCORE:    0.00 PKD
ROOT
HETATM    1  C   UNL     1     -13.056  12.360  71.699  1.00  0.00    -0.307 C  
HETATM    2  O   UNL     1     -12.154  12.055  70.631  1.00  0.00    -0.373 OA 
ENDROOT
BRANCH   2   3
HETATM    3  C   UNL     1     -12.346  10.899  69.960  1.00  0.00    -0.313 C  
HETATM    4  O   UNL     1     -13.401  10.283  69.909  1.00  0.00     0.104 OA 
BRANCH   3   5
HETATM    5  C   UNL     1     -11.078  10.438  69.324  1.00  0.00    -0.303 C  
HETATM    6  C   UNL     1     -10.260   9.616  70.026  1.00  0.00    -0.255 C  
HETATM    7  C   UNL     1     -10.412   9.215  71.477  1.00  0.00    -0.422 C  
HETATM    8  N   UNL     1      -9.156   9.061  69.411  1.00  0.00    -0.143 NA 
HETATM    9  C   UNL     1      -8.730   9.335  68.129  1.00  0.00    -0.125 C  
HETATM   10  C   UNL     1      -7.449   8.639  67.724  1.00  0.00    -0.097 C  
HETATM   11  C   UNL     1      -9.450  10.170  67.338  1.00  0.00    -0.175 C  
HETATM   12  C   UNL     1     -10.778  10.772  67.839  1.00  0.00    -0.282 C  
BRANCH  11  13
HETATM   13  C   UNL     1      -8.878  10.567  66.020  1.00  0.00    -0.165 C  
HETATM   14  O   UNL     1      -7.863  11.249  65.910  1.00  0.00    -0.040 OA 
BRANCH  13  15
HETATM   15  O   UNL     1      -9.623  10.152  64.966  1.00  0.00    -0.253 OA 
BRANCH  15  16
HETATM   16  C   UNL     1      -9.227  10.729  63.699  1.00  0.00    -0.248 C  
HETATM   17  C   UNL     1     -10.318  11.680  63.230  1.00  0.00    -0.444 C  
HETATM   18  C   UNL     1      -8.994   9.619  62.677  1.00  0.00    -0.274 C  
ENDBRANCH  15  16
ENDBRANCH  13  15
ENDBRANCH  11  13
BRANCH  12  19
HETATM   19  C   UNL     1     -10.881  12.256  67.537  1.00  0.00    -0.271 A  
HETATM   20  C   UNL     1     -11.719  12.794  66.524  1.00  0.00    -0.400 A  
HETATM   21  C   UNL     1     -10.181  13.250  68.273  1.00  0.00    -0.250 A  
HETATM   22  N   UNL     1     -12.526  12.159  65.664  1.00  0.00    -0.349 NA 
HETATM   23  O   UNL     1     -13.127  13.147  64.904  1.00  0.00    -0.744 OA 
HETATM   24  C   UNL     1     -10.297  14.643  68.023  1.00  0.00    -0.235 A  
HETATM   25  C   UNL     1     -11.127  15.182  67.023  1.00  0.00    -0.328 A  
HETATM   26  C   UNL     1     -11.839  14.225  66.279  1.00  0.00    -0.406 A  
HETATM   27  N   UNL     1     -12.709  14.410  65.278  1.00  0.00    -0.524 NA 
ENDBRANCH  12  19
ENDBRANCH   3   5
ENDBRANCH   2   3
TORSDOF 6
ENDMDL
MODEL       19
REMARK 921   NORMALIZED FREE ENERGY PREDICTED BY IDOCK:   -5.50 KCAL/MOL
REMARK 922        TOTAL FREE ENERGY PREDICTED BY IDOCK:   -8.88 KCAL/MOL
REMARK 923 INTER-LIGAND FREE ENERGY PREDICTED BY IDOCK:   -7.47 KCAL/MOL
REMARK 924 INTRA-LIGAND FREE ENERGY PREDICTED BY IDOCK:   -1.41 KCAL/MOL
REMARK 927      BINDING AFFINITY PREDICTED BY RF-SCORE:    0.00 PKD
ROOT
HETATM    1  C   UNL     1      -6.859  15.474  70.134  1.00  0.00     0.070 C  
HETATM    2  O   UNL     1      -8.055  15.044  69.477  1.00  0.00    -0.195 OA 
ENDROOT
BRANCH   2   3
HETATM    3  C   UNL     1      -7.922  14.316  68.347  1.00  0.00    -0.143 C  
HETATM    4  O   UNL     1      -7.050  13.483  68.147  1.00  0.00    -0.090 OA 
BRANCH   3   5
HETATM    5  C   UNL     1      -8.956  14.700  67.343  1.00  0.00    -0.202 C  
HETATM    6  C   UNL     1      -8.756  15.815  66.598  1.00  0.00    -0.288 C  
HETATM    7  C   UNL     1      -7.645  16.828  66.769  1.00  0.00    -0.283 C  
HETATM    8  N   UNL     1      -9.623  16.114  65.566  1.00  0.00    -0.444 NA 
HETATM    9  C   UNL     1     -10.770  15.415  65.256  1.00  0.00    -0.421 C  
HETATM   10  C   UNL     1     -11.577  15.996  64.116  1.00  0.00    -0.007 C  
HETATM   11  C   UNL     1     -11.095  14.297  65.954  1.00  0.00    -0.310 C  
HETATM   12  C   UNL     1     -10.158  13.764  67.057  1.00  0.00    -0.256 C  
BRANCH  11  13
HETATM   13  C   UNL     1     -12.419  13.661  65.699  1.00  0.00    -0.496 C  
HETATM   14  O   UNL     1     -13.482  14.265  65.802  1.00  0.00    -0.355 OA 
BRANCH  13  15
HETATM   15  O   UNL     1     -12.330  12.341  65.403  1.00  0.00    -0.582 OA 
BRANCH  15  16
HETATM   16  C   UNL     1     -11.654  12.060  64.154  1.00  0.00    -0.379 C  
HETATM   17  C   UNL     1     -12.697  11.786  63.082  1.00  0.00    -0.179 C  
HETATM   18  C   UNL     1     -10.723  10.863  64.329  1.00  0.00    -0.241 C  
ENDBRANCH  15  16
ENDBRANCH  13  15
ENDBRANCH  11  13
BRANCH  12  19
HETATM   19  C   UNL     1     -10.919  13.381  68.314  1.00  0.00    -0.282 A  
HETATM   20  C   UNL     1     -11.032  12.045  68.787  1.00  0.00    -0.239 A  
HETATM   21  C   UNL     1     -11.550  14.331  69.161  1.00  0.00    -0.346 A  
HETATM   22  N   UNL     1     -10.548  10.914  68.258  1.00  0.00    -0.178 NA 
HETATM   23  O   UNL     1     -10.926   9.899  69.118  1.00  0.00    -0.224 OA 
HETATM   24  C   UNL     1     -12.233  13.988  70.358  1.00  0.00    -0.433 A  
HETATM   25  C   UNL     1     -12.346  12.669  70.832  1.00  0.00    -0.352 A  
HETATM   26  C   UNL     1     -11.728  11.703  70.019  1.00  0.00    -0.321 A  
HETATM   27  N   UNL     1     -11.646  10.378  70.196  1.00  0.00    -0.289 NA 
ENDBRANCH  12  19
ENDBRANCH   3   5
ENDBRANCH   2   3
TORSDOF 6
ENDMDL
MODEL       20
REMARK 921   NORMALIZED FREE ENERGY PREDICTED BY IDOCK:   -5.50 KCAL/MOL
REMARK 922        TOTAL FREE ENERGY PREDICTED BY IDOCK:   -8.88 KCAL/MOL
REMARK 923 INTER-LIGAND FREE ENERGY PREDICTED BY IDOCK:   -7.85 KCAL/MOL
REMARK 924 INTRA-LIGAND FREE ENERGY PREDICTED BY IDOCK:   -1.02 KCAL/MOL
REMARK 927      BINDING AFFINITY PREDICTED BY RF-SCORE:    0.00 PKD
ROOT
HETATM    1  C   UNL     1     -12.204  16.182  73.062  1.00  0.00    -0.541 C  
HETATM    2  O   UNL     1     -11.904  15.831  71.707  1.00  0.00    -0.378 OA 
ENDROOT
BRANCH   2   3
HETATM    3  C   UNL     1     -12.894  15.287  70.968  1.00  0.00    -0.440 C  
HETATM    4  O   UNL     1     -14.064  15.640  70.990  1.00  0.00    -0.499 OA 
BRANCH   3   5
HETATM    5  C   UNL     1     -12.381  14.151  70.149  1.00  0.00    -0.413 C  
HETATM    6  C   UNL     1     -12.379  12.907  70.691  1.00  0.00    -0.302 C  
HETATM    7  C   UNL     1     -12.709  12.547  72.123  1.00  0.00    -0.027 C  
HETATM    8  N   UNL     1     -12.045  11.820  69.909  1.00  0.00    -0.303 NA 
HETATM    9  C   UNL     1     -11.610  11.876  68.602  1.00  0.00    -0.310 C  
HETATM   10  C   UNL     1     -11.247  10.538  67.997  1.00  0.00    -0.361 C  
HETATM   11  C   UNL     1     -11.539  13.070  67.960  1.00  0.00    -0.383 C  
HETATM   12  C   UNL     1     -11.998  14.365  68.662  1.00  0.00    -0.332 C  
BRANCH  11  13
HETATM   13  C   UNL     1     -10.915  13.112  66.607  1.00  0.00    -0.283 C  
HETATM   14  O   UNL     1      -9.748  13.438  66.418  1.00  0.00    -0.270 OA 
BRANCH  13  15
HETATM   15  O   UNL     1     -11.783  12.813  65.609  1.00  0.00    -0.355 OA 
BRANCH  15  16
HETATM   16  C   UNL     1     -11.147  12.501  64.347  1.00  0.00    -0.339 C  
HETATM   17  C   UNL     1     -12.147  12.725  63.223  1.00  0.00    -0.524 C  
HETATM   18  C   UNL     1     -10.656  11.055  64.360  1.00  0.00    -0.395 C  
ENDBRANCH  15  16
ENDBRANCH  13  15
ENDBRANCH  11  13
BRANCH  12  19
HETATM   19  C   UNL     1     -11.010  15.500  68.465  1.00  0.00    -0.288 A  
HETATM   20  C   UNL     1      -9.679  15.477  68.963  1.00  0.00    -0.237 A  
HETATM   21  C   UNL     1     -11.310  16.673  67.722  1.00  0.00     0.058 A  
HETATM   22  N   UNL     1      -9.057  14.531  69.679  1.00  0.00     0.337 NA 
HETATM   23  O   UNL     1      -7.771  14.995  69.889  1.00  0.00    -0.140 OA 
HETATM   24  C   UNL     1     -10.382  17.725  67.501  1.00  0.00    -0.371 A  
HETATM   25  C   UNL     1      -9.063  17.707  67.989  1.00  0.00    -0.267 A  
HETATM   26  C   UNL     1      -8.731  16.556  68.725  1.00  0.00    -0.259 A  
HETATM   27  N   UNL     1      -7.568  16.232  69.306  1.00  0.00    -0.232 NA 
ENDBRANCH  12  19
ENDBRANCH   3   5
ENDBRANCH   2   3
TORSDOF 6
ENDMDL
MODEL       21
REMARK 921   NORMALIZED FREE ENERGY PREDICTED BY IDOCK:   -5.41 KCAL/MOL
REMARK 922        TOTAL FREE ENERGY PREDICTED BY IDOCK:   -8.76 KCAL/MOL
REMARK 923 INTER-LIGAND FREE ENERGY PREDICTED BY IDOCK:   -7.28 KCAL/MOL
REMARK 924 INTRA-LIGAND FREE ENERGY PREDICTED BY IDOCK:   -1.48 KCAL/MOL
REMARK 927      BINDING AFFINITY PREDICTED BY RF-SCORE:    0.00 PKD
ROOT
HETATM    1  C   UNL     1     -11.934  13.249  63.633  1.00  0.00    -0.486 C  
HETATM    2  O   UNL     1     -10.868  13.820  64.399  1.00  0.00    -0.395 OA 
ENDROOT
BRANCH   2   3
HETATM    3  C   UNL     1     -11.103  14.076  65.704  1.00  0.00    -0.302 C  
HETATM    4  O   UNL     1     -12.131  14.565  66.150  1.00  0.00    -0.367 OA 
BRANCH   3   5
HETATM    5  C   UNL     1      -9.914  13.731  66.534  1.00  0.00    -0.290 C  
HETATM    6  C   UNL     1      -9.819  12.477  67.044  1.00  0.00    -0.217 C  
HETATM    7  C   UNL     1     -10.878  11.399  66.992  1.00  0.00    -0.331 C  
HETATM    8  N   UNL     1      -8.664  12.088  67.693  1.00  0.00    -0.158 NA 
HETATM    9  C   UNL     1      -7.585  12.901  67.966  1.00  0.00    -0.137 C  
HETATM   10  C   UNL     1      -6.474  12.239  68.750  1.00  0.00    -0.082 C  
HETATM   11  C   UNL     1      -7.577  14.188  67.534  1.00  0.00    -0.200 C  
HETATM   12  C   UNL     1      -8.743  14.736  66.685  1.00  0.00    -0.229 C  
BRANCH  11  13
HETATM   13  C   UNL     1      -6.471  15.080  67.983  1.00  0.00    -0.147 C  
HETATM   14  O   UNL     1      -5.443  15.249  67.335  1.00  0.00    -0.338 OA 
BRANCH  13  15
HETATM   15  O   UNL     1      -6.691  15.634  69.201  1.00  0.00    -0.130 OA 
BRANCH  15  16
HETATM   16  C   UNL     1      -5.745  16.669  69.559  1.00  0.00    -0.176 C  
HETATM   17  C   UNL     1      -5.285  16.440  70.991  1.00  0.00    -0.104 C  
HETATM   18  C   UNL     1      -6.400  18.040  69.409  1.00  0.00    -0.243 C  
ENDBRANCH  15  16
ENDBRANCH  13  15
ENDBRANCH  11  13
BRANCH  12  19
HETATM   19  C   UNL     1      -9.198  16.105  67.160  1.00  0.00    -0.220 A  
HETATM   20  C   UNL     1      -8.723  17.324  66.606  1.00  0.00    -0.257 A  
HETATM   21  C   UNL     1     -10.179  16.291  68.170  1.00  0.00    -0.258 A  
HETATM   22  N   UNL     1      -7.823  17.522  65.635  1.00  0.00    -0.407 NA 
HETATM   23  O   UNL     1      -7.737  18.893  65.468  1.00  0.00    -0.434 OA 
HETATM   24  C   UNL     1     -10.639  17.565  68.596  1.00  0.00    -0.288 A  
HETATM   25  C   UNL     1     -10.175  18.775  68.051  1.00  0.00    -0.438 A  
HETATM   26  C   UNL     1      -9.206  18.627  67.043  1.00  0.00    -0.291 A  
HETATM   27  N   UNL     1      -8.582  19.570  66.327  1.00  0.00    -0.357 NA 
ENDBRANCH  12  19
ENDBRANCH   3   5
ENDBRANCH   2   3
TORSDOF 6
ENDMDL
MODEL       22
REMARK 921   NORMALIZED FREE ENERGY PREDICTED BY IDOCK:   -5.40 KCAL/MOL
REMARK 922        TOTAL FREE ENERGY PREDICTED BY IDOCK:   -8.75 KCAL/MOL
REMARK 923 INTER-LIGAND FREE ENERGY PREDICTED BY IDOCK:   -7.40 KCAL/MOL
REMARK 924 INTRA-LIGAND FREE ENERGY PREDICTED BY IDOCK:   -1.35 KCAL/MOL
REMARK 927      BINDING AFFINITY PREDICTED BY RF-SCORE:    0.00 PKD
ROOT
HETATM    1  C   UNL     1     -12.383  12.600  63.755  1.00  0.00    -0.478 C  
HETATM    2  O   UNL     1     -12.314  12.016  65.060  1.00  0.00    -0.399 OA 
ENDROOT
BRANCH   2   3
HETATM    3  C   UNL     1     -11.161  12.160  65.749  1.00  0.00    -0.339 C  
HETATM    4  O   UNL     1     -10.046  12.209  65.251  1.00  0.00    -0.261 OA 
BRANCH   3   5
HETATM    5  C   UNL     1     -11.423  12.200  67.217  1.00  0.00    -0.413 C  
HETATM    6  C   UNL     1     -11.726  13.390  67.791  1.00  0.00    -0.359 C  
HETATM    7  C   UNL     1     -11.686  14.749  67.127  1.00  0.00    -0.351 C  
HETATM    8  N   UNL     1     -12.112  13.432  69.116  1.00  0.00    -0.301 NA 
HETATM    9  C   UNL     1     -12.139  12.357  69.978  1.00  0.00    -0.263 C  
HETATM   10  C   UNL     1     -12.539  12.692  71.397  1.00  0.00    -0.304 C  
HETATM   11  C   UNL     1     -11.824  11.116  69.526  1.00  0.00    -0.423 C  
HETATM   12  C   UNL     1     -11.492  10.886  68.038  1.00  0.00    -0.356 C  
BRANCH  11  13
HETATM   13  C   UNL     1     -11.708  10.009  70.517  1.00  0.00    -0.318 C  
HETATM   14  O   UNL     1     -10.681   9.781  71.149  1.00  0.00    -0.324 OA 
BRANCH  13  15
HETATM   15  O   UNL     1     -12.827   9.248  70.603  1.00  0.00    -0.004 OA 
BRANCH  15  16
HETATM   16  C   UNL     1     -12.959   8.529  71.852  1.00  0.00    -0.362 C  
HETATM   17  C   UNL     1     -12.972   7.036  71.560  1.00  0.00    -0.411 C  
HETATM   18  C   UNL     1     -14.241   8.958  72.561  1.00  0.00    -0.386 C  
ENDBRANCH  15  16
ENDBRANCH  13  15
ENDBRANCH  11  13
BRANCH  12  19
HETATM   19  C   UNL     1     -10.263  10.012  67.857  1.00  0.00    -0.228 A  
HETATM   20  C   UNL     1      -8.942  10.448  68.147  1.00  0.00    -0.132 A  
HETATM   21  C   UNL     1     -10.326   8.660  67.425  1.00  0.00    -0.353 A  
HETATM   22  N   UNL     1      -8.518  11.640  68.589  1.00  0.00    -0.132 NA 
HETATM   23  O   UNL     1      -7.146  11.532  68.721  1.00  0.00    -0.092 OA 
HETATM   24  C   UNL     1      -9.187   7.824  67.287  1.00  0.00    -0.162 A  
HETATM   25  C   UNL     1      -7.878   8.248  67.575  1.00  0.00    -0.106 A  
HETATM   26  C   UNL     1      -7.780   9.581  68.010  1.00  0.00    -0.087 A  
HETATM   27  N   UNL     1      -6.692  10.274  68.370  1.00  0.00    -0.057 NA 
ENDBRANCH  12  19
ENDBRANCH   3   5
ENDBRANCH   2   3
TORSDOF 6
ENDMDL
MODEL       23
REMARK 921   NORMALIZED FREE ENERGY PREDICTED BY IDOCK:   -5.38 KCAL/MOL
REMARK 922        TOTAL FREE ENERGY PREDICTED BY IDOCK:   -8.72 KCAL/MOL
REMARK 923 INTER-LIGAND FREE ENERGY PREDICTED BY IDOCK:   -7.10 KCAL/MOL
REMARK 924 INTRA-LIGAND FREE ENERGY PREDICTED BY IDOCK:   -1.62 KCAL/MOL
REMARK 927      BINDING AFFINITY PREDICTED BY RF-SCORE:    0.00 PKD
ROOT
HETATM    1  C   UNL     1     -12.276  13.708  64.167  1.00  0.00    -0.399 C  
HETATM    2  O   UNL     1     -12.026  14.797  65.060  1.00  0.00    -0.366 OA 
ENDROOT
BRANCH   2   3
HETATM    3  C   UNL     1     -10.905  14.746  65.811  1.00  0.00    -0.331 C  
HETATM    4  O   UNL     1      -9.774  14.968  65.403  1.00  0.00    -0.316 OA 
BRANCH   3   5
HETATM    5  C   UNL     1     -11.221  14.327  67.207  1.00  0.00    -0.330 C  
HETATM    6  C   UNL     1     -11.341  15.284  68.161  1.00  0.00    -0.338 C  
HETATM    7  C   UNL     1     -11.040  16.758  68.004  1.00  0.00    -0.220 C  
HETATM    8  N   UNL     1     -11.774  14.938  69.426  1.00  0.00    -0.302 NA 
HETATM    9  C   UNL     1     -12.023  13.656  69.866  1.00  0.00    -0.348 C  
HETATM   10  C   UNL     1     -12.423  13.551  71.321  1.00  0.00    -0.388 C  
HETATM   11  C   UNL     1     -11.905  12.609  69.010  1.00  0.00    -0.341 C  
HETATM   12  C   UNL     1     -11.551  12.846  67.527  1.00  0.00    -0.409 C  
BRANCH  11  13
HETATM   13  C   UNL     1     -12.025  11.228  69.557  1.00  0.00    -0.351 C  
HETATM   14  O   UNL     1     -13.075  10.592  69.545  1.00  0.00     0.001 OA 
BRANCH  13  15
HETATM   15  O   UNL     1     -10.879  10.775  70.121  1.00  0.00    -0.234 OA 
BRANCH  15  16
HETATM   16  C   UNL     1     -10.810   9.334  70.243  1.00  0.00    -0.246 C  
HETATM   17  C   UNL     1     -10.758   8.967  71.718  1.00  0.00    -0.437 C  
HETATM   18  C   UNL     1      -9.578   8.813  69.507  1.00  0.00    -0.167 C  
ENDBRANCH  15  16
ENDBRANCH  13  15
ENDBRANCH  11  13
BRANCH  12  19
HETATM   19  C   UNL     1     -10.483  11.885  67.036  1.00  0.00    -0.253 A  
HETATM   20  C   UNL     1      -9.118  11.967  67.421  1.00  0.00    -0.178 A  
HETATM   21  C   UNL     1     -10.761  10.784  66.182  1.00  0.00    -0.187 A  
HETATM   22  N   UNL     1      -8.513  12.853  68.222  1.00  0.00    -0.171 NA 
HETATM   23  O   UNL     1      -7.184  12.474  68.277  1.00  0.00    -0.093 OA 
HETATM   24  C   UNL     1      -9.777   9.858  65.746  1.00  0.00    -0.332 A  
HETATM   25  C   UNL     1      -8.424   9.932  66.125  1.00  0.00    -0.130 A  
HETATM   26  C   UNL     1      -8.116  11.008  66.975  1.00  0.00    -0.136 A  
HETATM   27  N   UNL     1      -6.939  11.346  67.517  1.00  0.00    -0.094 NA 
ENDBRANCH  12  19
ENDBRANCH   3   5
ENDBRANCH   2   3
TORSDOF 6
ENDMDL
MODEL       24
REMARK 921   NORMALIZED FREE ENERGY PREDICTED BY IDOCK:   -5.36 KCAL/MOL
REMARK 922        TOTAL FREE ENERGY PREDICTED BY IDOCK:   -8.70 KCAL/MOL
REMARK 923 INTER-LIGAND FREE ENERGY PREDICTED BY IDOCK:   -7.09 KCAL/MOL
REMARK 924 INTRA-LIGAND FREE ENERGY PREDICTED BY IDOCK:   -1.61 KCAL/MOL
REMARK 927      BINDING AFFINITY PREDICTED BY RF-SCORE:    0.00 PKD
ROOT
HETATM    1  C   UNL     1      -6.242  11.310  66.579  1.00  0.00    -0.130 C  
HETATM    2  O   UNL     1      -6.156  12.677  66.992  1.00  0.00    -0.281 OA 
ENDROOT
BRANCH   2   3
HETATM    3  C   UNL     1      -7.056  13.114  67.899  1.00  0.00    -0.129 C  
HETATM    4  O   UNL     1      -7.073  12.801  69.080  1.00  0.00    -0.093 OA 
BRANCH   3   5
HETATM    5  C   UNL     1      -8.070  13.999  67.255  1.00  0.00    -0.174 C  
HETATM    6  C   UNL     1      -7.825  15.332  67.195  1.00  0.00    -0.214 C  
HETATM    7  C   UNL     1      -6.680  16.070  67.852  1.00  0.00    -0.158 C  
HETATM    8  N   UNL     1      -8.674  16.152  66.480  1.00  0.00    -0.270 NA 
HETATM    9  C   UNL     1      -9.844  15.756  65.868  1.00  0.00    -0.349 C  
HETATM   10  C   UNL     1     -10.623  16.872  65.206  1.00  0.00    -0.137 C  
HETATM   11  C   UNL     1     -10.213  14.450  65.887  1.00  0.00    -0.341 C  
HETATM   12  C   UNL     1      -9.303  13.389  66.540  1.00  0.00    -0.225 C  
BRANCH  11  13
HETATM   13  C   UNL     1     -11.557  14.085  65.356  1.00  0.00    -0.328 C  
HETATM   14  O   UNL     1     -12.581  14.143  66.030  1.00  0.00    -0.478 OA 
BRANCH  13  15
HETATM   15  O   UNL     1     -11.522  13.626  64.081  1.00  0.00    -0.377 OA 
BRANCH  15  16
HETATM   16  C   UNL     1     -11.582  12.184  63.970  1.00  0.00    -0.423 C  
HETATM   17  C   UNL     1     -10.408  11.708  63.128  1.00  0.00    -0.383 C  
HETATM   18  C   UNL     1     -12.909  11.770  63.339  1.00  0.00    -0.310 C  
ENDBRANCH  15  16
ENDBRANCH  13  15
ENDBRANCH  11  13
BRANCH  12  19
HETATM   19  C   UNL     1     -10.085  12.435  67.425  1.00  0.00    -0.205 A  
HETATM   20  C   UNL     1     -10.169  11.036  67.188  1.00  0.00    -0.206 A  
HETATM   21  C   UNL     1     -10.767  12.847  68.601  1.00  0.00    -0.273 A  
HETATM   22  N   UNL     1      -9.637  10.310  66.197  1.00  0.00    -0.186 NA 
HETATM   23  O   UNL     1     -10.007   9.000  66.443  1.00  0.00    -0.273 OA 
HETATM   24  C   UNL     1     -11.471  11.958  69.456  1.00  0.00    -0.357 A  
HETATM   25  C   UNL     1     -11.556  10.573  69.228  1.00  0.00    -0.308 A  
HETATM   26  C   UNL     1     -10.887  10.130  68.074  1.00  0.00    -0.270 A  
HETATM   27  N   UNL     1     -10.769   8.887  67.590  1.00  0.00    -0.213 NA 
ENDBRANCH  12  19
ENDBRANCH   3   5
ENDBRANCH   2   3
TORSDOF 6
ENDMDL
MODEL       25
REMARK 921   NORMALIZED FREE ENERGY PREDICTED BY IDOCK:   -5.33 KCAL/MOL
REMARK 922        TOTAL FREE ENERGY PREDICTED BY IDOCK:   -8.66 KCAL/MOL
REMARK 923 INTER-LIGAND FREE ENERGY PREDICTED BY IDOCK:   -6.94 KCAL/MOL
REMARK 924 INTRA-LIGAND FREE ENERGY PREDICTED BY IDOCK:   -1.72 KCAL/MOL
REMARK 927      BINDING AFFINITY PREDICTED BY RF-SCORE:    0.00 PKD
ROOT
HETATM    1  C   UNL     1     -11.168   6.368  70.949  1.00  0.00    -0.326 C  
HETATM    2  O   UNL     1     -11.668   7.680  71.226  1.00  0.00    -0.273 OA 
ENDROOT
BRANCH   2   3
HETATM    3  C   UNL     1     -10.765   8.664  71.429  1.00  0.00    -0.268 C  
HETATM    4  O   UNL     1      -9.880   8.643  72.271  1.00  0.00    -0.305 OA 
BRANCH   3   5
HETATM    5  C   UNL     1     -11.023   9.815  70.516  1.00  0.00    -0.384 C  
HETATM    6  C   UNL     1     -12.038  10.665  70.813  1.00  0.00    -0.374 C  
HETATM    7  C   UNL     1     -13.063  10.498  71.912  1.00  0.00    -0.567 C  
HETATM    8  N   UNL     1     -12.206  11.815  70.068  1.00  0.00    -0.271 NA 
HETATM    9  C   UNL     1     -11.475  12.162  68.952  1.00  0.00    -0.297 C  
HETATM   10  C   UNL     1     -11.911  13.447  68.283  1.00  0.00    -0.393 C  
HETATM   11  C   UNL     1     -10.452  11.372  68.537  1.00  0.00    -0.223 C  
HETATM   12  C   UNL     1     -10.059  10.115  69.339  1.00  0.00    -0.250 C  
BRANCH  11  13
HETATM   13  C   UNL     1      -9.790  11.692  67.240  1.00  0.00    -0.187 C  
HETATM   14  O   UNL     1      -8.702  12.255  67.166  1.00  0.00    -0.179 OA 
BRANCH  13  15
HETATM   15  O   UNL     1     -10.537  11.355  66.161  1.00  0.00    -0.251 OA 
BRANCH  15  16
HETATM   16  C   UNL     1      -9.774  11.200  64.940  1.00  0.00    -0.251 C  
HETATM   17  C   UNL     1     -10.610  11.701  63.772  1.00  0.00    -0.473 C  
HETATM   18  C   UNL     1      -9.396   9.733  64.751  1.00  0.00    -0.327 C  
ENDBRANCH  15  16
ENDBRANCH  13  15
ENDBRANCH  11  13
BRANCH  12  19
HETATM   19  C   UNL     1      -9.834   8.913  68.440  1.00  0.00    -0.191 A  
HETATM   20  C   UNL     1      -8.553   8.358  68.178  1.00  0.00    -0.139 A  
HETATM   21  C   UNL     1     -10.893   8.201  67.814  1.00  0.00    -0.072 A  
HETATM   22  N   UNL     1      -7.350   8.755  68.614  1.00  0.00    -0.079 NA 
HETATM   23  O   UNL     1      -6.437   7.864  68.080  1.00  0.00    -0.049 OA 
HETATM   24  C   UNL     1     -10.698   7.054  67.001  1.00  0.00    -0.423 A  
HETATM   25  C   UNL     1      -9.432   6.498  66.739  1.00  0.00    -0.188 A  
HETATM   26  C   UNL     1      -8.361   7.176  67.348  1.00  0.00    -0.119 A  
HETATM   27  N   UNL     1      -7.053   6.897  67.307  1.00  0.00    -0.081 NA 
ENDBRANCH  12  19
ENDBRANCH   3   5
ENDBRANCH   2   3
TORSDOF 6
ENDMDL
MODEL       26
REMARK 921   NORMALIZED FREE ENERGY PREDICTED BY IDOCK:   -5.33 KCAL/MOL
REMARK 922        TOTAL FREE ENERGY PREDICTED BY IDOCK:   -8.65 KCAL/MOL
REMARK 923 INTER-LIGAND FREE ENERGY PREDICTED BY IDOCK:   -7.29 KCAL/MOL
REMARK 924 INTRA-LIGAND FREE ENERGY PREDICTED BY IDOCK:   -1.36 KCAL/MOL
REMARK 927      BINDING AFFINITY PREDICTED BY RF-SCORE:    0.00 PKD
ROOT
HETATM    1  C   UNL     1     -10.489  16.599  68.295  1.00  0.00    -0.321 C  
HETATM    2  O   UNL     1      -9.142  16.130  68.189  1.00  0.00    -0.186 OA 
ENDROOT
BRANCH   2   3
HETATM    3  C   UNL     1      -8.847  15.298  67.167  1.00  0.00    -0.212 C  
HETATM    4  O   UNL     1      -8.682  15.643  66.006  1.00  0.00    -0.292 OA 
BRANCH   3   5
HETATM    5  C   UNL     1      -8.800  13.882  67.632  1.00  0.00    -0.191 C  
HETATM    6  C   UNL     1      -7.626  13.391  68.101  1.00  0.00    -0.138 C  
HETATM    7  C   UNL     1      -6.282  14.083  68.072  1.00  0.00    -0.145 C  
HETATM    8  N   UNL     1      -7.590  12.133  68.670  1.00  0.00    -0.115 NA 
HETATM    9  C   UNL     1      -8.647  11.252  68.735  1.00  0.00    -0.108 C  
HETATM   10  C   UNL     1      -8.318   9.911  69.354  1.00  0.00    -0.158 C  
HETATM   11  C   UNL     1      -9.868  11.618  68.268  1.00  0.00    -0.199 C  
HETATM   12  C   UNL     1     -10.100  13.040  67.716  1.00  0.00    -0.229 C  
BRANCH  11  13
HETATM   13  C   UNL     1     -10.943  10.588  68.208  1.00  0.00    -0.263 C  
HETATM   14  O   UNL     1     -10.844   9.555  67.554  1.00  0.00    -0.280 OA 
BRANCH  13  15
HETATM   15  O   UNL     1     -12.057  10.937  68.897  1.00  0.00    -0.463 OA 
BRANCH  15  16
HETATM   16  C   UNL     1     -11.846  11.094  70.321  1.00  0.00    -0.366 C  
HETATM   17  C   UNL     1     -12.342   9.844  71.032  1.00  0.00    -0.451 C  
HETATM   18  C   UNL     1     -12.585  12.333  70.818  1.00  0.00    -0.302 C  
ENDBRANCH  15  16
ENDBRANCH  13  15
ENDBRANCH  11  13
BRANCH  12  19
HETATM   19  C   UNL     1     -10.877  13.024  66.412  1.00  0.00    -0.294 A  
HETATM   20  C   UNL     1     -10.454  12.314  65.255  1.00  0.00    -0.282 A  
HETATM   21  C   UNL     1     -12.125  13.681  66.242  1.00  0.00    -0.477 A  
HETATM   22  N   UNL     1      -9.352  11.576  65.068  1.00  0.00    -0.148 NA 
HETATM   23  O   UNL     1      -9.432  11.093  63.774  1.00  0.00    -0.224 OA 
HETATM   24  C   UNL     1     -12.878  13.643  65.038  1.00  0.00    -0.325 A  
HETATM   25  C   UNL     1     -12.467  12.940  63.892  1.00  0.00    -0.417 A  
HETATM   26  C   UNL     1     -11.236  12.273  64.027  1.00  0.00    -0.392 A  
HETATM   27  N   UNL     1     -10.583  11.517  63.136  1.00  0.00    -0.308 NA 
ENDBRANCH  12  19
ENDBRANCH   3   5
ENDBRANCH   2   3
TORSDOF 6
ENDMDL
MODEL       27
REMARK 921   NORMALIZED FREE ENERGY PREDICTED BY IDOCK:   -5.32 KCAL/MOL
REMARK 922        TOTAL FREE ENERGY PREDICTED BY IDOCK:   -8.64 KCAL/MOL
REMARK 923 INTER-LIGAND FREE ENERGY PREDICTED BY IDOCK:   -7.09 KCAL/MOL
REMARK 924 INTRA-LIGAND FREE ENERGY PREDICTED BY IDOCK:   -1.55 KCAL/MOL
REMARK 927      BINDING AFFINITY PREDICTED BY RF-SCORE:    0.00 PKD
ROOT
HETATM    1  C   UNL     1     -12.484  13.178  65.195  1.00  0.00    -0.483 C  
HETATM    2  O   UNL     1     -11.842  12.083  65.857  1.00  0.00    -0.499 OA 
ENDROOT
BRANCH   2   3
HETATM    3  C   UNL     1     -10.865  12.374  66.742  1.00  0.00    -0.248 C  
HETATM    4  O   UNL     1      -9.737  12.742  66.449  1.00  0.00    -0.251 OA 
BRANCH   3   5
HETATM    5  C   UNL     1     -11.329  12.137  68.140  1.00  0.00    -0.349 C  
HETATM    6  C   UNL     1     -11.829  13.181  68.846  1.00  0.00    -0.320 C  
HETATM    7  C   UNL     1     -11.838  14.634  68.423  1.00  0.00    -0.330 C  
HETATM    8  N   UNL     1     -12.396  12.962  70.085  1.00  0.00    -0.232 NA 
HETATM    9  C   UNL     1     -12.431  11.753  70.748  1.00  0.00    -0.312 C  
HETATM   10  C   UNL     1     -13.055  11.803  72.124  1.00  0.00    -0.308 C  
HETATM   11  C   UNL     1     -11.931  10.639  70.155  1.00  0.00    -0.417 C  
HETATM   12  C   UNL     1     -11.376  10.698  68.718  1.00  0.00    -0.339 C  
BRANCH  11  13
HETATM   13  C   UNL     1     -11.840   9.388  70.961  1.00  0.00    -0.322 C  
HETATM   14  O   UNL     1     -12.668   8.485  70.890  1.00  0.00    -0.086 OA 
BRANCH  13  15
HETATM   15  O   UNL     1     -10.790   9.379  71.818  1.00  0.00    -0.354 OA 
BRANCH  15  16
HETATM   16  C   UNL     1     -10.170   8.080  71.979  1.00  0.00    -0.226 C  
HETATM   17  C   UNL     1     -10.710   7.433  73.245  1.00  0.00    -0.441 C  
HETATM   18  C   UNL     1      -8.654   8.238  72.051  1.00  0.00    -0.238 C  
ENDBRANCH  15  16
ENDBRANCH  13  15
ENDBRANCH  11  13
BRANCH  12  19
HETATM   19  C   UNL     1     -10.051   9.968  68.589  1.00  0.00    -0.187 A  
HETATM   20  C   UNL     1      -9.897   8.739  67.892  1.00  0.00    -0.169 A  
HETATM   21  C   UNL     1      -8.830  10.472  69.114  1.00  0.00    -0.161 A  
HETATM   22  N   UNL     1     -10.819   7.999  67.262  1.00  0.00    -0.194 NA 
HETATM   23  O   UNL     1     -10.143   6.912  66.738  1.00  0.00    -0.201 OA 
HETATM   24  C   UNL     1      -7.580   9.816  68.968  1.00  0.00    -0.082 A  
HETATM   25  C   UNL     1      -7.421   8.601  68.277  1.00  0.00    -0.095 A  
HETATM   26  C   UNL     1      -8.609   8.076  67.740  1.00  0.00    -0.128 A  
HETATM   27  N   UNL     1      -8.792   6.957  67.027  1.00  0.00    -0.117 NA 
ENDBRANCH  12  19
ENDBRANCH   3   5
ENDBRANCH   2   3
TORSDOF 6
ENDMDL
MODEL       28
REMARK 921   NORMALIZED FREE ENERGY PREDICTED BY IDOCK:   -5.30 KCAL/MOL
REMARK 922        TOTAL FREE ENERGY PREDICTED BY IDOCK:   -8.62 KCAL/MOL
REMARK 923 INTER-LIGAND FREE ENERGY PREDICTED BY IDOCK:   -7.39 KCAL/MOL
REMARK 924 INTRA-LIGAND FREE ENERGY PREDICTED BY IDOCK:   -1.22 KCAL/MOL
REMARK 927      BINDING AFFINITY PREDICTED BY RF-SCORE:    0.00 PKD
ROOT
HETATM    1  C   UNL     1     -10.618   8.306  67.196  1.00  0.00    -0.270 C  
HETATM    2  O   UNL     1     -11.262   9.264  68.042  1.00  0.00     0.009 OA 
ENDROOT
BRANCH   2   3
HETATM    3  C   UNL     1     -10.504   9.892  68.967  1.00  0.00    -0.210 C  
HETATM    4  O   UNL     1      -9.568   9.388  69.568  1.00  0.00    -0.163 OA 
BRANCH   3   5
HETATM    5  C   UNL     1     -10.997  11.281  69.200  1.00  0.00    -0.292 C  
HETATM    6  C   UNL     1     -11.820  11.510  70.254  1.00  0.00    -0.342 C  
HETATM    7  C   UNL     1     -12.435  10.468  71.162  1.00  0.00    -0.517 C  
HETATM    8  N   UNL     1     -12.173  12.805  70.577  1.00  0.00    -0.358 NA 
HETATM    9  C   UNL     1     -11.833  13.931  69.858  1.00  0.00    -0.328 C  
HETATM   10  C   UNL     1     -12.407  15.223  70.397  1.00  0.00    -0.422 C  
HETATM   11  C   UNL     1     -11.038  13.825  68.763  1.00  0.00    -0.295 C  
HETATM   12  C   UNL     1     -10.459  12.458  68.346  1.00  0.00    -0.245 C  
BRANCH  11  13
HETATM   13  C   UNL     1     -10.824  15.037  67.922  1.00  0.00    -0.280 C  
HETATM   14  O   UNL     1     -11.654  15.448  67.118  1.00  0.00    -0.220 OA 
BRANCH  13  15
HETATM   15  O   UNL     1      -9.602  15.598  68.094  1.00  0.00    -0.195 OA 
BRANCH  15  16
HETATM   16  C   UNL     1      -8.702  15.407  66.976  1.00  0.00    -0.229 C  
HETATM   17  C   UNL     1      -7.504  14.594  67.441  1.00  0.00    -0.212 C  
HETATM   18  C   UNL     1      -8.263  16.764  66.430  1.00  0.00    -0.349 C  
ENDBRANCH  15  16
ENDBRANCH  13  15
ENDBRANCH  11  13
BRANCH  12  19
HETATM   19  C   UNL     1     -10.595  12.214  66.854  1.00  0.00    -0.257 A  
HETATM   20  C   UNL     1      -9.571  11.630  66.059  1.00  0.00    -0.228 A  
HETATM   21  C   UNL     1     -11.777  12.503  66.123  1.00  0.00    -0.466 A  
HETATM   22  N   UNL     1      -8.349  11.217  66.417  1.00  0.00    -0.168 NA 
HETATM   23  O   UNL     1      -7.764  10.714  65.269  1.00  0.00    -0.119 OA 
HETATM   24  C   UNL     1     -11.928  12.246  64.734  1.00  0.00    -0.429 A  
HETATM   25  C   UNL     1     -10.921  11.666  63.943  1.00  0.00    -0.478 A  
HETATM   26  C   UNL     1      -9.737  11.361  64.637  1.00  0.00    -0.240 A  
HETATM   27  N   UNL     1      -8.611  10.799  64.180  1.00  0.00    -0.091 NA 
ENDBRANCH  12  19
ENDBRANCH   3   5
ENDBRANCH   2   3
TORSDOF 6
ENDMDL
MODEL       29
REMARK 921   NORMALIZED FREE ENERGY PREDICTED BY IDOCK:   -5.25 KCAL/MOL
REMARK 922        TOTAL FREE ENERGY PREDICTED BY IDOCK:   -8.54 KCAL/MOL
REMARK 923 INTER-LIGAND FREE ENERGY PREDICTED BY IDOCK:   -7.23 KCAL/MOL
REMARK 924 INTRA-LIGAND FREE ENERGY PREDICTED BY IDOCK:   -1.31 KCAL/MOL
REMARK 927      BINDING AFFINITY PREDICTED BY RF-SCORE:    0.00 PKD
ROOT
HETATM    1  C   UNL     1     -12.558  11.980  63.450  1.00  0.00    -0.469 C  
HETATM    2  O   UNL     1     -12.586  12.846  64.589  1.00  0.00    -0.585 OA 
ENDROOT
BRANCH   2   3
HETATM    3  C   UNL     1     -11.410  13.120  65.195  1.00  0.00    -0.296 C  
HETATM    4  O   UNL     1     -10.522  13.815  64.725  1.00  0.00    -0.400 OA 
BRANCH   3   5
HETATM    5  C   UNL     1     -11.313  12.415  66.506  1.00  0.00    -0.392 C  
HETATM    6  C   UNL     1     -11.726  13.061  67.624  1.00  0.00    -0.366 C  
HETATM    7  C   UNL     1     -12.149  14.510  67.725  1.00  0.00    -0.269 C  
HETATM    8  N   UNL     1     -11.781  12.383  68.826  1.00  0.00    -0.317 NA 
HETATM    9  C   UNL     1     -11.361  11.087  69.035  1.00  0.00    -0.277 C  
HETATM   10  C   UNL     1     -11.472  10.608  70.465  1.00  0.00    -0.407 C  
HETATM   11  C   UNL     1     -10.897  10.347  67.996  1.00  0.00    -0.319 C  
HETATM   12  C   UNL     1     -10.890  10.924  66.565  1.00  0.00    -0.234 C  
BRANCH  11  13
HETATM   13  C   UNL     1     -10.304   9.011  68.286  1.00  0.00    -0.209 C  
HETATM   14  O   UNL     1      -9.237   8.866  68.876  1.00  0.00    -0.140 OA 
BRANCH  13  15
HETATM   15  O   UNL     1     -11.029   7.983  67.782  1.00  0.00    -0.065 OA 
BRANCH  15  16
HETATM   16  C   UNL     1     -10.518   6.674  68.127  1.00  0.00    -0.214 C  
HETATM   17  C   UNL     1     -10.726   5.737  66.946  1.00  0.00    -0.381 C  
HETATM   18  C   UNL     1     -11.234   6.152  69.370  1.00  0.00    -0.466 C  
ENDBRANCH  15  16
ENDBRANCH  13  15
ENDBRANCH  11  13
BRANCH  12  19
HETATM   19  C   UNL     1      -9.579  10.654  65.849  1.00  0.00    -0.253 A  
HETATM   20  C   UNL     1      -8.322  11.133  66.308  1.00  0.00    -0.163 A  
HETATM   21  C   UNL     1      -9.482   9.857  64.677  1.00  0.00    -0.343 A  
HETATM   22  N   UNL     1      -8.040  11.887  67.378  1.00  0.00    -0.156 NA 
HETATM   23  O   UNL     1      -6.667  12.054  67.376  1.00  0.00    -0.104 OA 
HETATM   24  C   UNL     1      -8.257   9.568  64.020  1.00  0.00    -0.160 A  
HETATM   25  C   UNL     1      -7.010  10.037  64.470  1.00  0.00    -0.136 A  
HETATM   26  C   UNL     1      -7.069  10.826  65.632  1.00  0.00    -0.017 A  
HETATM   27  N   UNL     1      -6.070  11.405  66.311  1.00  0.00    -0.091 NA 
ENDBRANCH  12  19
ENDBRANCH   3   5
ENDBRANCH   2   3
TORSDOF 6
ENDMDL
MODEL       30
REMARK 921   NORMALIZED FREE ENERGY PREDICTED BY IDOCK:   -5.19 KCAL/MOL
REMARK 922        TOTAL FREE ENERGY PREDICTED BY IDOCK:   -8.46 KCAL/MOL
REMARK 923 INTER-LIGAND FREE ENERGY PREDICTED BY IDOCK:   -7.14 KCAL/MOL
REMARK 924 INTRA-LIGAND FREE ENERGY PREDICTED BY IDOCK:   -1.32 KCAL/MOL
REMARK 927      BINDING AFFINITY PREDICTED BY RF-SCORE:    0.00 PKD
ROOT
HETATM    1  C   UNL     1     -10.485  17.002  67.648  1.00  0.00    -0.343 C  
HETATM    2  O   UNL     1     -10.655  15.691  67.099  1.00  0.00    -0.299 OA 
ENDROOT
BRANCH   2   3
HETATM    3  C   UNL     1      -9.635  15.177  66.379  1.00  0.00    -0.284 C  
HETATM    4  O   UNL     1      -9.302  15.552  65.265  1.00  0.00    -0.133 OA 
BRANCH   3   5
HETATM    5  C   UNL     1      -8.992  14.045  67.106  1.00  0.00    -0.241 C  
HETATM    6  C   UNL     1      -7.869  14.289  67.827  1.00  0.00    -0.165 C  
HETATM    7  C   UNL     1      -7.085  15.582  67.866  1.00  0.00    -0.155 C  
HETATM    8  N   UNL     1      -7.337  13.294  68.623  1.00  0.00    -0.106 NA 
HETATM    9  C   UNL     1      -7.795  11.996  68.697  1.00  0.00    -0.091 C  
HETATM   10  C   UNL     1      -6.988  11.089  69.599  1.00  0.00    -0.110 C  
HETATM   11  C   UNL     1      -8.895  11.622  67.994  1.00  0.00    -0.162 C  
HETATM   12  C   UNL     1      -9.676  12.654  67.155  1.00  0.00    -0.211 C  
BRANCH  11  13
HETATM   13  C   UNL     1      -9.266  10.178  67.973  1.00  0.00    -0.138 C  
HETATM   14  O   UNL     1      -8.556   9.313  67.469  1.00  0.00    -0.116 OA 
BRANCH  13  15
HETATM   15  O   UNL     1     -10.486   9.932  68.508  1.00  0.00    -0.188 OA 
BRANCH  15  16
HETATM   16  C   UNL     1     -10.616  10.334  69.892  1.00  0.00    -0.276 C  
HETATM   17  C   UNL     1     -10.150   9.191  70.782  1.00  0.00    -0.333 C  
HETATM   18  C   UNL     1     -12.069  10.698  70.189  1.00  0.00    -0.414 C  
ENDBRANCH  15  16
ENDBRANCH  13  15
ENDBRANCH  11  13
BRANCH  12  19
HETATM   19  C   UNL     1     -10.025  12.120  65.777  1.00  0.00    -0.271 A  
HETATM   20  C   UNL     1     -11.312  12.252  65.189  1.00  0.00    -0.329 A  
HETATM   21  C   UNL     1      -9.082  11.480  64.929  1.00  0.00     0.080 A  
HETATM   22  N   UNL     1     -12.421  12.813  65.688  1.00  0.00    -0.608 NA 
HETATM   23  O   UNL     1     -13.386  12.690  64.705  1.00  0.00    -0.787 OA 
HETATM   24  C   UNL     1      -9.389  11.010  63.625  1.00  0.00    -0.257 A  
HETATM   25  C   UNL     1     -10.659  11.139  63.035  1.00  0.00    -0.058 A  
HETATM   26  C   UNL     1     -11.616  11.773  63.847  1.00  0.00    -0.377 A  
HETATM   27  N   UNL     1     -12.897  12.057  63.578  1.00  0.00    -0.770 NA 
ENDBRANCH  12  19
ENDBRANCH   3   5
ENDBRANCH   2   3
TORSDOF 6
ENDMDL
MODEL       31
REMARK 921   NORMALIZED FREE ENERGY PREDICTED BY IDOCK:   -5.11 KCAL/MOL
REMARK 922        TOTAL FREE ENERGY PREDICTED BY IDOCK:   -8.36 KCAL/MOL
REMARK 923 INTER-LIGAND FREE ENERGY PREDICTED BY IDOCK:   -6.83 KCAL/MOL
REMARK 924 INTRA-LIGAND FREE ENERGY PREDICTED BY IDOCK:   -1.53 KCAL/MOL
REMARK 927      BINDING AFFINITY PREDICTED BY RF-SCORE:    0.00 PKD
ROOT
HETATM    1  C   UNL     1     -12.007  12.666  65.059  1.00  0.00    -0.419 C  
HETATM    2  O   UNL     1     -12.386  12.810  66.431  1.00  0.00    -0.500 OA 
ENDROOT
BRANCH   2   3
HETATM    3  C   UNL     1     -11.420  13.134  67.317  1.00  0.00    -0.331 C  
HETATM    4  O   UNL     1     -10.657  14.083  67.209  1.00  0.00    -0.270 OA 
BRANCH   3   5
HETATM    5  C   UNL     1     -11.369  12.145  68.432  1.00  0.00    -0.336 C  
HETATM    6  C   UNL     1     -11.949  12.467  69.615  1.00  0.00    -0.274 C  
HETATM    7  C   UNL     1     -12.532  13.809  69.997  1.00  0.00    -0.301 C  
HETATM    8  N   UNL     1     -12.042  11.517  70.612  1.00  0.00    -0.373 NA 
HETATM    9  C   UNL     1     -11.506  10.248  70.564  1.00  0.00    -0.343 C  
HETATM   10  C   UNL     1     -11.697   9.431  71.822  1.00  0.00    -0.444 C  
HETATM   11  C   UNL     1     -10.872   9.821  69.442  1.00  0.00    -0.256 C  
HETATM   12  C   UNL     1     -10.796  10.723  68.194  1.00  0.00    -0.284 C  
BRANCH  11  13
HETATM   13  C   UNL     1     -10.169   8.507  69.483  1.00  0.00    -0.206 C  
HETATM   14  O   UNL     1      -9.008   8.381  69.860  1.00  0.00    -0.139 OA 
BRANCH  13  15
HETATM   15  O   UNL     1     -10.919   7.484  69.005  1.00  0.00    -0.114 OA 
BRANCH  15  16
HETATM   16  C   UNL     1     -10.188   6.557  68.167  1.00  0.00    -0.168 C  
HETATM   17  C   UNL     1     -10.928   6.397  66.848  1.00  0.00    -0.413 C  
HETATM   18  C   UNL     1     -10.051   5.215  68.882  1.00  0.00    -0.237 C  
ENDBRANCH  15  16
ENDBRANCH  13  15
ENDBRANCH  11  13
BRANCH  12  19
HETATM   19  C   UNL     1      -9.403  10.743  67.590  1.00  0.00    -0.156 A  
HETATM   20  C   UNL     1      -9.106  10.256  66.288  1.00  0.00    -0.154 A  
HETATM   21  C   UNL     1      -8.275  11.295  68.254  1.00  0.00    -0.143 A  
HETATM   22  N   UNL     1      -9.921   9.696  65.385  1.00  0.00    -0.266 NA 
HETATM   23  O   UNL     1      -9.134   9.418  64.282  1.00  0.00    -0.214 OA 
HETATM   24  C   UNL     1      -6.975  11.351  67.684  1.00  0.00    -0.081 A  
HETATM   25  C   UNL     1      -6.675  10.873  66.396  1.00  0.00    -0.134 A  
HETATM   26  C   UNL     1      -7.772  10.324  65.708  1.00  0.00    -0.143 A  
HETATM   27  N   UNL     1      -7.820   9.802  64.476  1.00  0.00    -0.130 NA 
ENDBRANCH  12  19
ENDBRANCH   3   5
ENDBRANCH   2   3
TORSDOF 6
ENDMDL
MODEL       32
REMARK 921   NORMALIZED FREE ENERGY PREDICTED BY IDOCK:   -5.10 KCAL/MOL
REMARK 922        TOTAL FREE ENERGY PREDICTED BY IDOCK:   -8.35 KCAL/MOL
REMARK 923 INTER-LIGAND FREE ENERGY PREDICTED BY IDOCK:   -7.27 KCAL/MOL
REMARK 924 INTRA-LIGAND FREE ENERGY PREDICTED BY IDOCK:   -1.08 KCAL/MOL
REMARK 927      BINDING AFFINITY PREDICTED BY RF-SCORE:    0.00 PKD
ROOT
HETATM    1  C   UNL     1     -12.414  14.947  70.167  1.00  0.00    -0.306 C  
HETATM    2  O   UNL     1     -12.091  13.982  69.160  1.00  0.00    -0.346 OA 
ENDROOT
BRANCH   2   3
HETATM    3  C   UNL     1     -10.814  13.938  68.723  1.00  0.00    -0.263 C  
HETATM    4  O   UNL     1      -9.915  14.674  69.103  1.00  0.00    -0.210 OA 
BRANCH   3   5
HETATM    5  C   UNL     1     -10.651  12.897  67.668  1.00  0.00    -0.232 C  
HETATM    6  C   UNL     1     -10.924  13.228  66.381  1.00  0.00    -0.289 C  
HETATM    7  C   UNL     1     -11.533  14.523  65.892  1.00  0.00    -0.345 C  
HETATM    8  N   UNL     1     -10.645  12.331  65.370  1.00  0.00    -0.265 NA 
HETATM    9  C   UNL     1     -10.180  11.045  65.545  1.00  0.00    -0.268 C  
HETATM   10  C   UNL     1     -10.020  10.249  64.268  1.00  0.00    -0.293 C  
HETATM   11  C   UNL     1      -9.899  10.587  66.792  1.00  0.00    -0.237 C  
HETATM   12  C   UNL     1     -10.041  11.515  68.016  1.00  0.00    -0.197 C  
BRANCH  11  13
HETATM   13  C   UNL     1      -9.552   9.147  66.957  1.00  0.00    -0.170 C  
HETATM   14  O   UNL     1      -8.397   8.733  66.953  1.00  0.00    -0.107 OA 
BRANCH  13  15
HETATM   15  O   UNL     1     -10.639   8.343  67.052  1.00  0.00    -0.314 OA 
BRANCH  15  16
HETATM   16  C   UNL     1     -10.346   7.007  67.528  1.00  0.00    -0.225 C  
HETATM   17  C   UNL     1     -10.783   6.003  66.473  1.00  0.00    -0.231 C  
HETATM   18  C   UNL     1     -11.071   6.761  68.849  1.00  0.00    -0.243 C  
ENDBRANCH  15  16
ENDBRANCH  13  15
ENDBRANCH  11  13
BRANCH  12  19
HETATM   19  C   UNL     1     -10.752  10.830  69.170  1.00  0.00    -0.265 A  
HETATM   20  C   UNL     1     -10.081  10.059  70.157  1.00  0.00    -0.211 A  
HETATM   21  C   UNL     1     -12.151  10.937  69.395  1.00  0.00    -0.362 A  
HETATM   22  N   UNL     1      -8.779   9.770  70.269  1.00  0.00    -0.189 NA 
HETATM   23  O   UNL     1      -8.654   9.004  71.414  1.00  0.00    -0.269 OA 
HETATM   24  C   UNL     1     -12.821  10.332  70.490  1.00  0.00    -0.293 A  
HETATM   25  C   UNL     1     -12.163   9.570  71.473  1.00  0.00    -0.468 A  
HETATM   26  C   UNL     1     -10.775   9.448  71.283  1.00  0.00    -0.350 A  
HETATM   27  N   UNL     1      -9.873   8.807  72.037  1.00  0.00    -0.319 NA 
ENDBRANCH  12  19
ENDBRANCH   3   5
ENDBRANCH   2   3
TORSDOF 6
ENDMDL
MODEL       33
REMARK 921   NORMALIZED FREE ENERGY PREDICTED BY IDOCK:   -5.07 KCAL/MOL
REMARK 922        TOTAL FREE ENERGY PREDICTED BY IDOCK:   -8.31 KCAL/MOL
REMARK 923 INTER-LIGAND FREE ENERGY PREDICTED BY IDOCK:   -6.86 KCAL/MOL
REMARK 924 INTRA-LIGAND FREE ENERGY PREDICTED BY IDOCK:   -1.45 KCAL/MOL
REMARK 927      BINDING AFFINITY PREDICTED BY RF-SCORE:    0.00 PKD
ROOT
HETATM    1  C   UNL     1      -6.653   7.923  73.486  1.00  0.00    -0.091 C  
HETATM    2  O   UNL     1      -7.282   8.597  72.391  1.00  0.00    -0.243 OA 
ENDROOT
BRANCH   2   3
HETATM    3  C   UNL     1      -8.126   7.881  71.617  1.00  0.00    -0.106 C  
HETATM    4  O   UNL     1      -7.843   6.836  71.050  1.00  0.00    -0.099 OA 
BRANCH   3   5
HETATM    5  C   UNL     1      -9.446   8.564  71.501  1.00  0.00    -0.290 C  
HETATM    6  C   UNL     1     -10.387   8.326  72.449  1.00  0.00    -0.332 C  
HETATM    7  C   UNL     1     -10.307   7.307  73.564  1.00  0.00    -0.412 C  
HETATM    8  N   UNL     1     -11.561   9.052  72.445  1.00  0.00    -0.184 NA 
HETATM    9  C   UNL     1     -11.932   9.972  71.487  1.00  0.00    -0.353 C  
HETATM   10  C   UNL     1     -13.303  10.578  71.688  1.00  0.00    -0.423 C  
HETATM   11  C   UNL     1     -11.086  10.272  70.469  1.00  0.00    -0.381 C  
HETATM   12  C   UNL     1      -9.683   9.635  70.405  1.00  0.00    -0.304 C  
BRANCH  11  13
HETATM   13  C   UNL     1     -11.582  11.146  69.369  1.00  0.00    -0.318 C  
HETATM   14  O   UNL     1     -12.336  10.749  68.486  1.00  0.00    -0.417 OA 
BRANCH  13  15
HETATM   15  O   UNL     1     -11.069  12.400  69.411  1.00  0.00    -0.188 OA 
BRANCH  15  16
HETATM   16  C   UNL     1     -12.056  13.448  69.257  1.00  0.00    -0.264 C  
HETATM   17  C   UNL     1     -11.576  14.424  68.194  1.00  0.00    -0.360 C  
HETATM   18  C   UNL     1     -12.269  14.156  70.593  1.00  0.00    -0.432 C  
ENDBRANCH  15  16
ENDBRANCH  13  15
ENDBRANCH  11  13
BRANCH  12  19
HETATM   19  C   UNL     1      -9.348   9.135  69.011  1.00  0.00    -0.151 A  
HETATM   20  C   UNL     1      -9.966   8.002  68.415  1.00  0.00    -0.185 A  
HETATM   21  C   UNL     1      -8.419   9.783  68.154  1.00  0.00    -0.114 A  
HETATM   22  N   UNL     1     -10.892   7.177  68.919  1.00  0.00    -0.171 NA 
HETATM   23  O   UNL     1     -11.162   6.253  67.925  1.00  0.00    -0.323 OA 
HETATM   24  C   UNL     1      -8.125   9.345  66.835  1.00  0.00    -0.109 A  
HETATM   25  C   UNL     1      -8.735   8.227  66.239  1.00  0.00    -0.173 A  
HETATM   26  C   UNL     1      -9.665   7.564  67.059  1.00  0.00    -0.198 A  
HETATM   27  N   UNL     1     -10.414   6.488  66.787  1.00  0.00    -0.239 NA 
ENDBRANCH  12  19
ENDBRANCH   3   5
ENDBRANCH   2   3
TORSDOF 6
ENDMDL
MODEL       34
REMARK 921   NORMALIZED FREE ENERGY PREDICTED BY IDOCK:   -5.04 KCAL/MOL
REMARK 922        TOTAL FREE ENERGY PREDICTED BY IDOCK:   -8.26 KCAL/MOL
REMARK 923 INTER-LIGAND FREE ENERGY PREDICTED BY IDOCK:   -6.70 KCAL/MOL
REMARK 924 INTRA-LIGAND FREE ENERGY PREDICTED BY IDOCK:   -1.57 KCAL/MOL
REMARK 927      BINDING AFFINITY PREDICTED BY RF-SCORE:    0.00 PKD
ROOT
HETATM    1  C   UNL     1     -12.436  12.526  64.448  1.00  0.00    -0.446 C  
HETATM    2  O   UNL     1     -12.604  12.397  65.864  1.00  0.00    -0.475 OA 
ENDROOT
BRANCH   2   3
HETATM    3  C   UNL     1     -11.608  12.850  66.655  1.00  0.00    -0.372 C  
HETATM    4  O   UNL     1     -10.925  13.837  66.430  1.00  0.00    -0.295 OA 
BRANCH   3   5
HETATM    5  C   UNL     1     -11.413  11.949  67.828  1.00  0.00    -0.389 C  
HETATM    6  C   UNL     1     -11.739  12.409  69.062  1.00  0.00    -0.323 C  
HETATM    7  C   UNL     1     -12.152  13.819  69.419  1.00  0.00    -0.377 C  
HETATM    8  N   UNL     1     -11.704  11.551  70.143  1.00  0.00    -0.324 NA 
HETATM    9  C   UNL     1     -11.270  10.243  70.115  1.00  0.00    -0.318 C  
HETATM   10  C   UNL     1     -11.273   9.544  71.456  1.00  0.00    -0.437 C  
HETATM   11  C   UNL     1     -10.887   9.679  68.941  1.00  0.00    -0.201 C  
HETATM   12  C   UNL     1     -10.988  10.472  67.622  1.00  0.00    -0.375 C  
BRANCH  11  13
HETATM   13  C   UNL     1     -10.275   8.320  68.973  1.00  0.00    -0.217 C  
HETATM   14  O   UNL     1     -10.902   7.298  68.714  1.00  0.00    -0.180 OA 
BRANCH  13  15
HETATM   15  O   UNL     1      -8.980   8.326  69.375  1.00  0.00    -0.145 OA 
BRANCH  15  16
HETATM   16  C   UNL     1      -8.244   7.133  69.015  1.00  0.00    -0.125 C  
HETATM   17  C   UNL     1      -7.563   6.582  70.259  1.00  0.00    -0.096 C  
HETATM   18  C   UNL     1      -7.219   7.465  67.933  1.00  0.00    -0.091 C  
ENDBRANCH  15  16
ENDBRANCH  13  15
ENDBRANCH  11  13
BRANCH  12  19
HETATM   19  C   UNL     1      -9.735  10.332  66.776  1.00  0.00    -0.231 A  
HETATM   20  C   UNL     1      -8.495  10.946  67.103  1.00  0.00    -0.128 A  
HETATM   21  C   UNL     1      -9.673   9.534  65.602  1.00  0.00    -0.361 A  
HETATM   22  N   UNL     1      -8.187  11.739  68.137  1.00  0.00    -0.146 NA 
HETATM   23  O   UNL     1      -6.847  12.049  67.995  1.00  0.00    -0.068 OA 
HETATM   24  C   UNL     1      -8.498   9.367  64.824  1.00  0.00    -0.180 A  
HETATM   25  C   UNL     1      -7.268   9.970  65.143  1.00  0.00    -0.139 A  
HETATM   26  C   UNL     1      -7.292  10.763  66.304  1.00  0.00    -0.138 A  
HETATM   27  N   UNL     1      -6.296  11.452  66.876  1.00  0.00    -0.123 NA 
ENDBRANCH  12  19
ENDBRANCH   3   5
ENDBRANCH   2   3
TORSDOF 6
ENDMDL
MODEL       35
REMARK 921   NORMALIZED FREE ENERGY PREDICTED BY IDOCK:   -5.04 KCAL/MOL
REMARK 922        TOTAL FREE ENERGY PREDICTED BY IDOCK:   -8.26 KCAL/MOL
REMARK 923 INTER-LIGAND FREE ENERGY PREDICTED BY IDOCK:   -6.72 KCAL/MOL
REMARK 924 INTRA-LIGAND FREE ENERGY PREDICTED BY IDOCK:   -1.53 KCAL/MOL
REMARK 927      BINDING AFFINITY PREDICTED BY RF-SCORE:    0.00 PKD
ROOT
HETATM    1  C   UNL     1      -7.605   6.014  69.446  1.00  0.00    -0.097 C  
HETATM    2  O   UNL     1      -8.656   6.334  70.363  1.00  0.00    -0.138 OA 
ENDROOT
BRANCH   2   3
HETATM    3  C   UNL     1      -8.499   7.431  71.136  1.00  0.00    -0.118 C  
HETATM    4  O   UNL     1      -7.489   7.708  71.766  1.00  0.00    -0.076 OA 
BRANCH   3   5
HETATM    5  C   UNL     1      -9.750   8.243  71.164  1.00  0.00    -0.209 C  
HETATM    6  C   UNL     1     -10.683   7.967  72.108  1.00  0.00    -0.276 C  
HETATM    7  C   UNL     1     -10.672   6.804  73.075  1.00  0.00    -0.315 C  
HETATM    8  N   UNL     1     -11.781   8.793  72.247  1.00  0.00    -0.356 NA 
HETATM    9  C   UNL     1     -12.087   9.864  71.435  1.00  0.00    -0.413 C  
HETATM   10  C   UNL     1     -13.387  10.561  71.768  1.00  0.00    -0.446 C  
HETATM   11  C   UNL     1     -11.243  10.218  70.432  1.00  0.00    -0.407 C  
HETATM   12  C   UNL     1      -9.911   9.469  70.228  1.00  0.00    -0.313 C  
BRANCH  11  13
HETATM   13  C   UNL     1     -11.682  11.276  69.477  1.00  0.00    -0.345 C  
HETATM   14  O   UNL     1     -12.411  11.049  68.517  1.00  0.00    -0.536 OA 
BRANCH  13  15
HETATM   15  O   UNL     1     -11.146  12.492  69.744  1.00  0.00    -0.028 OA 
BRANCH  15  16
HETATM   16  C   UNL     1     -12.105  13.576  69.728  1.00  0.00    -0.318 C  
HETATM   17  C   UNL     1     -11.587  14.677  68.815  1.00  0.00    -0.346 C  
HETATM   18  C   UNL     1     -12.315  14.099  71.147  1.00  0.00    -0.447 C  
ENDBRANCH  15  16
ENDBRANCH  13  15
ENDBRANCH  11  13
BRANCH  12  19
HETATM   19  C   UNL     1      -9.665   9.132  68.768  1.00  0.00    -0.167 A  
HETATM   20  C   UNL     1      -8.657   9.751  67.980  1.00  0.00    -0.122 A  
HETATM   21  C   UNL     1     -10.390   8.132  68.067  1.00  0.00    -0.267 A  
HETATM   22  N   UNL     1      -7.783  10.708  68.317  1.00  0.00    -0.103 NA 
HETATM   23  O   UNL     1      -7.015  10.939  67.190  1.00  0.00    -0.087 OA 
HETATM   24  C   UNL     1     -10.144   7.784  66.713  1.00  0.00    -0.341 A  
HETATM   25  C   UNL     1      -9.146   8.390  65.928  1.00  0.00    -0.225 A  
HETATM   26  C   UNL     1      -8.405   9.383  66.593  1.00  0.00    -0.119 A  
HETATM   27  N   UNL     1      -7.392  10.129  66.135  1.00  0.00    -0.109 NA 
ENDBRANCH  12  19
ENDBRANCH   3   5
ENDBRANCH   2   3
TORSDOF 6
ENDMDL
MODEL       36
REMARK 921   NORMALIZED FREE ENERGY PREDICTED BY IDOCK:   -4.95 KCAL/MOL
REMARK 922        TOTAL FREE ENERGY PREDICTED BY IDOCK:   -8.15 KCAL/MOL
REMARK 923 INTER-LIGAND FREE ENERGY PREDICTED BY IDOCK:   -6.88 KCAL/MOL
REMARK 924 INTRA-LIGAND FREE ENERGY PREDICTED BY IDOCK:   -1.27 KCAL/MOL
REMARK 927      BINDING AFFINITY PREDICTED BY RF-SCORE:    0.00 PKD
ROOT
HETATM    1  C   UNL     1      -6.254  10.828  66.855  1.00  0.00    -0.076 C  
HETATM    2  O   UNL     1      -6.317  12.226  67.155  1.00  0.00    -0.152 OA 
ENDROOT
BRANCH   2   3
HETATM    3  C   UNL     1      -7.225  12.629  68.069  1.00  0.00    -0.112 C  
HETATM    4  O   UNL     1      -8.000  11.893  68.662  1.00  0.00    -0.145 OA 
BRANCH   3   5
HETATM    5  C   UNL     1      -7.196  14.112  68.226  1.00  0.00    -0.116 C  
HETATM    6  C   UNL     1      -6.515  14.642  69.273  1.00  0.00    -0.122 C  
HETATM    7  C   UNL     1      -5.885  13.880  70.418  1.00  0.00    -0.161 C  
HETATM    8  N   UNL     1      -6.351  16.010  69.361  1.00  0.00    -0.158 NA 
HETATM    9  C   UNL     1      -6.905  16.940  68.508  1.00  0.00    -0.172 C  
HETATM   10  C   UNL     1      -6.621  18.381  68.870  1.00  0.00    -0.261 C  
HETATM   11  C   UNL     1      -7.636  16.532  67.439  1.00  0.00    -0.175 C  
HETATM   12  C   UNL     1      -7.804  15.029  67.134  1.00  0.00    -0.224 C  
BRANCH  11  13
HETATM   13  C   UNL     1      -8.350  17.562  66.633  1.00  0.00    -0.261 C  
HETATM   14  O   UNL     1      -7.879  18.059  65.615  1.00  0.00    -0.531 OA 
BRANCH  13  15
HETATM   15  O   UNL     1      -9.537  17.934  67.172  1.00  0.00    -0.267 OA 
BRANCH  15  16
HETATM   16  C   UNL     1      -9.731  19.367  67.242  1.00  0.00    -0.334 C  
HETATM   17  C   UNL     1     -10.156  19.736  68.655  1.00  0.00    -0.546 C  
HETATM   18  C   UNL     1     -10.786  19.795  66.225  1.00  0.00    -0.499 C  
ENDBRANCH  15  16
ENDBRANCH  13  15
ENDBRANCH  11  13
BRANCH  12  19
HETATM   19  C   UNL     1      -9.242  14.674  66.800  1.00  0.00    -0.285 A  
HETATM   20  C   UNL     1     -10.280  14.616  67.769  1.00  0.00    -0.229 A  
HETATM   21  C   UNL     1      -9.692  14.413  65.478  1.00  0.00    -0.214 A  
HETATM   22  N   UNL     1     -10.222  14.824  69.090  1.00  0.00    -0.235 NA 
HETATM   23  O   UNL     1     -11.512  14.659  69.561  1.00  0.00    -0.266 OA 
HETATM   24  C   UNL     1     -11.041  14.115  65.150  1.00  0.00    -0.349 A  
HETATM   25  C   UNL     1     -12.074  14.059  66.103  1.00  0.00    -0.471 A  
HETATM   26  C   UNL     1     -11.663  14.317  67.422  1.00  0.00    -0.394 A  
HETATM   27  N   UNL     1     -12.396  14.351  68.543  1.00  0.00    -0.124 NA 
ENDBRANCH  12  19
ENDBRANCH   3   5
ENDBRANCH   2   3
TORSDOF 6
ENDMDL
MODEL       37
REMARK 921   NORMALIZED FREE ENERGY PREDICTED BY IDOCK:   -4.95 KCAL/MOL
REMARK 922        TOTAL FREE ENERGY PREDICTED BY IDOCK:   -8.14 KCAL/MOL
REMARK 923 INTER-LIGAND FREE ENERGY PREDICTED BY IDOCK:   -6.70 KCAL/MOL
REMARK 924 INTRA-LIGAND FREE ENERGY PREDICTED BY IDOCK:   -1.43 KCAL/MOL
REMARK 927      BINDING AFFINITY PREDICTED BY RF-SCORE:    0.00 PKD
ROOT
HETATM    1  C   UNL     1     -10.680  16.121  68.458  1.00  0.00    -0.300 C  
HETATM    2  O   UNL     1     -10.242  14.768  68.300  1.00  0.00    -0.220 OA 
ENDROOT
BRANCH   2   3
HETATM    3  C   UNL     1     -11.189  13.819  68.133  1.00  0.00    -0.271 C  
HETATM    4  O   UNL     1     -12.156  13.656  68.861  1.00  0.00    -0.347 OA 
BRANCH   3   5
HETATM    5  C   UNL     1     -10.871  12.954  66.960  1.00  0.00    -0.282 C  
HETATM    6  C   UNL     1     -11.484  13.211  65.778  1.00  0.00    -0.325 C  
HETATM    7  C   UNL     1     -12.596  14.208  65.535  1.00  0.00    -0.501 C  
HETATM    8  N   UNL     1     -11.103  12.520  64.645  1.00  0.00    -0.293 NA 
HETATM    9  C   UNL     1     -10.186  11.491  64.604  1.00  0.00    -0.285 C  
HETATM   10  C   UNL     1     -10.000  10.861  63.241  1.00  0.00    -0.399 C  
HETATM   11  C   UNL     1      -9.529  11.121  65.733  1.00  0.00    -0.248 C  
HETATM   12  C   UNL     1      -9.754  11.882  67.055  1.00  0.00    -0.204 C  
BRANCH  11  13
HETATM   13  C   UNL     1      -8.667   9.906  65.685  1.00  0.00    -0.151 C  
HETATM   14  O   UNL     1      -7.441   9.955  65.686  1.00  0.00    -0.105 OA 
BRANCH  13  15
HETATM   15  O   UNL     1      -9.373   8.754  65.581  1.00  0.00    -0.214 OA 
BRANCH  15  16
HETATM   16  C   UNL     1      -9.167   7.832  66.678  1.00  0.00    -0.177 C  
HETATM   17  C   UNL     1      -8.230   6.725  66.220  1.00  0.00    -0.120 C  
HETATM   18  C   UNL     1     -10.508   7.260  67.130  1.00  0.00    -0.394 C  
ENDBRANCH  15  16
ENDBRANCH  13  15
ENDBRANCH  11  13
BRANCH  12  19
HETATM   19  C   UNL     1      -9.941  10.939  68.230  1.00  0.00    -0.187 A  
HETATM   20  C   UNL     1      -8.881  10.529  69.083  1.00  0.00    -0.151 A  
HETATM   21  C   UNL     1     -11.205  10.416  68.614  1.00  0.00    -0.305 A  
HETATM   22  N   UNL     1      -7.580  10.843  69.031  1.00  0.00    -0.126 NA 
HETATM   23  O   UNL     1      -6.988  10.195  70.100  1.00  0.00    -0.128 OA 
HETATM   24  C   UNL     1     -11.397   9.562  69.732  1.00  0.00    -0.117 A  
HETATM   25  C   UNL     1     -10.353   9.155  70.582  1.00  0.00    -0.306 A  
HETATM   26  C   UNL     1      -9.088   9.660  70.233  1.00  0.00    -0.225 A  
HETATM   27  N   UNL     1      -7.908   9.472  70.837  1.00  0.00    -0.322 NA 
ENDBRANCH  12  19
ENDBRANCH   3   5
ENDBRANCH   2   3
TORSDOF 6
ENDMDL
MODEL       38
REMARK 921   NORMALIZED FREE ENERGY PREDICTED BY IDOCK:   -4.95 KCAL/MOL
REMARK 922        TOTAL FREE ENERGY PREDICTED BY IDOCK:   -8.14 KCAL/MOL
REMARK 923 INTER-LIGAND FREE ENERGY PREDICTED BY IDOCK:   -7.11 KCAL/MOL
REMARK 924 INTRA-LIGAND FREE ENERGY PREDICTED BY IDOCK:   -1.03 KCAL/MOL
REMARK 927      BINDING AFFINITY PREDICTED BY RF-SCORE:    0.00 PKD
ROOT
HETATM    1  C   UNL     1      -8.209  11.005  66.508  1.00  0.00    -0.161 C  
HETATM    2  O   UNL     1      -8.926  12.009  67.232  1.00  0.00    -0.168 OA 
ENDROOT
BRANCH   2   3
HETATM    3  C   UNL     1     -10.264  12.071  67.056  1.00  0.00    -0.203 C  
HETATM    4  O   UNL     1     -10.826  12.180  65.977  1.00  0.00    -0.263 OA 
BRANCH   3   5
HETATM    5  C   UNL     1     -10.973  12.042  68.368  1.00  0.00    -0.276 C  
HETATM    6  C   UNL     1     -11.300  13.219  68.957  1.00  0.00    -0.285 C  
HETATM    7  C   UNL     1     -10.890  14.601  68.499  1.00  0.00    -0.256 C  
HETATM    8  N   UNL     1     -12.081  13.220  70.095  1.00  0.00    -0.348 NA 
HETATM    9  C   UNL     1     -12.507  12.100  70.777  1.00  0.00    -0.271 C  
HETATM   10  C   UNL     1     -13.297  12.386  72.035  1.00  0.00    -0.511 C  
HETATM   11  C   UNL     1     -12.214  10.863  70.301  1.00  0.00    -0.432 C  
HETATM   12  C   UNL     1     -11.455  10.696  68.969  1.00  0.00    -0.342 C  
BRANCH  11  13
HETATM   13  C   UNL     1     -12.552   9.681  71.145  1.00  0.00    -0.322 C  
HETATM   14  O   UNL     1     -13.662   9.157  71.148  1.00  0.00    -0.279 OA 
BRANCH  13  15
HETATM   15  O   UNL     1     -11.532   9.287  71.946  1.00  0.00    -0.372 OA 
BRANCH  15  16
HETATM   16  C   UNL     1     -11.642   7.921  72.413  1.00  0.00    -0.380 C  
HETATM   17  C   UNL     1     -10.452   7.610  73.308  1.00  0.00    -0.414 C  
HETATM   18  C   UNL     1     -11.691   6.970  71.220  1.00  0.00    -0.356 C  
ENDBRANCH  15  16
ENDBRANCH  13  15
ENDBRANCH  11  13
BRANCH  12  19
HETATM   19  C   UNL     1     -10.345   9.665  69.072  1.00  0.00    -0.218 A  
HETATM   20  C   UNL     1     -10.221   8.556  68.192  1.00  0.00    -0.208 A  
HETATM   21  C   UNL     1      -9.299   9.741  70.030  1.00  0.00    -0.274 A  
HETATM   22  N   UNL     1     -11.006   8.191  67.170  1.00  0.00    -0.036 NA 
HETATM   23  O   UNL     1     -10.432   7.052  66.636  1.00  0.00    -0.228 OA 
HETATM   24  C   UNL     1      -8.236   8.803  70.112  1.00  0.00    -0.117 A  
HETATM   25  C   UNL     1      -8.106   7.705  69.243  1.00  0.00    -0.128 A  
HETATM   26  C   UNL     1      -9.123   7.603  68.278  1.00  0.00    -0.136 A  
HETATM   27  N   UNL     1      -9.280   6.691  67.310  1.00  0.00    -0.123 NA 
ENDBRANCH  12  19
ENDBRANCH   3   5
ENDBRANCH   2   3
TORSDOF 6
ENDMDL
MODEL       39
REMARK 921   NORMALIZED FREE ENERGY PREDICTED BY IDOCK:   -4.93 KCAL/MOL
REMARK 922        TOTAL FREE ENERGY PREDICTED BY IDOCK:   -8.12 KCAL/MOL
REMARK 923 INTER-LIGAND FREE ENERGY PREDICTED BY IDOCK:   -6.53 KCAL/MOL
REMARK 924 INTRA-LIGAND FREE ENERGY PREDICTED BY IDOCK:   -1.59 KCAL/MOL
REMARK 927      BINDING AFFINITY PREDICTED BY RF-SCORE:    0.00 PKD
ROOT
HETATM    1  C   UNL     1      -8.816   8.103  71.463  1.00  0.00    -0.154 C  
HETATM    2  O   UNL     1      -9.089   9.307  70.740  1.00  0.00    -0.236 OA 
ENDROOT
BRANCH   2   3
HETATM    3  C   UNL     1     -10.112   9.289  69.859  1.00  0.00    -0.209 C  
HETATM    4  O   UNL     1     -10.540   8.291  69.299  1.00  0.00    -0.223 OA 
BRANCH   3   5
HETATM    5  C   UNL     1     -10.625  10.668  69.615  1.00  0.00    -0.260 C  
HETATM    6  C   UNL     1     -11.723  11.083  70.295  1.00  0.00    -0.355 C  
HETATM    7  C   UNL     1     -12.603  10.239  71.190  1.00  0.00    -0.501 C  
HETATM    8  N   UNL     1     -12.132  12.398  70.196  1.00  0.00    -0.328 NA 
HETATM    9  C   UNL     1     -11.571  13.353  69.376  1.00  0.00    -0.307 C  
HETATM   10  C   UNL     1     -12.256  14.701  69.412  1.00  0.00    -0.270 C  
HETATM   11  C   UNL     1     -10.485  13.047  68.621  1.00  0.00    -0.236 C  
HETATM   12  C   UNL     1      -9.833  11.653  68.716  1.00  0.00    -0.129 C  
BRANCH  11  13
HETATM   13  C   UNL     1     -10.005  14.052  67.630  1.00  0.00    -0.237 C  
HETATM   14  O   UNL     1      -8.925  14.626  67.730  1.00  0.00    -0.172 OA 
BRANCH  13  15
HETATM   15  O   UNL     1     -10.904  14.307  66.648  1.00  0.00    -0.295 OA 
BRANCH  15  16
HETATM   16  C   UNL     1     -10.307  14.676  65.382  1.00  0.00    -0.383 C  
HETATM   17  C   UNL     1     -10.922  15.985  64.911  1.00  0.00    -0.399 C  
HETATM   18  C   UNL     1     -10.540  13.565  64.360  1.00  0.00    -0.394 C  
ENDBRANCH  15  16
ENDBRANCH  13  15
ENDBRANCH  11  13
BRANCH  12  19
HETATM   19  C   UNL     1      -9.518  11.077  67.347  1.00  0.00    -0.173 A  
HETATM   20  C   UNL     1      -8.201  10.987  66.819  1.00  0.00    -0.149 A  
HETATM   21  C   UNL     1     -10.507  10.531  66.486  1.00  0.00    -0.276 A  
HETATM   22  N   UNL     1      -7.040  11.378  67.360  1.00  0.00    -0.105 NA 
HETATM   23  O   UNL     1      -6.060  11.047  66.442  1.00  0.00    -0.115 OA 
HETATM   24  C   UNL     1     -10.219   9.957  65.219  1.00  0.00    -0.095 A  
HETATM   25  C   UNL     1      -8.918   9.863  64.692  1.00  0.00    -0.260 A  
HETATM   26  C   UNL     1      -7.913  10.390  65.522  1.00  0.00    -0.153 A  
HETATM   27  N   UNL     1      -6.591  10.441  65.318  1.00  0.00    -0.120 NA 
ENDBRANCH  12  19
ENDBRANCH   3   5
ENDBRANCH   2   3
TORSDOF 6
ENDMDL
MODEL       40
REMARK 921   NORMALIZED FREE ENERGY PREDICTED BY IDOCK:   -4.93 KCAL/MOL
REMARK 922        TOTAL FREE ENERGY PREDICTED BY IDOCK:   -8.12 KCAL/MOL
REMARK 923 INTER-LIGAND FREE ENERGY PREDICTED BY IDOCK:   -6.84 KCAL/MOL
REMARK 924 INTRA-LIGAND FREE ENERGY PREDICTED BY IDOCK:   -1.28 KCAL/MOL
REMARK 927      BINDING AFFINITY PREDICTED BY RF-SCORE:    0.00 PKD
ROOT
HETATM    1  C   UNL     1      -5.413  17.104  66.502  1.00  0.00    -0.145 C  
HETATM    2  O   UNL     1      -6.571  16.312  66.780  1.00  0.00    -0.255 OA 
ENDROOT
BRANCH   2   3
HETATM    3  C   UNL     1      -6.690  15.792  68.021  1.00  0.00    -0.132 C  
HETATM    4  O   UNL     1      -5.989  16.086  68.977  1.00  0.00    -0.119 OA 
BRANCH   3   5
HETATM    5  C   UNL     1      -7.768  14.761  68.062  1.00  0.00    -0.130 C  
HETATM    6  C   UNL     1      -7.429  13.459  67.895  1.00  0.00    -0.149 C  
HETATM    7  C   UNL     1      -6.066  12.923  67.516  1.00  0.00    -0.143 C  
HETATM    8  N   UNL     1      -8.382  12.476  68.072  1.00  0.00    -0.162 NA 
HETATM    9  C   UNL     1      -9.720  12.692  68.324  1.00  0.00    -0.216 C  
HETATM   10  C   UNL     1     -10.560  11.437  68.409  1.00  0.00    -0.230 C  
HETATM   11  C   UNL     1     -10.186  13.957  68.479  1.00  0.00    -0.240 C  
HETATM   12  C   UNL     1      -9.220  15.159  68.435  1.00  0.00    -0.189 C  
BRANCH  11  13
HETATM   13  C   UNL     1     -11.659  14.162  68.591  1.00  0.00    -0.317 C  
HETATM   14  O   UNL     1     -12.374  14.412  67.626  1.00  0.00    -0.251 OA 
BRANCH  13  15
HETATM   15  O   UNL     1     -12.111  14.103  69.867  1.00  0.00    -0.308 OA 
BRANCH  15  16
HETATM   16  C   UNL     1     -12.595  15.367  70.381  1.00  0.00    -0.389 C  
HETATM   17  C   UNL     1     -11.569  15.928  71.353  1.00  0.00    -0.529 C  
HETATM   18  C   UNL     1     -13.943  15.162  71.069  1.00  0.00    -0.383 C  
ENDBRANCH  15  16
ENDBRANCH  13  15
ENDBRANCH  11  13
BRANCH  12  19
HETATM   19  C   UNL     1      -9.759  16.292  67.580  1.00  0.00    -0.234 A  
HETATM   20  C   UNL     1      -9.976  17.608  68.069  1.00  0.00    -0.326 A  
HETATM   21  C   UNL     1     -10.052  16.151  66.197  1.00  0.00    -0.356 A  
HETATM   22  N   UNL     1      -9.787  18.098  69.301  1.00  0.00    -0.126 NA 
HETATM   23  O   UNL     1     -10.133  19.436  69.237  1.00  0.00    -0.378 OA 
HETATM   24  C   UNL     1     -10.523  17.213  65.380  1.00  0.00    -0.096 A  
HETATM   25  C   UNL     1     -10.737  18.518  65.857  1.00  0.00    -0.237 A  
HETATM   26  C   UNL     1     -10.451  18.694  67.222  1.00  0.00    -0.423 A  
HETATM   27  N   UNL     1     -10.538  19.803  67.967  1.00  0.00    -0.377 NA 
ENDBRANCH  12  19
ENDBRANCH   3   5
ENDBRANCH   2   3
TORSDOF 6
ENDMDL
MODEL       41
REMARK 921   NORMALIZED FREE ENERGY PREDICTED BY IDOCK:   -4.93 KCAL/MOL
REMARK 922        TOTAL FREE ENERGY PREDICTED BY IDOCK:   -8.11 KCAL/MOL
REMARK 923 INTER-LIGAND FREE ENERGY PREDICTED BY IDOCK:   -6.62 KCAL/MOL
REMARK 924 INTRA-LIGAND FREE ENERGY PREDICTED BY IDOCK:   -1.49 KCAL/MOL
REMARK 927      BINDING AFFINITY PREDICTED BY RF-SCORE:    0.00 PKD
ROOT
HETATM    1  C   UNL     1      -7.807   7.212  66.396  1.00  0.00    -0.109 C  
HETATM    2  O   UNL     1      -8.663   7.973  65.537  1.00  0.00    -0.157 OA 
ENDROOT
BRANCH   2   3
HETATM    3  C   UNL     1      -8.220   9.179  65.122  1.00  0.00    -0.145 C  
HETATM    4  O   UNL     1      -7.076   9.424  64.767  1.00  0.00    -0.096 OA 
BRANCH   3   5
HETATM    5  C   UNL     1      -9.306  10.198  65.202  1.00  0.00    -0.290 C  
HETATM    6  C   UNL     1      -9.909  10.597  64.054  1.00  0.00    -0.338 C  
HETATM    7  C   UNL     1      -9.501  10.228  62.645  1.00  0.00    -0.309 C  
HETATM    8  N   UNL     1     -11.010  11.428  64.113  1.00  0.00    -0.359 NA 
HETATM    9  C   UNL     1     -11.530  11.990  65.259  1.00  0.00    -0.302 C  
HETATM   10  C   UNL     1     -12.703  12.918  65.034  1.00  0.00    -0.474 C  
HETATM   11  C   UNL     1     -10.990  11.691  66.468  1.00  0.00    -0.349 C  
HETATM   12  C   UNL     1      -9.832  10.678  66.579  1.00  0.00    -0.250 C  
BRANCH  11  13
HETATM   13  C   UNL     1     -11.472  12.438  67.664  1.00  0.00    -0.337 C  
HETATM   14  O   UNL     1     -11.128  13.588  67.918  1.00  0.00    -0.250 OA 
BRANCH  13  15
HETATM   15  O   UNL     1     -12.276  11.699  68.467  1.00  0.00    -0.485 OA 
BRANCH  15  16
HETATM   16  C   UNL     1     -11.792  11.564  69.825  1.00  0.00    -0.357 C  
HETATM   17  C   UNL     1     -12.158  10.181  70.341  1.00  0.00    -0.332 C  
HETATM   18  C   UNL     1     -12.403  12.653  70.702  1.00  0.00    -0.375 C  
ENDBRANCH  15  16
ENDBRANCH  13  15
ENDBRANCH  11  13
BRANCH  12  19
HETATM   19  C   UNL     1      -8.726  11.176  67.492  1.00  0.00    -0.129 A  
HETATM   20  C   UNL     1      -8.354  10.526  68.700  1.00  0.00    -0.132 A  
HETATM   21  C   UNL     1      -7.927  12.314  67.197  1.00  0.00    -0.161 A  
HETATM   22  N   UNL     1      -8.870   9.428  69.267  1.00  0.00    -0.143 NA 
HETATM   23  O   UNL     1      -8.136   9.213  70.419  1.00  0.00    -0.115 OA 
HETATM   24  C   UNL     1      -6.866  12.767  68.025  1.00  0.00    -0.100 A  
HETATM   25  C   UNL     1      -6.491  12.127  69.220  1.00  0.00    -0.111 A  
HETATM   26  C   UNL     1      -7.259  10.993  69.539  1.00  0.00    -0.090 A  
HETATM   27  N   UNL     1      -7.149  10.167  70.587  1.00  0.00    -0.321 NA 
ENDBRANCH  12  19
ENDBRANCH   3   5
ENDBRANCH   2   3
TORSDOF 6
ENDMDL
MODEL       42
REMARK 921   NORMALIZED FREE ENERGY PREDICTED BY IDOCK:   -4.93 KCAL/MOL
REMARK 922        TOTAL FREE ENERGY PREDICTED BY IDOCK:   -8.11 KCAL/MOL
REMARK 923 INTER-LIGAND FREE ENERGY PREDICTED BY IDOCK:   -7.36 KCAL/MOL
REMARK 924 INTRA-LIGAND FREE ENERGY PREDICTED BY IDOCK:   -0.75 KCAL/MOL
REMARK 927      BINDING AFFINITY PREDICTED BY RF-SCORE:    0.00 PKD
ROOT
HETATM    1  C   UNL     1      -5.869  18.893  69.556  1.00  0.00    -0.246 C  
HETATM    2  O   UNL     1      -5.818  17.616  68.913  1.00  0.00    -0.175 OA 
ENDROOT
BRANCH   2   3
HETATM    3  C   UNL     1      -6.269  16.548  69.606  1.00  0.00    -0.220 C  
HETATM    4  O   UNL     1      -5.979  16.288  70.765  1.00  0.00     0.081 OA 
BRANCH   3   5
HETATM    5  C   UNL     1      -7.137  15.689  68.750  1.00  0.00    -0.127 C  
HETATM    6  C   UNL     1      -6.619  14.542  68.243  1.00  0.00    -0.119 C  
HETATM    7  C   UNL     1      -5.178  14.089  68.325  1.00  0.00    -0.111 C  
HETATM    8  N   UNL     1      -7.440  13.660  67.569  1.00  0.00    -0.177 NA 
HETATM    9  C   UNL     1      -8.768  13.872  67.267  1.00  0.00    -0.217 C  
HETATM   10  C   UNL     1      -9.418  12.770  66.461  1.00  0.00    -0.253 C  
HETATM   11  C   UNL     1      -9.391  15.000  67.694  1.00  0.00    -0.194 C  
HETATM   12  C   UNL     1      -8.640  16.026  68.567  1.00  0.00    -0.190 C  
BRANCH  11  13
HETATM   13  C   UNL     1     -10.776  15.270  67.215  1.00  0.00    -0.311 C  
HETATM   14  O   UNL     1     -11.021  15.963  66.233  1.00  0.00    -0.244 OA 
BRANCH  13  15
HETATM   15  O   UNL     1     -11.731  14.723  68.006  1.00  0.00    -0.333 OA 
BRANCH  15  16
HETATM   16  C   UNL     1     -11.303  14.479  69.367  1.00  0.00    -0.279 C  
HETATM   17  C   UNL     1     -11.845  13.132  69.819  1.00  0.00    -0.386 C  
HETATM   18  C   UNL     1     -11.802  15.601  70.274  1.00  0.00    -0.386 C  
ENDBRANCH  15  16
ENDBRANCH  13  15
ENDBRANCH  11  13
BRANCH  12  19
HETATM   19  C   UNL     1      -8.871  17.451  68.098  1.00  0.00    -0.253 A  
HETATM   20  C   UNL     1      -8.271  18.000  66.933  1.00  0.00    -0.242 A  
HETATM   21  C   UNL     1      -9.749  18.354  68.755  1.00  0.00    -0.369 A  
HETATM   22  N   UNL     1      -7.417  17.434  66.070  1.00  0.00    -0.433 NA 
HETATM   23  O   UNL     1      -7.155  18.392  65.108  1.00  0.00    -0.469 OA 
HETATM   24  C   UNL     1     -10.001  19.677  68.305  1.00  0.00    -0.543 A  
HETATM   25  C   UNL     1      -9.412  20.225  67.151  1.00  0.00    -0.557 A  
HETATM   26  C   UNL     1      -8.540  19.355  66.473  1.00  0.00    -0.343 A  
HETATM   27  N   UNL     1      -7.841  19.567  65.351  1.00  0.00    -0.265 NA 
ENDBRANCH  12  19
ENDBRANCH   3   5
ENDBRANCH   2   3
TORSDOF 6
ENDMDL
MODEL       43
REMARK 921   NORMALIZED FREE ENERGY PREDICTED BY IDOCK:   -4.90 KCAL/MOL
REMARK 922        TOTAL FREE ENERGY PREDICTED BY IDOCK:   -8.07 KCAL/MOL
REMARK 923 INTER-LIGAND FREE ENERGY PREDICTED BY IDOCK:   -7.22 KCAL/MOL
REMARK 924 INTRA-LIGAND FREE ENERGY PREDICTED BY IDOCK:   -0.85 KCAL/MOL
REMARK 927      BINDING AFFINITY PREDICTED BY RF-SCORE:    0.00 PKD
ROOT
HETATM    1  C   UNL     1     -10.561  18.667  66.335  1.00  0.00    -0.349 C  
HETATM    2  O   UNL     1     -10.558  17.282  66.693  1.00  0.00    -0.278 OA 
ENDROOT
BRANCH   2   3
HETATM    3  C   UNL     1     -10.004  16.412  65.822  1.00  0.00    -0.302 C  
HETATM    4  O   UNL     1     -10.323  16.293  64.648  1.00  0.00    -0.429 OA 
BRANCH   3   5
HETATM    5  C   UNL     1      -8.977  15.567  66.497  1.00  0.00    -0.348 C  
HETATM    6  C   UNL     1      -7.761  16.108  66.760  1.00  0.00    -0.253 C  
HETATM    7  C   UNL     1      -7.258  17.461  66.306  1.00  0.00    -0.346 C  
HETATM    8  N   UNL     1      -6.845  15.399  67.510  1.00  0.00    -0.183 NA 
HETATM    9  C   UNL     1      -7.008  14.108  67.965  1.00  0.00    -0.145 C  
HETATM   10  C   UNL     1      -5.819  13.543  68.710  1.00  0.00    -0.083 C  
HETATM   11  C   UNL     1      -8.172  13.449  67.736  1.00  0.00    -0.172 C  
HETATM   12  C   UNL     1      -9.342  14.153  67.019  1.00  0.00    -0.253 C  
BRANCH  11  13
HETATM   13  C   UNL     1      -8.254  12.006  68.101  1.00  0.00    -0.163 C  
HETATM   14  O   UNL     1      -7.447  11.170  67.706  1.00  0.00    -0.090 OA 
BRANCH  13  15
HETATM   15  O   UNL     1      -9.338  11.707  68.857  1.00  0.00    -0.097 OA 
BRANCH  15  16
HETATM   16  C   UNL     1      -9.725  10.313  68.809  1.00  0.00    -0.177 C  
HETATM   17  C   UNL     1     -10.929  10.168  67.891  1.00  0.00    -0.335 C  
HETATM   18  C   UNL     1     -10.050   9.819  70.217  1.00  0.00    -0.323 C  
ENDBRANCH  15  16
ENDBRANCH  13  15
ENDBRANCH  11  13
BRANCH  12  19
HETATM   19  C   UNL     1      -9.967  13.274  65.950  1.00  0.00    -0.280 A  
HETATM   20  C   UNL     1     -11.361  13.247  65.673  1.00  0.00    -0.304 A  
HETATM   21  C   UNL     1      -9.208  12.431  65.095  1.00  0.00     0.421 A  
HETATM   22  N   UNL     1     -12.357  13.922  66.262  1.00  0.00    -0.460 NA 
HETATM   23  O   UNL     1     -13.514  13.545  65.605  1.00  0.00    -0.377 OA 
HETATM   24  C   UNL     1      -9.778  11.632  64.068  1.00  0.00    -0.225 A  
HETATM   25  C   UNL     1     -11.156  11.603  63.788  1.00  0.00    -0.499 A  
HETATM   26  C   UNL     1     -11.937  12.431  64.613  1.00  0.00    -0.394 A  
HETATM   27  N   UNL     1     -13.260  12.635  64.596  1.00  0.00    -0.775 NA 
ENDBRANCH  12  19
ENDBRANCH   3   5
ENDBRANCH   2   3
TORSDOF 6
ENDMDL
MODEL       44
REMARK 921   NORMALIZED FREE ENERGY PREDICTED BY IDOCK:   -4.89 KCAL/MOL
REMARK 922        TOTAL FREE ENERGY PREDICTED BY IDOCK:   -8.06 KCAL/MOL
REMARK 923 INTER-LIGAND FREE ENERGY PREDICTED BY IDOCK:   -6.78 KCAL/MOL
REMARK 924 INTRA-LIGAND FREE ENERGY PREDICTED BY IDOCK:   -1.29 KCAL/MOL
REMARK 927      BINDING AFFINITY PREDICTED BY RF-SCORE:    0.00 PKD
ROOT
HETATM    1  C   UNL     1      -5.751   9.978  64.260  1.00  0.00    -0.118 C  
HETATM    2  O   UNL     1      -6.928  10.376  64.970  1.00  0.00    -0.128 OA 
ENDROOT
BRANCH   2   3
HETATM    3  C   UNL     1      -6.763  11.084  66.108  1.00  0.00    -0.068 C  
HETATM    4  O   UNL     1      -5.880  11.906  66.303  1.00  0.00    -0.160 OA 
BRANCH   3   5
HETATM    5  C   UNL     1      -7.778  10.692  67.128  1.00  0.00    -0.110 C  
HETATM    6  C   UNL     1      -7.558   9.578  67.870  1.00  0.00    -0.087 C  
HETATM    7  C   UNL     1      -6.442   8.574  67.681  1.00  0.00    -0.057 C  
HETATM    8  N   UNL     1      -8.406   9.274  68.916  1.00  0.00    -0.118 NA 
HETATM    9  C   UNL     1      -9.554   9.963  69.244  1.00  0.00    -0.205 C  
HETATM   10  C   UNL     1     -10.338   9.377  70.397  1.00  0.00    -0.318 C  
HETATM   11  C   UNL     1      -9.898  11.079  68.551  1.00  0.00    -0.194 C  
HETATM   12  C   UNL     1      -8.983  11.619  67.433  1.00  0.00    -0.166 C  
BRANCH  11  13
HETATM   13  C   UNL     1     -11.222  11.705  68.828  1.00  0.00    -0.245 C  
HETATM   14  O   UNL     1     -12.248  11.392  68.230  1.00  0.00    -0.588 OA 
BRANCH  13  15
HETATM   15  O   UNL     1     -11.165  12.689  69.757  1.00  0.00    -0.094 OA 
BRANCH  15  16
HETATM   16  C   UNL     1     -12.446  13.028  70.340  1.00  0.00    -0.194 C  
HETATM   17  C   UNL     1     -12.473  14.519  70.637  1.00  0.00    -0.409 C  
HETATM   18  C   UNL     1     -12.665  12.214  71.613  1.00  0.00    -0.314 C  
ENDBRANCH  15  16
ENDBRANCH  13  15
ENDBRANCH  11  13
BRANCH  12  19
HETATM   19  C   UNL     1      -9.767  11.996  66.189  1.00  0.00    -0.254 A  
HETATM   20  C   UNL     1     -10.096  13.335  65.845  1.00  0.00    -0.291 A  
HETATM   21  C   UNL     1     -10.203  11.046  65.227  1.00  0.00    -0.344 A  
HETATM   22  N   UNL     1      -9.828  14.471  66.502  1.00  0.00    -0.273 NA 
HETATM   23  O   UNL     1     -10.353  15.492  65.730  1.00  0.00    -0.312 OA 
HETATM   24  C   UNL     1     -10.905  11.391  64.041  1.00  0.00    -0.450 A  
HETATM   25  C   UNL     1     -11.232  12.714  63.694  1.00  0.00    -0.525 A  
HETATM   26  C   UNL     1     -10.810  13.681  64.623  1.00  0.00    -0.407 A  
HETATM   27  N   UNL     1     -10.953  15.012  64.580  1.00  0.00    -0.350 NA 
ENDBRANCH  12  19
ENDBRANCH   3   5
ENDBRANCH   2   3
TORSDOF 6
ENDMDL
MODEL       45
REMARK 921   NORMALIZED FREE ENERGY PREDICTED BY IDOCK:   -4.88 KCAL/MOL
REMARK 922        TOTAL FREE ENERGY PREDICTED BY IDOCK:   -8.05 KCAL/MOL
REMARK 923 INTER-LIGAND FREE ENERGY PREDICTED BY IDOCK:   -6.61 KCAL/MOL
REMARK 924 INTRA-LIGAND FREE ENERGY PREDICTED BY IDOCK:   -1.44 KCAL/MOL
REMARK 927      BINDING AFFINITY PREDICTED BY RF-SCORE:    0.00 PKD
ROOT
HETATM    1  C   UNL     1      -6.506  14.366  69.628  1.00  0.00    -0.145 C  
HETATM    2  O   UNL     1      -7.331  14.919  68.599  1.00  0.00    -0.109 OA 
ENDROOT
BRANCH   2   3
HETATM    3  C   UNL     1      -8.620  15.184  68.905  1.00  0.00    -0.200 C  
HETATM    4  O   UNL     1      -9.050  15.373  70.033  1.00  0.00    -0.090 OA 
BRANCH   3   5
HETATM    5  C   UNL     1      -9.470  15.163  67.679  1.00  0.00    -0.201 C  
HETATM    6  C   UNL     1      -9.971  16.336  67.216  1.00  0.00    -0.250 C  
HETATM    7  C   UNL     1      -9.890  17.684  67.897  1.00  0.00    -0.300 C  
HETATM    8  N   UNL     1     -10.638  16.365  66.008  1.00  0.00    -0.302 NA 
HETATM    9  C   UNL     1     -10.939  15.266  65.231  1.00  0.00    -0.393 C  
HETATM   10  C   UNL     1     -11.738  15.571  63.984  1.00  0.00     0.053 C  
HETATM   11  C   UNL     1     -10.517  14.032  65.607  1.00  0.00    -0.328 C  
HETATM   12  C   UNL     1      -9.651  13.852  66.871  1.00  0.00    -0.271 C  
BRANCH  11  13
HETATM   13  C   UNL     1     -10.995  12.852  64.831  1.00  0.00    -0.301 C  
HETATM   14  O   UNL     1     -12.147  12.433  64.892  1.00  0.00    -0.404 OA 
BRANCH  13  15
HETATM   15  O   UNL     1     -10.017  12.259  64.104  1.00  0.00    -0.293 OA 
BRANCH  15  16
HETATM   16  C   UNL     1     -10.244  10.854  63.844  1.00  0.00    -0.354 C  
HETATM   17  C   UNL     1      -9.758  10.048  65.039  1.00  0.00    -0.386 C  
HETATM   18  C   UNL     1      -9.508  10.439  62.572  1.00  0.00    -0.292 C  
ENDBRANCH  15  16
ENDBRANCH  13  15
ENDBRANCH  11  13
BRANCH  12  19
HETATM   19  C   UNL     1     -10.128  12.693  67.728  1.00  0.00    -0.220 A  
HETATM   20  C   UNL     1      -9.300  11.600  68.099  1.00  0.00    -0.188 A  
HETATM   21  C   UNL     1     -11.436  12.619  68.278  1.00  0.00    -0.356 A  
HETATM   22  N   UNL     1      -8.021  11.357  67.782  1.00  0.00    -0.114 NA 
HETATM   23  O   UNL     1      -7.690  10.171  68.412  1.00  0.00    -0.086 OA 
HETATM   24  C   UNL     1     -11.881  11.558  69.110  1.00  0.00    -0.406 A  
HETATM   25  C   UNL     1     -11.066  10.475  69.483  1.00  0.00    -0.320 A  
HETATM   26  C   UNL     1      -9.762  10.519  68.960  1.00  0.00    -0.210 A  
HETATM   27  N   UNL     1      -8.752   9.657  69.134  1.00  0.00    -0.142 NA 
ENDBRANCH  12  19
ENDBRANCH   3   5
ENDBRANCH   2   3
TORSDOF 6
ENDMDL
MODEL       46
REMARK 921   NORMALIZED FREE ENERGY PREDICTED BY IDOCK:   -4.88 KCAL/MOL
REMARK 922        TOTAL FREE ENERGY PREDICTED BY IDOCK:   -8.04 KCAL/MOL
REMARK 923 INTER-LIGAND FREE ENERGY PREDICTED BY IDOCK:   -6.34 KCAL/MOL
REMARK 924 INTRA-LIGAND FREE ENERGY PREDICTED BY IDOCK:   -1.70 KCAL/MOL
REMARK 927      BINDING AFFINITY PREDICTED BY RF-SCORE:    0.00 PKD
ROOT
HETATM    1  C   UNL     1     -12.235  13.413  65.109  1.00  0.00    -0.434 C  
HETATM    2  O   UNL     1     -12.487  13.357  66.516  1.00  0.00    -0.331 OA 
ENDROOT
BRANCH   2   3
HETATM    3  C   UNL     1     -11.434  13.515  67.347  1.00  0.00    -0.336 C  
HETATM    4  O   UNL     1     -10.576  14.378  67.238  1.00  0.00    -0.274 OA 
BRANCH   3   5
HETATM    5  C   UNL     1     -11.423  12.455  68.396  1.00  0.00    -0.356 C  
HETATM    6  C   UNL     1     -11.995  12.723  69.596  1.00  0.00    -0.288 C  
HETATM    7  C   UNL     1     -12.529  14.059  70.064  1.00  0.00    -0.339 C  
HETATM    8  N   UNL     1     -12.127  11.716  70.532  1.00  0.00    -0.377 NA 
HETATM    9  C   UNL     1     -11.639  10.433  70.403  1.00  0.00    -0.337 C  
HETATM   10  C   UNL     1     -11.864   9.545  71.606  1.00  0.00    -0.468 C  
HETATM   11  C   UNL     1     -11.018  10.054  69.257  1.00  0.00    -0.264 C  
HETATM   12  C   UNL     1     -10.904  11.031  68.069  1.00  0.00    -0.278 C  
BRANCH  11  13
HETATM   13  C   UNL     1     -10.364   8.715  69.214  1.00  0.00    -0.221 C  
HETATM   14  O   UNL     1     -10.845   7.755  68.619  1.00  0.00    -0.097 OA 
BRANCH  13  15
HETATM   15  O   UNL     1      -9.224   8.653  69.944  1.00  0.00    -0.150 OA 
BRANCH  15  16
HETATM   16  C   UNL     1      -8.374   7.528  69.617  1.00  0.00    -0.131 C  
HETATM   17  C   UNL     1      -8.013   6.796  70.901  1.00  0.00    -0.106 C  
HETATM   18  C   UNL     1      -7.120   8.021  68.899  1.00  0.00    -0.067 C  
ENDBRANCH  15  16
ENDBRANCH  13  15
ENDBRANCH  11  13
BRANCH  12  19
HETATM   19  C   UNL     1      -9.509  11.036  67.468  1.00  0.00    -0.175 A  
HETATM   20  C   UNL     1      -9.222  10.597  66.147  1.00  0.00    -0.172 A  
HETATM   21  C   UNL     1      -8.367  11.527  68.157  1.00  0.00    -0.152 A  
HETATM   22  N   UNL     1     -10.050  10.100  65.219  1.00  0.00    -0.314 NA 
HETATM   23  O   UNL     1      -9.268   9.847  64.107  1.00  0.00    -0.250 OA 
HETATM   24  C   UNL     1      -7.065  11.570  67.592  1.00  0.00    -0.098 A  
HETATM   25  C   UNL     1      -6.775  11.140  66.285  1.00  0.00    -0.064 A  
HETATM   26  C   UNL     1      -7.885  10.652  65.573  1.00  0.00    -0.099 A  
HETATM   27  N   UNL     1      -7.945  10.185  64.319  1.00  0.00    -0.157 NA 
ENDBRANCH  12  19
ENDBRANCH   3   5
ENDBRANCH   2   3
TORSDOF 6
ENDMDL
MODEL       47
REMARK 921   NORMALIZED FREE ENERGY PREDICTED BY IDOCK:   -4.87 KCAL/MOL
REMARK 922        TOTAL FREE ENERGY PREDICTED BY IDOCK:   -8.03 KCAL/MOL
REMARK 923 INTER-LIGAND FREE ENERGY PREDICTED BY IDOCK:   -6.48 KCAL/MOL
REMARK 924 INTRA-LIGAND FREE ENERGY PREDICTED BY IDOCK:   -1.55 KCAL/MOL
REMARK 927      BINDING AFFINITY PREDICTED BY RF-SCORE:    0.00 PKD
ROOT
HETATM    1  C   UNL     1      -9.704   6.874  73.716  1.00  0.00    -0.254 C  
HETATM    2  O   UNL     1     -10.963   7.514  73.490  1.00  0.00    -0.339 OA 
ENDROOT
BRANCH   2   3
HETATM    3  C   UNL     1     -11.607   7.237  72.336  1.00  0.00    -0.268 C  
HETATM    4  O   UNL     1     -12.055   6.143  72.026  1.00  0.00    -0.318 OA 
BRANCH   3   5
HETATM    5  C   UNL     1     -11.657   8.440  71.455  1.00  0.00    -0.338 C  
HETATM    6  C   UNL     1     -12.715   9.282  71.564  1.00  0.00    -0.350 C  
HETATM    7  C   UNL     1     -13.961   9.063  72.393  1.00  0.00    -0.517 C  
HETATM    8  N   UNL     1     -12.716  10.473  70.866  1.00  0.00    -0.376 NA 
HETATM    9  C   UNL     1     -11.754  10.874  69.964  1.00  0.00    -0.345 C  
HETATM   10  C   UNL     1     -12.032  12.198  69.287  1.00  0.00    -0.318 C  
HETATM   11  C   UNL     1     -10.661  10.099  69.746  1.00  0.00    -0.317 C  
HETATM   12  C   UNL     1     -10.454   8.796  70.544  1.00  0.00    -0.246 C  
BRANCH  11  13
HETATM   13  C   UNL     1      -9.726  10.484  68.651  1.00  0.00    -0.173 C  
HETATM   14  O   UNL     1      -8.634  11.006  68.857  1.00  0.00    -0.161 OA 
BRANCH  13  15
HETATM   15  O   UNL     1     -10.228  10.255  67.413  1.00  0.00    -0.194 OA 
BRANCH  15  16
HETATM   16  C   UNL     1      -9.407  10.770  66.338  1.00  0.00    -0.174 C  
HETATM   17  C   UNL     1     -10.166  11.882  65.629  1.00  0.00    -0.280 C  
HETATM   18  C   UNL     1      -9.060   9.643  65.368  1.00  0.00    -0.265 C  
ENDBRANCH  15  16
ENDBRANCH  13  15
ENDBRANCH  11  13
BRANCH  12  19
HETATM   19  C   UNL     1     -10.029   7.643  69.652  1.00  0.00    -0.185 A  
HETATM   20  C   UNL     1      -8.737   7.053  69.695  1.00  0.00    -0.141 A  
HETATM   21  C   UNL     1     -10.902   7.016  68.723  1.00  0.00    -0.198 A  
HETATM   22  N   UNL     1      -7.683   7.371  70.458  1.00  0.00    -0.094 NA 
HETATM   23  O   UNL     1      -6.683   6.478  70.119  1.00  0.00    -0.046 OA 
HETATM   24  C   UNL     1     -10.527   5.914  67.909  1.00  0.00    -0.297 A  
HETATM   25  C   UNL     1      -9.251   5.324  67.949  1.00  0.00    -0.122 A  
HETATM   26  C   UNL     1      -8.363   5.917  68.863  1.00  0.00    -0.102 A  
HETATM   27  N   UNL     1      -7.096   5.587  69.145  1.00  0.00    -0.063 NA 
ENDBRANCH  12  19
ENDBRANCH   3   5
ENDBRANCH   2   3
TORSDOF 6
ENDMDL
MODEL       48
REMARK 921   NORMALIZED FREE ENERGY PREDICTED BY IDOCK:   -4.86 KCAL/MOL
REMARK 922        TOTAL FREE ENERGY PREDICTED BY IDOCK:   -8.02 KCAL/MOL
REMARK 923 INTER-LIGAND FREE ENERGY PREDICTED BY IDOCK:   -7.27 KCAL/MOL
REMARK 924 INTRA-LIGAND FREE ENERGY PREDICTED BY IDOCK:   -0.75 KCAL/MOL
REMARK 927      BINDING AFFINITY PREDICTED BY RF-SCORE:    0.00 PKD
ROOT
HETATM    1  C   UNL     1     -14.402  15.608  72.077  1.00  0.00    -0.384 C  
HETATM    2  O   UNL     1     -13.580  15.677  70.908  1.00  0.00    -0.568 OA 
ENDROOT
BRANCH   2   3
HETATM    3  C   UNL     1     -12.280  15.331  71.036  1.00  0.00    -0.350 C  
HETATM    4  O   UNL     1     -11.471  15.895  71.757  1.00  0.00    -0.407 OA 
BRANCH   3   5
HETATM    5  C   UNL     1     -11.944  14.193  70.133  1.00  0.00    -0.400 C  
HETATM    6  C   UNL     1     -12.270  12.935  70.523  1.00  0.00    -0.314 C  
HETATM    7  C   UNL     1     -12.820  12.523  71.871  1.00  0.00    -0.311 C  
HETATM    8  N   UNL     1     -12.102  11.882  69.648  1.00  0.00    -0.270 NA 
HETATM    9  C   UNL     1     -11.529  11.963  68.396  1.00  0.00    -0.299 C  
HETATM   10  C   UNL     1     -11.406  10.643  67.668  1.00  0.00    -0.284 C  
HETATM   11  C   UNL     1     -11.132  13.166  67.907  1.00  0.00    -0.288 C  
HETATM   12  C   UNL     1     -11.369  14.457  68.717  1.00  0.00    -0.299 C  
BRANCH  11  13
HETATM   13  C   UNL     1     -10.375  13.195  66.623  1.00  0.00    -0.265 C  
HETATM   14  O   UNL     1     -10.914  13.081  65.527  1.00  0.00    -0.271 OA 
BRANCH  13  15
HETATM   15  O   UNL     1      -9.035  13.297  66.795  1.00  0.00    -0.228 OA 
BRANCH  15  16
HETATM   16  C   UNL     1      -8.384  12.046  67.122  1.00  0.00    -0.181 C  
HETATM   17  C   UNL     1      -7.048  12.345  67.785  1.00  0.00    -0.120 C  
HETATM   18  C   UNL     1      -8.190  11.219  65.853  1.00  0.00     0.012 C  
ENDBRANCH  15  16
ENDBRANCH  13  15
ENDBRANCH  11  13
BRANCH  12  19
HETATM   19  C   UNL     1     -10.141  15.350  68.737  1.00  0.00    -0.213 A  
HETATM   20  C   UNL     1     -10.110  16.652  68.168  1.00  0.00    -0.267 A  
HETATM   21  C   UNL     1      -8.923  14.984  69.368  1.00  0.00    -0.113 A  
HETATM   22  N   UNL     1     -11.075  17.320  67.522  1.00  0.00    -0.080 NA 
HETATM   23  O   UNL     1     -10.532  18.549  67.191  1.00  0.00    -0.380 OA 
HETATM   24  C   UNL     1      -7.780  15.825  69.424  1.00  0.00    -0.213 A  
HETATM   25  C   UNL     1      -7.744  17.116  68.866  1.00  0.00    -0.230 A  
HETATM   26  C   UNL     1      -8.937  17.513  68.237  1.00  0.00    -0.267 A  
HETATM   27  N   UNL     1      -9.226  18.670  67.628  1.00  0.00    -0.279 NA 
ENDBRANCH  12  19
ENDBRANCH   3   5
ENDBRANCH   2   3
TORSDOF 6
ENDMDL
MODEL       49
REMARK 921   NORMALIZED FREE ENERGY PREDICTED BY IDOCK:   -4.85 KCAL/MOL
REMARK 922        TOTAL FREE ENERGY PREDICTED BY IDOCK:   -8.01 KCAL/MOL
REMARK 923 INTER-LIGAND FREE ENERGY PREDICTED BY IDOCK:   -7.09 KCAL/MOL
REMARK 924 INTRA-LIGAND FREE ENERGY PREDICTED BY IDOCK:   -0.92 KCAL/MOL
REMARK 927      BINDING AFFINITY PREDICTED BY RF-SCORE:    0.00 PKD
ROOT
HETATM    1  C   UNL     1     -13.334   9.860  71.923  1.00  0.00    -0.424 C  
HETATM    2  O   UNL     1     -12.702   9.810  70.641  1.00  0.00    -0.210 OA 
ENDROOT
BRANCH   2   3
HETATM    3  C   UNL     1     -11.890  10.835  70.303  1.00  0.00    -0.349 C  
HETATM    4  O   UNL     1     -12.075  12.006  70.600  1.00  0.00    -0.373 OA 
BRANCH   3   5
HETATM    5  C   UNL     1     -10.751  10.355  69.468  1.00  0.00    -0.284 C  
HETATM    6  C   UNL     1      -9.859   9.494  70.019  1.00  0.00    -0.233 C  
HETATM    7  C   UNL     1      -9.796   9.064  71.467  1.00  0.00    -0.381 C  
HETATM    8  N   UNL     1      -8.881   8.924  69.228  1.00  0.00    -0.138 NA 
HETATM    9  C   UNL     1      -8.651   9.217  67.901  1.00  0.00    -0.120 C  
HETATM   10  C   UNL     1      -7.471   8.497  67.288  1.00  0.00    -0.093 C  
HETATM   11  C   UNL     1      -9.460  10.090  67.248  1.00  0.00    -0.179 C  
HETATM   12  C   UNL     1     -10.675  10.716  67.962  1.00  0.00    -0.275 C  
BRANCH  11  13
HETATM   13  C   UNL     1      -9.087  10.503  65.865  1.00  0.00    -0.168 C  
HETATM   14  O   UNL     1      -8.010  11.023  65.589  1.00  0.00    -0.094 OA 
BRANCH  13  15
HETATM   15  O   UNL     1     -10.078  10.303  64.962  1.00  0.00    -0.323 OA 
BRANCH  15  16
HETATM   16  C   UNL     1     -10.032  11.199  63.826  1.00  0.00    -0.350 C  
HETATM   17  C   UNL     1     -11.418  11.787  63.607  1.00  0.00    -0.524 C  
HETATM   18  C   UNL     1      -9.560  10.439  62.589  1.00  0.00    -0.274 C  
ENDBRANCH  15  16
ENDBRANCH  13  15
ENDBRANCH  11  13
BRANCH  12  19
HETATM   19  C   UNL     1     -10.778  12.210  67.708  1.00  0.00    -0.241 A  
HETATM   20  C   UNL     1      -9.737  13.129  68.010  1.00  0.00    -0.224 A  
HETATM   21  C   UNL     1     -11.907  12.819  67.100  1.00  0.00    -0.415 A  
HETATM   22  N   UNL     1      -8.538  12.904  68.562  1.00  0.00    -0.099 NA 
HETATM   23  O   UNL     1      -7.907  14.133  68.620  1.00  0.00    -0.135 OA 
HETATM   24  C   UNL     1     -11.999  14.210  66.825  1.00  0.00    -0.475 A  
HETATM   25  C   UNL     1     -10.973  15.125  67.119  1.00  0.00    -0.326 A  
HETATM   26  C   UNL     1      -9.836  14.553  67.717  1.00  0.00    -0.220 A  
HETATM   27  N   UNL     1      -8.698  15.143  68.103  1.00  0.00    -0.163 NA 
ENDBRANCH  12  19
ENDBRANCH   3   5
ENDBRANCH   2   3
TORSDOF 6
ENDMDL
MODEL       50
REMARK 921   NORMALIZED FREE ENERGY PREDICTED BY IDOCK:   -4.84 KCAL/MOL
REMARK 922        TOTAL FREE ENERGY PREDICTED BY IDOCK:   -7.99 KCAL/MOL
REMARK 923 INTER-LIGAND FREE ENERGY PREDICTED BY IDOCK:   -6.64 KCAL/MOL
REMARK 924 INTRA-LIGAND FREE ENERGY PREDICTED BY IDOCK:   -1.36 KCAL/MOL
REMARK 927      BINDING AFFINITY PREDICTED BY RF-SCORE:    0.00 PKD
ROOT
HETATM    1  C   UNL     1      -8.090   7.082  66.077  1.00  0.00    -0.122 C  
HETATM    2  O   UNL     1      -8.706   7.975  65.143  1.00  0.00    -0.104 OA 
ENDROOT
BRANCH   2   3
HETATM    3  C   UNL     1      -8.194   9.219  65.036  1.00  0.00    -0.145 C  
HETATM    4  O   UNL     1      -7.018   9.480  64.827  1.00  0.00    -0.095 OA 
BRANCH   3   5
HETATM    5  C   UNL     1      -9.250  10.248  65.259  1.00  0.00    -0.244 C  
HETATM    6  C   UNL     1      -9.727  10.933  64.190  1.00  0.00    -0.296 C  
HETATM    7  C   UNL     1      -9.196  10.880  62.775  1.00  0.00    -0.360 C  
HETATM    8  N   UNL     1     -10.802  11.785  64.347  1.00  0.00    -0.314 NA 
HETATM    9  C   UNL     1     -11.413  12.093  65.544  1.00  0.00    -0.343 C  
HETATM   10  C   UNL     1     -12.529  13.108  65.443  1.00  0.00    -0.535 C  
HETATM   11  C   UNL     1     -11.001  11.494  66.691  1.00  0.00    -0.349 C  
HETATM   12  C   UNL     1      -9.892  10.423  66.660  1.00  0.00    -0.251 C  
BRANCH  11  13
HETATM   13  C   UNL     1     -11.573  11.968  67.983  1.00  0.00    -0.342 C  
HETATM   14  O   UNL     1     -12.488  11.390  68.562  1.00  0.00    -0.388 OA 
BRANCH  13  15
HETATM   15  O   UNL     1     -11.024  13.129  68.418  1.00  0.00    -0.241 OA 
BRANCH  15  16
HETATM   16  C   UNL     1     -11.987  14.094  68.902  1.00  0.00    -0.341 C  
HETATM   17  C   UNL     1     -11.613  15.470  68.373  1.00  0.00    -0.368 C  
HETATM   18  C   UNL     1     -12.005  14.083  70.429  1.00  0.00    -0.398 C  
ENDBRANCH  15  16
ENDBRANCH  13  15
ENDBRANCH  11  13
BRANCH  12  19
HETATM   19  C   UNL     1      -8.863  10.637  67.757  1.00  0.00    -0.133 A  
HETATM   20  C   UNL     1      -8.838   9.889  68.965  1.00  0.00    -0.156 A  
HETATM   21  C   UNL     1      -7.801  11.575  67.654  1.00  0.00    -0.125 A  
HETATM   22  N   UNL     1      -9.664   8.920  69.381  1.00  0.00    -0.166 NA 
HETATM   23  O   UNL     1      -9.187   8.516  70.615  1.00  0.00    -0.148 OA 
HETATM   24  C   UNL     1      -6.813  11.758  68.658  1.00  0.00    -0.081 A  
HETATM   25  C   UNL     1      -6.781  11.019  69.854  1.00  0.00    -0.125 A  
HETATM   26  C   UNL     1      -7.816  10.077  69.985  1.00  0.00    -0.158 A  
HETATM   27  N   UNL     1      -8.057   9.221  70.986  1.00  0.00    -0.307 NA 
ENDBRANCH  12  19
ENDBRANCH   3   5
ENDBRANCH   2   3
TORSDOF 6
ENDMDL
MODEL       51
REMARK 921   NORMALIZED FREE ENERGY PREDICTED BY IDOCK:   -4.84 KCAL/MOL
REMARK 922        TOTAL FREE ENERGY PREDICTED BY IDOCK:   -7.99 KCAL/MOL
REMARK 923 INTER-LIGAND FREE ENERGY PREDICTED BY IDOCK:   -6.88 KCAL/MOL
REMARK 924 INTRA-LIGAND FREE ENERGY PREDICTED BY IDOCK:   -1.11 KCAL/MOL
REMARK 927      BINDING AFFINITY PREDICTED BY RF-SCORE:    0.00 PKD
ROOT
HETATM    1  C   UNL     1     -11.888  15.636  69.451  1.00  0.00    -0.375 C  
HETATM    2  O   UNL     1     -11.464  14.305  69.140  1.00  0.00    -0.257 OA 
ENDROOT
BRANCH   2   3
HETATM    3  C   UNL     1     -10.232  14.148  68.611  1.00  0.00    -0.238 C  
HETATM    4  O   UNL     1      -9.230  14.747  68.974  1.00  0.00    -0.195 OA 
BRANCH   3   5
HETATM    5  C   UNL     1     -10.261  13.178  67.478  1.00  0.00    -0.225 C  
HETATM    6  C   UNL     1     -10.549  13.638  66.236  1.00  0.00    -0.289 C  
HETATM    7  C   UNL     1     -11.003  15.035  65.873  1.00  0.00    -0.343 C  
HETATM    8  N   UNL     1     -10.442  12.792  65.151  1.00  0.00    -0.294 NA 
HETATM    9  C   UNL     1     -10.145  11.447  65.209  1.00  0.00    -0.268 C  
HETATM   10  C   UNL     1     -10.156  10.736  63.874  1.00  0.00    -0.397 C  
HETATM   11  C   UNL     1      -9.869  10.863  66.404  1.00  0.00    -0.249 C  
HETATM   12  C   UNL     1      -9.825  11.706  67.695  1.00  0.00    -0.195 C  
BRANCH  11  13
HETATM   13  C   UNL     1      -9.710   9.382  66.449  1.00  0.00    -0.250 C  
HETATM   14  O   UNL     1     -10.652   8.613  66.617  1.00  0.00    -0.240 OA 
BRANCH  13  15
HETATM   15  O   UNL     1      -8.420   8.979  66.349  1.00  0.00    -0.116 OA 
BRANCH  15  16
HETATM   16  C   UNL     1      -8.239   7.759  65.591  1.00  0.00    -0.135 C  
HETATM   17  C   UNL     1      -7.349   6.815  66.384  1.00  0.00    -0.073 C  
HETATM   18  C   UNL     1      -7.619   8.082  64.234  1.00  0.00    -0.118 C  
ENDBRANCH  15  16
ENDBRANCH  13  15
ENDBRANCH  11  13
BRANCH  12  19
HETATM   19  C   UNL     1     -10.565  11.034  68.838  1.00  0.00    -0.239 A  
HETATM   20  C   UNL     1      -9.932  10.199  69.798  1.00  0.00    -0.220 A  
HETATM   21  C   UNL     1     -11.952  11.218  69.081  1.00  0.00    -0.405 A  
HETATM   22  N   UNL     1      -8.647   9.831  69.888  1.00  0.00    -0.207 NA 
HETATM   23  O   UNL     1      -8.558   9.028  71.011  1.00  0.00    -0.188 OA 
HETATM   24  C   UNL     1     -12.647  10.624  70.168  1.00  0.00    -0.283 A  
HETATM   25  C   UNL     1     -12.026   9.799  71.123  1.00  0.00    -0.463 A  
HETATM   26  C   UNL     1     -10.650   9.600  70.915  1.00  0.00    -0.316 A  
HETATM   27  N   UNL     1      -9.781   8.887  71.642  1.00  0.00    -0.306 NA 
ENDBRANCH  12  19
ENDBRANCH   3   5
ENDBRANCH   2   3
TORSDOF 6
ENDMDL
MODEL       52
REMARK 921   NORMALIZED FREE ENERGY PREDICTED BY IDOCK:   -4.79 KCAL/MOL
REMARK 922        TOTAL FREE ENERGY PREDICTED BY IDOCK:   -7.93 KCAL/MOL
REMARK 923 INTER-LIGAND FREE ENERGY PREDICTED BY IDOCK:   -6.54 KCAL/MOL
REMARK 924 INTRA-LIGAND FREE ENERGY PREDICTED BY IDOCK:   -1.39 KCAL/MOL
REMARK 927      BINDING AFFINITY PREDICTED BY RF-SCORE:    0.00 PKD
ROOT
HETATM    1  C   UNL     1      -8.461   6.420  65.842  1.00  0.00    -0.147 C  
HETATM    2  O   UNL     1      -9.282   7.568  65.607  1.00  0.00     0.012 OA 
ENDROOT
BRANCH   2   3
HETATM    3  C   UNL     1      -8.661   8.733  65.322  1.00  0.00    -0.187 C  
HETATM    4  O   UNL     1      -7.500   8.840  64.957  1.00  0.00    -0.093 OA 
BRANCH   3   5
HETATM    5  C   UNL     1      -9.570   9.891  65.563  1.00  0.00    -0.341 C  
HETATM    6  C   UNL     1     -10.031  10.588  64.495  1.00  0.00    -0.345 C  
HETATM    7  C   UNL     1      -9.605  10.418  63.053  1.00  0.00    -0.341 C  
HETATM    8  N   UNL     1     -10.984  11.570  64.678  1.00  0.00    -0.310 NA 
HETATM    9  C   UNL     1     -11.474  11.994  65.895  1.00  0.00    -0.333 C  
HETATM   10  C   UNL     1     -12.465  13.134  65.817  1.00  0.00    -0.441 C  
HETATM   11  C   UNL     1     -11.062  11.393  67.040  1.00  0.00    -0.364 C  
HETATM   12  C   UNL     1     -10.093  10.195  66.991  1.00  0.00    -0.277 C  
BRANCH  11  13
HETATM   13  C   UNL     1     -11.488  11.981  68.342  1.00  0.00    -0.301 C  
HETATM   14  O   UNL     1     -11.085  13.066  68.750  1.00  0.00    -0.249 OA 
BRANCH  13  15
HETATM   15  O   UNL     1     -12.312  11.171  69.051  1.00  0.00    -0.479 OA 
BRANCH  15  16
HETATM   16  C   UNL     1     -11.954  11.041  70.447  1.00  0.00    -0.368 C  
HETATM   17  C   UNL     1     -12.025   9.572  70.838  1.00  0.00    -0.372 C  
HETATM   18  C   UNL     1     -12.901  11.879  71.303  1.00  0.00    -0.391 C  
ENDBRANCH  15  16
ENDBRANCH  13  15
ENDBRANCH  11  13
BRANCH  12  19
HETATM   19  C   UNL     1      -8.977  10.322  68.012  1.00  0.00    -0.132 A  
HETATM   20  C   UNL     1      -7.992  11.346  67.973  1.00  0.00    -0.127 A  
HETATM   21  C   UNL     1      -8.842   9.456  69.130  1.00  0.00    -0.143 A  
HETATM   22  N   UNL     1      -7.830  12.335  67.085  1.00  0.00    -0.166 NA 
HETATM   23  O   UNL     1      -6.734  13.061  67.517  1.00  0.00    -0.148 OA 
HETATM   24  C   UNL     1      -7.824   9.588  70.111  1.00  0.00    -0.168 A  
HETATM   25  C   UNL     1      -6.848  10.600  70.080  1.00  0.00    -0.150 A  
HETATM   26  C   UNL     1      -6.956  11.480  68.988  1.00  0.00    -0.112 A  
HETATM   27  N   UNL     1      -6.199  12.541  68.681  1.00  0.00    -0.065 NA 
ENDBRANCH  12  19
ENDBRANCH   3   5
ENDBRANCH   2   3
TORSDOF 6
ENDMDL
MODEL       53
REMARK 921   NORMALIZED FREE ENERGY PREDICTED BY IDOCK:   -4.79 KCAL/MOL
REMARK 922        TOTAL FREE ENERGY PREDICTED BY IDOCK:   -7.93 KCAL/MOL
REMARK 923 INTER-LIGAND FREE ENERGY PREDICTED BY IDOCK:   -6.49 KCAL/MOL
REMARK 924 INTRA-LIGAND FREE ENERGY PREDICTED BY IDOCK:   -1.43 KCAL/MOL
REMARK 927      BINDING AFFINITY PREDICTED BY RF-SCORE:    0.00 PKD
ROOT
HETATM    1  C   UNL     1      -6.468   7.993  67.397  1.00  0.00    -0.057 C  
HETATM    2  O   UNL     1      -6.296   9.407  67.537  1.00  0.00    -0.060 OA 
ENDROOT
BRANCH   2   3
HETATM    3  C   UNL     1      -6.609  10.183  66.477  1.00  0.00    -0.077 C  
HETATM    4  O   UNL     1      -6.107  10.092  65.367  1.00  0.00    -0.084 OA 
BRANCH   3   5
HETATM    5  C   UNL     1      -7.622  11.211  66.855  1.00  0.00    -0.145 C  
HETATM    6  C   UNL     1      -7.190  12.408  67.323  1.00  0.00    -0.125 C  
HETATM    7  C   UNL     1      -5.763  12.785  67.656  1.00  0.00    -0.134 C  
HETATM    8  N   UNL     1      -8.097  13.425  67.542  1.00  0.00    -0.170 NA 
HETATM    9  C   UNL     1      -9.465  13.320  67.414  1.00  0.00    -0.218 C  
HETATM   10  C   UNL     1     -10.234  14.570  67.780  1.00  0.00    -0.226 C  
HETATM   11  C   UNL     1     -10.020  12.159  66.983  1.00  0.00    -0.213 C  
HETATM   12  C   UNL     1      -9.128  10.968  66.577  1.00  0.00    -0.186 C  
BRANCH  11  13
HETATM   13  C   UNL     1     -11.505  12.030  67.009  1.00  0.00    -0.338 C  
HETATM   14  O   UNL     1     -12.157  12.016  68.049  1.00  0.00    -0.514 OA 
BRANCH  13  15
HETATM   15  O   UNL     1     -12.050  11.869  65.779  1.00  0.00    -0.451 OA 
BRANCH  15  16
HETATM   16  C   UNL     1     -11.960  13.042  64.935  1.00  0.00    -0.396 C  
HETATM   17  C   UNL     1     -12.985  14.064  65.402  1.00  0.00    -0.346 C  
HETATM   18  C   UNL     1     -12.205  12.650  63.480  1.00  0.00    -0.638 C  
ENDBRANCH  15  16
ENDBRANCH  13  15
ENDBRANCH  11  13
BRANCH  12  19
HETATM   19  C   UNL     1      -9.630   9.657  67.155  1.00  0.00    -0.210 A  
HETATM   20  C   UNL     1      -9.685   9.385  68.548  1.00  0.00    -0.149 A  
HETATM   21  C   UNL     1     -10.137   8.598  66.355  1.00  0.00    -0.294 A  
HETATM   22  N   UNL     1      -9.316  10.155  69.579  1.00  0.00    -0.219 NA 
HETATM   23  O   UNL     1      -9.593   9.425  70.721  1.00  0.00    -0.261 OA 
HETATM   24  C   UNL     1     -10.642   7.382  66.886  1.00  0.00    -0.375 A  
HETATM   25  C   UNL     1     -10.702   7.107  68.265  1.00  0.00    -0.202 A  
HETATM   26  C   UNL     1     -10.213   8.138  69.086  1.00  0.00    -0.214 A  
HETATM   27  N   UNL     1     -10.143   8.192  70.422  1.00  0.00    -0.192 NA 
ENDBRANCH  12  19
ENDBRANCH   3   5
ENDBRANCH   2   3
TORSDOF 6
ENDMDL
MODEL       54
REMARK 921   NORMALIZED FREE ENERGY PREDICTED BY IDOCK:   -4.79 KCAL/MOL
REMARK 922        TOTAL FREE ENERGY PREDICTED BY IDOCK:   -7.92 KCAL/MOL
REMARK 923 INTER-LIGAND FREE ENERGY PREDICTED BY IDOCK:   -6.45 KCAL/MOL
REMARK 924 INTRA-LIGAND FREE ENERGY PREDICTED BY IDOCK:   -1.47 KCAL/MOL
REMARK 927      BINDING AFFINITY PREDICTED BY RF-SCORE:    0.00 PKD
ROOT
HETATM    1  C   UNL     1      -6.564   8.621  66.611  1.00  0.00    -0.060 C  
HETATM    2  O   UNL     1      -7.578   7.623  66.456  1.00  0.00    -0.092 OA 
ENDROOT
BRANCH   2   3
HETATM    3  C   UNL     1      -8.841   8.045  66.233  1.00  0.00    -0.162 C  
HETATM    4  O   UNL     1      -9.224   8.611  65.220  1.00  0.00    -0.117 OA 
BRANCH   3   5
HETATM    5  C   UNL     1      -9.707   7.773  67.416  1.00  0.00    -0.211 C  
HETATM    6  C   UNL     1     -10.371   6.592  67.479  1.00  0.00    -0.201 C  
HETATM    7  C   UNL     1     -10.456   5.546  66.389  1.00  0.00    -0.294 C  
HETATM    8  N   UNL     1     -11.063   6.256  68.625  1.00  0.00    -0.353 NA 
HETATM    9  C   UNL     1     -11.230   7.066  69.727  1.00  0.00    -0.217 C  
HETATM   10  C   UNL     1     -12.091   6.477  70.823  1.00  0.00    -0.286 C  
HETATM   11  C   UNL     1     -10.639   8.288  69.769  1.00  0.00    -0.228 C  
HETATM   12  C   UNL     1      -9.729   8.756  68.615  1.00  0.00    -0.170 C  
BRANCH  11  13
HETATM   13  C   UNL     1     -10.972   9.198  70.901  1.00  0.00    -0.282 C  
HETATM   14  O   UNL     1     -10.265   9.312  71.898  1.00  0.00    -0.269 OA 
BRANCH  13  15
HETATM   15  O   UNL     1     -12.157   9.836  70.744  1.00  0.00    -0.285 OA 
BRANCH  15  16
HETATM   16  C   UNL     1     -12.801  10.202  71.988  1.00  0.00    -0.376 C  
HETATM   17  C   UNL     1     -13.894   9.190  72.292  1.00  0.00    -0.527 C  
HETATM   18  C   UNL     1     -13.377  11.611  71.876  1.00  0.00    -0.403 C  
ENDBRANCH  15  16
ENDBRANCH  13  15
ENDBRANCH  11  13
BRANCH  12  19
HETATM   19  C   UNL     1     -10.028  10.186  68.200  1.00  0.00    -0.170 A  
HETATM   20  C   UNL     1      -9.095  11.251  68.328  1.00  0.00    -0.173 A  
HETATM   21  C   UNL     1     -11.253  10.582  67.599  1.00  0.00    -0.338 A  
HETATM   22  N   UNL     1      -7.851  11.235  68.824  1.00  0.00    -0.141 NA 
HETATM   23  O   UNL     1      -7.375  12.528  68.701  1.00  0.00    -0.105 OA 
HETATM   24  C   UNL     1     -11.529  11.908  67.174  1.00  0.00    -0.386 A  
HETATM   25  C   UNL     1     -10.610  12.966  67.295  1.00  0.00    -0.243 A  
HETATM   26  C   UNL     1      -9.383  12.607  67.881  1.00  0.00    -0.204 A  
HETATM   27  N   UNL     1      -8.309  13.368  68.123  1.00  0.00    -0.157 NA 
ENDBRANCH  12  19
ENDBRANCH   3   5
ENDBRANCH   2   3
TORSDOF 6
ENDMDL
MODEL       55
REMARK 921   NORMALIZED FREE ENERGY PREDICTED BY IDOCK:   -4.74 KCAL/MOL
REMARK 922        TOTAL FREE ENERGY PREDICTED BY IDOCK:   -7.86 KCAL/MOL
REMARK 923 INTER-LIGAND FREE ENERGY PREDICTED BY IDOCK:   -6.42 KCAL/MOL
REMARK 924 INTRA-LIGAND FREE ENERGY PREDICTED BY IDOCK:   -1.44 KCAL/MOL
REMARK 927      BINDING AFFINITY PREDICTED BY RF-SCORE:    0.00 PKD
ROOT
HETATM    1  C   UNL     1      -9.297  10.023  64.916  1.00  0.00    -0.266 C  
HETATM    2  O   UNL     1      -9.981   8.965  65.594  1.00  0.00    -0.108 OA 
ENDROOT
BRANCH   2   3
HETATM    3  C   UNL     1      -9.240   8.123  66.346  1.00  0.00    -0.199 C  
HETATM    4  O   UNL     1      -8.162   7.649  66.016  1.00  0.00    -0.114 OA 
BRANCH   3   5
HETATM    5  C   UNL     1      -9.939   7.799  67.623  1.00  0.00    -0.230 C  
HETATM    6  C   UNL     1     -10.627   6.634  67.711  1.00  0.00    -0.252 C  
HETATM    7  C   UNL     1     -10.902   5.662  66.586  1.00  0.00    -0.280 C  
HETATM    8  N   UNL     1     -11.161   6.244  68.923  1.00  0.00    -0.365 NA 
HETATM    9  C   UNL     1     -11.142   6.988  70.084  1.00  0.00    -0.285 C  
HETATM   10  C   UNL     1     -11.858   6.353  71.255  1.00  0.00    -0.333 C  
HETATM   11  C   UNL     1     -10.509   8.189  70.112  1.00  0.00    -0.225 C  
HETATM   12  C   UNL     1      -9.756   8.705  68.869  1.00  0.00    -0.171 C  
BRANCH  11  13
HETATM   13  C   UNL     1     -10.645   9.034  71.332  1.00  0.00    -0.323 C  
HETATM   14  O   UNL     1     -11.704   9.554  71.670  1.00  0.00    -0.370 OA 
BRANCH  13  15
HETATM   15  O   UNL     1      -9.474   9.217  71.989  1.00  0.00    -0.323 OA 
BRANCH  15  16
HETATM   16  C   UNL     1      -8.840   7.989  72.421  1.00  0.00    -0.173 C  
HETATM   17  C   UNL     1      -9.391   7.605  73.785  1.00  0.00    -0.324 C  
HETATM   18  C   UNL     1      -7.327   8.182  72.477  1.00  0.00    -0.138 C  
ENDBRANCH  15  16
ENDBRANCH  13  15
ENDBRANCH  11  13
BRANCH  12  19
HETATM   19  C   UNL     1     -10.060  10.166  68.585  1.00  0.00    -0.186 A  
HETATM   20  C   UNL     1      -9.073  11.187  68.588  1.00  0.00    -0.166 A  
HETATM   21  C   UNL     1     -11.356  10.638  68.243  1.00  0.00    -0.357 A  
HETATM   22  N   UNL     1      -7.761  11.100  68.843  1.00  0.00    -0.138 NA 
HETATM   23  O   UNL     1      -7.257  12.379  68.696  1.00  0.00    -0.098 OA 
HETATM   24  C   UNL     1     -11.645  11.995  67.940  1.00  0.00    -0.405 A  
HETATM   25  C   UNL     1     -10.672  13.010  67.939  1.00  0.00    -0.249 A  
HETATM   26  C   UNL     1      -9.376  12.576  68.269  1.00  0.00    -0.193 A  
HETATM   27  N   UNL     1      -8.242  13.283  68.343  1.00  0.00    -0.153 NA 
ENDBRANCH  12  19
ENDBRANCH   3   5
ENDBRANCH   2   3
TORSDOF 6
ENDMDL
MODEL       56
REMARK 921   NORMALIZED FREE ENERGY PREDICTED BY IDOCK:   -4.66 KCAL/MOL
REMARK 922        TOTAL FREE ENERGY PREDICTED BY IDOCK:   -7.76 KCAL/MOL
REMARK 923 INTER-LIGAND FREE ENERGY PREDICTED BY IDOCK:   -6.42 KCAL/MOL
REMARK 924 INTRA-LIGAND FREE ENERGY PREDICTED BY IDOCK:   -1.34 KCAL/MOL
REMARK 927      BINDING AFFINITY PREDICTED BY RF-SCORE:    0.00 PKD
ROOT
HETATM    1  C   UNL     1     -12.542  15.715  71.274  1.00  0.00    -0.463 C  
HETATM    2  O   UNL     1     -11.246  15.951  70.716  1.00  0.00    -0.341 OA 
ENDROOT
BRANCH   2   3
HETATM    3  C   UNL     1     -11.146  16.007  69.370  1.00  0.00    -0.331 C  
HETATM    4  O   UNL     1     -12.074  15.859  68.589  1.00  0.00    -0.252 OA 
BRANCH   3   5
HETATM    5  C   UNL     1      -9.730  16.225  68.953  1.00  0.00    -0.248 C  
HETATM    6  C   UNL     1      -9.304  17.495  68.738  1.00  0.00    -0.239 C  
HETATM    7  C   UNL     1     -10.157  18.744  68.728  1.00  0.00    -0.407 C  
HETATM    8  N   UNL     1      -7.967  17.735  68.493  1.00  0.00    -0.288 NA 
HETATM    9  C   UNL     1      -6.992  16.771  68.350  1.00  0.00    -0.170 C  
HETATM   10  C   UNL     1      -5.616  17.305  68.019  1.00  0.00    -0.118 C  
HETATM   11  C   UNL     1      -7.304  15.460  68.511  1.00  0.00    -0.116 C  
HETATM   12  C   UNL     1      -8.733  15.039  68.912  1.00  0.00    -0.197 C  
BRANCH  11  13
HETATM   13  C   UNL     1      -6.265  14.439  68.193  1.00  0.00    -0.139 C  
HETATM   14  O   UNL     1      -6.211  13.853  67.116  1.00  0.00    -0.204 OA 
BRANCH  13  15
HETATM   15  O   UNL     1      -5.431  14.184  69.231  1.00  0.00    -0.081 OA 
BRANCH  15  16
HETATM   16  C   UNL     1      -6.054  13.476  70.329  1.00  0.00    -0.110 C  
HETATM   17  C   UNL     1      -5.543  14.054  71.639  1.00  0.00    -0.235 C  
HETATM   18  C   UNL     1      -5.735  11.986  70.229  1.00  0.00    -0.159 C  
ENDBRANCH  15  16
ENDBRANCH  13  15
ENDBRANCH  11  13
BRANCH  12  19
HETATM   19  C   UNL     1      -9.237  13.873  68.081  1.00  0.00    -0.202 A  
HETATM   20  C   UNL     1      -9.670  14.000  66.733  1.00  0.00    -0.278 A  
HETATM   21  C   UNL     1      -9.278  12.536  68.559  1.00  0.00    -0.071 A  
HETATM   22  N   UNL     1      -9.743  15.095  65.964  1.00  0.00    -0.308 NA 
HETATM   23  O   UNL     1     -10.212  14.668  64.735  1.00  0.00    -0.367 OA 
HETATM   24  C   UNL     1      -9.714  11.433  67.779  1.00  0.00    -0.184 A  
HETATM   25  C   UNL     1     -10.141  11.552  66.444  1.00  0.00    -0.250 A  
HETATM   26  C   UNL     1     -10.108  12.862  65.936  1.00  0.00    -0.289 A  
HETATM   27  N   UNL     1     -10.435  13.303  64.715  1.00  0.00    -0.370 NA 
ENDBRANCH  12  19
ENDBRANCH   3   5
ENDBRANCH   2   3
TORSDOF 6
ENDMDL
MODEL       57
REMARK 921   NORMALIZED FREE ENERGY PREDICTED BY IDOCK:   -4.66 KCAL/MOL
REMARK 922        TOTAL FREE ENERGY PREDICTED BY IDOCK:   -7.75 KCAL/MOL
REMARK 923 INTER-LIGAND FREE ENERGY PREDICTED BY IDOCK:   -6.16 KCAL/MOL
REMARK 924 INTRA-LIGAND FREE ENERGY PREDICTED BY IDOCK:   -1.59 KCAL/MOL
REMARK 927      BINDING AFFINITY PREDICTED BY RF-SCORE:    0.00 PKD
ROOT
HETATM    1  C   UNL     1      -9.073  10.075  68.578  1.00  0.00    -0.127 C  
HETATM    2  O   UNL     1      -8.388  11.329  68.645  1.00  0.00    -0.149 OA 
ENDROOT
BRANCH   2   3
HETATM    3  C   UNL     1      -7.694  11.722  67.555  1.00  0.00    -0.143 C  
HETATM    4  O   UNL     1      -7.463  11.024  66.579  1.00  0.00    -0.139 OA 
BRANCH   3   5
HETATM    5  C   UNL     1      -7.196  13.118  67.719  1.00  0.00    -0.147 C  
HETATM    6  C   UNL     1      -6.003  13.315  68.334  1.00  0.00    -0.090 C  
HETATM    7  C   UNL     1      -5.161  12.265  69.025  1.00  0.00    -0.055 C  
HETATM    8  N   UNL     1      -5.452  14.580  68.371  1.00  0.00    -0.100 NA 
HETATM    9  C   UNL     1      -6.053  15.730  67.906  1.00  0.00    -0.143 C  
HETATM   10  C   UNL     1      -5.257  16.996  68.130  1.00  0.00    -0.120 C  
HETATM   11  C   UNL     1      -7.265  15.665  67.298  1.00  0.00    -0.252 C  
HETATM   12  C   UNL     1      -7.954  14.304  67.068  1.00  0.00    -0.013 C  
BRANCH  11  13
HETATM   13  C   UNL     1      -7.954  16.941  66.952  1.00  0.00    -0.213 C  
HETATM   14  O   UNL     1      -7.941  17.424  65.825  1.00  0.00    -0.538 OA 
BRANCH  13  15
HETATM   15  O   UNL     1      -8.541  17.538  68.019  1.00  0.00    -0.236 OA 
BRANCH  15  16
HETATM   16  C   UNL     1      -9.553  18.512  67.669  1.00  0.00    -0.286 C  
HETATM   17  C   UNL     1      -9.698  19.503  68.813  1.00  0.00    -0.513 C  
HETATM   18  C   UNL     1     -10.876  17.803  67.389  1.00  0.00    -0.195 C  
ENDBRANCH  15  16
ENDBRANCH  13  15
ENDBRANCH  11  13
BRANCH  12  19
HETATM   19  C   UNL     1      -9.425  14.340  67.443  1.00  0.00    -0.211 A  
HETATM   20  C   UNL     1     -10.478  14.221  66.497  1.00  0.00    -0.287 A  
HETATM   21  C   UNL     1      -9.883  14.449  68.783  1.00  0.00    -0.214 A  
HETATM   22  N   UNL     1     -10.413  14.083  65.166  1.00  0.00    -0.373 NA 
HETATM   23  O   UNL     1     -11.722  13.995  64.727  1.00  0.00    -0.357 OA 
HETATM   24  C   UNL     1     -11.256  14.447  69.149  1.00  0.00    -0.300 A  
HETATM   25  C   UNL     1     -12.303  14.327  68.218  1.00  0.00    -0.024 A  
HETATM   26  C   UNL     1     -11.883  14.212  66.881  1.00  0.00    -0.431 A  
HETATM   27  N   UNL     1     -12.622  14.072  65.773  1.00  0.00    -0.503 NA 
ENDBRANCH  12  19
ENDBRANCH   3   5
ENDBRANCH   2   3
TORSDOF 6
ENDMDL
MODEL       58
REMARK 921   NORMALIZED FREE ENERGY PREDICTED BY IDOCK:   -4.62 KCAL/MOL
REMARK 922        TOTAL FREE ENERGY PREDICTED BY IDOCK:   -7.70 KCAL/MOL
REMARK 923 INTER-LIGAND FREE ENERGY PREDICTED BY IDOCK:   -6.34 KCAL/MOL
REMARK 924 INTRA-LIGAND FREE ENERGY PREDICTED BY IDOCK:   -1.35 KCAL/MOL
REMARK 927      BINDING AFFINITY PREDICTED BY RF-SCORE:    0.00 PKD
ROOT
HETATM    1  C   UNL     1      -6.454  14.270  68.264  1.00  0.00    -0.116 C  
HETATM    2  O   UNL     1      -7.544  14.976  67.663  1.00  0.00    -0.144 OA 
ENDROOT
BRANCH   2   3
HETATM    3  C   UNL     1      -8.796  14.596  67.998  1.00  0.00    -0.169 C  
HETATM    4  O   UNL     1      -9.344  14.840  69.063  1.00  0.00    -0.206 OA 
BRANCH   3   5
HETATM    5  C   UNL     1      -9.413  13.787  66.908  1.00  0.00    -0.265 C  
HETATM    6  C   UNL     1     -10.216  14.410  66.010  1.00  0.00    -0.315 C  
HETATM    7  C   UNL     1     -10.692  15.845  66.068  1.00  0.00    -0.289 C  
HETATM    8  N   UNL     1     -10.682  13.716  64.911  1.00  0.00    -0.367 NA 
HETATM    9  C   UNL     1     -10.482  12.374  64.667  1.00  0.00    -0.309 C  
HETATM   10  C   UNL     1     -11.160  11.849  63.421  1.00  0.00    -0.463 C  
HETATM   11  C   UNL     1      -9.721  11.635  65.513  1.00  0.00    -0.259 C  
HETATM   12  C   UNL     1      -9.026  12.297  66.721  1.00  0.00    -0.209 C  
BRANCH  11  13
HETATM   13  C   UNL     1      -9.657  10.160  65.306  1.00  0.00    -0.277 C  
HETATM   14  O   UNL     1     -10.355   9.367  65.930  1.00  0.00    -0.191 OA 
BRANCH  13  15
HETATM   15  O   UNL     1      -8.714   9.787  64.408  1.00  0.00    -0.174 OA 
BRANCH  15  16
HETATM   16  C   UNL     1      -7.974   8.601  64.786  1.00  0.00    -0.141 C  
HETATM   17  C   UNL     1      -6.849   9.003  65.727  1.00  0.00    -0.076 C  
HETATM   18  C   UNL     1      -7.424   7.917  63.538  1.00  0.00    -0.118 C  
ENDBRANCH  15  16
ENDBRANCH  13  15
ENDBRANCH  11  13
BRANCH  12  19
HETATM   19  C   UNL     1      -9.191  11.481  67.990  1.00  0.00    -0.175 A  
HETATM   20  C   UNL     1     -10.447  11.244  68.612  1.00  0.00    -0.203 A  
HETATM   21  C   UNL     1      -8.108  10.838  68.648  1.00  0.00    -0.136 A  
HETATM   22  N   UNL     1     -11.665  11.673  68.257  1.00  0.00    -0.442 NA 
HETATM   23  O   UNL     1     -12.542  11.146  69.188  1.00  0.00    -0.358 OA 
HETATM   24  C   UNL     1      -8.256  10.043  69.816  1.00  0.00    -0.191 A  
HETATM   25  C   UNL     1      -9.496   9.803  70.434  1.00  0.00    -0.202 A  
HETATM   26  C   UNL     1     -10.591  10.421  69.805  1.00  0.00    -0.258 A  
HETATM   27  N   UNL     1     -11.888  10.379  70.135  1.00  0.00    -0.287 NA 
ENDBRANCH  12  19
ENDBRANCH   3   5
ENDBRANCH   2   3
TORSDOF 6
ENDMDL
MODEL       59
REMARK 921   NORMALIZED FREE ENERGY PREDICTED BY IDOCK:   -4.61 KCAL/MOL
REMARK 922        TOTAL FREE ENERGY PREDICTED BY IDOCK:   -7.68 KCAL/MOL
REMARK 923 INTER-LIGAND FREE ENERGY PREDICTED BY IDOCK:   -6.84 KCAL/MOL
REMARK 924 INTRA-LIGAND FREE ENERGY PREDICTED BY IDOCK:   -0.84 KCAL/MOL
REMARK 927      BINDING AFFINITY PREDICTED BY RF-SCORE:    0.00 PKD
ROOT
HETATM    1  C   UNL     1     -10.832   5.635  67.130  1.00  0.00    -0.149 C  
HETATM    2  O   UNL     1     -10.568   6.759  66.284  1.00  0.00     0.077 OA 
ENDROOT
BRANCH   2   3
HETATM    3  C   UNL     1      -9.561   7.586  66.639  1.00  0.00    -0.200 C  
HETATM    4  O   UNL     1      -8.396   7.250  66.793  1.00  0.00    -0.114 OA 
BRANCH   3   5
HETATM    5  C   UNL     1     -10.069   8.969  66.872  1.00  0.00    -0.338 C  
HETATM    6  C   UNL     1      -9.978   9.873  65.865  1.00  0.00    -0.277 C  
HETATM    7  C   UNL     1      -9.269   9.682  64.542  1.00  0.00    -0.277 C  
HETATM    8  N   UNL     1     -10.568  11.113  66.003  1.00  0.00    -0.256 NA 
HETATM    9  C   UNL     1     -11.191  11.582  67.140  1.00  0.00    -0.301 C  
HETATM   10  C   UNL     1     -11.696  13.005  67.045  1.00  0.00    -0.441 C  
HETATM   11  C   UNL     1     -11.315  10.779  68.227  1.00  0.00    -0.376 C  
HETATM   12  C   UNL     1     -10.817   9.320  68.184  1.00  0.00    -0.145 C  
BRANCH  11  13
HETATM   13  C   UNL     1     -11.849  11.369  69.488  1.00  0.00    -0.357 C  
HETATM   14  O   UNL     1     -11.421  12.412  69.972  1.00  0.00    -0.182 OA 
BRANCH  13  15
HETATM   15  O   UNL     1     -12.808  10.608  70.070  1.00  0.00    -0.235 OA 
BRANCH  15  16
HETATM   16  C   UNL     1     -12.777  10.625  71.517  1.00  0.00    -0.444 C  
HETATM   17  C   UNL     1     -13.548   9.422  72.040  1.00  0.00    -0.505 C  
HETATM   18  C   UNL     1     -13.386  11.928  72.031  1.00  0.00    -0.425 C  
ENDBRANCH  15  16
ENDBRANCH  13  15
ENDBRANCH  11  13
BRANCH  12  19
HETATM   19  C   UNL     1     -10.030   8.950  69.428  1.00  0.00    -0.192 A  
HETATM   20  C   UNL     1     -10.475   7.996  70.383  1.00  0.00    -0.218 A  
HETATM   21  C   UNL     1      -8.750   9.489  69.728  1.00  0.00    -0.204 A  
HETATM   22  N   UNL     1     -11.609   7.284  70.407  1.00  0.00    -0.256 NA 
HETATM   23  O   UNL     1     -11.541   6.495  71.541  1.00  0.00    -0.288 OA 
HETATM   24  C   UNL     1      -7.989   9.124  70.870  1.00  0.00    -0.192 A  
HETATM   25  C   UNL     1      -8.423   8.179  71.817  1.00  0.00    -0.186 A  
HETATM   26  C   UNL     1      -9.685   7.621  71.548  1.00  0.00    -0.165 A  
HETATM   27  N   UNL     1     -10.365   6.698  72.239  1.00  0.00    -0.195 NA 
ENDBRANCH  12  19
ENDBRANCH   3   5
ENDBRANCH   2   3
TORSDOF 6
ENDMDL
MODEL       60
REMARK 921   NORMALIZED FREE ENERGY PREDICTED BY IDOCK:   -4.60 KCAL/MOL
REMARK 922        TOTAL FREE ENERGY PREDICTED BY IDOCK:   -7.67 KCAL/MOL
REMARK 923 INTER-LIGAND FREE ENERGY PREDICTED BY IDOCK:   -8.48 KCAL/MOL
REMARK 924 INTRA-LIGAND FREE ENERGY PREDICTED BY IDOCK:    0.81 KCAL/MOL
REMARK 927      BINDING AFFINITY PREDICTED BY RF-SCORE:    0.00 PKD
ROOT
HETATM    1  C   UNL     1      -8.044  16.132  66.389  1.00  0.00    -0.270 C  
HETATM    2  O   UNL     1      -9.256  16.191  65.631  1.00  0.00    -0.407 OA 
ENDROOT
BRANCH   2   3
HETATM    3  C   UNL     1     -10.280  16.906  66.143  1.00  0.00    -0.341 C  
HETATM    4  O   UNL     1     -10.847  17.828  65.575  1.00  0.00    -0.471 OA 
BRANCH   3   5
HETATM    5  C   UNL     1     -10.602  16.455  67.528  1.00  0.00    -0.309 C  
HETATM    6  C   UNL     1     -10.180  17.211  68.572  1.00  0.00    -0.346 C  
HETATM    7  C   UNL     1      -9.269  18.417  68.503  1.00  0.00    -0.348 C  
HETATM    8  N   UNL     1     -10.585  16.895  69.853  1.00  0.00    -0.144 NA 
HETATM    9  C   UNL     1     -11.334  15.793  70.208  1.00  0.00    -0.361 C  
HETATM   10  C   UNL     1     -11.583  15.648  71.693  1.00  0.00    -0.519 C  
HETATM   11  C   UNL     1     -11.788  14.943  69.253  1.00  0.00    -0.350 C  
HETATM   12  C   UNL     1     -11.523  15.230  67.760  1.00  0.00    -0.312 C  
BRANCH  11  13
HETATM   13  C   UNL     1     -12.455  13.682  69.684  1.00  0.00    -0.093 C  
HETATM   14  O   UNL     1     -13.406  13.659  70.458  1.00  0.00     0.077 OA 
BRANCH  13  15
HETATM   15  O   UNL     1     -11.866  12.567  69.184  1.00  0.00    -0.298 OA 
BRANCH  15  16
HETATM   16  C   UNL     1     -11.654  11.522  70.162  1.00  0.00    -0.249 C  
HETATM   17  C   UNL     1     -10.464  10.679  69.731  1.00  0.00    -0.189 C  
HETATM   18  C   UNL     1     -12.913  10.666  70.284  1.00  0.00    -0.128 C  
ENDBRANCH  15  16
ENDBRANCH  13  15
ENDBRANCH  11  13
BRANCH  12  19
HETATM   19  C   UNL     1     -11.057  13.991  67.016  1.00  0.00    -0.312 A  
HETATM   20  C   UNL     1     -11.758  13.426  65.917  1.00  0.00    -0.356 A  
HETATM   21  C   UNL     1      -9.848  13.310  67.322  1.00  0.00    -0.233 A  
HETATM   22  N   UNL     1     -12.907  13.817  65.352  1.00  0.00    -0.705 NA 
HETATM   23  O   UNL     1     -13.139  12.936  64.311  1.00  0.00    -0.631 OA 
HETATM   24  C   UNL     1      -9.384  12.173  66.609  1.00  0.00    -0.226 A  
HETATM   25  C   UNL     1     -10.071  11.610  65.519  1.00  0.00    -0.285 A  
HETATM   26  C   UNL     1     -11.271  12.264  65.187  1.00  0.00    -0.324 A  
HETATM   27  N   UNL     1     -12.140  11.987  64.207  1.00  0.00    -0.346 NA 
ENDBRANCH  12  19
ENDBRANCH   3   5
ENDBRANCH   2   3
TORSDOF 6
ENDMDL
MODEL       61
REMARK 921   NORMALIZED FREE ENERGY PREDICTED BY IDOCK:   -4.57 KCAL/MOL
REMARK 922        TOTAL FREE ENERGY PREDICTED BY IDOCK:   -7.62 KCAL/MOL
REMARK 923 INTER-LIGAND FREE ENERGY PREDICTED BY IDOCK:   -6.36 KCAL/MOL
REMARK 924 INTRA-LIGAND FREE ENERGY PREDICTED BY IDOCK:   -1.27 KCAL/MOL
REMARK 927      BINDING AFFINITY PREDICTED BY RF-SCORE:    0.00 PKD
ROOT
HETATM    1  C   UNL     1      -8.297   9.606  65.095  1.00  0.00    -0.137 C  
HETATM    2  O   UNL     1      -9.004   8.446  65.545  1.00  0.00    -0.171 OA 
ENDROOT
BRANCH   2   3
HETATM    3  C   UNL     1      -8.455   7.730  66.549  1.00  0.00    -0.132 C  
HETATM    4  O   UNL     1      -7.351   7.207  66.518  1.00  0.00    -0.080 OA 
BRANCH   3   5
HETATM    5  C   UNL     1      -9.402   7.614  67.696  1.00  0.00    -0.158 C  
HETATM    6  C   UNL     1     -10.359   6.654  67.653  1.00  0.00    -0.199 C  
HETATM    7  C   UNL     1     -10.684   5.755  66.481  1.00  0.00    -0.274 C  
HETATM    8  N   UNL     1     -11.154   6.432  68.760  1.00  0.00    -0.334 NA 
HETATM    9  C   UNL     1     -11.136   7.172  69.922  1.00  0.00    -0.235 C  
HETATM   10  C   UNL     1     -12.159   6.756  70.956  1.00  0.00    -0.426 C  
HETATM   11  C   UNL     1     -10.241   8.182  70.071  1.00  0.00    -0.202 C  
HETATM   12  C   UNL     1      -9.200   8.474  68.971  1.00  0.00    -0.146 C  
BRANCH  11  13
HETATM   13  C   UNL     1     -10.356   9.060  71.270  1.00  0.00    -0.313 C  
HETATM   14  O   UNL     1     -11.379   9.675  71.553  1.00  0.00    -0.381 OA 
BRANCH  13  15
HETATM   15  O   UNL     1      -9.201   9.157  71.974  1.00  0.00    -0.339 OA 
BRANCH  15  16
HETATM   16  C   UNL     1      -8.753   7.906  72.548  1.00  0.00    -0.154 C  
HETATM   17  C   UNL     1      -9.672   7.538  73.702  1.00  0.00    -0.341 C  
HETATM   18  C   UNL     1      -7.309   8.045  73.023  1.00  0.00    -0.141 C  
ENDBRANCH  15  16
ENDBRANCH  13  15
ENDBRANCH  11  13
BRANCH  12  19
HETATM   19  C   UNL     1      -9.091   9.958  68.669  1.00  0.00    -0.132 A  
HETATM   20  C   UNL     1     -10.197  10.764  68.288  1.00  0.00    -0.167 A  
HETATM   21  C   UNL     1      -7.878  10.688  68.787  1.00  0.00    -0.125 A  
HETATM   22  N   UNL     1     -11.477  10.417  68.104  1.00  0.00    -0.343 NA 
HETATM   23  O   UNL     1     -12.142  11.580  67.757  1.00  0.00    -0.626 OA 
HETATM   24  C   UNL     1      -7.771  12.083  68.543  1.00  0.00    -0.127 A  
HETATM   25  C   UNL     1      -8.862  12.887  68.168  1.00  0.00    -0.194 A  
HETATM   26  C   UNL     1     -10.081  12.196  68.048  1.00  0.00    -0.204 A  
HETATM   27  N   UNL     1     -11.291  12.669  67.723  1.00  0.00    -0.277 NA 
ENDBRANCH  12  19
ENDBRANCH   3   5
ENDBRANCH   2   3
TORSDOF 6
ENDMDL
MODEL       62
REMARK 921   NORMALIZED FREE ENERGY PREDICTED BY IDOCK:   -4.56 KCAL/MOL
REMARK 922        TOTAL FREE ENERGY PREDICTED BY IDOCK:   -7.62 KCAL/MOL
REMARK 923 INTER-LIGAND FREE ENERGY PREDICTED BY IDOCK:   -6.22 KCAL/MOL
REMARK 924 INTRA-LIGAND FREE ENERGY PREDICTED BY IDOCK:   -1.40 KCAL/MOL
REMARK 927      BINDING AFFINITY PREDICTED BY RF-SCORE:    0.00 PKD
ROOT
HETATM    1  C   UNL     1      -6.334   7.359  69.396  1.00  0.00    -0.035 C  
HETATM    2  O   UNL     1      -6.125   8.773  69.330  1.00  0.00    -0.039 OA 
ENDROOT
BRANCH   2   3
HETATM    3  C   UNL     1      -6.864   9.554  70.147  1.00  0.00    -0.085 C  
HETATM    4  O   UNL     1      -6.924   9.441  71.362  1.00  0.00    -0.291 OA 
BRANCH   3   5
HETATM    5  C   UNL     1      -7.648  10.550  69.361  1.00  0.00    -0.145 C  
HETATM    6  C   UNL     1      -7.157  11.807  69.230  1.00  0.00    -0.032 C  
HETATM    7  C   UNL     1      -5.943  12.379  69.928  1.00  0.00    -0.146 C  
HETATM    8  N   UNL     1      -7.788  12.704  68.391  1.00  0.00    -0.140 NA 
HETATM    9  C   UNL     1      -8.965  12.475  67.712  1.00  0.00    -0.184 C  
HETATM   10  C   UNL     1      -9.475  13.653  66.912  1.00  0.00    -0.263 C  
HETATM   11  C   UNL     1      -9.571  11.262  67.791  1.00  0.00    -0.181 C  
HETATM   12  C   UNL     1      -8.921  10.114  68.589  1.00  0.00    -0.136 C  
BRANCH  11  13
HETATM   13  C   UNL     1     -10.919  11.102  67.176  1.00  0.00    -0.291 C  
HETATM   14  O   UNL     1     -11.946  11.526  67.696  1.00  0.00    -0.630 OA 
BRANCH  13  15
HETATM   15  O   UNL     1     -10.899  10.390  66.022  1.00  0.00    -0.049 OA 
BRANCH  15  16
HETATM   16  C   UNL     1     -10.156  11.021  64.952  1.00  0.00    -0.300 C  
HETATM   17  C   UNL     1     -11.138  11.683  63.997  1.00  0.00    -0.458 C  
HETATM   18  C   UNL     1      -9.309   9.978  64.227  1.00  0.00    -0.345 C  
ENDBRANCH  15  16
ENDBRANCH  13  15
ENDBRANCH  11  13
BRANCH  12  19
HETATM   19  C   UNL     1      -9.926   9.393  69.469  1.00  0.00    -0.200 A  
HETATM   20  C   UNL     1     -10.380   8.069  69.219  1.00  0.00    -0.220 A  
HETATM   21  C   UNL     1     -10.470   9.958  70.653  1.00  0.00    -0.301 A  
HETATM   22  N   UNL     1     -10.064   7.238  68.218  1.00  0.00    -0.164 NA 
HETATM   23  O   UNL     1     -10.768   6.071  68.454  1.00  0.00    -0.240 OA 
HETATM   24  C   UNL     1     -11.383   9.279  71.504  1.00  0.00    -0.455 A  
HETATM   25  C   UNL     1     -11.834   7.969  71.263  1.00  0.00    -0.321 A  
HETATM   26  C   UNL     1     -11.311   7.377  70.100  1.00  0.00    -0.177 A  
HETATM   27  N   UNL     1     -11.530   6.153  69.605  1.00  0.00    -0.391 NA 
ENDBRANCH  12  19
ENDBRANCH   3   5
ENDBRANCH   2   3
TORSDOF 6
ENDMDL
MODEL       63
REMARK 921   NORMALIZED FREE ENERGY PREDICTED BY IDOCK:   -4.55 KCAL/MOL
REMARK 922        TOTAL FREE ENERGY PREDICTED BY IDOCK:   -7.60 KCAL/MOL
REMARK 923 INTER-LIGAND FREE ENERGY PREDICTED BY IDOCK:   -5.86 KCAL/MOL
REMARK 924 INTRA-LIGAND FREE ENERGY PREDICTED BY IDOCK:   -1.75 KCAL/MOL
REMARK 927      BINDING AFFINITY PREDICTED BY RF-SCORE:    0.00 PKD
ROOT
HETATM    1  C   UNL     1     -11.314   6.445  69.788  1.00  0.00    -0.427 C  
HETATM    2  O   UNL     1     -10.752   7.613  69.182  1.00  0.00    -0.214 OA 
ENDROOT
BRANCH   2   3
HETATM    3  C   UNL     1     -10.853   8.778  69.857  1.00  0.00    -0.206 C  
HETATM    4  O   UNL     1     -11.883   9.224  70.340  1.00  0.00    -0.191 OA 
BRANCH   3   5
HETATM    5  C   UNL     1      -9.539   9.484  69.893  1.00  0.00    -0.250 C  
HETATM    6  C   UNL     1      -8.705   9.254  70.937  1.00  0.00    -0.173 C  
HETATM    7  C   UNL     1      -9.018   8.453  72.182  1.00  0.00    -0.293 C  
HETATM    8  N   UNL     1      -7.429   9.780  70.923  1.00  0.00    -0.309 NA 
HETATM    9  C   UNL     1      -6.921  10.625  69.959  1.00  0.00    -0.126 C  
HETATM   10  C   UNL     1      -5.513  11.111  70.221  1.00  0.00    -0.102 C  
HETATM   11  C   UNL     1      -7.675  10.956  68.880  1.00  0.00    -0.135 C  
HETATM   12  C   UNL     1      -9.079  10.347  68.689  1.00  0.00    -0.157 C  
BRANCH  11  13
HETATM   13  C   UNL     1      -7.156  11.994  67.944  1.00  0.00    -0.097 C  
HETATM   14  O   UNL     1      -6.568  11.721  66.902  1.00  0.00    -0.144 OA 
BRANCH  13  15
HETATM   15  O   UNL     1      -7.346  13.259  68.390  1.00  0.00    -0.097 OA 
BRANCH  15  16
HETATM   16  C   UNL     1      -7.187  14.275  67.371  1.00  0.00    -0.112 C  
HETATM   17  C   UNL     1      -6.250  15.353  67.894  1.00  0.00    -0.167 C  
HETATM   18  C   UNL     1      -8.549  14.863  67.012  1.00  0.00    -0.265 C  
ENDBRANCH  15  16
ENDBRANCH  13  15
ENDBRANCH  11  13
BRANCH  12  19
HETATM   19  C   UNL     1     -10.103  11.392  68.286  1.00  0.00    -0.204 A  
HETATM   20  C   UNL     1     -10.634  11.505  66.973  1.00  0.00    -0.242 A  
HETATM   21  C   UNL     1     -10.663  12.325  69.200  1.00  0.00    -0.089 A  
HETATM   22  N   UNL     1     -10.354  10.785  65.879  1.00  0.00    -0.254 NA 
HETATM   23  O   UNL     1     -11.155  11.292  64.872  1.00  0.00    -0.227 OA 
HETATM   24  C   UNL     1     -11.648  13.284  68.843  1.00  0.00    -0.357 A  
HETATM   25  C   UNL     1     -12.179  13.399  67.545  1.00  0.00    -0.231 A  
HETATM   26  C   UNL     1     -11.650  12.486  66.616  1.00  0.00    -0.380 A  
HETATM   27  N   UNL     1     -11.950  12.330  65.321  1.00  0.00    -0.410 NA 
ENDBRANCH  12  19
ENDBRANCH   3   5
ENDBRANCH   2   3
TORSDOF 6
ENDMDL
MODEL       64
REMARK 921   NORMALIZED FREE ENERGY PREDICTED BY IDOCK:   -4.54 KCAL/MOL
REMARK 922        TOTAL FREE ENERGY PREDICTED BY IDOCK:   -7.59 KCAL/MOL
REMARK 923 INTER-LIGAND FREE ENERGY PREDICTED BY IDOCK:   -6.47 KCAL/MOL
REMARK 924 INTRA-LIGAND FREE ENERGY PREDICTED BY IDOCK:   -1.12 KCAL/MOL
REMARK 927      BINDING AFFINITY PREDICTED BY RF-SCORE:    0.00 PKD
ROOT
HETATM    1  C   UNL     1     -11.902  12.770  65.693  1.00  0.00    -0.425 C  
HETATM    2  O   UNL     1     -11.914  11.720  66.665  1.00  0.00    -0.561 OA 
ENDROOT
BRANCH   2   3
HETATM    3  C   UNL     1     -10.873  11.648  67.521  1.00  0.00    -0.237 C  
HETATM    4  O   UNL     1      -9.748  12.072  67.298  1.00  0.00    -0.183 OA 
BRANCH   3   5
HETATM    5  C   UNL     1     -11.262  10.930  68.770  1.00  0.00    -0.329 C  
HETATM    6  C   UNL     1     -11.849  11.634  69.769  1.00  0.00    -0.357 C  
HETATM    7  C   UNL     1     -12.029  13.135  69.830  1.00  0.00    -0.387 C  
HETATM    8  N   UNL     1     -12.347  10.971  70.872  1.00  0.00    -0.381 NA 
HETATM    9  C   UNL     1     -12.229   9.619  71.116  1.00  0.00    -0.350 C  
HETATM   10  C   UNL     1     -12.809   9.160  72.435  1.00  0.00    -0.438 C  
HETATM   11  C   UNL     1     -11.631   8.814  70.202  1.00  0.00     0.058 C  
HETATM   12  C   UNL     1     -11.133   9.387  68.860  1.00  0.00    -0.003 C  
BRANCH  11  13
HETATM   13  C   UNL     1     -11.378   7.391  70.569  1.00  0.00    -0.271 C  
HETATM   14  O   UNL     1     -12.019   6.456  70.100  1.00  0.00    -0.354 OA 
BRANCH  13  15
HETATM   15  O   UNL     1     -10.414   7.245  71.511  1.00  0.00    -0.203 OA 
BRANCH  15  16
HETATM   16  C   UNL     1     -10.700   6.222  72.494  1.00  0.00    -0.226 C  
HETATM   17  C   UNL     1     -10.536   6.816  73.884  1.00  0.00    -0.356 C  
HETATM   18  C   UNL     1      -9.759   5.036  72.293  1.00  0.00    -0.201 C  
ENDBRANCH  15  16
ENDBRANCH  13  15
ENDBRANCH  11  13
BRANCH  12  19
HETATM   19  C   UNL     1      -9.741   8.891  68.510  1.00  0.00    -0.172 A  
HETATM   20  C   UNL     1      -8.601   9.111  69.329  1.00  0.00    -0.137 A  
HETATM   21  C   UNL     1      -9.460   8.118  67.352  1.00  0.00    -0.191 A  
HETATM   22  N   UNL     1      -8.504   9.772  70.490  1.00  0.00    -0.177 NA 
HETATM   23  O   UNL     1      -7.179   9.674  70.875  1.00  0.00    -0.274 OA 
HETATM   24  C   UNL     1      -8.169   7.618  67.033  1.00  0.00    -0.117 A  
HETATM   25  C   UNL     1      -7.038   7.830  67.840  1.00  0.00    -0.086 A  
HETATM   26  C   UNL     1      -7.282   8.588  68.999  1.00  0.00    -0.073 A  
HETATM   27  N   UNL     1      -6.430   8.950  69.966  1.00  0.00    -0.040 NA 
ENDBRANCH  12  19
ENDBRANCH   3   5
ENDBRANCH   2   3
TORSDOF 6
ENDMDL
MODEL       65
REMARK 921   NORMALIZED FREE ENERGY PREDICTED BY IDOCK:   -4.53 KCAL/MOL
REMARK 922        TOTAL FREE ENERGY PREDICTED BY IDOCK:   -7.58 KCAL/MOL
REMARK 923 INTER-LIGAND FREE ENERGY PREDICTED BY IDOCK:   -6.35 KCAL/MOL
REMARK 924 INTRA-LIGAND FREE ENERGY PREDICTED BY IDOCK:   -1.23 KCAL/MOL
REMARK 927      BINDING AFFINITY PREDICTED BY RF-SCORE:    0.00 PKD
ROOT
HETATM    1  C   UNL     1      -9.863   6.477  70.867  1.00  0.00    -0.183 C  
HETATM    2  O   UNL     1     -10.612   7.675  71.099  1.00  0.00    -0.220 OA 
ENDROOT
BRANCH   2   3
HETATM    3  C   UNL     1      -9.943   8.847  71.063  1.00  0.00    -0.256 C  
HETATM    4  O   UNL     1      -9.085   9.192  71.863  1.00  0.00    -0.354 OA 
BRANCH   3   5
HETATM    5  C   UNL     1     -10.427   9.699  69.939  1.00  0.00    -0.285 C  
HETATM    6  C   UNL     1     -11.648  10.281  70.043  1.00  0.00    -0.276 C  
HETATM    7  C   UNL     1     -12.671  10.043  71.133  1.00  0.00    -0.484 C  
HETATM    8  N   UNL     1     -12.059  11.187  69.086  1.00  0.00    -0.425 NA 
HETATM    9  C   UNL     1     -11.366  11.510  67.939  1.00  0.00    -0.303 C  
HETATM   10  C   UNL     1     -12.074  12.485  67.025  1.00  0.00    -0.147 C  
HETATM   11  C   UNL     1     -10.144  10.967  67.707  1.00  0.00    -0.201 C  
HETATM   12  C   UNL     1      -9.493  10.032  68.747  1.00  0.00    -0.162 C  
BRANCH  11  13
HETATM   13  C   UNL     1      -9.497  11.214  66.387  1.00  0.00    -0.193 C  
HETATM   14  O   UNL     1      -8.538  11.966  66.243  1.00  0.00    -0.133 OA 
BRANCH  13  15
HETATM   15  O   UNL     1     -10.111  10.575  65.362  1.00  0.00    -0.271 OA 
BRANCH  15  16
HETATM   16  C   UNL     1      -9.969  11.236  64.083  1.00  0.00    -0.300 C  
HETATM   17  C   UNL     1     -11.342  11.683  63.605  1.00  0.00    -0.485 C  
HETATM   18  C   UNL     1      -9.325  10.283  63.079  1.00  0.00    -0.338 C  
ENDBRANCH  15  16
ENDBRANCH  13  15
ENDBRANCH  11  13
BRANCH  12  19
HETATM   19  C   UNL     1      -8.896   8.793  68.103  1.00  0.00    -0.141 A  
HETATM   20  C   UNL     1      -9.677   7.745  67.545  1.00  0.00    -0.158 A  
HETATM   21  C   UNL     1      -7.497   8.590  67.957  1.00  0.00    -0.097 A  
HETATM   22  N   UNL     1     -11.009   7.618  67.487  1.00  0.00    -0.110 NA 
HETATM   23  O   UNL     1     -11.250   6.426  66.828  1.00  0.00    -0.327 OA 
HETATM   24  C   UNL     1      -6.929   7.453  67.324  1.00  0.00    -0.083 A  
HETATM   25  C   UNL     1      -7.696   6.414  66.768  1.00  0.00    -0.100 A  
HETATM   26  C   UNL     1      -9.086   6.586  66.891  1.00  0.00    -0.138 A  
HETATM   27  N   UNL     1     -10.076   5.794  66.461  1.00  0.00    -0.177 NA 
ENDBRANCH  12  19
ENDBRANCH   3   5
ENDBRANCH   2   3
TORSDOF 6
ENDMDL
MODEL       66
REMARK 921   NORMALIZED FREE ENERGY PREDICTED BY IDOCK:   -4.53 KCAL/MOL
REMARK 922        TOTAL FREE ENERGY PREDICTED BY IDOCK:   -7.57 KCAL/MOL
REMARK 923 INTER-LIGAND FREE ENERGY PREDICTED BY IDOCK:   -6.04 KCAL/MOL
REMARK 924 INTRA-LIGAND FREE ENERGY PREDICTED BY IDOCK:   -1.53 KCAL/MOL
REMARK 927      BINDING AFFINITY PREDICTED BY RF-SCORE:    0.00 PKD
ROOT
HETATM    1  C   UNL     1     -12.041  15.469  70.954  1.00  0.00    -0.385 C  
HETATM    2  O   UNL     1     -11.226  16.462  70.325  1.00  0.00    -0.367 OA 
ENDROOT
BRANCH   2   3
HETATM    3  C   UNL     1     -10.987  16.329  69.002  1.00  0.00    -0.325 C  
HETATM    4  O   UNL     1     -11.841  16.351  68.128  1.00  0.00    -0.021 OA 
BRANCH   3   5
HETATM    5  C   UNL     1      -9.536  16.096  68.747  1.00  0.00    -0.235 C  
HETATM    6  C   UNL     1      -8.709  17.168  68.675  1.00  0.00    -0.266 C  
HETATM    7  C   UNL     1      -9.117  18.625  68.678  1.00  0.00    -0.344 C  
HETATM    8  N   UNL     1      -7.345  16.975  68.584  1.00  0.00    -0.217 NA 
HETATM    9  C   UNL     1      -6.714  15.755  68.464  1.00  0.00    -0.119 C  
HETATM   10  C   UNL     1      -5.211  15.831  68.314  1.00  0.00    -0.106 C  
HETATM   11  C   UNL     1      -7.441  14.609  68.490  1.00  0.00    -0.120 C  
HETATM   12  C   UNL     1      -8.966  14.654  68.713  1.00  0.00    -0.173 C  
BRANCH  11  13
HETATM   13  C   UNL     1      -6.747  13.322  68.199  1.00  0.00    -0.114 C  
HETATM   14  O   UNL     1      -6.329  13.026  67.084  1.00  0.00    -0.257 OA 
BRANCH  13  15
HETATM   15  O   UNL     1      -6.681  12.496  69.271  1.00  0.00    -0.103 OA 
BRANCH  15  16
HETATM   16  C   UNL     1      -6.439  11.109  68.934  1.00  0.00    -0.056 C  
HETATM   17  C   UNL     1      -7.763  10.454  68.569  1.00  0.00    -0.101 C  
HETATM   18  C   UNL     1      -5.785  10.397  70.116  1.00  0.00    -0.062 C  
ENDBRANCH  15  16
ENDBRANCH  13  15
ENDBRANCH  11  13
BRANCH  12  19
HETATM   19  C   UNL     1      -9.710  13.749  67.747  1.00  0.00    -0.230 A  
HETATM   20  C   UNL     1     -10.560  12.689  68.162  1.00  0.00    -0.228 A  
HETATM   21  C   UNL     1      -9.661  13.910  66.336  1.00  0.00    -0.292 A  
HETATM   22  N   UNL     1     -10.855  12.272  69.400  1.00  0.00    -0.039 NA 
HETATM   23  O   UNL     1     -11.741  11.221  69.248  1.00  0.00    -0.275 OA 
HETATM   24  C   UNL     1     -10.381  13.093  65.425  1.00  0.00    -0.313 A  
HETATM   25  C   UNL     1     -11.226  12.044  65.829  1.00  0.00    -0.383 A  
HETATM   26  C   UNL     1     -11.301  11.860  67.221  1.00  0.00    -0.329 A  
HETATM   27  N   UNL     1     -12.017  10.968  67.918  1.00  0.00    -0.580 NA 
ENDBRANCH  12  19
ENDBRANCH   3   5
ENDBRANCH   2   3
TORSDOF 6
ENDMDL
MODEL       67
REMARK 921   NORMALIZED FREE ENERGY PREDICTED BY IDOCK:   -4.53 KCAL/MOL
REMARK 922        TOTAL FREE ENERGY PREDICTED BY IDOCK:   -7.57 KCAL/MOL
REMARK 923 INTER-LIGAND FREE ENERGY PREDICTED BY IDOCK:   -6.17 KCAL/MOL
REMARK 924 INTRA-LIGAND FREE ENERGY PREDICTED BY IDOCK:   -1.40 KCAL/MOL
REMARK 927      BINDING AFFINITY PREDICTED BY RF-SCORE:    0.00 PKD
ROOT
HETATM    1  C   UNL     1      -5.929   7.036  65.208  1.00  0.00    -0.036 C  
HETATM    2  O   UNL     1      -6.814   8.152  65.342  1.00  0.00    -0.061 OA 
ENDROOT
BRANCH   2   3
HETATM    3  C   UNL     1      -8.141   7.907  65.301  1.00  0.00    -0.135 C  
HETATM    4  O   UNL     1      -8.659   6.814  65.475  1.00  0.00    -0.147 OA 
BRANCH   3   5
HETATM    5  C   UNL     1      -8.899   9.146  64.961  1.00  0.00    -0.230 C  
HETATM    6  C   UNL     1      -9.007   9.504  63.658  1.00  0.00    -0.173 C  
HETATM    7  C   UNL     1      -8.306   8.858  62.483  1.00  0.00    -0.203 C  
HETATM    8  N   UNL     1      -9.821  10.562  63.304  1.00  0.00    -0.304 NA 
HETATM    9  C   UNL     1     -10.495  11.383  64.183  1.00  0.00    -0.363 C  
HETATM   10  C   UNL     1     -11.265  12.511  63.532  1.00  0.00    -0.525 C  
HETATM   11  C   UNL     1     -10.437  11.144  65.518  1.00  0.00    -0.317 C  
HETATM   12  C   UNL     1      -9.669   9.921  66.061  1.00  0.00    -0.310 C  
BRANCH  11  13
HETATM   13  C   UNL     1     -11.044  12.141  66.444  1.00  0.00    -0.314 C  
HETATM   14  O   UNL     1     -11.987  11.880  67.184  1.00  0.00    -0.611 OA 
BRANCH  13  15
HETATM   15  O   UNL     1     -10.489  13.374  66.341  1.00  0.00    -0.278 OA 
BRANCH  15  16
HETATM   16  C   UNL     1     -10.785  14.250  67.454  1.00  0.00    -0.282 C  
HETATM   17  C   UNL     1     -10.746  15.691  66.969  1.00  0.00    -0.314 C  
HETATM   18  C   UNL     1      -9.771  14.023  68.573  1.00  0.00    -0.215 C  
ENDBRANCH  15  16
ENDBRANCH  13  15
ENDBRANCH  11  13
BRANCH  12  19
HETATM   19  C   UNL     1      -8.796  10.280  67.250  1.00  0.00    -0.136 A  
HETATM   20  C   UNL     1      -9.026   9.795  68.566  1.00  0.00    -0.124 A  
HETATM   21  C   UNL     1      -7.639  11.097  67.147  1.00  0.00    -0.125 A  
HETATM   22  N   UNL     1     -10.000   8.994  69.018  1.00  0.00    -0.180 NA 
HETATM   23  O   UNL     1      -9.754   8.818  70.368  1.00  0.00    -0.167 OA 
HETATM   24  C   UNL     1      -6.795  11.409  68.246  1.00  0.00    -0.069 A  
HETATM   25  C   UNL     1      -7.015  10.931  69.550  1.00  0.00    -0.131 A  
HETATM   26  C   UNL     1      -8.151  10.113  69.686  1.00  0.00    -0.168 A  
HETATM   27  N   UNL     1      -8.623   9.500  70.778  1.00  0.00    -0.253 NA 
ENDBRANCH  12  19
ENDBRANCH   3   5
ENDBRANCH   2   3
TORSDOF 6
ENDMDL
MODEL       68
REMARK 921   NORMALIZED FREE ENERGY PREDICTED BY IDOCK:   -4.52 KCAL/MOL
REMARK 922        TOTAL FREE ENERGY PREDICTED BY IDOCK:   -7.56 KCAL/MOL
REMARK 923 INTER-LIGAND FREE ENERGY PREDICTED BY IDOCK:   -5.98 KCAL/MOL
REMARK 924 INTRA-LIGAND FREE ENERGY PREDICTED BY IDOCK:   -1.57 KCAL/MOL
REMARK 927      BINDING AFFINITY PREDICTED BY RF-SCORE:    0.00 PKD
ROOT
HETATM    1  C   UNL     1     -10.085  13.817  67.638  1.00  0.00    -0.242 C  
HETATM    2  O   UNL     1     -10.503  12.938  68.687  1.00  0.00    -0.245 OA 
ENDROOT
BRANCH   2   3
HETATM    3  C   UNL     1     -11.404  11.980  68.378  1.00  0.00    -0.279 C  
HETATM    4  O   UNL     1     -12.121  11.983  67.389  1.00  0.00    -0.566 OA 
BRANCH   3   5
HETATM    5  C   UNL     1     -11.447  10.932  69.439  1.00  0.00    -0.373 C  
HETATM    6  C   UNL     1     -12.086  11.211  70.602  1.00  0.00    -0.379 C  
HETATM    7  C   UNL     1     -12.652  12.550  71.023  1.00  0.00    -0.350 C  
HETATM    8  N   UNL     1     -12.266  10.214  71.540  1.00  0.00    -0.386 NA 
HETATM    9  C   UNL     1     -11.765   8.933  71.453  1.00  0.00    -0.315 C  
HETATM   10  C   UNL     1     -12.053   8.057  72.653  1.00  0.00    -0.283 C  
HETATM   11  C   UNL     1     -11.079   8.544  70.348  1.00  0.00    -0.246 C  
HETATM   12  C   UNL     1     -10.903   9.508  69.157  1.00  0.00    -0.194 C  
BRANCH  11  13
HETATM   13  C   UNL     1     -10.418   7.208  70.358  1.00  0.00    -0.218 C  
HETATM   14  O   UNL     1     -10.942   6.199  69.895  1.00  0.00    -0.316 OA 
BRANCH  13  15
HETATM   15  O   UNL     1      -9.214   7.212  70.979  1.00  0.00    -0.157 OA 
BRANCH  15  16
HETATM   16  C   UNL     1      -8.413   6.033  70.724  1.00  0.00    -0.130 C  
HETATM   17  C   UNL     1      -7.723   5.619  72.015  1.00  0.00    -0.102 C  
HETATM   18  C   UNL     1      -7.391   6.330  69.630  1.00  0.00    -0.080 C  
ENDBRANCH  15  16
ENDBRANCH  13  15
ENDBRANCH  11  13
BRANCH  12  19
HETATM   19  C   UNL     1      -9.477   9.514  68.636  1.00  0.00    -0.143 A  
HETATM   20  C   UNL     1      -9.099   8.962  67.382  1.00  0.00    -0.132 A  
HETATM   21  C   UNL     1      -8.396  10.115  69.334  1.00  0.00    -0.174 A  
HETATM   22  N   UNL     1      -9.853   8.344  66.464  1.00  0.00    -0.263 NA 
HETATM   23  O   UNL     1      -8.999   8.018  65.425  1.00  0.00    -0.080 OA 
HETATM   24  C   UNL     1      -7.066  10.159  68.839  1.00  0.00    -0.069 A  
HETATM   25  C   UNL     1      -6.685   9.617  67.598  1.00  0.00    -0.066 A  
HETATM   26  C   UNL     1      -7.733   9.018  66.878  1.00  0.00    -0.098 A  
HETATM   27  N   UNL     1      -7.703   8.430  65.675  1.00  0.00    -0.095 NA 
ENDBRANCH  12  19
ENDBRANCH   3   5
ENDBRANCH   2   3
TORSDOF 6
ENDMDL
MODEL       69
REMARK 921   NORMALIZED FREE ENERGY PREDICTED BY IDOCK:   -4.49 KCAL/MOL
REMARK 922        TOTAL FREE ENERGY PREDICTED BY IDOCK:   -7.52 KCAL/MOL
REMARK 923 INTER-LIGAND FREE ENERGY PREDICTED BY IDOCK:   -6.29 KCAL/MOL
REMARK 924 INTRA-LIGAND FREE ENERGY PREDICTED BY IDOCK:   -1.22 KCAL/MOL
REMARK 927      BINDING AFFINITY PREDICTED BY RF-SCORE:    0.00 PKD
ROOT
HETATM    1  C   UNL     1     -11.026   7.386  70.846  1.00  0.00    -0.253 C  
HETATM    2  O   UNL     1     -10.910   8.362  69.806  1.00  0.00    -0.238 OA 
ENDROOT
BRANCH   2   3
HETATM    3  C   UNL     1      -9.693   8.906  69.592  1.00  0.00    -0.174 C  
HETATM    4  O   UNL     1      -9.020   9.478  70.437  1.00  0.00    -0.237 OA 
BRANCH   3   5
HETATM    5  C   UNL     1      -9.294   8.765  68.162  1.00  0.00    -0.148 C  
HETATM    6  C   UNL     1      -8.594   7.664  67.788  1.00  0.00    -0.121 C  
HETATM    7  C   UNL     1      -8.026   6.602  68.704  1.00  0.00    -0.118 C  
HETATM    8  N   UNL     1      -8.337   7.438  66.451  1.00  0.00    -0.121 NA 
HETATM    9  C   UNL     1      -8.654   8.294  65.418  1.00  0.00    -0.151 C  
HETATM   10  C   UNL     1      -8.200   7.833  64.051  1.00  0.00    -0.001 C  
HETATM   11  C   UNL     1      -9.328   9.445  65.671  1.00  0.00    -0.309 C  
HETATM   12  C   UNL     1      -9.796   9.779  67.102  1.00  0.00    -0.238 C  
BRANCH  11  13
HETATM   13  C   UNL     1      -9.512  10.419  64.558  1.00  0.00    -0.286 C  
HETATM   14  O   UNL     1      -8.589  10.805  63.847  1.00  0.00    -0.138 OA 
BRANCH  13  15
HETATM   15  O   UNL     1     -10.784  10.875  64.452  1.00  0.00    -0.340 OA 
BRANCH  15  16
HETATM   16  C   UNL     1     -10.917  12.074  63.652  1.00  0.00    -0.448 C  
HETATM   17  C   UNL     1     -10.382  13.256  64.447  1.00  0.00    -0.372 C  
HETATM   18  C   UNL     1     -12.382  12.286  63.279  1.00  0.00    -0.518 C  
ENDBRANCH  15  16
ENDBRANCH  13  15
ENDBRANCH  11  13
BRANCH  12  19
HETATM   19  C   UNL     1      -9.498  11.220  67.477  1.00  0.00    -0.177 A  
HETATM   20  C   UNL     1     -10.504  12.172  67.792  1.00  0.00    -0.205 A  
HETATM   21  C   UNL     1      -8.180  11.736  67.595  1.00  0.00    -0.145 A  
HETATM   22  N   UNL     1     -11.836  12.028  67.806  1.00  0.00    -0.545 NA 
HETATM   23  O   UNL     1     -12.348  13.252  68.196  1.00  0.00    -0.164 OA 
HETATM   24  C   UNL     1      -7.888  13.071  67.980  1.00  0.00    -0.146 A  
HETATM   25  C   UNL     1      -8.879  14.018  68.295  1.00  0.00    -0.184 A  
HETATM   26  C   UNL     1     -10.197  13.538  68.194  1.00  0.00    -0.249 A  
HETATM   27  N   UNL     1     -11.349  14.177  68.435  1.00  0.00    -0.271 NA 
ENDBRANCH  12  19
ENDBRANCH   3   5
ENDBRANCH   2   3
TORSDOF 6
ENDMDL
MODEL       70
REMARK 921   NORMALIZED FREE ENERGY PREDICTED BY IDOCK:   -4.48 KCAL/MOL
REMARK 922        TOTAL FREE ENERGY PREDICTED BY IDOCK:   -7.51 KCAL/MOL
REMARK 923 INTER-LIGAND FREE ENERGY PREDICTED BY IDOCK:   -5.80 KCAL/MOL
REMARK 924 INTRA-LIGAND FREE ENERGY PREDICTED BY IDOCK:   -1.71 KCAL/MOL
REMARK 927      BINDING AFFINITY PREDICTED BY RF-SCORE:    0.00 PKD
ROOT
HETATM    1  C   UNL     1      -7.763   8.161  72.922  1.00  0.00    -0.140 C  
HETATM    2  O   UNL     1      -9.144   8.536  72.928  1.00  0.00    -0.270 OA 
ENDROOT
BRANCH   2   3
HETATM    3  C   UNL     1      -9.935   8.026  71.960  1.00  0.00    -0.213 C  
HETATM    4  O   UNL     1     -10.211   6.842  71.828  1.00  0.00    -0.190 OA 
BRANCH   3   5
HETATM    5  C   UNL     1     -10.392   9.098  71.029  1.00  0.00    -0.363 C  
HETATM    6  C   UNL     1     -11.616   9.649  71.223  1.00  0.00    -0.393 C  
HETATM    7  C   UNL     1     -12.666   9.190  72.210  1.00  0.00    -0.447 C  
HETATM    8  N   UNL     1     -12.003  10.738  70.468  1.00  0.00    -0.331 NA 
HETATM    9  C   UNL     1     -11.281  11.294  69.434  1.00  0.00    -0.280 C  
HETATM   10  C   UNL     1     -11.967  12.443  68.728  1.00  0.00    -0.276 C  
HETATM   11  C   UNL     1     -10.053  10.808  69.124  1.00  0.00    -0.224 C  
HETATM   12  C   UNL     1      -9.428   9.671  69.958  1.00  0.00    -0.277 C  
BRANCH  11  13
HETATM   13  C   UNL     1      -9.372  11.326  67.903  1.00  0.00    -0.161 C  
HETATM   14  O   UNL     1      -8.441  12.124  67.944  1.00  0.00    -0.145 OA 
BRANCH  13  15
HETATM   15  O   UNL     1      -9.924  10.874  66.751  1.00  0.00    -0.193 OA 
BRANCH  15  16
HETATM   16  C   UNL     1      -9.073  11.022  65.590  1.00  0.00    -0.206 C  
HETATM   17  C   UNL     1      -9.924  11.459  64.407  1.00  0.00    -0.321 C  
HETATM   18  C   UNL     1      -8.368   9.700  65.295  1.00  0.00    -0.139 C  
ENDBRANCH  15  16
ENDBRANCH  13  15
ENDBRANCH  11  13
BRANCH  12  19
HETATM   19  C   UNL     1      -8.812   8.595  69.083  1.00  0.00    -0.137 A  
HETATM   20  C   UNL     1      -9.576   7.704  68.281  1.00  0.00    -0.153 A  
HETATM   21  C   UNL     1      -7.410   8.410  68.948  1.00  0.00    -0.090 A  
HETATM   22  N   UNL     1     -10.905   7.610  68.147  1.00  0.00    -0.050 NA 
HETATM   23  O   UNL     1     -11.126   6.593  67.236  1.00  0.00    -0.370 OA 
HETATM   24  C   UNL     1      -6.822   7.430  68.104  1.00  0.00    -0.063 A  
HETATM   25  C   UNL     1      -7.572   6.547  67.307  1.00  0.00    -0.096 A  
HETATM   26  C   UNL     1      -8.965   6.707  67.413  1.00  0.00    -0.114 A  
HETATM   27  N   UNL     1      -9.942   6.040  66.784  1.00  0.00    -0.162 NA 
ENDBRANCH  12  19
ENDBRANCH   3   5
ENDBRANCH   2   3
TORSDOF 6
ENDMDL
MODEL       71
REMARK 921   NORMALIZED FREE ENERGY PREDICTED BY IDOCK:   -4.48 KCAL/MOL
REMARK 922        TOTAL FREE ENERGY PREDICTED BY IDOCK:   -7.51 KCAL/MOL
REMARK 923 INTER-LIGAND FREE ENERGY PREDICTED BY IDOCK:   -6.76 KCAL/MOL
REMARK 924 INTRA-LIGAND FREE ENERGY PREDICTED BY IDOCK:   -0.75 KCAL/MOL
REMARK 927      BINDING AFFINITY PREDICTED BY RF-SCORE:    0.00 PKD
ROOT
HETATM    1  C   UNL     1     -12.190  15.397  70.408  1.00  0.00    -0.391 C  
HETATM    2  O   UNL     1     -10.856  14.884  70.350  1.00  0.00    -0.185 OA 
ENDROOT
BRANCH   2   3
HETATM    3  C   UNL     1     -10.020  15.416  69.433  1.00  0.00    -0.272 C  
HETATM    4  O   UNL     1      -9.940  16.605  69.161  1.00  0.00    -0.263 OA 
BRANCH   3   5
HETATM    5  C   UNL     1      -9.234  14.348  68.749  1.00  0.00    -0.144 C  
HETATM    6  C   UNL     1      -7.895  14.292  68.957  1.00  0.00    -0.045 C  
HETATM    7  C   UNL     1      -7.055  15.302  69.707  1.00  0.00    -0.154 C  
HETATM    8  N   UNL     1      -7.169  13.232  68.454  1.00  0.00    -0.101 NA 
HETATM    9  C   UNL     1      -7.667  12.226  67.653  1.00  0.00    -0.144 C  
HETATM   10  C   UNL     1      -6.639  11.221  67.184  1.00  0.00    -0.106 C  
HETATM   11  C   UNL     1      -8.990  12.193  67.347  1.00  0.00    -0.180 C  
HETATM   12  C   UNL     1      -9.956  13.240  67.939  1.00  0.00    -0.233 C  
BRANCH  11  13
HETATM   13  C   UNL     1      -9.463  11.189  66.353  1.00  0.00    -0.193 C  
HETATM   14  O   UNL     1     -10.062  10.166  66.670  1.00  0.00    -0.205 OA 
BRANCH  13  15
HETATM   15  O   UNL     1      -9.112  11.491  65.079  1.00  0.00    -0.096 OA 
BRANCH  15  16
HETATM   16  C   UNL     1      -9.921  10.837  64.073  1.00  0.00    -0.342 C  
HETATM   17  C   UNL     1      -9.008  10.301  62.980  1.00  0.00    -0.252 C  
HETATM   18  C   UNL     1     -10.933  11.827  63.501  1.00  0.00    -0.499 C  
ENDBRANCH  15  16
ENDBRANCH  13  15
ENDBRANCH  11  13
BRANCH  12  19
HETATM   19  C   UNL     1     -10.902  13.798  66.890  1.00  0.00    -0.286 A  
HETATM   20  C   UNL     1     -10.604  14.935  66.091  1.00  0.00    -0.318 A  
HETATM   21  C   UNL     1     -12.154  13.205  66.578  1.00  0.00    -0.423 A  
HETATM   22  N   UNL     1      -9.517  15.718  66.100  1.00  0.00    -0.311 NA 
HETATM   23  O   UNL     1      -9.725  16.670  65.117  1.00  0.00    -0.226 OA 
HETATM   24  C   UNL     1     -13.030  13.697  65.574  1.00  0.00    -0.325 A  
HETATM   25  C   UNL     1     -12.741  14.820  64.778  1.00  0.00     0.048 A  
HETATM   26  C   UNL     1     -11.505  15.429  65.058  1.00  0.00    -0.263 A  
HETATM   27  N   UNL     1     -10.938  16.494  64.478  1.00  0.00    -0.845 NA 
ENDBRANCH  12  19
ENDBRANCH   3   5
ENDBRANCH   2   3
TORSDOF 6
ENDMDL
MODEL       72
REMARK 921   NORMALIZED FREE ENERGY PREDICTED BY IDOCK:   -4.47 KCAL/MOL
REMARK 922        TOTAL FREE ENERGY PREDICTED BY IDOCK:   -7.49 KCAL/MOL
REMARK 923 INTER-LIGAND FREE ENERGY PREDICTED BY IDOCK:   -6.11 KCAL/MOL
REMARK 924 INTRA-LIGAND FREE ENERGY PREDICTED BY IDOCK:   -1.39 KCAL/MOL
REMARK 927      BINDING AFFINITY PREDICTED BY RF-SCORE:    0.00 PKD
ROOT
HETATM    1  C   UNL     1      -5.235  10.845  65.430  1.00  0.00    -0.123 C  
HETATM    2  O   UNL     1      -6.510  10.729  66.068  1.00  0.00    -0.122 OA 
ENDROOT
BRANCH   2   3
HETATM    3  C   UNL     1      -6.587  11.051  67.377  1.00  0.00    -0.069 C  
HETATM    4  O   UNL     1      -5.743  11.681  67.996  1.00  0.00    -0.043 OA 
BRANCH   3   5
HETATM    5  C   UNL     1      -7.824  10.486  67.990  1.00  0.00    -0.105 C  
HETATM    6  C   UNL     1      -7.838   9.175  68.336  1.00  0.00    -0.102 C  
HETATM    7  C   UNL     1      -6.768   8.150  68.032  1.00  0.00    -0.065 C  
HETATM    8  N   UNL     1      -8.914   8.663  69.034  1.00  0.00    -0.141 NA 
HETATM    9  C   UNL     1     -10.064   9.352  69.353  1.00  0.00    -0.198 C  
HETATM   10  C   UNL     1     -11.117   8.533  70.066  1.00  0.00    -0.152 C  
HETATM   11  C   UNL     1     -10.181  10.665  69.030  1.00  0.00    -0.231 C  
HETATM   12  C   UNL     1      -9.011  11.413  68.358  1.00  0.00    -0.172 C  
BRANCH  11  13
HETATM   13  C   UNL     1     -11.495  11.334  69.246  1.00  0.00    -0.301 C  
HETATM   14  O   UNL     1     -12.450  11.194  68.488  1.00  0.00    -0.452 OA 
BRANCH  13  15
HETATM   15  O   UNL     1     -11.507  12.155  70.325  1.00  0.00    -0.120 OA 
BRANCH  15  16
HETATM   16  C   UNL     1     -12.599  13.104  70.334  1.00  0.00    -0.116 C  
HETATM   17  C   UNL     1     -12.064  14.474  69.947  1.00  0.00    -0.389 C  
HETATM   18  C   UNL     1     -13.240  13.139  71.720  1.00  0.00    -0.494 C  
ENDBRANCH  15  16
ENDBRANCH  13  15
ENDBRANCH  11  13
BRANCH  12  19
HETATM   19  C   UNL     1      -9.476  12.267  67.192  1.00  0.00    -0.196 A  
HETATM   20  C   UNL     1      -9.883  11.730  65.940  1.00  0.00    -0.238 A  
HETATM   21  C   UNL     1      -9.593  13.681  67.260  1.00  0.00    -0.238 A  
HETATM   22  N   UNL     1      -9.923  10.453  65.537  1.00  0.00    -0.267 NA 
HETATM   23  O   UNL     1     -10.410  10.477  64.242  1.00  0.00    -0.332 OA 
HETATM   24  C   UNL     1     -10.060  14.486  66.188  1.00  0.00    -0.319 A  
HETATM   25  C   UNL     1     -10.467  13.960  64.948  1.00  0.00    -0.446 A  
HETATM   26  C   UNL     1     -10.370  12.561  64.848  1.00  0.00    -0.300 A  
HETATM   27  N   UNL     1     -10.685  11.764  63.819  1.00  0.00    -0.377 NA 
ENDBRANCH  12  19
ENDBRANCH   3   5
ENDBRANCH   2   3
TORSDOF 6
ENDMDL
MODEL       73
REMARK 921   NORMALIZED FREE ENERGY PREDICTED BY IDOCK:   -4.44 KCAL/MOL
REMARK 922        TOTAL FREE ENERGY PREDICTED BY IDOCK:   -7.45 KCAL/MOL
REMARK 923 INTER-LIGAND FREE ENERGY PREDICTED BY IDOCK:   -6.10 KCAL/MOL
REMARK 924 INTRA-LIGAND FREE ENERGY PREDICTED BY IDOCK:   -1.35 KCAL/MOL
REMARK 927      BINDING AFFINITY PREDICTED BY RF-SCORE:    0.00 PKD
ROOT
HETATM    1  C   UNL     1     -12.997   9.532  71.957  1.00  0.00    -0.426 C  
HETATM    2  O   UNL     1     -11.701   9.904  71.478  1.00  0.00    -0.380 OA 
ENDROOT
BRANCH   2   3
HETATM    3  C   UNL     1     -10.725   8.972  71.526  1.00  0.00    -0.351 C  
HETATM    4  O   UNL     1      -9.994   8.769  72.484  1.00  0.00    -0.245 OA 
BRANCH   3   5
HETATM    5  C   UNL     1     -10.618   8.250  70.226  1.00  0.00    -0.230 C  
HETATM    6  C   UNL     1     -11.046   6.965  70.159  1.00  0.00    -0.299 C  
HETATM    7  C   UNL     1     -11.498   6.103  71.317  1.00  0.00    -0.311 C  
HETATM    8  N   UNL     1     -11.092   6.321  68.938  1.00  0.00    -0.365 NA 
HETATM    9  C   UNL     1     -10.647   6.840  67.741  1.00  0.00    -0.249 C  
HETATM   10  C   UNL     1     -10.753   5.897  66.563  1.00  0.00    -0.251 C  
HETATM   11  C   UNL     1     -10.166   8.108  67.687  1.00  0.00    -0.296 C  
HETATM   12  C   UNL     1     -10.166   9.000  68.946  1.00  0.00    -0.223 C  
BRANCH  11  13
HETATM   13  C   UNL     1      -9.548   8.578  66.415  1.00  0.00    -0.245 C  
HETATM   14  O   UNL     1      -8.385   8.335  66.106  1.00  0.00    -0.112 OA 
BRANCH  13  15
HETATM   15  O   UNL     1     -10.378   9.348  65.670  1.00  0.00    -0.063 OA 
BRANCH  15  16
HETATM   16  C   UNL     1      -9.730  10.483  65.046  1.00  0.00    -0.292 C  
HETATM   17  C   UNL     1     -10.653  11.688  65.140  1.00  0.00    -0.343 C  
HETATM   18  C   UNL     1      -9.407  10.156  63.590  1.00  0.00    -0.336 C  
ENDBRANCH  15  16
ENDBRANCH  13  15
ENDBRANCH  11  13
BRANCH  12  19
HETATM   19  C   UNL     1      -8.848   9.731  69.126  1.00  0.00    -0.160 A  
HETATM   20  C   UNL     1      -8.666  11.107  68.818  1.00  0.00    -0.128 A  
HETATM   21  C   UNL     1      -7.685   9.118  69.664  1.00  0.00    -0.082 A  
HETATM   22  N   UNL     1      -9.542  11.989  68.320  1.00  0.00    -0.202 NA 
HETATM   23  O   UNL     1      -8.863  13.190  68.227  1.00  0.00    -0.188 OA 
HETATM   24  C   UNL     1      -6.458   9.801  69.871  1.00  0.00    -0.062 A  
HETATM   25  C   UNL     1      -6.272  11.163  69.571  1.00  0.00    -0.091 A  
HETATM   26  C   UNL     1      -7.406  11.803  69.040  1.00  0.00    -0.055 A  
HETATM   27  N   UNL     1      -7.558  13.080  68.668  1.00  0.00    -0.118 NA 
ENDBRANCH  12  19
ENDBRANCH   3   5
ENDBRANCH   2   3
TORSDOF 6
ENDMDL
MODEL       74
REMARK 921   NORMALIZED FREE ENERGY PREDICTED BY IDOCK:   -4.44 KCAL/MOL
REMARK 922        TOTAL FREE ENERGY PREDICTED BY IDOCK:   -7.45 KCAL/MOL
REMARK 923 INTER-LIGAND FREE ENERGY PREDICTED BY IDOCK:   -6.87 KCAL/MOL
REMARK 924 INTRA-LIGAND FREE ENERGY PREDICTED BY IDOCK:   -0.58 KCAL/MOL
REMARK 927      BINDING AFFINITY PREDICTED BY RF-SCORE:    0.00 PKD
ROOT
HETATM    1  C   UNL     1     -10.367  17.844  66.878  1.00  0.00    -0.355 C  
HETATM    2  O   UNL     1     -10.402  16.450  67.198  1.00  0.00    -0.283 OA 
ENDROOT
BRANCH   2   3
HETATM    3  C   UNL     1      -9.871  15.589  66.304  1.00  0.00    -0.294 C  
HETATM    4  O   UNL     1      -9.782  15.790  65.101  1.00  0.00    -0.326 OA 
BRANCH   3   5
HETATM    5  C   UNL     1      -9.449  14.324  66.972  1.00  0.00    -0.259 C  
HETATM    6  C   UNL     1      -8.227  14.274  67.558  1.00  0.00    -0.189 C  
HETATM    7  C   UNL     1      -7.149  15.333  67.487  1.00  0.00    -0.224 C  
HETATM    8  N   UNL     1      -7.871  13.170  68.305  1.00  0.00    -0.136 NA 
HETATM    9  C   UNL     1      -8.624  12.024  68.452  1.00  0.00    -0.147 C  
HETATM   10  C   UNL     1      -7.968  10.935  69.272  1.00  0.00    -0.076 C  
HETATM   11  C   UNL     1      -9.853  11.942  67.883  1.00  0.00    -0.190 C  
HETATM   12  C   UNL     1     -10.445  13.144  67.120  1.00  0.00    -0.247 C  
BRANCH  11  13
HETATM   13  C   UNL     1     -10.569  10.635  67.927  1.00  0.00    -0.228 C  
HETATM   14  O   UNL     1     -11.777  10.540  68.120  1.00  0.00    -0.431 OA 
BRANCH  13  15
HETATM   15  O   UNL     1      -9.743   9.568  67.794  1.00  0.00    -0.141 OA 
BRANCH  15  16
HETATM   16  C   UNL     1     -10.182   8.600  66.811  1.00  0.00    -0.291 C  
HETATM   17  C   UNL     1     -10.667   7.352  67.533  1.00  0.00    -0.310 C  
HETATM   18  C   UNL     1      -9.032   8.270  65.863  1.00  0.00    -0.208 C  
ENDBRANCH  15  16
ENDBRANCH  13  15
ENDBRANCH  11  13
BRANCH  12  19
HETATM   19  C   UNL     1     -11.069  12.730  65.799  1.00  0.00    -0.316 A  
HETATM   20  C   UNL     1     -10.369  12.010  64.793  1.00  0.00    -0.280 A  
HETATM   21  C   UNL     1     -12.427  12.982  65.467  1.00  0.00    -0.496 A  
HETATM   22  N   UNL     1      -9.098  11.590  64.779  1.00  0.00     0.033 NA 
HETATM   23  O   UNL     1      -8.928  10.928  63.577  1.00  0.00    -0.188 OA 
HETATM   24  C   UNL     1     -13.030  12.568  64.251  1.00  0.00    -0.253 A  
HETATM   25  C   UNL     1     -12.344  11.853  63.252  1.00  0.00    -0.508 A  
HETATM   26  C   UNL     1     -10.998  11.582  63.551  1.00  0.00    -0.373 A  
HETATM   27  N   UNL     1     -10.088  10.920  62.825  1.00  0.00    -0.146 NA 
ENDBRANCH  12  19
ENDBRANCH   3   5
ENDBRANCH   2   3
TORSDOF 6
ENDMDL
MODEL       75
REMARK 921   NORMALIZED FREE ENERGY PREDICTED BY IDOCK:   -4.43 KCAL/MOL
REMARK 922        TOTAL FREE ENERGY PREDICTED BY IDOCK:   -7.44 KCAL/MOL
REMARK 923 INTER-LIGAND FREE ENERGY PREDICTED BY IDOCK:   -6.72 KCAL/MOL
REMARK 924 INTRA-LIGAND FREE ENERGY PREDICTED BY IDOCK:   -0.72 KCAL/MOL
REMARK 927      BINDING AFFINITY PREDICTED BY RF-SCORE:    0.00 PKD
ROOT
HETATM    1  C   UNL     1      -9.401  18.950  69.300  1.00  0.00     0.013 C  
HETATM    2  O   UNL     1      -9.953  17.630  69.314  1.00  0.00    -0.228 OA 
ENDROOT
BRANCH   2   3
HETATM    3  C   UNL     1     -10.778  17.286  68.301  1.00  0.00    -0.349 C  
HETATM    4  O   UNL     1     -11.382  18.074  67.589  1.00  0.00     0.095 OA 
BRANCH   3   5
HETATM    5  C   UNL     1     -10.897  15.803  68.196  1.00  0.00    -0.307 C  
HETATM    6  C   UNL     1     -11.836  15.172  68.944  1.00  0.00    -0.310 C  
HETATM    7  C   UNL     1     -12.705  15.794  70.015  1.00  0.00     0.040 C  
HETATM    8  N   UNL     1     -12.064  13.823  68.760  1.00  0.00    -0.357 NA 
HETATM    9  C   UNL     1     -11.348  12.996  67.922  1.00  0.00    -0.288 C  
HETATM   10  C   UNL     1     -11.764  11.542  67.959  1.00  0.00    -0.343 C  
HETATM   11  C   UNL     1     -10.360  13.507  67.144  1.00  0.00    -0.250 C  
HETATM   12  C   UNL     1     -10.068  15.021  67.144  1.00  0.00    -0.239 C  
BRANCH  11  13
HETATM   13  C   UNL     1      -9.504  12.562  66.373  1.00  0.00    -0.233 C  
HETATM   14  O   UNL     1      -8.679  11.822  66.901  1.00  0.00    -0.176 OA 
BRANCH  13  15
HETATM   15  O   UNL     1      -9.686  12.647  65.032  1.00  0.00    -0.120 OA 
BRANCH  15  16
HETATM   16  C   UNL     1     -10.656  11.709  64.507  1.00  0.00    -0.318 C  
HETATM   17  C   UNL     1     -10.050  10.992  63.311  1.00  0.00    -0.400 C  
HETATM   18  C   UNL     1     -11.929  12.453  64.110  1.00  0.00    -0.518 C  
ENDBRANCH  15  16
ENDBRANCH  13  15
ENDBRANCH  11  13
BRANCH  12  19
HETATM   19  C   UNL     1      -8.580  15.314  67.231  1.00  0.00    -0.210 A  
HETATM   20  C   UNL     1      -7.963  16.429  66.601  1.00  0.00    -0.288 A  
HETATM   21  C   UNL     1      -7.675  14.526  67.990  1.00  0.00    -0.138 A  
HETATM   22  N   UNL     1      -8.509  17.381  65.834  1.00  0.00    -0.541 NA 
HETATM   23  O   UNL     1      -7.476  18.234  65.491  1.00  0.00    -0.537 OA 
HETATM   24  C   UNL     1      -6.289  14.811  68.107  1.00  0.00    -0.144 A  
HETATM   25  C   UNL     1      -5.672  15.914  67.489  1.00  0.00    -0.139 A  
HETATM   26  C   UNL     1      -6.542  16.719  66.732  1.00  0.00    -0.212 A  
HETATM   27  N   UNL     1      -6.273  17.833  66.040  1.00  0.00    -0.227 NA 
ENDBRANCH  12  19
ENDBRANCH   3   5
ENDBRANCH   2   3
TORSDOF 6
ENDMDL
MODEL       76
REMARK 921   NORMALIZED FREE ENERGY PREDICTED BY IDOCK:   -4.43 KCAL/MOL
REMARK 922        TOTAL FREE ENERGY PREDICTED BY IDOCK:   -7.44 KCAL/MOL
REMARK 923 INTER-LIGAND FREE ENERGY PREDICTED BY IDOCK:   -5.95 KCAL/MOL
REMARK 924 INTRA-LIGAND FREE ENERGY PREDICTED BY IDOCK:   -1.49 KCAL/MOL
REMARK 927      BINDING AFFINITY PREDICTED BY RF-SCORE:    0.00 PKD
ROOT
HETATM    1  C   UNL     1      -7.929  11.069  68.353  1.00  0.00    -0.131 C  
HETATM    2  O   UNL     1      -7.869  12.499  68.364  1.00  0.00    -0.138 OA 
ENDROOT
BRANCH   2   3
HETATM    3  C   UNL     1      -6.738  13.081  67.912  1.00  0.00    -0.129 C  
HETATM    4  O   UNL     1      -5.989  12.605  67.072  1.00  0.00    -0.301 OA 
BRANCH   3   5
HETATM    5  C   UNL     1      -6.488  14.372  68.617  1.00  0.00    -0.087 C  
HETATM    6  C   UNL     1      -5.808  14.351  69.790  1.00  0.00    -0.111 C  
HETATM    7  C   UNL     1      -5.386  13.123  70.567  1.00  0.00    -0.144 C  
HETATM    8  N   UNL     1      -5.440  15.539  70.389  1.00  0.00    -0.142 NA 
HETATM    9  C   UNL     1      -5.781  16.799  69.946  1.00  0.00    -0.220 C  
HETATM   10  C   UNL     1      -5.302  17.932  70.827  1.00  0.00    -0.246 C  
HETATM   11  C   UNL     1      -6.490  16.948  68.798  1.00  0.00    -0.178 C  
HETATM   12  C   UNL     1      -6.869  15.718  67.948  1.00  0.00    -0.161 C  
BRANCH  11  13
HETATM   13  C   UNL     1      -6.977  18.309  68.437  1.00  0.00    -0.245 C  
HETATM   14  O   UNL     1      -8.059  18.753  68.807  1.00  0.00    -0.332 OA 
BRANCH  13  15
HETATM   15  O   UNL     1      -6.133  18.978  67.613  1.00  0.00    -0.205 OA 
BRANCH  15  16
HETATM   16  C   UNL     1      -6.775  19.556  66.452  1.00  0.00    -0.194 C  
HETATM   17  C   UNL     1      -6.385  18.751  65.222  1.00  0.00    -0.309 C  
HETATM   18  C   UNL     1      -6.355  21.017  66.304  1.00  0.00    -0.299 C  
ENDBRANCH  15  16
ENDBRANCH  13  15
ENDBRANCH  11  13
BRANCH  12  19
HETATM   19  C   UNL     1      -8.318  15.763  67.496  1.00  0.00    -0.183 A  
HETATM   20  C   UNL     1      -9.420  15.670  68.388  1.00  0.00    -0.196 A  
HETATM   21  C   UNL     1      -8.705  15.950  66.143  1.00  0.00    -0.328 A  
HETATM   22  N   UNL     1      -9.426  15.513  69.719  1.00  0.00    -0.257 NA 
HETATM   23  O   UNL     1     -10.756  15.500  70.096  1.00  0.00    -0.293 OA 
HETATM   24  C   UNL     1     -10.057  16.030  65.714  1.00  0.00    -0.393 A  
HETATM   25  C   UNL     1     -11.152  15.941  66.592  1.00  0.00    -0.045 A  
HETATM   26  C   UNL     1     -10.804  15.761  67.942  1.00  0.00    -0.314 A  
HETATM   27  N   UNL     1     -11.601  15.653  69.012  1.00  0.00    -0.366 NA 
ENDBRANCH  12  19
ENDBRANCH   3   5
ENDBRANCH   2   3
TORSDOF 6
ENDMDL
MODEL       77
REMARK 921   NORMALIZED FREE ENERGY PREDICTED BY IDOCK:   -4.41 KCAL/MOL
REMARK 922        TOTAL FREE ENERGY PREDICTED BY IDOCK:   -7.42 KCAL/MOL
REMARK 923 INTER-LIGAND FREE ENERGY PREDICTED BY IDOCK:   -6.13 KCAL/MOL
REMARK 924 INTRA-LIGAND FREE ENERGY PREDICTED BY IDOCK:   -1.29 KCAL/MOL
REMARK 927      BINDING AFFINITY PREDICTED BY RF-SCORE:    0.00 PKD
ROOT
HETATM    1  C   UNL     1      -9.852   6.443  74.444  1.00  0.00    -0.319 C  
HETATM    2  O   UNL     1     -10.757   7.381  73.855  1.00  0.00    -0.319 OA 
ENDROOT
BRANCH   2   3
HETATM    3  C   UNL     1     -11.349   7.034  72.691  1.00  0.00    -0.252 C  
HETATM    4  O   UNL     1     -11.796   5.927  72.433  1.00  0.00    -0.311 OA 
BRANCH   3   5
HETATM    5  C   UNL     1     -11.339   8.176  71.731  1.00  0.00    -0.333 C  
HETATM    6  C   UNL     1     -12.465   8.920  71.594  1.00  0.00    -0.344 C  
HETATM    7  C   UNL     1     -13.817   8.632  72.210  1.00  0.00    -0.459 C  
HETATM    8  N   UNL     1     -12.439  10.064  70.823  1.00  0.00    -0.307 NA 
HETATM    9  C   UNL     1     -11.368  10.503  70.075  1.00  0.00    -0.318 C  
HETATM   10  C   UNL     1     -11.629  11.755  69.268  1.00  0.00    -0.378 C  
HETATM   11  C   UNL     1     -10.194   9.822  70.105  1.00  0.00    -0.328 C  
HETATM   12  C   UNL     1     -10.026   8.591  71.018  1.00  0.00    -0.255 C  
BRANCH  11  13
HETATM   13  C   UNL     1      -9.112  10.232  69.164  1.00  0.00    -0.191 C  
HETATM   14  O   UNL     1      -8.078  10.781  69.531  1.00  0.00    -0.104 OA 
BRANCH  13  15
HETATM   15  O   UNL     1      -9.415   9.991  67.865  1.00  0.00    -0.143 OA 
BRANCH  15  16
HETATM   16  C   UNL     1      -8.587  10.712  66.922  1.00  0.00    -0.126 C  
HETATM   17  C   UNL     1      -9.411  11.826  66.294  1.00  0.00    -0.238 C  
HETATM   18  C   UNL     1      -8.064   9.753  65.855  1.00  0.00    -0.114 C  
ENDBRANCH  15  16
ENDBRANCH  13  15
ENDBRANCH  11  13
BRANCH  12  19
HETATM   19  C   UNL     1      -9.355   7.435  70.298  1.00  0.00    -0.162 A  
HETATM   20  C   UNL     1      -9.918   6.784  69.166  1.00  0.00    -0.159 A  
HETATM   21  C   UNL     1      -8.079   6.927  70.661  1.00  0.00    -0.118 A  
HETATM   22  N   UNL     1     -11.082   7.014  68.546  1.00  0.00    -0.070 NA 
HETATM   23  O   UNL     1     -11.139   6.117  67.495  1.00  0.00    -0.330 OA 
HETATM   24  C   UNL     1      -7.427   5.871  69.972  1.00  0.00    -0.079 A  
HETATM   25  C   UNL     1      -7.976   5.225  68.850  1.00  0.00    -0.086 A  
HETATM   26  C   UNL     1      -9.238   5.707  68.460  1.00  0.00    -0.121 A  
HETATM   27  N   UNL     1     -10.012   5.317  67.440  1.00  0.00    -0.160 NA 
ENDBRANCH  12  19
ENDBRANCH   3   5
ENDBRANCH   2   3
TORSDOF 6
ENDMDL
MODEL       78
REMARK 921   NORMALIZED FREE ENERGY PREDICTED BY IDOCK:   -4.40 KCAL/MOL
REMARK 922        TOTAL FREE ENERGY PREDICTED BY IDOCK:   -7.39 KCAL/MOL
REMARK 923 INTER-LIGAND FREE ENERGY PREDICTED BY IDOCK:   -6.16 KCAL/MOL
REMARK 924 INTRA-LIGAND FREE ENERGY PREDICTED BY IDOCK:   -1.23 KCAL/MOL
REMARK 927      BINDING AFFINITY PREDICTED BY RF-SCORE:    0.00 PKD
ROOT
HETATM    1  C   UNL     1      -8.172   5.099  69.716  1.00  0.00    -0.089 C  
HETATM    2  O   UNL     1      -8.123   5.709  68.423  1.00  0.00    -0.101 OA 
ENDROOT
BRANCH   2   3
HETATM    3  C   UNL     1      -9.285   5.837  67.747  1.00  0.00    -0.105 C  
HETATM    4  O   UNL     1     -10.063   4.925  67.507  1.00  0.00    -0.171 OA 
BRANCH   3   5
HETATM    5  C   UNL     1      -9.475   7.241  67.280  1.00  0.00    -0.169 C  
HETATM    6  C   UNL     1      -8.980   7.596  66.068  1.00  0.00    -0.139 C  
HETATM    7  C   UNL     1      -8.105   6.752  65.169  1.00  0.00    -0.132 C  
HETATM    8  N   UNL     1      -9.265   8.844  65.551  1.00  0.00    -0.208 NA 
HETATM    9  C   UNL     1      -9.957   9.842  66.203  1.00  0.00    -0.263 C  
HETATM   10  C   UNL     1     -10.073  11.139  65.433  1.00  0.00    -0.317 C  
HETATM   11  C   UNL     1     -10.474   9.617  67.438  1.00  0.00    -0.319 C  
HETATM   12  C   UNL     1     -10.347   8.229  68.098  1.00  0.00    -0.253 C  
BRANCH  11  13
HETATM   13  C   UNL     1     -11.074  10.765  68.176  1.00  0.00    -0.280 C  
HETATM   14  O   UNL     1     -12.283  10.967  68.229  1.00  0.00    -0.582 OA 
BRANCH  13  15
HETATM   15  O   UNL     1     -10.149  11.588  68.726  1.00  0.00    -0.213 OA 
BRANCH  15  16
HETATM   16  C   UNL     1     -10.220  12.955  68.255  1.00  0.00    -0.245 C  
HETATM   17  C   UNL     1      -8.806  13.488  68.078  1.00  0.00    -0.181 C  
HETATM   18  C   UNL     1     -11.002  13.805  69.254  1.00  0.00    -0.205 C  
ENDBRANCH  15  16
ENDBRANCH  13  15
ENDBRANCH  11  13
BRANCH  12  19
HETATM   19  C   UNL     1      -9.921   8.327  69.552  1.00  0.00    -0.187 A  
HETATM   20  C   UNL     1     -10.742   7.923  70.639  1.00  0.00    -0.228 A  
HETATM   21  C   UNL     1      -8.640   8.788  69.958  1.00  0.00    -0.136 A  
HETATM   22  N   UNL     1     -11.985   7.425  70.624  1.00  0.00    -0.227 NA 
HETATM   23  O   UNL     1     -12.316   7.184  71.946  1.00  0.00    -0.315 OA 
HETATM   24  C   UNL     1      -8.217   8.850  71.312  1.00  0.00    -0.207 A  
HETATM   25  C   UNL     1      -9.024   8.450  72.392  1.00  0.00    -0.309 A  
HETATM   26  C   UNL     1     -10.298   7.982  72.025  1.00  0.00    -0.236 A  
HETATM   27  N   UNL     1     -11.286   7.522  72.804  1.00  0.00    -0.345 NA 
ENDBRANCH  12  19
ENDBRANCH   3   5
ENDBRANCH   2   3
TORSDOF 6
ENDMDL
MODEL       79
REMARK 921   NORMALIZED FREE ENERGY PREDICTED BY IDOCK:   -4.39 KCAL/MOL
REMARK 922        TOTAL FREE ENERGY PREDICTED BY IDOCK:   -7.38 KCAL/MOL
REMARK 923 INTER-LIGAND FREE ENERGY PREDICTED BY IDOCK:   -5.89 KCAL/MOL
REMARK 924 INTRA-LIGAND FREE ENERGY PREDICTED BY IDOCK:   -1.50 KCAL/MOL
REMARK 927      BINDING AFFINITY PREDICTED BY RF-SCORE:    0.00 PKD
ROOT
HETATM    1  C   UNL     1     -14.358   8.546  71.983  1.00  0.00    -0.447 C  
HETATM    2  O   UNL     1     -13.457   7.501  71.604  1.00  0.00    -0.362 OA 
ENDROOT
BRANCH   2   3
HETATM    3  C   UNL     1     -12.145   7.678  71.870  1.00  0.00    -0.298 C  
HETATM    4  O   UNL     1     -11.682   8.583  72.549  1.00  0.00    -0.380 OA 
BRANCH   3   5
HETATM    5  C   UNL     1     -11.320   6.646  71.179  1.00  0.00    -0.355 C  
HETATM    6  C   UNL     1     -10.952   5.538  71.870  1.00  0.00    -0.199 C  
HETATM    7  C   UNL     1     -11.161   5.285  73.347  1.00  0.00    -0.362 C  
HETATM    8  N   UNL     1     -10.313   4.504  71.215  1.00  0.00    -0.097 NA 
HETATM    9  C   UNL     1      -9.915   4.515  69.896  1.00  0.00    -0.203 C  
HETATM   10  C   UNL     1      -9.174   3.275  69.447  1.00  0.00    -0.222 C  
HETATM   11  C   UNL     1     -10.199   5.585  69.109  1.00  0.00    -0.309 C  
HETATM   12  C   UNL     1     -11.018   6.768  69.663  1.00  0.00    -0.336 C  
BRANCH  11  13
HETATM   13  C   UNL     1      -9.615   5.631  67.738  1.00  0.00    -0.119 C  
HETATM   14  O   UNL     1     -10.249   5.332  66.731  1.00  0.00    -0.195 OA 
BRANCH  13  15
HETATM   15  O   UNL     1      -8.305   5.977  67.726  1.00  0.00    -0.112 OA 
BRANCH  15  16
HETATM   16  C   UNL     1      -7.840   6.489  66.455  1.00  0.00    -0.104 C  
HETATM   17  C   UNL     1      -6.545   5.783  66.083  1.00  0.00    -0.051 C  
HETATM   18  C   UNL     1      -7.630   7.998  66.553  1.00  0.00    -0.092 C  
ENDBRANCH  15  16
ENDBRANCH  13  15
ENDBRANCH  11  13
BRANCH  12  19
HETATM   19  C   UNL     1     -10.408   8.107  69.290  1.00  0.00    -0.222 A  
HETATM   20  C   UNL     1      -9.276   8.663  69.945  1.00  0.00    -0.155 A  
HETATM   21  C   UNL     1     -10.885   8.907  68.217  1.00  0.00    -0.048 A  
HETATM   22  N   UNL     1      -8.565   8.177  70.971  1.00  0.00    -0.130 NA 
HETATM   23  O   UNL     1      -7.562   9.098  71.210  1.00  0.00    -0.253 OA 
HETATM   24  C   UNL     1     -10.300  10.144  67.836  1.00  0.00    -0.234 A  
HETATM   25  C   UNL     1      -9.178  10.698  68.479  1.00  0.00    -0.170 A  
HETATM   26  C   UNL     1      -8.677   9.928  69.543  1.00  0.00    -0.190 A  
HETATM   27  N   UNL     1      -7.627  10.169  70.338  1.00  0.00    -0.240 NA 
ENDBRANCH  12  19
ENDBRANCH   3   5
ENDBRANCH   2   3
TORSDOF 6
ENDMDL
MODEL       80
REMARK 921   NORMALIZED FREE ENERGY PREDICTED BY IDOCK:   -4.39 KCAL/MOL
REMARK 922        TOTAL FREE ENERGY PREDICTED BY IDOCK:   -7.38 KCAL/MOL
REMARK 923 INTER-LIGAND FREE ENERGY PREDICTED BY IDOCK:   -5.85 KCAL/MOL
REMARK 924 INTRA-LIGAND FREE ENERGY PREDICTED BY IDOCK:   -1.53 KCAL/MOL
REMARK 927      BINDING AFFINITY PREDICTED BY RF-SCORE:    0.00 PKD
ROOT
HETATM    1  C   UNL     1      -8.900   5.932  66.408  1.00  0.00    -0.134 C  
HETATM    2  O   UNL     1      -8.836   7.356  66.282  1.00  0.00    -0.148 OA 
ENDROOT
BRANCH   2   3
HETATM    3  C   UNL     1      -9.628   8.092  67.091  1.00  0.00    -0.174 C  
HETATM    4  O   UNL     1     -10.840   7.975  67.184  1.00  0.00    -0.278 OA 
BRANCH   3   5
HETATM    5  C   UNL     1      -8.829   9.114  67.827  1.00  0.00    -0.125 C  
HETATM    6  C   UNL     1      -8.312   8.787  69.038  1.00  0.00    -0.129 C  
HETATM    7  C   UNL     1      -8.579   7.521  69.820  1.00  0.00    -0.140 C  
HETATM    8  N   UNL     1      -7.452   9.660  69.673  1.00  0.00    -0.088 NA 
HETATM    9  C   UNL     1      -7.117  10.922  69.229  1.00  0.00    -0.124 C  
HETATM   10  C   UNL     1      -6.204  11.697  70.152  1.00  0.00    -0.121 C  
HETATM   11  C   UNL     1      -7.599  11.375  68.044  1.00  0.00    -0.110 C  
HETATM   12  C   UNL     1      -8.474  10.467  67.156  1.00  0.00    -0.126 C  
BRANCH  11  13
HETATM   13  C   UNL     1      -7.348  12.797  67.673  1.00  0.00    -0.144 C  
HETATM   14  O   UNL     1      -6.333  13.167  67.090  1.00  0.00    -0.257 OA 
BRANCH  13  15
HETATM   15  O   UNL     1      -8.321  13.640  68.097  1.00  0.00    -0.149 OA 
BRANCH  15  16
HETATM   16  C   UNL     1      -8.301  14.937  67.454  1.00  0.00    -0.194 C  
HETATM   17  C   UNL     1      -8.557  16.009  68.502  1.00  0.00    -0.190 C  
HETATM   18  C   UNL     1      -9.359  14.984  66.355  1.00  0.00    -0.334 C  
ENDBRANCH  15  16
ENDBRANCH  13  15
ENDBRANCH  11  13
BRANCH  12  19
HETATM   19  C   UNL     1      -9.693  11.197  66.621  1.00  0.00    -0.224 A  
HETATM   20  C   UNL     1      -9.937  11.406  65.237  1.00  0.00    -0.258 A  
HETATM   21  C   UNL     1     -10.729  11.697  67.455  1.00  0.00    -0.257 A  
HETATM   22  N   UNL     1      -9.193  11.053  64.180  1.00  0.00    -0.183 NA 
HETATM   23  O   UNL     1      -9.889  11.479  63.064  1.00  0.00    -0.375 OA 
HETATM   24  C   UNL     1     -11.890  12.349  66.964  1.00  0.00    -0.368 A  
HETATM   25  C   UNL     1     -12.139  12.557  65.596  1.00  0.00    -0.464 A  
HETATM   26  C   UNL     1     -11.135  12.069  64.740  1.00  0.00    -0.317 A  
HETATM   27  N   UNL     1     -11.078  12.099  63.403  1.00  0.00    -0.435 NA 
ENDBRANCH  12  19
ENDBRANCH   3   5
ENDBRANCH   2   3
TORSDOF 6
ENDMDL
MODEL       81
REMARK 921   NORMALIZED FREE ENERGY PREDICTED BY IDOCK:   -4.38 KCAL/MOL
REMARK 922        TOTAL FREE ENERGY PREDICTED BY IDOCK:   -7.37 KCAL/MOL
REMARK 923 INTER-LIGAND FREE ENERGY PREDICTED BY IDOCK:   -5.95 KCAL/MOL
REMARK 924 INTRA-LIGAND FREE ENERGY PREDICTED BY IDOCK:   -1.42 KCAL/MOL
REMARK 927      BINDING AFFINITY PREDICTED BY RF-SCORE:    0.00 PKD
ROOT
HETATM    1  C   UNL     1      -6.160  11.889  69.632  1.00  0.00    -0.124 C  
HETATM    2  O   UNL     1      -6.716  10.963  70.571  1.00  0.00    -0.292 OA 
ENDROOT
BRANCH   2   3
HETATM    3  C   UNL     1      -6.684   9.651  70.249  1.00  0.00    -0.099 C  
HETATM    4  O   UNL     1      -5.921   9.144  69.441  1.00  0.00    -0.037 OA 
BRANCH   3   5
HETATM    5  C   UNL     1      -7.747   8.901  70.978  1.00  0.00    -0.155 C  
HETATM    6  C   UNL     1      -7.437   8.321  72.164  1.00  0.00    -0.118 C  
HETATM    7  C   UNL     1      -6.061   8.215  72.784  1.00  0.00    -0.067 C  
HETATM    8  N   UNL     1      -8.433   7.745  72.926  1.00  0.00    -0.139 NA 
HETATM    9  C   UNL     1      -9.754   7.616  72.553  1.00  0.00    -0.184 C  
HETATM   10  C   UNL     1     -10.626   6.885  73.550  1.00  0.00    -0.378 C  
HETATM   11  C   UNL     1     -10.180   8.130  71.371  1.00  0.00    -0.248 C  
HETATM   12  C   UNL     1      -9.210   8.914  70.464  1.00  0.00    -0.239 C  
BRANCH  11  13
HETATM   13  C   UNL     1     -11.572   7.833  70.929  1.00  0.00    -0.274 C  
HETATM   14  O   UNL     1     -11.968   6.698  70.683  1.00  0.00    -0.395 OA 
BRANCH  13  15
HETATM   15  O   UNL     1     -12.331   8.945  70.769  1.00  0.00    -0.162 OA 
BRANCH  15  16
HETATM   16  C   UNL     1     -12.946   9.421  71.990  1.00  0.00    -0.423 C  
HETATM   17  C   UNL     1     -14.271   8.701  72.187  1.00  0.00    -0.520 C  
HETATM   18  C   UNL     1     -13.153  10.931  71.908  1.00  0.00    -0.537 C  
ENDBRANCH  15  16
ENDBRANCH  13  15
ENDBRANCH  11  13
BRANCH  12  19
HETATM   19  C   UNL     1      -9.326   8.494  69.009  1.00  0.00    -0.146 A  
HETATM   20  C   UNL     1      -9.619   9.398  67.953  1.00  0.00    -0.134 A  
HETATM   21  C   UNL     1      -9.106   7.163  68.564  1.00  0.00    -0.132 A  
HETATM   22  N   UNL     1      -9.858  10.715  68.004  1.00  0.00    -0.157 NA 
HETATM   23  O   UNL     1     -10.069  11.116  66.697  1.00  0.00    -0.204 OA 
HETATM   24  C   UNL     1      -9.177   6.766  67.202  1.00  0.00    -0.145 A  
HETATM   25  C   UNL     1      -9.463   7.656  66.152  1.00  0.00    -0.117 A  
HETATM   26  C   UNL     1      -9.681   8.985  66.558  1.00  0.00    -0.244 A  
HETATM   27  N   UNL     1      -9.960  10.060  65.811  1.00  0.00    -0.275 NA 
ENDBRANCH  12  19
ENDBRANCH   3   5
ENDBRANCH   2   3
TORSDOF 6
ENDMDL
MODEL       82
REMARK 921   NORMALIZED FREE ENERGY PREDICTED BY IDOCK:   -4.37 KCAL/MOL
REMARK 922        TOTAL FREE ENERGY PREDICTED BY IDOCK:   -7.36 KCAL/MOL
REMARK 923 INTER-LIGAND FREE ENERGY PREDICTED BY IDOCK:   -5.83 KCAL/MOL
REMARK 924 INTRA-LIGAND FREE ENERGY PREDICTED BY IDOCK:   -1.53 KCAL/MOL
REMARK 927      BINDING AFFINITY PREDICTED BY RF-SCORE:    0.00 PKD
ROOT
HETATM    1  C   UNL     1     -11.229   5.725  72.648  1.00  0.00    -0.301 C  
HETATM    2  O   UNL     1     -10.769   6.665  71.673  1.00  0.00    -0.222 OA 
ENDROOT
BRANCH   2   3
HETATM    3  C   UNL     1     -10.313   7.856  72.118  1.00  0.00    -0.237 C  
HETATM    4  O   UNL     1      -9.743   8.036  73.184  1.00  0.00    -0.277 OA 
BRANCH   3   5
HETATM    5  C   UNL     1     -10.642   8.944  71.153  1.00  0.00    -0.335 C  
HETATM    6  C   UNL     1     -11.863   9.531  71.227  1.00  0.00    -0.373 C  
HETATM    7  C   UNL     1     -13.019   9.102  72.103  1.00  0.00    -0.498 C  
HETATM    8  N   UNL     1     -12.141  10.634  70.444  1.00  0.00    -0.312 NA 
HETATM    9  C   UNL     1     -11.303  11.171  69.490  1.00  0.00    -0.290 C  
HETATM   10  C   UNL     1     -11.881  12.342  68.726  1.00  0.00    -0.356 C  
HETATM   11  C   UNL     1     -10.065  10.648  69.300  1.00  0.00    -0.227 C  
HETATM   12  C   UNL     1      -9.560   9.491  70.186  1.00  0.00    -0.290 C  
BRANCH  11  13
HETATM   13  C   UNL     1      -9.251  11.148  68.156  1.00  0.00    -0.166 C  
HETATM   14  O   UNL     1      -9.411  10.762  67.002  1.00  0.00    -0.155 OA 
BRANCH  13  15
HETATM   15  O   UNL     1      -8.285  12.023  68.529  1.00  0.00    -0.153 OA 
BRANCH  15  16
HETATM   16  C   UNL     1      -6.951  11.460  68.539  1.00  0.00    -0.080 C  
HETATM   17  C   UNL     1      -6.285  11.797  69.864  1.00  0.00    -0.141 C  
HETATM   18  C   UNL     1      -6.148  12.019  67.367  1.00  0.00    -0.130 C  
ENDBRANCH  15  16
ENDBRANCH  13  15
ENDBRANCH  11  13
BRANCH  12  19
HETATM   19  C   UNL     1      -8.893   8.398  69.370  1.00  0.00    -0.142 A  
HETATM   20  C   UNL     1      -9.591   7.570  68.449  1.00  0.00    -0.150 A  
HETATM   21  C   UNL     1      -7.498   8.134  69.416  1.00  0.00    -0.091 A  
HETATM   22  N   UNL     1     -10.893   7.557  68.138  1.00  0.00    -0.074 NA 
HETATM   23  O   UNL     1     -11.046   6.574  67.177  1.00  0.00    -0.390 OA 
HETATM   24  C   UNL     1      -6.858   7.139  68.631  1.00  0.00    -0.076 A  
HETATM   25  C   UNL     1      -7.542   6.319  67.716  1.00  0.00    -0.101 A  
HETATM   26  C   UNL     1      -8.926   6.557  67.641  1.00  0.00    -0.114 A  
HETATM   27  N   UNL     1      -9.844   5.962  66.870  1.00  0.00    -0.145 NA 
ENDBRANCH  12  19
ENDBRANCH   3   5
ENDBRANCH   2   3
TORSDOF 6
ENDMDL
MODEL       83
REMARK 921   NORMALIZED FREE ENERGY PREDICTED BY IDOCK:   -4.34 KCAL/MOL
REMARK 922        TOTAL FREE ENERGY PREDICTED BY IDOCK:   -7.32 KCAL/MOL
REMARK 923 INTER-LIGAND FREE ENERGY PREDICTED BY IDOCK:   -5.94 KCAL/MOL
REMARK 924 INTRA-LIGAND FREE ENERGY PREDICTED BY IDOCK:   -1.38 KCAL/MOL
REMARK 927      BINDING AFFINITY PREDICTED BY RF-SCORE:    0.00 PKD
ROOT
HETATM    1  C   UNL     1     -10.298  10.905  64.092  1.00  0.00    -0.364 C  
HETATM    2  O   UNL     1     -10.418  10.428  65.436  1.00  0.00    -0.237 OA 
ENDROOT
BRANCH   2   3
HETATM    3  C   UNL     1      -9.698  11.056  66.390  1.00  0.00    -0.201 C  
HETATM    4  O   UNL     1      -8.631  11.623  66.205  1.00  0.00    -0.175 OA 
BRANCH   3   5
HETATM    5  C   UNL     1     -10.353  10.922  67.723  1.00  0.00    -0.218 C  
HETATM    6  C   UNL     1     -11.240  11.872  68.110  1.00  0.00    -0.258 C  
HETATM    7  C   UNL     1     -11.544  13.169  67.392  1.00  0.00    -0.403 C  
HETATM    8  N   UNL     1     -11.966  11.699  69.271  1.00  0.00    -0.327 NA 
HETATM    9  C   UNL     1     -11.814  10.658  70.163  1.00  0.00    -0.337 C  
HETATM   10  C   UNL     1     -12.692  10.744  71.392  1.00  0.00    -0.544 C  
HETATM   11  C   UNL     1     -10.932   9.660  69.900  1.00  0.00    -0.281 C  
HETATM   12  C   UNL     1     -10.136   9.647  68.580  1.00  0.00    -0.195 C  
BRANCH  11  13
HETATM   13  C   UNL     1     -10.680   8.640  70.957  1.00  0.00    -0.228 C  
HETATM   14  O   UNL     1      -9.999   8.864  71.954  1.00  0.00    -0.322 OA 
BRANCH  13  15
HETATM   15  O   UNL     1     -11.226   7.432  70.675  1.00  0.00    -0.261 OA 
BRANCH  15  16
HETATM   16  C   UNL     1     -10.747   6.356  71.517  1.00  0.00    -0.238 C  
HETATM   17  C   UNL     1     -10.105   5.293  70.639  1.00  0.00    -0.310 C  
HETATM   18  C   UNL     1     -11.907   5.774  72.320  1.00  0.00    -0.215 C  
ENDBRANCH  15  16
ENDBRANCH  13  15
ENDBRANCH  11  13
BRANCH  12  19
HETATM   19  C   UNL     1      -8.668   9.330  68.803  1.00  0.00    -0.132 A  
HETATM   20  C   UNL     1      -7.998   8.241  68.183  1.00  0.00    -0.123 A  
HETATM   21  C   UNL     1      -7.816  10.124  69.617  1.00  0.00    -0.181 A  
HETATM   22  N   UNL     1      -8.480   7.313  67.347  1.00  0.00    -0.119 NA 
HETATM   23  O   UNL     1      -7.411   6.496  67.026  1.00  0.00    -0.076 OA 
HETATM   24  C   UNL     1      -6.434   9.858  69.804  1.00  0.00    -0.058 A  
HETATM   25  C   UNL     1      -5.764   8.783  69.192  1.00  0.00    -0.036 A  
HETATM   26  C   UNL     1      -6.578   7.980  68.374  1.00  0.00    -0.059 A  
HETATM   27  N   UNL     1      -6.247   6.902  67.652  1.00  0.00    -0.039 NA 
ENDBRANCH  12  19
ENDBRANCH   3   5
ENDBRANCH   2   3
TORSDOF 6
ENDMDL
MODEL       84
REMARK 921   NORMALIZED FREE ENERGY PREDICTED BY IDOCK:   -4.32 KCAL/MOL
REMARK 922        TOTAL FREE ENERGY PREDICTED BY IDOCK:   -7.29 KCAL/MOL
REMARK 923 INTER-LIGAND FREE ENERGY PREDICTED BY IDOCK:   -6.13 KCAL/MOL
REMARK 924 INTRA-LIGAND FREE ENERGY PREDICTED BY IDOCK:   -1.16 KCAL/MOL
REMARK 927      BINDING AFFINITY PREDICTED BY RF-SCORE:    0.00 PKD
ROOT
HETATM    1  C   UNL     1     -10.681  16.879  69.542  1.00  0.00    -0.205 C  
HETATM    2  O   UNL     1     -11.246  15.951  70.473  1.00  0.00    -0.325 OA 
ENDROOT
BRANCH   2   3
HETATM    3  C   UNL     1     -12.383  15.318  70.113  1.00  0.00    -0.353 C  
HETATM    4  O   UNL     1     -13.429  15.870  69.808  1.00  0.00     0.506 OA 
BRANCH   3   5
HETATM    5  C   UNL     1     -12.211  13.838  70.187  1.00  0.00    -0.425 C  
HETATM    6  C   UNL     1     -12.536  13.202  71.340  1.00  0.00    -0.256 C  
HETATM    7  C   UNL     1     -12.927  13.851  72.649  1.00  0.00    -0.440 C  
HETATM    8  N   UNL     1     -12.523  11.822  71.387  1.00  0.00    -0.239 NA 
HETATM    9  C   UNL     1     -12.112  10.989  70.369  1.00  0.00    -0.373 C  
HETATM   10  C   UNL     1     -12.136   9.515  70.708  1.00  0.00    -0.305 C  
HETATM   11  C   UNL     1     -11.731  11.511  69.176  1.00  0.00    -0.395 C  
HETATM   12  C   UNL     1     -11.810  13.031  68.925  1.00  0.00    -0.358 C  
BRANCH  11  13
HETATM   13  C   UNL     1     -11.143  10.595  68.157  1.00  0.00    -0.285 C  
HETATM   14  O   UNL     1     -11.590  10.484  67.020  1.00  0.00    -0.174 OA 
BRANCH  13  15
HETATM   15  O   UNL     1     -10.108   9.860  68.632  1.00  0.00    -0.163 OA 
BRANCH  15  16
HETATM   16  C   UNL     1      -9.728   8.754  67.780  1.00  0.00    -0.158 C  
HETATM   17  C   UNL     1      -9.821   7.463  68.580  1.00  0.00    -0.164 C  
HETATM   18  C   UNL     1      -8.311   8.969  67.255  1.00  0.00    -0.111 C  
ENDBRANCH  15  16
ENDBRANCH  13  15
ENDBRANCH  11  13
BRANCH  12  19
HETATM   19  C   UNL     1     -10.554  13.564  68.258  1.00  0.00    -0.259 A  
HETATM   20  C   UNL     1     -10.558  14.249  67.013  1.00  0.00    -0.280 A  
HETATM   21  C   UNL     1      -9.263  13.468  68.843  1.00  0.00     0.199 A  
HETATM   22  N   UNL     1     -11.586  14.535  66.205  1.00  0.00    -0.368 NA 
HETATM   23  O   UNL     1     -11.049  15.227  65.134  1.00  0.00    -0.370 OA 
HETATM   24  C   UNL     1      -8.087  13.995  68.246  1.00  0.00    -0.148 A  
HETATM   25  C   UNL     1      -8.084  14.676  67.015  1.00  0.00    -0.153 A  
HETATM   26  C   UNL     1      -9.348  14.793  66.411  1.00  0.00    -0.291 A  
HETATM   27  N   UNL     1      -9.681  15.387  65.259  1.00  0.00    -0.235 NA 
ENDBRANCH  12  19
ENDBRANCH   3   5
ENDBRANCH   2   3
TORSDOF 6
ENDMDL
MODEL       85
REMARK 921   NORMALIZED FREE ENERGY PREDICTED BY IDOCK:   -4.31 KCAL/MOL
REMARK 922        TOTAL FREE ENERGY PREDICTED BY IDOCK:   -7.28 KCAL/MOL
REMARK 923 INTER-LIGAND FREE ENERGY PREDICTED BY IDOCK:   -5.99 KCAL/MOL
REMARK 924 INTRA-LIGAND FREE ENERGY PREDICTED BY IDOCK:   -1.29 KCAL/MOL
REMARK 927      BINDING AFFINITY PREDICTED BY RF-SCORE:    0.00 PKD
ROOT
HETATM    1  C   UNL     1      -5.463   9.677  68.241  1.00  0.00    -0.036 C  
HETATM    2  O   UNL     1      -5.763  11.075  68.294  1.00  0.00    -0.043 OA 
ENDROOT
BRANCH   2   3
HETATM    3  C   UNL     1      -6.751  11.472  69.125  1.00  0.00    -0.108 C  
HETATM    4  O   UNL     1      -6.811  11.216  70.318  1.00  0.00    -0.187 OA 
BRANCH   3   5
HETATM    5  C   UNL     1      -7.799  12.227  68.379  1.00  0.00    -0.151 C  
HETATM    6  C   UNL     1      -7.728  13.581  68.351  1.00  0.00    -0.135 C  
HETATM    7  C   UNL     1      -6.767  14.451  69.131  1.00  0.00    -0.117 C  
HETATM    8  N   UNL     1      -8.598  14.296  67.552  1.00  0.00    -0.183 NA 
HETATM    9  C   UNL     1      -9.634  13.760  66.816  1.00  0.00    -0.279 C  
HETATM   10  C   UNL     1     -10.478  14.775  66.079  1.00  0.00    -0.312 C  
HETATM   11  C   UNL     1      -9.826  12.417  66.791  1.00  0.00    -0.228 C  
HETATM   12  C   UNL     1      -8.858  11.473  67.533  1.00  0.00    -0.155 C  
BRANCH  11  13
HETATM   13  C   UNL     1     -11.045  11.887  66.117  1.00  0.00    -0.326 C  
HETATM   14  O   UNL     1     -12.182  12.093  66.532  1.00  0.00    -0.584 OA 
BRANCH  13  15
HETATM   15  O   UNL     1     -10.768  11.111  65.041  1.00  0.00    -0.289 OA 
BRANCH  15  16
HETATM   16  C   UNL     1     -10.440  11.855  63.844  1.00  0.00    -0.397 C  
HETATM   17  C   UNL     1     -11.728  12.364  63.214  1.00  0.00    -0.466 C  
HETATM   18  C   UNL     1      -9.675  10.960  62.873  1.00  0.00    -0.349 C  
ENDBRANCH  15  16
ENDBRANCH  13  15
ENDBRANCH  11  13
BRANCH  12  19
HETATM   19  C   UNL     1      -9.595  10.409  68.325  1.00  0.00    -0.152 A  
HETATM   20  C   UNL     1     -10.583  10.703  69.304  1.00  0.00    -0.233 A  
HETATM   21  C   UNL     1      -9.400   9.016  68.125  1.00  0.00    -0.151 A  
HETATM   22  N   UNL     1     -11.031  11.892  69.728  1.00  0.00     0.039 NA 
HETATM   23  O   UNL     1     -12.000  11.619  70.676  1.00  0.00    -0.358 OA 
HETATM   24  C   UNL     1     -10.111   8.011  68.835  1.00  0.00    -0.209 A  
HETATM   25  C   UNL     1     -11.090   8.296  69.803  1.00  0.00    -0.056 A  
HETATM   26  C   UNL     1     -11.313   9.666  70.021  1.00  0.00    -0.195 A  
HETATM   27  N   UNL     1     -12.175  10.259  70.857  1.00  0.00    -0.334 NA 
ENDBRANCH  12  19
ENDBRANCH   3   5
ENDBRANCH   2   3
TORSDOF 6
ENDMDL
MODEL       86
REMARK 921   NORMALIZED FREE ENERGY PREDICTED BY IDOCK:   -4.30 KCAL/MOL
REMARK 922        TOTAL FREE ENERGY PREDICTED BY IDOCK:   -7.26 KCAL/MOL
REMARK 923 INTER-LIGAND FREE ENERGY PREDICTED BY IDOCK:   -5.82 KCAL/MOL
REMARK 924 INTRA-LIGAND FREE ENERGY PREDICTED BY IDOCK:   -1.45 KCAL/MOL
REMARK 927      BINDING AFFINITY PREDICTED BY RF-SCORE:    0.00 PKD
ROOT
HETATM    1  C   UNL     1     -10.316  14.230  64.840  1.00  0.00    -0.401 C  
HETATM    2  O   UNL     1     -10.297  13.207  65.840  1.00  0.00    -0.279 OA 
ENDROOT
BRANCH   2   3
HETATM    3  C   UNL     1     -11.445  12.534  66.069  1.00  0.00    -0.377 C  
HETATM    4  O   UNL     1     -12.279  12.257  65.219  1.00  0.00    -0.508 OA 
BRANCH   3   5
HETATM    5  C   UNL     1     -11.592  12.213  67.518  1.00  0.00    -0.413 C  
HETATM    6  C   UNL     1     -12.039  13.182  68.356  1.00  0.00    -0.181 C  
HETATM    7  C   UNL     1     -12.275  14.636  68.011  1.00  0.00    -0.089 C  
HETATM    8  N   UNL     1     -12.320  12.872  69.672  1.00  0.00    -0.108 NA 
HETATM    9  C   UNL     1     -12.102  11.650  70.272  1.00  0.00    -0.358 C  
HETATM   10  C   UNL     1     -12.438  11.599  71.746  1.00  0.00    -0.044 C  
HETATM   11  C   UNL     1     -11.626  10.610  69.542  1.00  0.00    -0.360 C  
HETATM   12  C   UNL     1     -11.381  10.764  68.027  1.00  0.00    -0.378 C  
BRANCH  11  13
HETATM   13  C   UNL     1     -11.253   9.355  70.255  1.00  0.00    -0.246 C  
HETATM   14  O   UNL     1     -11.839   8.290  70.086  1.00  0.00     0.078 OA 
BRANCH  13  15
HETATM   15  O   UNL     1     -10.247   9.526  71.147  1.00  0.00    -0.301 OA 
BRANCH  15  16
HETATM   16  C   UNL     1      -9.588   8.298  71.537  1.00  0.00    -0.188 C  
HETATM   17  C   UNL     1      -9.361   8.319  73.041  1.00  0.00    -0.310 C  
HETATM   18  C   UNL     1      -8.265   8.161  70.787  1.00  0.00    -0.111 C  
ENDBRANCH  15  16
ENDBRANCH  13  15
ENDBRANCH  11  13
BRANCH  12  19
HETATM   19  C   UNL     1     -10.044  10.180  67.604  1.00  0.00    -0.231 A  
HETATM   20  C   UNL     1      -8.792  10.702  68.028  1.00  0.00    -0.130 A  
HETATM   21  C   UNL     1      -9.924   9.027  66.783  1.00  0.00    -0.332 A  
HETATM   22  N   UNL     1      -8.532  11.754  68.815  1.00  0.00    -0.057 NA 
HETATM   23  O   UNL     1      -7.155  11.818  68.924  1.00  0.00    -0.104 OA 
HETATM   24  C   UNL     1      -8.680   8.451  66.412  1.00  0.00    -0.159 A  
HETATM   25  C   UNL     1      -7.437   8.961  66.829  1.00  0.00    -0.083 A  
HETATM   26  C   UNL     1      -7.521  10.100  67.649  1.00  0.00    -0.090 A  
HETATM   27  N   UNL     1      -6.534  10.808  68.214  1.00  0.00    -0.057 NA 
ENDBRANCH  12  19
ENDBRANCH   3   5
ENDBRANCH   2   3
TORSDOF 6
ENDMDL
MODEL       87
REMARK 921   NORMALIZED FREE ENERGY PREDICTED BY IDOCK:   -4.30 KCAL/MOL
REMARK 922        TOTAL FREE ENERGY PREDICTED BY IDOCK:   -7.26 KCAL/MOL
REMARK 923 INTER-LIGAND FREE ENERGY PREDICTED BY IDOCK:   -5.91 KCAL/MOL
REMARK 924 INTRA-LIGAND FREE ENERGY PREDICTED BY IDOCK:   -1.35 KCAL/MOL
REMARK 927      BINDING AFFINITY PREDICTED BY RF-SCORE:    0.00 PKD
ROOT
HETATM    1  C   UNL     1      -9.146   5.163  69.445  1.00  0.00    -0.108 C  
HETATM    2  O   UNL     1      -8.843   5.566  68.106  1.00  0.00    -0.106 OA 
ENDROOT
BRANCH   2   3
HETATM    3  C   UNL     1      -9.870   5.964  67.325  1.00  0.00    -0.138 C  
HETATM    4  O   UNL     1     -10.841   5.280  67.038  1.00  0.00    -0.179 OA 
BRANCH   3   5
HETATM    5  C   UNL     1      -9.639   7.344  66.808  1.00  0.00    -0.249 C  
HETATM    6  C   UNL     1      -8.836   7.508  65.727  1.00  0.00    -0.090 C  
HETATM    7  C   UNL     1      -8.004   6.441  65.051  1.00  0.00    -0.120 C  
HETATM    8  N   UNL     1      -8.720   8.753  65.143  1.00  0.00    -0.186 NA 
HETATM    9  C   UNL     1      -9.291   9.916  65.615  1.00  0.00    -0.214 C  
HETATM   10  C   UNL     1      -8.950  11.157  64.820  1.00  0.00    -0.033 C  
HETATM   11  C   UNL     1     -10.091   9.885  66.711  1.00  0.00    -0.292 C  
HETATM   12  C   UNL     1     -10.418   8.546  67.403  1.00  0.00    -0.351 C  
BRANCH  11  13
HETATM   13  C   UNL     1     -10.559  11.179  67.285  1.00  0.00    -0.239 C  
HETATM   14  O   UNL     1      -9.917  11.812  68.117  1.00  0.00    -0.182 OA 
BRANCH  13  15
HETATM   15  O   UNL     1     -11.785  11.549  66.840  1.00  0.00    -0.533 OA 
BRANCH  15  16
HETATM   16  C   UNL     1     -11.781  12.742  66.021  1.00  0.00    -0.418 C  
HETATM   17  C   UNL     1     -12.492  13.857  66.773  1.00  0.00    -0.254 C  
HETATM   18  C   UNL     1     -12.470  12.456  64.689  1.00  0.00    -0.500 C  
ENDBRANCH  15  16
ENDBRANCH  13  15
ENDBRANCH  11  13
BRANCH  12  19
HETATM   19  C   UNL     1     -10.294   8.640  68.913  1.00  0.00    -0.228 A  
HETATM   20  C   UNL     1      -9.057   8.828  69.587  1.00  0.00    -0.149 A  
HETATM   21  C   UNL     1     -11.410   8.596  69.790  1.00  0.00     0.112 A  
HETATM   22  N   UNL     1      -7.821   8.935  69.081  1.00  0.00    -0.092 NA 
HETATM   23  O   UNL     1      -6.981   9.123  70.163  1.00  0.00    -0.044 OA 
HETATM   24  C   UNL     1     -11.309   8.719  71.201  1.00  0.00    -0.345 A  
HETATM   25  C   UNL     1     -10.088   8.908  71.874  1.00  0.00    -0.393 A  
HETATM   26  C   UNL     1      -8.962   8.962  71.034  1.00  0.00    -0.241 A  
HETATM   27  N   UNL     1      -7.675   9.142  71.358  1.00  0.00    -0.335 NA 
ENDBRANCH  12  19
ENDBRANCH   3   5
ENDBRANCH   2   3
TORSDOF 6
ENDMDL
MODEL       88
REMARK 921   NORMALIZED FREE ENERGY PREDICTED BY IDOCK:   -4.26 KCAL/MOL
REMARK 922        TOTAL FREE ENERGY PREDICTED BY IDOCK:   -7.21 KCAL/MOL
REMARK 923 INTER-LIGAND FREE ENERGY PREDICTED BY IDOCK:   -6.44 KCAL/MOL
REMARK 924 INTRA-LIGAND FREE ENERGY PREDICTED BY IDOCK:   -0.77 KCAL/MOL
REMARK 927      BINDING AFFINITY PREDICTED BY RF-SCORE:    0.00 PKD
ROOT
HETATM    1  C   UNL     1      -9.674  16.111  69.408  1.00  0.00    -0.219 C  
HETATM    2  O   UNL     1      -9.522  14.942  68.597  1.00  0.00    -0.195 OA 
ENDROOT
BRANCH   2   3
HETATM    3  C   UNL     1     -10.506  14.018  68.641  1.00  0.00    -0.247 C  
HETATM    4  O   UNL     1     -11.323  13.905  69.542  1.00  0.00    -0.261 OA 
BRANCH   3   5
HETATM    5  C   UNL     1     -10.432  13.109  67.461  1.00  0.00    -0.229 C  
HETATM    6  C   UNL     1     -11.196  13.390  66.376  1.00  0.00    -0.304 C  
HETATM    7  C   UNL     1     -12.256  14.465  66.272  1.00  0.00    -0.366 C  
HETATM    8  N   UNL     1     -11.042  12.651  65.220  1.00  0.00    -0.288 NA 
HETATM    9  C   UNL     1     -10.219  11.554  65.074  1.00  0.00    -0.280 C  
HETATM   10  C   UNL     1     -10.288  10.886  63.719  1.00  0.00    -0.384 C  
HETATM   11  C   UNL     1      -9.428  11.155  66.103  1.00  0.00    -0.229 C  
HETATM   12  C   UNL     1      -9.396  11.956  67.421  1.00  0.00    -0.176 C  
BRANCH  11  13
HETATM   13  C   UNL     1      -8.675   9.877  65.965  1.00  0.00    -0.137 C  
HETATM   14  O   UNL     1      -7.450   9.820  65.955  1.00  0.00    -0.097 OA 
BRANCH  13  15
HETATM   15  O   UNL     1      -9.479   8.799  65.790  1.00  0.00    -0.229 OA 
BRANCH  15  16
HETATM   16  C   UNL     1      -9.298   7.760  66.781  1.00  0.00    -0.180 C  
HETATM   17  C   UNL     1      -8.788   6.505  66.090  1.00  0.00    -0.160 C  
HETATM   18  C   UNL     1     -10.620   7.491  67.495  1.00  0.00    -0.331 C  
ENDBRANCH  15  16
ENDBRANCH  13  15
ENDBRANCH  11  13
BRANCH  12  19
HETATM   19  C   UNL     1      -9.472  11.052  68.638  1.00  0.00    -0.197 A  
HETATM   20  C   UNL     1     -10.695  10.637  69.230  1.00  0.00    -0.238 A  
HETATM   21  C   UNL     1      -8.326  10.500  69.270  1.00  0.00    -0.144 A  
HETATM   22  N   UNL     1     -11.953  10.942  68.886  1.00  0.00    -0.444 NA 
HETATM   23  O   UNL     1     -12.767  10.264  69.774  1.00  0.00    -0.024 OA 
HETATM   24  C   UNL     1      -8.387   9.625  70.387  1.00  0.00    -0.188 A  
HETATM   25  C   UNL     1      -9.594   9.207  70.976  1.00  0.00    -0.350 A  
HETATM   26  C   UNL     1     -10.749   9.732  70.371  1.00  0.00    -0.308 A  
HETATM   27  N   UNL     1     -12.035   9.522  70.682  1.00  0.00    -0.238 NA 
ENDBRANCH  12  19
ENDBRANCH   3   5
ENDBRANCH   2   3
TORSDOF 6
ENDMDL
MODEL       89
REMARK 921   NORMALIZED FREE ENERGY PREDICTED BY IDOCK:   -4.23 KCAL/MOL
REMARK 922        TOTAL FREE ENERGY PREDICTED BY IDOCK:   -7.16 KCAL/MOL
REMARK 923 INTER-LIGAND FREE ENERGY PREDICTED BY IDOCK:   -5.46 KCAL/MOL
REMARK 924 INTRA-LIGAND FREE ENERGY PREDICTED BY IDOCK:   -1.70 KCAL/MOL
REMARK 927      BINDING AFFINITY PREDICTED BY RF-SCORE:    0.00 PKD
ROOT
HETATM    1  C   UNL     1     -10.149  10.965  64.301  1.00  0.00    -0.351 C  
HETATM    2  O   UNL     1     -10.272   9.919  65.270  1.00  0.00    -0.269 OA 
ENDROOT
BRANCH   2   3
HETATM    3  C   UNL     1      -9.238   9.726  66.117  1.00  0.00    -0.176 C  
HETATM    4  O   UNL     1      -8.064   9.655  65.787  1.00  0.00    -0.109 OA 
BRANCH   3   5
HETATM    5  C   UNL     1      -9.725   9.556  67.517  1.00  0.00    -0.194 C  
HETATM    6  C   UNL     1      -9.803  10.649  68.315  1.00  0.00    -0.163 C  
HETATM    7  C   UNL     1      -9.302  12.040  67.992  1.00  0.00    -0.196 C  
HETATM    8  N   UNL     1     -10.383  10.545  69.563  1.00  0.00    -0.234 NA 
HETATM    9  C   UNL     1     -10.831   9.378  70.144  1.00  0.00    -0.249 C  
HETATM   10  C   UNL     1     -11.366   9.534  71.551  1.00  0.00    -0.456 C  
HETATM   11  C   UNL     1     -10.776   8.210  69.454  1.00  0.00    -0.164 C  
HETATM   12  C   UNL     1     -10.268   8.185  67.998  1.00  0.00    -0.263 C  
BRANCH  11  13
HETATM   13  C   UNL     1     -11.119   6.948  70.168  1.00  0.00    -0.299 C  
HETATM   14  O   UNL     1     -12.251   6.475  70.184  1.00  0.00    -0.229 OA 
BRANCH  13  15
HETATM   15  O   UNL     1     -10.072   6.413  70.842  1.00  0.00    -0.184 OA 
BRANCH  15  16
HETATM   16  C   UNL     1     -10.281   5.047  71.272  1.00  0.00    -0.203 C  
HETATM   17  C   UNL     1      -9.626   4.854  72.631  1.00  0.00    -0.166 C  
HETATM   18  C   UNL     1      -9.695   4.085  70.242  1.00  0.00    -0.263 C  
ENDBRANCH  15  16
ENDBRANCH  13  15
ENDBRANCH  11  13
BRANCH  12  19
HETATM   19  C   UNL     1      -9.294   7.046  67.754  1.00  0.00    -0.127 A  
HETATM   20  C   UNL     1      -9.615   5.891  66.991  1.00  0.00    -0.132 A  
HETATM   21  C   UNL     1      -7.955   7.054  68.227  1.00  0.00    -0.123 A  
HETATM   22  N   UNL     1     -10.763   5.566  66.383  1.00  0.00    -0.256 NA 
HETATM   23  O   UNL     1     -10.538   4.348  65.768  1.00  0.00    -0.243 OA 
HETATM   24  C   UNL     1      -7.025   6.011  67.974  1.00  0.00    -0.076 A  
HETATM   25  C   UNL     1      -7.334   4.866  67.218  1.00  0.00    -0.082 A  
HETATM   26  C   UNL     1      -8.652   4.830  66.729  1.00  0.00    -0.108 A  
HETATM   27  N   UNL     1      -9.248   3.896  65.976  1.00  0.00    -0.148 NA 
ENDBRANCH  12  19
ENDBRANCH   3   5
ENDBRANCH   2   3
TORSDOF 6
ENDMDL
MODEL       90
REMARK 921   NORMALIZED FREE ENERGY PREDICTED BY IDOCK:   -4.22 KCAL/MOL
REMARK 922        TOTAL FREE ENERGY PREDICTED BY IDOCK:   -7.15 KCAL/MOL
REMARK 923 INTER-LIGAND FREE ENERGY PREDICTED BY IDOCK:   -5.55 KCAL/MOL
REMARK 924 INTRA-LIGAND FREE ENERGY PREDICTED BY IDOCK:   -1.61 KCAL/MOL
REMARK 927      BINDING AFFINITY PREDICTED BY RF-SCORE:    0.00 PKD
ROOT
HETATM    1  C   UNL     1     -11.673   9.481  71.030  1.00  0.00    -0.343 C  
HETATM    2  O   UNL     1     -11.421   8.230  71.677  1.00  0.00    -0.254 OA 
ENDROOT
BRANCH   2   3
HETATM    3  C   UNL     1     -12.053   7.138  71.195  1.00  0.00    -0.358 C  
HETATM    4  O   UNL     1     -13.263   7.024  71.070  1.00  0.00    -0.273 OA 
BRANCH   3   5
HETATM    5  C   UNL     1     -11.075   6.056  70.880  1.00  0.00    -0.352 C  
HETATM    6  C   UNL     1     -10.653   5.248  71.884  1.00  0.00    -0.209 C  
HETATM    7  C   UNL     1     -10.953   5.409  73.358  1.00  0.00    -0.349 C  
HETATM    8  N   UNL     1      -9.863   4.154  71.596  1.00  0.00    -0.179 NA 
HETATM    9  C   UNL     1      -9.363   3.831  70.352  1.00  0.00    -0.165 C  
HETATM   10  C   UNL     1      -8.467   2.612  70.325  1.00  0.00    -0.087 C  
HETATM   11  C   UNL     1      -9.690   4.585  69.272  1.00  0.00    -0.260 C  
HETATM   12  C   UNL     1     -10.666   5.771  69.411  1.00  0.00    -0.397 C  
BRANCH  11  13
HETATM   13  C   UNL     1      -9.006   4.304  67.977  1.00  0.00    -0.122 C  
HETATM   14  O   UNL     1      -7.893   4.740  67.700  1.00  0.00    -0.089 OA 
BRANCH  13  15
HETATM   15  O   UNL     1      -9.761   3.572  67.122  1.00  0.00    -0.181 OA 
BRANCH  15  16
HETATM   16  C   UNL     1      -9.607   3.944  65.732  1.00  0.00    -0.181 C  
HETATM   17  C   UNL     1     -10.909   4.558  65.240  1.00  0.00    -0.095 C  
HETATM   18  C   UNL     1      -9.238   2.714  64.906  1.00  0.00    -0.139 C  
ENDBRANCH  15  16
ENDBRANCH  13  15
ENDBRANCH  11  13
BRANCH  12  19
HETATM   19  C   UNL     1     -10.167   7.009  68.687  1.00  0.00    -0.182 A  
HETATM   20  C   UNL     1      -9.028   7.753  69.101  1.00  0.00    -0.145 A  
HETATM   21  C   UNL     1     -10.764   7.510  67.500  1.00  0.00    -0.296 A  
HETATM   22  N   UNL     1      -8.220   7.555  70.150  1.00  0.00    -0.130 NA 
HETATM   23  O   UNL     1      -7.261   8.550  70.086  1.00  0.00    -0.048 OA 
HETATM   24  C   UNL     1     -10.284   8.645  66.795  1.00  0.00    -0.361 A  
HETATM   25  C   UNL     1      -9.157   9.384  67.197  1.00  0.00    -0.148 A  
HETATM   26  C   UNL     1      -8.537   8.911  68.367  1.00  0.00    -0.134 A  
HETATM   27  N   UNL     1      -7.452   9.379  68.996  1.00  0.00    -0.072 NA 
ENDBRANCH  12  19
ENDBRANCH   3   5
ENDBRANCH   2   3
TORSDOF 6
ENDMDL
MODEL       91
REMARK 921   NORMALIZED FREE ENERGY PREDICTED BY IDOCK:   -4.22 KCAL/MOL
REMARK 922        TOTAL FREE ENERGY PREDICTED BY IDOCK:   -7.15 KCAL/MOL
REMARK 923 INTER-LIGAND FREE ENERGY PREDICTED BY IDOCK:   -6.67 KCAL/MOL
REMARK 924 INTRA-LIGAND FREE ENERGY PREDICTED BY IDOCK:   -0.48 KCAL/MOL
REMARK 927      BINDING AFFINITY PREDICTED BY RF-SCORE:    0.00 PKD
ROOT
HETATM    1  C   UNL     1     -11.959  15.716  70.504  1.00  0.00    -0.385 C  
HETATM    2  O   UNL     1     -10.883  16.602  70.181  1.00  0.00    -0.301 OA 
ENDROOT
BRANCH   2   3
HETATM    3  C   UNL     1     -10.606  16.800  68.874  1.00  0.00    -0.350 C  
HETATM    4  O   UNL     1     -11.212  17.560  68.134  1.00  0.00    -0.121 OA 
BRANCH   3   5
HETATM    5  C   UNL     1      -9.485  15.921  68.431  1.00  0.00    -0.201 C  
HETATM    6  C   UNL     1      -8.219  16.407  68.479  1.00  0.00    -0.201 C  
HETATM    7  C   UNL     1      -7.810  17.828  68.799  1.00  0.00    -0.251 C  
HETATM    8  N   UNL     1      -7.154  15.570  68.213  1.00  0.00    -0.110 NA 
HETATM    9  C   UNL     1      -7.249  14.258  67.800  1.00  0.00    -0.175 C  
HETATM   10  C   UNL     1      -5.924  13.587  67.514  1.00  0.00    -0.023 C  
HETATM   11  C   UNL     1      -8.466  13.669  67.684  1.00  0.00    -0.183 C  
HETATM   12  C   UNL     1      -9.748  14.437  68.067  1.00  0.00    -0.221 C  
BRANCH  11  13
HETATM   13  C   UNL     1      -8.539  12.306  67.085  1.00  0.00    -0.187 C  
HETATM   14  O   UNL     1      -8.658  12.111  65.879  1.00  0.00     0.139 OA 
BRANCH  13  15
HETATM   15  O   UNL     1      -8.522  11.314  68.008  1.00  0.00    -0.127 OA 
BRANCH  15  16
HETATM   16  C   UNL     1      -9.063  10.057  67.536  1.00  0.00    -0.134 C  
HETATM   17  C   UNL     1     -10.485   9.908  68.055  1.00  0.00    -0.266 C  
HETATM   18  C   UNL     1      -8.183   8.905  68.014  1.00  0.00    -0.110 C  
ENDBRANCH  15  16
ENDBRANCH  13  15
ENDBRANCH  11  13
BRANCH  12  19
HETATM   19  C   UNL     1     -10.843  14.270  67.029  1.00  0.00    -0.297 A  
HETATM   20  C   UNL     1     -11.009  15.140  65.917  1.00  0.00    -0.339 A  
HETATM   21  C   UNL     1     -11.775  13.198  67.047  1.00  0.00    -0.431 A  
HETATM   22  N   UNL     1     -10.305  16.227  65.578  1.00  0.00    -0.509 NA 
HETATM   23  O   UNL     1     -10.868  16.695  64.404  1.00  0.00    -0.833 OA 
HETATM   24  C   UNL     1     -12.780  13.012  66.061  1.00  0.00     0.127 A  
HETATM   25  C   UNL     1     -12.948  13.867  64.958  1.00  0.00    -0.201 A  
HETATM   26  C   UNL     1     -12.038  14.937  64.906  1.00  0.00    -0.274 A  
HETATM   27  N   UNL     1     -11.926  15.908  63.991  1.00  0.00    -0.704 NA 
ENDBRANCH  12  19
ENDBRANCH   3   5
ENDBRANCH   2   3
TORSDOF 6
ENDMDL
MODEL       92
REMARK 921   NORMALIZED FREE ENERGY PREDICTED BY IDOCK:   -4.21 KCAL/MOL
REMARK 922        TOTAL FREE ENERGY PREDICTED BY IDOCK:   -7.14 KCAL/MOL
REMARK 923 INTER-LIGAND FREE ENERGY PREDICTED BY IDOCK:   -5.89 KCAL/MOL
REMARK 924 INTRA-LIGAND FREE ENERGY PREDICTED BY IDOCK:   -1.25 KCAL/MOL
REMARK 927      BINDING AFFINITY PREDICTED BY RF-SCORE:    0.00 PKD
ROOT
HETATM    1  C   UNL     1      -5.711  13.327  70.484  1.00  0.00    -0.176 C  
HETATM    2  O   UNL     1      -6.170  12.598  69.342  1.00  0.00    -0.098 OA 
ENDROOT
BRANCH   2   3
HETATM    3  C   UNL     1      -6.404  13.295  68.209  1.00  0.00    -0.099 C  
HETATM    4  O   UNL     1      -5.541  13.744  67.469  1.00  0.00    -0.336 OA 
BRANCH   3   5
HETATM    5  C   UNL     1      -7.868  13.492  68.001  1.00  0.00    -0.147 C  
HETATM    6  C   UNL     1      -8.408  14.703  68.286  1.00  0.00    -0.148 C  
HETATM    7  C   UNL     1      -7.708  15.870  68.947  1.00  0.00    -0.194 C  
HETATM    8  N   UNL     1      -9.727  14.956  67.968  1.00  0.00    -0.209 NA 
HETATM    9  C   UNL     1     -10.617  14.040  67.450  1.00  0.00    -0.278 C  
HETATM   10  C   UNL     1     -12.023  14.562  67.255  1.00  0.00    -0.375 C  
HETATM   11  C   UNL     1     -10.201  12.782  67.152  1.00  0.00    -0.235 C  
HETATM   12  C   UNL     1      -8.723  12.383  67.334  1.00  0.00    -0.183 C  
BRANCH  11  13
HETATM   13  C   UNL     1     -11.223  11.775  66.746  1.00  0.00    -0.328 C  
HETATM   14  O   UNL     1     -12.143  11.424  67.477  1.00  0.00    -0.592 OA 
BRANCH  13  15
HETATM   15  O   UNL     1     -10.995  11.249  65.518  1.00  0.00    -0.229 OA 
BRANCH  15  16
HETATM   16  C   UNL     1     -10.908  12.232  64.460  1.00  0.00    -0.315 C  
HETATM   17  C   UNL     1     -12.311  12.549  63.966  1.00  0.00    -0.557 C  
HETATM   18  C   UNL     1     -10.039  11.694  63.326  1.00  0.00    -0.454 C  
ENDBRANCH  15  16
ENDBRANCH  13  15
ENDBRANCH  11  13
BRANCH  12  19
HETATM   19  C   UNL     1      -8.577  11.035  68.018  1.00  0.00    -0.134 A  
HETATM   20  C   UNL     1      -8.025   9.890  67.383  1.00  0.00    -0.106 A  
HETATM   21  C   UNL     1      -8.936  10.808  69.374  1.00  0.00     0.020 A  
HETATM   22  N   UNL     1      -7.566   9.750  66.133  1.00  0.00    -0.099 NA 
HETATM   23  O   UNL     1      -7.126   8.443  66.032  1.00  0.00    -0.067 OA 
HETATM   24  C   UNL     1      -8.770   9.562  70.034  1.00  0.00    -0.242 A  
HETATM   25  C   UNL     1      -8.222   8.425  69.412  1.00  0.00    -0.116 A  
HETATM   26  C   UNL     1      -7.851   8.617  68.070  1.00  0.00    -0.103 A  
HETATM   27  N   UNL     1      -7.297   7.748  67.215  1.00  0.00    -0.090 NA 
ENDBRANCH  12  19
ENDBRANCH   3   5
ENDBRANCH   2   3
TORSDOF 6
ENDMDL
MODEL       93
REMARK 921   NORMALIZED FREE ENERGY PREDICTED BY IDOCK:   -4.17 KCAL/MOL
REMARK 922        TOTAL FREE ENERGY PREDICTED BY IDOCK:   -7.09 KCAL/MOL
REMARK 923 INTER-LIGAND FREE ENERGY PREDICTED BY IDOCK:   -5.52 KCAL/MOL
REMARK 924 INTRA-LIGAND FREE ENERGY PREDICTED BY IDOCK:   -1.57 KCAL/MOL
REMARK 927      BINDING AFFINITY PREDICTED BY RF-SCORE:    0.00 PKD
ROOT
HETATM    1  C   UNL     1      -9.874   4.361  65.883  1.00  0.00    -0.228 C  
HETATM    2  O   UNL     1      -9.365   5.640  66.274  1.00  0.00    -0.152 OA 
ENDROOT
BRANCH   2   3
HETATM    3  C   UNL     1     -10.181   6.448  66.985  1.00  0.00    -0.205 C  
HETATM    4  O   UNL     1     -11.378   6.588  66.787  1.00  0.00    -0.272 OA 
BRANCH   3   5
HETATM    5  C   UNL     1      -9.413   7.194  68.023  1.00  0.00    -0.132 C  
HETATM    6  C   UNL     1      -9.462   6.759  69.307  1.00  0.00    -0.142 C  
HETATM    7  C   UNL     1     -10.345   5.659  69.854  1.00  0.00    -0.347 C  
HETATM    8  N   UNL     1      -8.650   7.342  70.259  1.00  0.00    -0.143 NA 
HETATM    9  C   UNL     1      -7.823   8.426  70.052  1.00  0.00    -0.103 C  
HETATM   10  C   UNL     1      -7.091   8.909  71.284  1.00  0.00    -0.103 C  
HETATM   11  C   UNL     1      -7.714   8.972  68.814  1.00  0.00    -0.095 C  
HETATM   12  C   UNL     1      -8.464   8.352  67.617  1.00  0.00    -0.130 C  
BRANCH  11  13
HETATM   13  C   UNL     1      -6.939  10.235  68.661  1.00  0.00    -0.066 C  
HETATM   14  O   UNL     1      -5.781  10.265  68.257  1.00  0.00    -0.041 OA 
BRANCH  13  15
HETATM   15  O   UNL     1      -7.620  11.333  69.071  1.00  0.00    -0.128 OA 
BRANCH  15  16
HETATM   16  C   UNL     1      -7.215  12.559  68.415  1.00  0.00    -0.111 C  
HETATM   17  C   UNL     1      -6.494  13.440  69.424  1.00  0.00    -0.100 C  
HETATM   18  C   UNL     1      -8.441  13.270  67.847  1.00  0.00    -0.177 C  
ENDBRANCH  15  16
ENDBRANCH  13  15
ENDBRANCH  11  13
BRANCH  12  19
HETATM   19  C   UNL     1      -9.151   9.406  66.767  1.00  0.00    -0.168 A  
HETATM   20  C   UNL     1     -10.275  10.157  67.207  1.00  0.00    -0.222 A  
HETATM   21  C   UNL     1      -8.702   9.773  65.470  1.00  0.00    -0.171 A  
HETATM   22  N   UNL     1     -10.938  10.092  68.368  1.00  0.00    -0.236 NA 
HETATM   23  O   UNL     1     -11.936  11.046  68.292  1.00  0.00    -0.593 OA 
HETATM   24  C   UNL     1      -9.315  10.783  64.681  1.00  0.00    -0.271 A  
HETATM   25  C   UNL     1     -10.425  11.531  65.111  1.00  0.00    -0.340 A  
HETATM   26  C   UNL     1     -10.892  11.197  66.395  1.00  0.00    -0.225 A  
HETATM   27  N   UNL     1     -11.909  11.724  67.087  1.00  0.00    -0.620 NA 
ENDBRANCH  12  19
ENDBRANCH   3   5
ENDBRANCH   2   3
TORSDOF 6
ENDMDL
MODEL       94
REMARK 921   NORMALIZED FREE ENERGY PREDICTED BY IDOCK:   -4.17 KCAL/MOL
REMARK 922        TOTAL FREE ENERGY PREDICTED BY IDOCK:   -7.09 KCAL/MOL
REMARK 923 INTER-LIGAND FREE ENERGY PREDICTED BY IDOCK:   -5.48 KCAL/MOL
REMARK 924 INTRA-LIGAND FREE ENERGY PREDICTED BY IDOCK:   -1.61 KCAL/MOL
REMARK 927      BINDING AFFINITY PREDICTED BY RF-SCORE:    0.00 PKD
ROOT
HETATM    1  C   UNL     1     -11.843  12.905  68.272  1.00  0.00    -0.330 C  
HETATM    2  O   UNL     1     -11.129  11.689  68.513  1.00  0.00    -0.201 OA 
ENDROOT
BRANCH   2   3
HETATM    3  C   UNL     1      -9.825  11.649  68.163  1.00  0.00    -0.191 C  
HETATM    4  O   UNL     1      -9.023  12.555  68.335  1.00  0.00    -0.189 OA 
BRANCH   3   5
HETATM    5  C   UNL     1      -9.498  10.362  67.484  1.00  0.00    -0.167 C  
HETATM    6  C   UNL     1      -9.772  10.237  66.162  1.00  0.00    -0.211 C  
HETATM    7  C   UNL     1     -10.528  11.224  65.299  1.00  0.00    -0.341 C  
HETATM    8  N   UNL     1      -9.350   9.114  65.479  1.00  0.00    -0.238 NA 
HETATM    9  C   UNL     1      -8.728   8.020  66.041  1.00  0.00    -0.157 C  
HETATM   10  C   UNL     1      -8.430   6.894  65.076  1.00  0.00     0.011 C  
HETATM   11  C   UNL     1      -8.429   8.014  67.365  1.00  0.00    -0.126 C  
HETATM   12  C   UNL     1      -8.726   9.250  68.240  1.00  0.00    -0.129 C  
BRANCH  11  13
HETATM   13  C   UNL     1      -7.905   6.756  67.969  1.00  0.00    -0.113 C  
HETATM   14  O   UNL     1      -6.713   6.566  68.188  1.00  0.00    -0.063 OA 
BRANCH  13  15
HETATM   15  O   UNL     1      -8.868   5.829  68.192  1.00  0.00    -0.107 OA 
BRANCH  15  16
HETATM   16  C   UNL     1      -8.560   4.902  69.260  1.00  0.00    -0.087 C  
HETATM   17  C   UNL     1      -8.350   3.518  68.665  1.00  0.00    -0.093 C  
HETATM   18  C   UNL     1      -9.697   4.892  70.279  1.00  0.00    -0.287 C  
ENDBRANCH  15  16
ENDBRANCH  13  15
ENDBRANCH  11  13
BRANCH  12  19
HETATM   19  C   UNL     1      -9.378   8.872  69.558  1.00  0.00    -0.155 A  
HETATM   20  C   UNL     1      -8.698   8.901  70.806  1.00  0.00    -0.206 A  
HETATM   21  C   UNL     1     -10.743   8.498  69.671  1.00  0.00    -0.200 A  
HETATM   22  N   UNL     1      -7.426   9.224  71.072  1.00  0.00    -0.258 NA 
HETATM   23  O   UNL     1      -7.281   9.105  72.443  1.00  0.00    -0.317 OA 
HETATM   24  C   UNL     1     -11.373   8.178  70.903  1.00  0.00    -0.286 A  
HETATM   25  C   UNL     1     -10.707   8.208  72.142  1.00  0.00    -0.360 A  
HETATM   26  C   UNL     1      -9.353   8.579  72.066  1.00  0.00    -0.283 A  
HETATM   27  N   UNL     1      -8.458   8.712  73.053  1.00  0.00    -0.394 NA 
ENDBRANCH  12  19
ENDBRANCH   3   5
ENDBRANCH   2   3
TORSDOF 6
ENDMDL
MODEL       95
REMARK 921   NORMALIZED FREE ENERGY PREDICTED BY IDOCK:   -4.15 KCAL/MOL
REMARK 922        TOTAL FREE ENERGY PREDICTED BY IDOCK:   -7.05 KCAL/MOL
REMARK 923 INTER-LIGAND FREE ENERGY PREDICTED BY IDOCK:   -6.01 KCAL/MOL
REMARK 924 INTRA-LIGAND FREE ENERGY PREDICTED BY IDOCK:   -1.05 KCAL/MOL
REMARK 927      BINDING AFFINITY PREDICTED BY RF-SCORE:    0.00 PKD
ROOT
HETATM    1  C   UNL     1      -5.176  11.215  68.949  1.00  0.00    -0.040 C  
HETATM    2  O   UNL     1      -6.431  11.538  68.343  1.00  0.00    -0.050 OA 
ENDROOT
BRANCH   2   3
HETATM    3  C   UNL     1      -6.547  12.745  67.749  1.00  0.00    -0.134 C  
HETATM    4  O   UNL     1      -5.699  13.263  67.038  1.00  0.00    -0.229 OA 
BRANCH   3   5
HETATM    5  C   UNL     1      -7.838  13.395  68.119  1.00  0.00    -0.145 C  
HETATM    6  C   UNL     1      -7.844  14.305  69.124  1.00  0.00     0.018 C  
HETATM    7  C   UNL     1      -6.689  14.642  70.042  1.00  0.00    -0.135 C  
HETATM    8  N   UNL     1      -8.991  15.024  69.390  1.00  0.00    -0.160 NA 
HETATM    9  C   UNL     1     -10.211  14.845  68.772  1.00  0.00    -0.243 C  
HETATM   10  C   UNL     1     -11.323  15.723  69.300  1.00  0.00    -0.350 C  
HETATM   11  C   UNL     1     -10.338  13.939  67.770  1.00  0.00    -0.240 C  
HETATM   12  C   UNL     1      -9.114  13.144  67.273  1.00  0.00    -0.217 C  
BRANCH  11  13
HETATM   13  C   UNL     1     -11.702  13.659  67.236  1.00  0.00    -0.380 C  
HETATM   14  O   UNL     1     -12.370  12.691  67.583  1.00  0.00    -0.279 OA 
BRANCH  13  15
HETATM   15  O   UNL     1     -12.097  14.546  66.290  1.00  0.00    -0.377 OA 
BRANCH  15  16
HETATM   16  C   UNL     1     -11.456  14.364  65.005  1.00  0.00    -0.372 C  
HETATM   17  C   UNL     1     -11.576  15.655  64.209  1.00  0.00    -0.191 C  
HETATM   18  C   UNL     1     -12.109  13.202  64.262  1.00  0.00    -0.477 C  
ENDBRANCH  15  16
ENDBRANCH  13  15
ENDBRANCH  11  13
BRANCH  12  19
HETATM   19  C   UNL     1      -9.425  11.668  67.098  1.00  0.00    -0.183 A  
HETATM   20  C   UNL     1      -9.875  10.832  68.156  1.00  0.00    -0.158 A  
HETATM   21  C   UNL     1      -9.340  10.998  65.849  1.00  0.00    -0.229 A  
HETATM   22  N   UNL     1     -10.087  11.131  69.444  1.00  0.00    -0.045 NA 
HETATM   23  O   UNL     1     -10.535   9.965  70.038  1.00  0.00    -0.247 OA 
HETATM   24  C   UNL     1      -9.663   9.627  65.667  1.00  0.00    -0.363 A  
HETATM   25  C   UNL     1     -10.112   8.794  66.708  1.00  0.00    -0.359 A  
HETATM   26  C   UNL     1     -10.212   9.429  67.959  1.00  0.00    -0.204 A  
HETATM   27  N   UNL     1     -10.614   8.923  69.132  1.00  0.00    -0.220 NA 
ENDBRANCH  12  19
ENDBRANCH   3   5
ENDBRANCH   2   3
TORSDOF 6
ENDMDL
MODEL       96
REMARK 921   NORMALIZED FREE ENERGY PREDICTED BY IDOCK:   -4.13 KCAL/MOL
REMARK 922        TOTAL FREE ENERGY PREDICTED BY IDOCK:   -7.03 KCAL/MOL
REMARK 923 INTER-LIGAND FREE ENERGY PREDICTED BY IDOCK:   -5.50 KCAL/MOL
REMARK 924 INTRA-LIGAND FREE ENERGY PREDICTED BY IDOCK:   -1.53 KCAL/MOL
REMARK 927      BINDING AFFINITY PREDICTED BY RF-SCORE:    0.00 PKD
ROOT
HETATM    1  C   UNL     1     -13.023   9.566  72.003  1.00  0.00    -0.426 C  
HETATM    2  O   UNL     1     -11.698   9.867  71.555  1.00  0.00    -0.380 OA 
ENDROOT
BRANCH   2   3
HETATM    3  C   UNL     1     -10.773   8.886  71.632  1.00  0.00    -0.347 C  
HETATM    4  O   UNL     1     -10.073   8.655  72.607  1.00  0.00    -0.251 OA 
BRANCH   3   5
HETATM    5  C   UNL     1     -10.679   8.144  70.342  1.00  0.00    -0.234 C  
HETATM    6  C   UNL     1     -11.147   6.872  70.287  1.00  0.00    -0.297 C  
HETATM    7  C   UNL     1     -11.634   6.040  71.452  1.00  0.00    -0.211 C  
HETATM    8  N   UNL     1     -11.204   6.216  69.074  1.00  0.00    -0.378 NA 
HETATM    9  C   UNL     1     -10.734   6.705  67.875  1.00  0.00    -0.274 C  
HETATM   10  C   UNL     1     -10.860   5.752  66.707  1.00  0.00    -0.327 C  
HETATM   11  C   UNL     1     -10.212   7.957  67.809  1.00  0.00    -0.276 C  
HETATM   12  C   UNL     1     -10.194   8.864  69.056  1.00  0.00    -0.217 C  
BRANCH  11  13
HETATM   13  C   UNL     1      -9.570   8.392  66.536  1.00  0.00    -0.236 C  
HETATM   14  O   UNL     1      -8.444   8.039  66.201  1.00  0.00    -0.120 OA 
BRANCH  13  15
HETATM   15  O   UNL     1     -10.330   9.259  65.823  1.00  0.00    -0.078 OA 
BRANCH  15  16
HETATM   16  C   UNL     1      -9.660  10.500  65.496  1.00  0.00    -0.230 C  
HETATM   17  C   UNL     1     -10.594  11.659  65.809  1.00  0.00    -0.320 C  
HETATM   18  C   UNL     1      -9.266  10.500  64.021  1.00  0.00    -0.286 C  
ENDBRANCH  15  16
ENDBRANCH  13  15
ENDBRANCH  11  13
BRANCH  12  19
HETATM   19  C   UNL     1      -8.855   9.556  69.238  1.00  0.00    -0.153 A  
HETATM   20  C   UNL     1      -7.660   8.871  69.588  1.00  0.00    -0.072 A  
HETATM   21  C   UNL     1      -8.664  10.948  69.027  1.00  0.00    -0.108 A  
HETATM   22  N   UNL     1      -7.469   7.569  69.837  1.00  0.00    -0.082 NA 
HETATM   23  O   UNL     1      -6.121   7.427  70.113  1.00  0.00    -0.024 OA 
HETATM   24  C   UNL     1      -7.409  11.599  69.159  1.00  0.00    -0.032 A  
HETATM   25  C   UNL     1      -6.222  10.927  69.502  1.00  0.00    -0.073 A  
HETATM   26  C   UNL     1      -6.375   9.546  69.713  1.00  0.00    -0.045 A  
HETATM   27  N   UNL     1      -5.450   8.634  70.036  1.00  0.00    -0.028 NA 
ENDBRANCH  12  19
ENDBRANCH   3   5
ENDBRANCH   2   3
TORSDOF 6
ENDMDL
MODEL       97
REMARK 921   NORMALIZED FREE ENERGY PREDICTED BY IDOCK:   -4.11 KCAL/MOL
REMARK 922        TOTAL FREE ENERGY PREDICTED BY IDOCK:   -7.01 KCAL/MOL
REMARK 923 INTER-LIGAND FREE ENERGY PREDICTED BY IDOCK:   -5.53 KCAL/MOL
REMARK 924 INTRA-LIGAND FREE ENERGY PREDICTED BY IDOCK:   -1.48 KCAL/MOL
REMARK 927      BINDING AFFINITY PREDICTED BY RF-SCORE:    0.00 PKD
ROOT
HETATM    1  C   UNL     1      -8.711   5.196  66.138  1.00  0.00    -0.123 C  
HETATM    2  O   UNL     1      -9.029   6.413  65.457  1.00  0.00    -0.079 OA 
ENDROOT
BRANCH   2   3
HETATM    3  C   UNL     1      -8.140   7.427  65.539  1.00  0.00    -0.131 C  
HETATM    4  O   UNL     1      -6.985   7.319  65.924  1.00  0.00    -0.059 OA 
BRANCH   3   5
HETATM    5  C   UNL     1      -8.772   8.719  65.146  1.00  0.00    -0.202 C  
HETATM    6  C   UNL     1      -8.684   9.120  63.853  1.00  0.00    -0.128 C  
HETATM    7  C   UNL     1      -7.870   8.464  62.759  1.00  0.00    -0.144 C  
HETATM    8  N   UNL     1      -9.380  10.235  63.433  1.00  0.00    -0.285 NA 
HETATM    9  C   UNL     1     -10.117  11.072  64.243  1.00  0.00    -0.339 C  
HETATM   10  C   UNL     1     -10.726  12.263  63.536  1.00  0.00    -0.497 C  
HETATM   11  C   UNL     1     -10.253  10.793  65.564  1.00  0.00    -0.330 C  
HETATM   12  C   UNL     1      -9.638   9.511  66.161  1.00  0.00    -0.302 C  
BRANCH  11  13
HETATM   13  C   UNL     1     -10.921  11.801  66.437  1.00  0.00    -0.294 C  
HETATM   14  O   UNL     1     -12.000  11.600  66.985  1.00  0.00    -0.593 OA 
BRANCH  13  15
HETATM   15  O   UNL     1     -10.246  12.974  66.511  1.00  0.00    -0.258 OA 
BRANCH  15  16
HETATM   16  C   UNL     1     -10.312  13.612  67.809  1.00  0.00    -0.241 C  
HETATM   17  C   UNL     1     -11.062  14.928  67.672  1.00  0.00    -0.315 C  
HETATM   18  C   UNL     1      -8.900  13.841  68.342  1.00  0.00    -0.165 C  
ENDBRANCH  15  16
ENDBRANCH  13  15
ENDBRANCH  11  13
BRANCH  12  19
HETATM   19  C   UNL     1      -8.913   9.782  67.467  1.00  0.00    -0.138 A  
HETATM   20  C   UNL     1      -7.706  10.527  67.555  1.00  0.00    -0.098 A  
HETATM   21  C   UNL     1      -9.402   9.355  68.731  1.00  0.00    -0.146 A  
HETATM   22  N   UNL     1      -6.985  11.092  66.578  1.00  0.00    -0.140 NA 
HETATM   23  O   UNL     1      -5.915  11.708  67.202  1.00  0.00    -0.095 OA 
HETATM   24  C   UNL     1      -8.752   9.634  69.962  1.00  0.00    -0.256 A  
HETATM   25  C   UNL     1      -7.559  10.373  70.056  1.00  0.00    -0.048 A  
HETATM   26  C   UNL     1      -7.050  10.816  68.822  1.00  0.00    -0.079 A  
HETATM   27  N   UNL     1      -5.953  11.542  68.574  1.00  0.00    -0.045 NA 
ENDBRANCH  12  19
ENDBRANCH   3   5
ENDBRANCH   2   3
TORSDOF 6
ENDMDL
MODEL       98
REMARK 921   NORMALIZED FREE ENERGY PREDICTED BY IDOCK:   -4.11 KCAL/MOL
REMARK 922        TOTAL FREE ENERGY PREDICTED BY IDOCK:   -7.01 KCAL/MOL
REMARK 923 INTER-LIGAND FREE ENERGY PREDICTED BY IDOCK:   -6.09 KCAL/MOL
REMARK 924 INTRA-LIGAND FREE ENERGY PREDICTED BY IDOCK:   -0.92 KCAL/MOL
REMARK 927      BINDING AFFINITY PREDICTED BY RF-SCORE:    0.00 PKD
ROOT
HETATM    1  C   UNL     1      -8.199   5.491  69.292  1.00  0.00    -0.095 C  
HETATM    2  O   UNL     1      -8.489   6.196  68.082  1.00  0.00    -0.116 OA 
ENDROOT
BRANCH   2   3
HETATM    3  C   UNL     1      -9.788   6.376  67.759  1.00  0.00    -0.123 C  
HETATM    4  O   UNL     1     -10.585   5.479  67.526  1.00  0.00    -0.221 OA 
BRANCH   3   5
HETATM    5  C   UNL     1     -10.116   7.828  67.672  1.00  0.00    -0.254 C  
HETATM    6  C   UNL     1      -9.823   8.494  66.527  1.00  0.00    -0.272 C  
HETATM    7  C   UNL     1      -9.046   7.957  65.345  1.00  0.00     0.135 C  
HETATM    8  N   UNL     1     -10.245   9.798  66.367  1.00  0.00    -0.237 NA 
HETATM    9  C   UNL     1     -10.885  10.558  67.323  1.00  0.00    -0.279 C  
HETATM   10  C   UNL     1     -11.179  11.982  66.909  1.00  0.00    -0.375 C  
HETATM   11  C   UNL     1     -11.204  10.010  68.524  1.00  0.00    -0.180 C  
HETATM   12  C   UNL     1     -10.910   8.523  68.809  1.00  0.00     0.004 C  
BRANCH  11  13
HETATM   13  C   UNL     1     -11.748  10.902  69.588  1.00  0.00    -0.331 C  
HETATM   14  O   UNL     1     -11.211  11.955  69.917  1.00  0.00    -0.139 OA 
BRANCH  13  15
HETATM   15  O   UNL     1     -12.854  10.402  70.190  1.00  0.00    -0.235 OA 
BRANCH  15  16
HETATM   16  C   UNL     1     -12.863  10.555  71.629  1.00  0.00    -0.475 C  
HETATM   17  C   UNL     1     -13.698   9.438  72.237  1.00  0.00    -0.495 C  
HETATM   18  C   UNL     1     -13.431  11.923  71.999  1.00  0.00    -0.336 C  
ENDBRANCH  15  16
ENDBRANCH  13  15
ENDBRANCH  11  13
BRANCH  12  19
HETATM   19  C   UNL     1     -10.281   8.319  70.176  1.00  0.00    -0.199 A  
HETATM   20  C   UNL     1      -9.023   8.864  70.550  1.00  0.00    -0.192 A  
HETATM   21  C   UNL     1     -10.916   7.603  71.225  1.00  0.00    -0.260 A  
HETATM   22  N   UNL     1      -8.169   9.603  69.828  1.00  0.00    -0.143 NA 
HETATM   23  O   UNL     1      -7.106   9.885  70.667  1.00  0.00    -0.240 OA 
HETATM   24  C   UNL     1     -10.354   7.437  72.519  1.00  0.00    -0.272 A  
HETATM   25  C   UNL     1      -9.111   7.975  72.896  1.00  0.00    -0.313 A  
HETATM   26  C   UNL     1      -8.456   8.696  71.881  1.00  0.00    -0.143 A  
HETATM   27  N   UNL     1      -7.280   9.333  71.923  1.00  0.00    -0.303 NA 
ENDBRANCH  12  19
ENDBRANCH   3   5
ENDBRANCH   2   3
TORSDOF 6
ENDMDL
MODEL       99
REMARK 921   NORMALIZED FREE ENERGY PREDICTED BY IDOCK:   -4.10 KCAL/MOL
REMARK 922        TOTAL FREE ENERGY PREDICTED BY IDOCK:   -6.99 KCAL/MOL
REMARK 923 INTER-LIGAND FREE ENERGY PREDICTED BY IDOCK:   -5.69 KCAL/MOL
REMARK 924 INTRA-LIGAND FREE ENERGY PREDICTED BY IDOCK:   -1.31 KCAL/MOL
REMARK 927      BINDING AFFINITY PREDICTED BY RF-SCORE:    0.00 PKD
ROOT
HETATM    1  C   UNL     1     -13.996   8.147  71.709  1.00  0.00    -0.409 C  
HETATM    2  O   UNL     1     -13.080   7.094  71.396  1.00  0.00    -0.388 OA 
ENDROOT
BRANCH   2   3
HETATM    3  C   UNL     1     -11.846   7.155  71.941  1.00  0.00    -0.300 C  
HETATM    4  O   UNL     1     -11.463   8.017  72.718  1.00  0.00    -0.402 OA 
BRANCH   3   5
HETATM    5  C   UNL     1     -10.985   6.051  71.427  1.00  0.00    -0.336 C  
HETATM    6  C   UNL     1     -10.781   4.965  72.214  1.00  0.00    -0.150 C  
HETATM    7  C   UNL     1     -11.217   4.799  73.653  1.00  0.00    -0.332 C  
HETATM    8  N   UNL     1     -10.109   3.870  71.708  1.00  0.00    -0.156 NA 
HETATM    9  C   UNL     1      -9.521   3.795  70.463  1.00  0.00    -0.184 C  
HETATM   10  C   UNL     1      -8.789   2.501  70.185  1.00  0.00    -0.143 C  
HETATM   11  C   UNL     1      -9.629   4.834  69.597  1.00  0.00    -0.253 C  
HETATM   12  C   UNL     1     -10.458   6.081  69.969  1.00  0.00    -0.313 C  
BRANCH  11  13
HETATM   13  C   UNL     1      -8.850   4.783  68.327  1.00  0.00    -0.104 C  
HETATM   14  O   UNL     1      -7.648   5.024  68.270  1.00  0.00    -0.077 OA 
BRANCH  13  15
HETATM   15  O   UNL     1      -9.613   4.504  67.242  1.00  0.00    -0.160 OA 
BRANCH  15  16
HETATM   16  C   UNL     1      -8.914   3.788  66.196  1.00  0.00    -0.135 C  
HETATM   17  C   UNL     1      -9.593   4.074  64.866  1.00  0.00    -0.179 C  
HETATM   18  C   UNL     1      -8.921   2.292  66.502  1.00  0.00    -0.123 C  
ENDBRANCH  15  16
ENDBRANCH  13  15
ENDBRANCH  11  13
BRANCH  12  19
HETATM   19  C   UNL     1      -9.729   7.370  69.632  1.00  0.00    -0.163 A  
HETATM   20  C   UNL     1      -9.929   8.090  68.423  1.00  0.00    -0.185 A  
HETATM   21  C   UNL     1      -8.815   8.001  70.517  1.00  0.00    -0.137 A  
HETATM   22  N   UNL     1     -10.725   7.803  67.385  1.00  0.00    -0.266 NA 
HETATM   23  O   UNL     1     -10.558   8.834  66.479  1.00  0.00    -0.196 OA 
HETATM   24  C   UNL     1      -8.155   9.225  70.227  1.00  0.00    -0.165 A  
HETATM   25  C   UNL     1      -8.350   9.943  69.034  1.00  0.00    -0.130 A  
HETATM   26  C   UNL     1      -9.255   9.349  68.137  1.00  0.00    -0.130 A  
HETATM   27  N   UNL     1      -9.661   9.781  66.936  1.00  0.00    -0.172 NA 
ENDBRANCH  12  19
ENDBRANCH   3   5
ENDBRANCH   2   3
TORSDOF 6
ENDMDL
MODEL      100
REMARK 921   NORMALIZED FREE ENERGY PREDICTED BY IDOCK:   -4.09 KCAL/MOL
REMARK 922        TOTAL FREE ENERGY PREDICTED BY IDOCK:   -6.98 KCAL/MOL
REMARK 923 INTER-LIGAND FREE ENERGY PREDICTED BY IDOCK:   -5.58 KCAL/MOL
REMARK 924 INTRA-LIGAND FREE ENERGY PREDICTED BY IDOCK:   -1.40 KCAL/MOL
REMARK 927      BINDING AFFINITY PREDICTED BY RF-SCORE:    0.00 PKD
ROOT
HETATM    1  C   UNL     1      -9.667  13.376  67.763  1.00  0.00    -0.216 C  
HETATM    2  O   UNL     1     -10.262  12.629  68.829  1.00  0.00    -0.185 OA 
ENDROOT
BRANCH   2   3
HETATM    3  C   UNL     1     -11.345  11.877  68.537  1.00  0.00    -0.276 C  
HETATM    4  O   UNL     1     -12.272  12.227  67.821  1.00  0.00    -0.425 OA 
BRANCH   3   5
HETATM    5  C   UNL     1     -11.290  10.569  69.251  1.00  0.00    -0.325 C  
HETATM    6  C   UNL     1     -12.013  10.418  70.389  1.00  0.00    -0.320 C  
HETATM    7  C   UNL     1     -12.777  11.498  71.122  1.00  0.00    -0.458 C  
HETATM    8  N   UNL     1     -12.093   9.177  70.989  1.00  0.00    -0.285 NA 
HETATM    9  C   UNL     1     -11.416   8.046  70.585  1.00  0.00    -0.232 C  
HETATM   10  C   UNL     1     -11.633   6.832  71.461  1.00  0.00    -0.344 C  
HETATM   11  C   UNL     1     -10.635   8.081  69.476  1.00  0.00    -0.216 C  
HETATM   12  C   UNL     1     -10.541   9.364  68.625  1.00  0.00    -0.230 C  
BRANCH  11  13
HETATM   13  C   UNL     1      -9.795   6.890  69.162  1.00  0.00    -0.156 C  
HETATM   14  O   UNL     1      -8.839   6.546  69.849  1.00  0.00    -0.141 OA 
BRANCH  13  15
HETATM   15  O   UNL     1     -10.159   6.268  68.014  1.00  0.00    -0.133 OA 
BRANCH  15  16
HETATM   16  C   UNL     1      -9.125   5.430  67.444  1.00  0.00    -0.111 C  
HETATM   17  C   UNL     1      -8.399   6.213  66.361  1.00  0.00    -0.120 C  
HETATM   18  C   UNL     1      -9.749   4.159  66.872  1.00  0.00    -0.232 C  
ENDBRANCH  15  16
ENDBRANCH  13  15
ENDBRANCH  11  13
BRANCH  12  19
HETATM   19  C   UNL     1      -9.108   9.693  68.246  1.00  0.00    -0.123 A  
HETATM   20  C   UNL     1      -8.076   9.911  69.198  1.00  0.00    -0.118 A  
HETATM   21  C   UNL     1      -8.657   9.766  66.901  1.00  0.00    -0.128 A  
HETATM   22  N   UNL     1      -8.138   9.897  70.536  1.00  0.00    -0.206 NA 
HETATM   23  O   UNL     1      -6.853  10.152  70.980  1.00  0.00    -0.341 OA 
HETATM   24  C   UNL     1      -7.311  10.037  66.535  1.00  0.00    -0.101 A  
HETATM   25  C   UNL     1      -6.285  10.251  67.473  1.00  0.00    -0.057 A  
HETATM   26  C   UNL     1      -6.697  10.181  68.815  1.00  0.00    -0.053 A  
HETATM   27  N   UNL     1      -5.970  10.324  69.930  1.00  0.00    -0.049 NA 
ENDBRANCH  12  19
ENDBRANCH   3   5
ENDBRANCH   2   3
TORSDOF 6
ENDMDL
MODEL      101
REMARK 921   NORMALIZED FREE ENERGY PREDICTED BY IDOCK:   -4.07 KCAL/MOL
REMARK 922        TOTAL FREE ENERGY PREDICTED BY IDOCK:   -6.96 KCAL/MOL
REMARK 923 INTER-LIGAND FREE ENERGY PREDICTED BY IDOCK:   -6.25 KCAL/MOL
REMARK 924 INTRA-LIGAND FREE ENERGY PREDICTED BY IDOCK:   -0.71 KCAL/MOL
REMARK 927      BINDING AFFINITY PREDICTED BY RF-SCORE:    0.00 PKD
ROOT
HETATM    1  C   UNL     1      -8.982   8.909  67.034  1.00  0.00    -0.127 C  
HETATM    2  O   UNL     1      -8.333  10.137  67.380  1.00  0.00    -0.118 OA 
ENDROOT
BRANCH   2   3
HETATM    3  C   UNL     1      -8.159  11.050  66.400  1.00  0.00    -0.166 C  
HETATM    4  O   UNL     1      -7.132  11.201  65.754  1.00  0.00     0.021 OA 
BRANCH   3   5
HETATM    5  C   UNL     1      -9.377  11.895  66.241  1.00  0.00    -0.234 C  
HETATM    6  C   UNL     1     -10.147  11.725  65.138  1.00  0.00    -0.259 C  
HETATM    7  C   UNL     1      -9.829  10.856  63.941  1.00  0.00    -0.385 C  
HETATM    8  N   UNL     1     -11.353  12.389  65.035  1.00  0.00    -0.311 NA 
HETATM    9  C   UNL     1     -11.837  13.315  65.935  1.00  0.00    -0.393 C  
HETATM   10  C   UNL     1     -13.157  13.944  65.548  1.00  0.00    -0.232 C  
HETATM   11  C   UNL     1     -11.139  13.595  67.065  1.00  0.00    -0.313 C  
HETATM   12  C   UNL     1      -9.832  12.840  67.384  1.00  0.00    -0.210 C  
BRANCH  11  13
HETATM   13  C   UNL     1     -11.610  14.712  67.931  1.00  0.00    -0.348 C  
HETATM   14  O   UNL     1     -11.552  15.890  67.594  1.00  0.00    -0.157 OA 
BRANCH  13  15
HETATM   15  O   UNL     1     -12.049  14.299  69.145  1.00  0.00    -0.329 OA 
BRANCH  15  16
HETATM   16  C   UNL     1     -12.235  15.369  70.102  1.00  0.00    -0.375 C  
HETATM   17  C   UNL     1     -10.934  15.581  70.861  1.00  0.00    -0.333 C  
HETATM   18  C   UNL     1     -13.373  15.014  71.057  1.00  0.00    -0.477 C  
ENDBRANCH  15  16
ENDBRANCH  13  15
ENDBRANCH  11  13
BRANCH  12  19
HETATM   19  C   UNL     1      -8.731  13.779  67.845  1.00  0.00    -0.183 A  
HETATM   20  C   UNL     1      -8.392  14.982  67.169  1.00  0.00    -0.217 A  
HETATM   21  C   UNL     1      -7.969  13.564  69.025  1.00  0.00     0.199 A  
HETATM   22  N   UNL     1      -8.912  15.503  66.050  1.00  0.00    -0.297 NA 
HETATM   23  O   UNL     1      -8.237  16.691  65.833  1.00  0.00    -0.405 OA 
HETATM   24  C   UNL     1      -6.962  14.453  69.485  1.00  0.00    -0.119 A  
HETATM   25  C   UNL     1      -6.623  15.646  68.822  1.00  0.00    -0.110 A  
HETATM   26  C   UNL     1      -7.363  15.893  67.652  1.00  0.00    -0.157 A  
HETATM   27  N   UNL     1      -7.291  16.932  66.811  1.00  0.00    -0.210 NA 
ENDBRANCH  12  19
ENDBRANCH   3   5
ENDBRANCH   2   3
TORSDOF 6
ENDMDL
MODEL      102
REMARK 921   NORMALIZED FREE ENERGY PREDICTED BY IDOCK:   -4.07 KCAL/MOL
REMARK 922        TOTAL FREE ENERGY PREDICTED BY IDOCK:   -6.95 KCAL/MOL
REMARK 923 INTER-LIGAND FREE ENERGY PREDICTED BY IDOCK:   -5.74 KCAL/MOL
REMARK 924 INTRA-LIGAND FREE ENERGY PREDICTED BY IDOCK:   -1.21 KCAL/MOL
REMARK 927      BINDING AFFINITY PREDICTED BY RF-SCORE:    0.00 PKD
ROOT
HETATM    1  C   UNL     1     -10.080   5.170  69.047  1.00  0.00    -0.187 C  
HETATM    2  O   UNL     1      -9.408   5.546  67.841  1.00  0.00    -0.108 OA 
ENDROOT
BRANCH   2   3
HETATM    3  C   UNL     1     -10.151   6.092  66.854  1.00  0.00    -0.185 C  
HETATM    4  O   UNL     1     -11.253   5.695  66.503  1.00  0.00    -0.098 OA 
BRANCH   3   5
HETATM    5  C   UNL     1      -9.425   7.221  66.206  1.00  0.00    -0.133 C  
HETATM    6  C   UNL     1      -8.529   6.942  65.226  1.00  0.00    -0.055 C  
HETATM    7  C   UNL     1      -8.057   5.569  64.800  1.00  0.00    -0.126 C  
HETATM    8  N   UNL     1      -7.951   7.973  64.513  1.00  0.00    -0.147 NA 
HETATM    9  C   UNL     1      -8.129   9.317  64.761  1.00  0.00    -0.133 C  
HETATM   10  C   UNL     1      -7.324  10.238  63.870  1.00  0.00    -0.061 C  
HETATM   11  C   UNL     1      -8.978   9.722  65.740  1.00  0.00    -0.195 C  
HETATM   12  C   UNL     1      -9.795   8.689  66.543  1.00  0.00    -0.348 C  
BRANCH  11  13
HETATM   13  C   UNL     1      -9.024  11.171  66.085  1.00  0.00    -0.195 C  
HETATM   14  O   UNL     1      -8.101  11.754  66.647  1.00  0.00    -0.161 OA 
BRANCH  13  15
HETATM   15  O   UNL     1     -10.204  11.759  65.771  1.00  0.00    -0.223 OA 
BRANCH  15  16
HETATM   16  C   UNL     1     -10.184  12.497  64.526  1.00  0.00    -0.307 C  
HETATM   17  C   UNL     1     -10.734  13.893  64.773  1.00  0.00    -0.437 C  
HETATM   18  C   UNL     1     -11.014  11.762  63.476  1.00  0.00    -0.499 C  
ENDBRANCH  15  16
ENDBRANCH  13  15
ENDBRANCH  11  13
BRANCH  12  19
HETATM   19  C   UNL     1      -9.768   8.977  68.033  1.00  0.00    -0.179 A  
HETATM   20  C   UNL     1     -10.780   9.712  68.709  1.00  0.00    -0.206 A  
HETATM   21  C   UNL     1      -8.750   8.495  68.900  1.00  0.00    -0.131 A  
HETATM   22  N   UNL     1     -11.884  10.287  68.215  1.00  0.00    -0.133 NA 
HETATM   23  O   UNL     1     -12.532  10.858  69.296  1.00  0.00    -0.392 OA 
HETATM   24  C   UNL     1      -8.734   8.728  70.301  1.00  0.00    -0.170 A  
HETATM   25  C   UNL     1      -9.733   9.452  70.975  1.00  0.00    -0.293 A  
HETATM   26  C   UNL     1     -10.760   9.939  70.147  1.00  0.00    -0.308 A  
HETATM   27  N   UNL     1     -11.848  10.645  70.478  1.00  0.00    -0.329 NA 
ENDBRANCH  12  19
ENDBRANCH   3   5
ENDBRANCH   2   3
TORSDOF 6
ENDMDL
MODEL      103
REMARK 921   NORMALIZED FREE ENERGY PREDICTED BY IDOCK:   -4.07 KCAL/MOL
REMARK 922        TOTAL FREE ENERGY PREDICTED BY IDOCK:   -6.95 KCAL/MOL
REMARK 923 INTER-LIGAND FREE ENERGY PREDICTED BY IDOCK:   -5.35 KCAL/MOL
REMARK 924 INTRA-LIGAND FREE ENERGY PREDICTED BY IDOCK:   -1.60 KCAL/MOL
REMARK 927      BINDING AFFINITY PREDICTED BY RF-SCORE:    0.00 PKD
ROOT
HETATM    1  C   UNL     1     -10.449  10.998  64.082  1.00  0.00    -0.366 C  
HETATM    2  O   UNL     1     -10.616  10.206  65.261  1.00  0.00    -0.087 OA 
ENDROOT
BRANCH   2   3
HETATM    3  C   UNL     1      -9.536   9.541  65.726  1.00  0.00    -0.270 C  
HETATM    4  O   UNL     1      -8.615   9.127  65.038  1.00  0.00    -0.161 OA 
BRANCH   3   5
HETATM    5  C   UNL     1      -9.638   9.330  67.199  1.00  0.00    -0.208 C  
HETATM    6  C   UNL     1      -9.171  10.296  68.029  1.00  0.00    -0.135 C  
HETATM    7  C   UNL     1      -8.403  11.536  67.628  1.00  0.00    -0.135 C  
HETATM    8  N   UNL     1      -9.383  10.191  69.389  1.00  0.00    -0.213 NA 
HETATM    9  C   UNL     1      -9.967   9.119  70.029  1.00  0.00    -0.199 C  
HETATM   10  C   UNL     1     -10.017   9.232  71.537  1.00  0.00    -0.281 C  
HETATM   11  C   UNL     1     -10.445   8.074  69.307  1.00  0.00    -0.221 C  
HETATM   12  C   UNL     1     -10.396   8.101  67.765  1.00  0.00    -0.295 C  
BRANCH  11  13
HETATM   13  C   UNL     1     -10.923   6.866  70.038  1.00  0.00    -0.279 C  
HETATM   14  O   UNL     1     -12.110   6.572  70.140  1.00  0.00    -0.323 OA 
BRANCH  13  15
HETATM   15  O   UNL     1      -9.922   6.165  70.624  1.00  0.00    -0.182 OA 
BRANCH  15  16
HETATM   16  C   UNL     1     -10.250   4.782  70.896  1.00  0.00    -0.177 C  
HETATM   17  C   UNL     1      -9.814   4.443  72.313  1.00  0.00    -0.231 C  
HETATM   18  C   UNL     1      -9.554   3.878  69.881  1.00  0.00    -0.270 C  
ENDBRANCH  15  16
ENDBRANCH  13  15
ENDBRANCH  11  13
BRANCH  12  19
HETATM   19  C   UNL     1      -9.900   6.786  67.189  1.00  0.00    -0.207 A  
HETATM   20  C   UNL     1      -8.549   6.353  67.274  1.00  0.00    -0.110 A  
HETATM   21  C   UNL     1     -10.753   5.846  66.552  1.00  0.00    -0.251 A  
HETATM   22  N   UNL     1      -7.493   6.968  67.820  1.00  0.00    -0.096 NA 
HETATM   23  O   UNL     1      -6.421   6.111  67.649  1.00  0.00    -0.042 OA 
HETATM   24  C   UNL     1     -10.307   4.598  66.042  1.00  0.00    -0.318 A  
HETATM   25  C   UNL     1      -8.972   4.161  66.125  1.00  0.00    -0.126 A  
HETATM   26  C   UNL     1      -8.102   5.068  66.755  1.00  0.00    -0.108 A  
HETATM   27  N   UNL     1      -6.791   4.947  67.000  1.00  0.00    -0.055 NA 
ENDBRANCH  12  19
ENDBRANCH   3   5
ENDBRANCH   2   3
TORSDOF 6
ENDMDL
MODEL      104
REMARK 921   NORMALIZED FREE ENERGY PREDICTED BY IDOCK:   -4.06 KCAL/MOL
REMARK 922        TOTAL FREE ENERGY PREDICTED BY IDOCK:   -6.94 KCAL/MOL
REMARK 923 INTER-LIGAND FREE ENERGY PREDICTED BY IDOCK:   -5.46 KCAL/MOL
REMARK 924 INTRA-LIGAND FREE ENERGY PREDICTED BY IDOCK:   -1.48 KCAL/MOL
REMARK 927      BINDING AFFINITY PREDICTED BY RF-SCORE:    0.00 PKD
ROOT
HETATM    1  C   UNL     1     -10.224   6.948  73.710  1.00  0.00    -0.363 C  
HETATM    2  O   UNL     1     -11.070   7.913  73.079  1.00  0.00    -0.402 OA 
ENDROOT
BRANCH   2   3
HETATM    3  C   UNL     1     -11.508   7.640  71.831  1.00  0.00    -0.272 C  
HETATM    4  O   UNL     1     -12.216   6.692  71.526  1.00  0.00    -0.344 OA 
BRANCH   3   5
HETATM    5  C   UNL     1     -10.967   8.626  70.851  1.00  0.00    -0.301 C  
HETATM    6  C   UNL     1     -11.684   9.748  70.595  1.00  0.00    -0.300 C  
HETATM    7  C   UNL     1     -13.080  10.059  71.088  1.00  0.00    -0.472 C  
HETATM    8  N   UNL     1     -11.141  10.742  69.806  1.00  0.00    -0.273 NA 
HETATM    9  C   UNL     1      -9.930  10.674  69.150  1.00  0.00    -0.211 C  
HETATM   10  C   UNL     1      -9.603  11.878  68.296  1.00  0.00    -0.201 C  
HETATM   11  C   UNL     1      -9.135   9.584  69.304  1.00  0.00    -0.161 C  
HETATM   12  C   UNL     1      -9.547   8.442  70.255  1.00  0.00    -0.170 C  
BRANCH  11  13
HETATM   13  C   UNL     1      -7.912   9.474  68.459  1.00  0.00    -0.093 C  
HETATM   14  O   UNL     1      -6.796   9.796  68.853  1.00  0.00    -0.053 OA 
BRANCH  13  15
HETATM   15  O   UNL     1      -8.170   9.044  67.199  1.00  0.00    -0.109 OA 
BRANCH  15  16
HETATM   16  C   UNL     1      -6.990   8.658  66.454  1.00  0.00    -0.078 C  
HETATM   17  C   UNL     1      -6.864   9.556  65.233  1.00  0.00    -0.087 C  
HETATM   18  C   UNL     1      -7.097   7.191  66.044  1.00  0.00    -0.073 C  
ENDBRANCH  15  16
ENDBRANCH  13  15
ENDBRANCH  11  13
BRANCH  12  19
HETATM   19  C   UNL     1      -9.346   7.076  69.624  1.00  0.00    -0.149 A  
HETATM   20  C   UNL     1     -10.008   6.653  68.440  1.00  0.00    -0.145 A  
HETATM   21  C   UNL     1      -8.438   6.110  70.135  1.00  0.00    -0.133 A  
HETATM   22  N   UNL     1     -10.904   7.307  67.689  1.00  0.00    -0.211 NA 
HETATM   23  O   UNL     1     -11.220   6.456  66.645  1.00  0.00    -0.245 OA 
HETATM   24  C   UNL     1      -8.214   4.843  69.533  1.00  0.00    -0.084 A  
HETATM   25  C   UNL     1      -8.865   4.420  68.360  1.00  0.00    -0.130 A  
HETATM   26  C   UNL     1      -9.768   5.355  67.825  1.00  0.00    -0.135 A  
HETATM   27  N   UNL     1     -10.526   5.263  66.725  1.00  0.00    -0.270 NA 
ENDBRANCH  12  19
ENDBRANCH   3   5
ENDBRANCH   2   3
TORSDOF 6
ENDMDL
MODEL      105
REMARK 921   NORMALIZED FREE ENERGY PREDICTED BY IDOCK:   -4.02 KCAL/MOL
REMARK 922        TOTAL FREE ENERGY PREDICTED BY IDOCK:   -6.88 KCAL/MOL
REMARK 923 INTER-LIGAND FREE ENERGY PREDICTED BY IDOCK:   -6.29 KCAL/MOL
REMARK 924 INTRA-LIGAND FREE ENERGY PREDICTED BY IDOCK:   -0.59 KCAL/MOL
REMARK 927      BINDING AFFINITY PREDICTED BY RF-SCORE:    0.00 PKD
ROOT
HETATM    1  C   UNL     1      -8.075   9.081  64.827  1.00  0.00    -0.144 C  
HETATM    2  O   UNL     1      -9.027   8.277  65.530  1.00  0.00    -0.154 OA 
ENDROOT
BRANCH   2   3
HETATM    3  C   UNL     1      -8.555   7.415  66.457  1.00  0.00    -0.132 C  
HETATM    4  O   UNL     1      -7.540   6.744  66.341  1.00  0.00    -0.086 OA 
BRANCH   3   5
HETATM    5  C   UNL     1      -9.470   7.348  67.633  1.00  0.00    -0.156 C  
HETATM    6  C   UNL     1     -10.475   6.437  67.624  1.00  0.00    -0.228 C  
HETATM    7  C   UNL     1     -10.880   5.552  66.465  1.00  0.00    -0.237 C  
HETATM    8  N   UNL     1     -11.245   6.256  68.755  1.00  0.00    -0.354 NA 
HETATM    9  C   UNL     1     -11.153   6.996  69.914  1.00  0.00    -0.264 C  
HETATM   10  C   UNL     1     -12.163   6.633  70.980  1.00  0.00    -0.344 C  
HETATM   11  C   UNL     1     -10.206   7.961  70.031  1.00  0.00    -0.208 C  
HETATM   12  C   UNL     1      -9.187   8.199  68.898  1.00  0.00    -0.147 C  
BRANCH  11  13
HETATM   13  C   UNL     1     -10.239   8.847  71.230  1.00  0.00    -0.291 C  
HETATM   14  O   UNL     1      -9.892   8.474  72.346  1.00  0.00    -0.292 OA 
BRANCH  13  15
HETATM   15  O   UNL     1     -10.747  10.077  70.972  1.00  0.00    -0.268 OA 
BRANCH  15  16
HETATM   16  C   UNL     1     -12.190  10.110  70.865  1.00  0.00    -0.356 C  
HETATM   17  C   UNL     1     -12.625  11.525  70.515  1.00  0.00    -0.286 C  
HETATM   18  C   UNL     1     -12.816   9.657  72.182  1.00  0.00    -0.460 C  
ENDBRANCH  15  16
ENDBRANCH  13  15
ENDBRANCH  11  13
BRANCH  12  19
HETATM   19  C   UNL     1      -9.014   9.676  68.588  1.00  0.00    -0.129 A  
HETATM   20  C   UNL     1     -10.009  10.465  67.951  1.00  0.00    -0.167 A  
HETATM   21  C   UNL     1      -7.857  10.416  68.951  1.00  0.00    -0.115 A  
HETATM   22  N   UNL     1     -11.217  10.105  67.499  1.00  0.00    -0.243 NA 
HETATM   23  O   UNL     1     -11.789  11.254  66.982  1.00  0.00    -0.484 OA 
HETATM   24  C   UNL     1      -7.699  11.805  68.699  1.00  0.00    -0.126 A  
HETATM   25  C   UNL     1      -8.681  12.592  68.071  1.00  0.00    -0.186 A  
HETATM   26  C   UNL     1      -9.843  11.891  67.704  1.00  0.00    -0.187 A  
HETATM   27  N   UNL     1     -10.952  12.347  67.108  1.00  0.00    -0.252 NA 
ENDBRANCH  12  19
ENDBRANCH   3   5
ENDBRANCH   2   3
TORSDOF 6
ENDMDL
MODEL      106
REMARK 921   NORMALIZED FREE ENERGY PREDICTED BY IDOCK:   -4.00 KCAL/MOL
REMARK 922        TOTAL FREE ENERGY PREDICTED BY IDOCK:   -6.86 KCAL/MOL
REMARK 923 INTER-LIGAND FREE ENERGY PREDICTED BY IDOCK:   -5.25 KCAL/MOL
REMARK 924 INTRA-LIGAND FREE ENERGY PREDICTED BY IDOCK:   -1.60 KCAL/MOL
REMARK 927      BINDING AFFINITY PREDICTED BY RF-SCORE:    0.00 PKD
ROOT
HETATM    1  C   UNL     1      -9.405  12.847  67.118  1.00  0.00    -0.229 C  
HETATM    2  O   UNL     1      -9.926  12.083  68.210  1.00  0.00    -0.194 OA 
ENDROOT
BRANCH   2   3
HETATM    3  C   UNL     1     -11.063  11.385  68.000  1.00  0.00    -0.257 C  
HETATM    4  O   UNL     1     -12.111  11.856  67.584  1.00  0.00    -0.568 OA 
BRANCH   3   5
HETATM    5  C   UNL     1     -10.887   9.957  68.395  1.00  0.00    -0.263 C  
HETATM    6  C   UNL     1     -11.164   9.597  69.673  1.00  0.00    -0.141 C  
HETATM    7  C   UNL     1     -11.499  10.526  70.819  1.00  0.00    -0.376 C  
HETATM    8  N   UNL     1     -11.149   8.263  70.026  1.00  0.00    -0.200 NA 
HETATM    9  C   UNL     1     -10.781   7.220  69.204  1.00  0.00    -0.185 C  
HETATM   10  C   UNL     1     -10.791   5.859  69.864  1.00  0.00    -0.439 C  
HETATM   11  C   UNL     1     -10.451   7.459  67.909  1.00  0.00    -0.265 C  
HETATM   12  C   UNL     1     -10.541   8.885  67.329  1.00  0.00    -0.304 C  
BRANCH  11  13
HETATM   13  C   UNL     1      -9.907   6.334  67.097  1.00  0.00    -0.142 C  
HETATM   14  O   UNL     1     -10.575   5.721  66.270  1.00  0.00    -0.168 OA 
BRANCH  13  15
HETATM   15  O   UNL     1      -8.625   6.021  67.408  1.00  0.00    -0.105 OA 
BRANCH  15  16
HETATM   16  C   UNL     1      -7.967   5.183  66.428  1.00  0.00    -0.104 C  
HETATM   17  C   UNL     1      -6.830   4.434  67.106  1.00  0.00    -0.052 C  
HETATM   18  C   UNL     1      -7.445   6.045  65.280  1.00  0.00    -0.083 C  
ENDBRANCH  15  16
ENDBRANCH  13  15
ENDBRANCH  11  13
BRANCH  12  19
HETATM   19  C   UNL     1      -9.314   9.244  66.509  1.00  0.00    -0.231 A  
HETATM   20  C   UNL     1      -8.021   9.422  67.070  1.00  0.00    -0.102 A  
HETATM   21  C   UNL     1      -9.339   9.389  65.096  1.00  0.00    -0.288 A  
HETATM   22  N   UNL     1      -7.631   9.340  68.348  1.00  0.00    -0.085 NA 
HETATM   23  O   UNL     1      -6.269   9.582  68.349  1.00  0.00    -0.048 OA 
HETATM   24  C   UNL     1      -8.191   9.689  64.315  1.00  0.00    -0.156 A  
HETATM   25  C   UNL     1      -6.908   9.863  64.864  1.00  0.00    -0.127 A  
HETATM   26  C   UNL     1      -6.847   9.722  66.261  1.00  0.00    -0.092 A  
HETATM   27  N   UNL     1      -5.787   9.814  67.074  1.00  0.00    -0.051 NA 
ENDBRANCH  12  19
ENDBRANCH   3   5
ENDBRANCH   2   3
TORSDOF 6
ENDMDL
MODEL      107
REMARK 921   NORMALIZED FREE ENERGY PREDICTED BY IDOCK:   -3.99 KCAL/MOL
REMARK 922        TOTAL FREE ENERGY PREDICTED BY IDOCK:   -6.85 KCAL/MOL
REMARK 923 INTER-LIGAND FREE ENERGY PREDICTED BY IDOCK:   -5.57 KCAL/MOL
REMARK 924 INTRA-LIGAND FREE ENERGY PREDICTED BY IDOCK:   -1.28 KCAL/MOL
REMARK 927      BINDING AFFINITY PREDICTED BY RF-SCORE:    0.00 PKD
ROOT
HETATM    1  C   UNL     1     -10.291   6.546  73.906  1.00  0.00    -0.335 C  
HETATM    2  O   UNL     1     -11.081   7.566  73.286  1.00  0.00    -0.378 OA 
ENDROOT
BRANCH   2   3
HETATM    3  C   UNL     1     -11.574   7.313  72.055  1.00  0.00    -0.274 C  
HETATM    4  O   UNL     1     -12.285   6.362  71.763  1.00  0.00    -0.342 OA 
BRANCH   3   5
HETATM    5  C   UNL     1     -11.093   8.328  71.073  1.00  0.00    -0.284 C  
HETATM    6  C   UNL     1     -11.863   9.418  70.834  1.00  0.00    -0.294 C  
HETATM    7  C   UNL     1     -13.263   9.665  71.351  1.00  0.00    -0.469 C  
HETATM    8  N   UNL     1     -11.378  10.439  70.042  1.00  0.00    -0.290 NA 
HETATM    9  C   UNL     1     -10.176  10.427  69.367  1.00  0.00    -0.234 C  
HETATM   10  C   UNL     1      -9.915  11.650  68.515  1.00  0.00    -0.198 C  
HETATM   11  C   UNL     1      -9.331   9.374  69.502  1.00  0.00    -0.187 C  
HETATM   12  C   UNL     1      -9.677   8.209  70.453  1.00  0.00    -0.179 C  
BRANCH  11  13
HETATM   13  C   UNL     1      -8.118   9.322  68.637  1.00  0.00    -0.105 C  
HETATM   14  O   UNL     1      -8.167   9.382  67.412  1.00  0.00    -0.119 OA 
BRANCH  13  15
HETATM   15  O   UNL     1      -6.970   9.142  69.335  1.00  0.00    -0.051 OA 
BRANCH  15  16
HETATM   16  C   UNL     1      -6.793  10.072  70.430  1.00  0.00    -0.136 C  
HETATM   17  C   UNL     1      -6.067  11.306  69.914  1.00  0.00    -0.130 C  
HETATM   18  C   UNL     1      -6.003   9.403  71.552  1.00  0.00    -0.054 C  
ENDBRANCH  15  16
ENDBRANCH  13  15
ENDBRANCH  11  13
BRANCH  12  19
HETATM   19  C   UNL     1      -9.425   6.856  69.811  1.00  0.00    -0.145 A  
HETATM   20  C   UNL     1     -10.039   6.436  68.600  1.00  0.00    -0.158 A  
HETATM   21  C   UNL     1      -8.514   5.903  70.339  1.00  0.00    -0.131 A  
HETATM   22  N   UNL     1     -10.923   7.082  67.828  1.00  0.00    -0.197 NA 
HETATM   23  O   UNL     1     -11.186   6.239  66.763  1.00  0.00    -0.310 OA 
HETATM   24  C   UNL     1      -8.244   4.649  69.728  1.00  0.00    -0.069 A  
HETATM   25  C   UNL     1      -8.846   4.229  68.529  1.00  0.00    -0.134 A  
HETATM   26  C   UNL     1      -9.751   5.153  67.976  1.00  0.00    -0.146 A  
HETATM   27  N   UNL     1     -10.469   5.060  66.850  1.00  0.00    -0.221 NA 
ENDBRANCH  12  19
ENDBRANCH   3   5
ENDBRANCH   2   3
TORSDOF 6
ENDMDL
MODEL      108
REMARK 921   NORMALIZED FREE ENERGY PREDICTED BY IDOCK:   -3.98 KCAL/MOL
REMARK 922        TOTAL FREE ENERGY PREDICTED BY IDOCK:   -6.83 KCAL/MOL
REMARK 923 INTER-LIGAND FREE ENERGY PREDICTED BY IDOCK:   -6.34 KCAL/MOL
REMARK 924 INTRA-LIGAND FREE ENERGY PREDICTED BY IDOCK:   -0.50 KCAL/MOL
REMARK 927      BINDING AFFINITY PREDICTED BY RF-SCORE:    0.00 PKD
ROOT
HETATM    1  C   UNL     1      -5.142  18.378  68.958  1.00  0.00    -0.183 C  
HETATM    2  O   UNL     1      -5.588  17.053  68.652  1.00  0.00    -0.130 OA 
ENDROOT
BRANCH   2   3
HETATM    3  C   UNL     1      -6.090  16.312  69.663  1.00  0.00    -0.190 C  
HETATM    4  O   UNL     1      -5.687  16.332  70.816  1.00  0.00    -0.061 OA 
BRANCH   3   5
HETATM    5  C   UNL     1      -7.179  15.418  69.174  1.00  0.00    -0.171 C  
HETATM    6  C   UNL     1      -6.949  14.082  69.121  1.00  0.00    -0.103 C  
HETATM    7  C   UNL     1      -5.629  13.384  69.367  1.00  0.00    -0.082 C  
HETATM    8  N   UNL     1      -7.982  13.221  68.811  1.00  0.00    -0.033 NA 
HETATM    9  C   UNL     1      -9.258  13.598  68.449  1.00  0.00    -0.169 C  
HETATM   10  C   UNL     1     -10.181  12.453  68.095  1.00  0.00    -0.225 C  
HETATM   11  C   UNL     1      -9.600  14.911  68.434  1.00  0.00    -0.209 C  
HETATM   12  C   UNL     1      -8.590  15.989  68.877  1.00  0.00    -0.229 C  
BRANCH  11  13
HETATM   13  C   UNL     1     -10.933  15.290  67.885  1.00  0.00    -0.306 C  
HETATM   14  O   UNL     1     -11.705  16.048  68.465  1.00  0.00    -0.375 OA 
BRANCH  13  15
HETATM   15  O   UNL     1     -11.228  14.668  66.717  1.00  0.00    -0.328 OA 
BRANCH  15  16
HETATM   16  C   UNL     1     -10.407  15.087  65.601  1.00  0.00    -0.353 C  
HETATM   17  C   UNL     1     -11.032  16.319  64.965  1.00  0.00    -0.311 C  
HETATM   18  C   UNL     1     -10.292  13.949  64.590  1.00  0.00    -0.366 C  
ENDBRANCH  15  16
ENDBRANCH  13  15
ENDBRANCH  11  13
BRANCH  12  19
HETATM   19  C   UNL     1      -8.558  17.168  67.921  1.00  0.00    -0.214 A  
HETATM   20  C   UNL     1      -9.241  18.391  68.162  1.00  0.00    -0.312 A  
HETATM   21  C   UNL     1      -7.804  17.174  66.717  1.00  0.00    -0.277 A  
HETATM   22  N   UNL     1     -10.019  18.740  69.195  1.00  0.00    -0.306 NA 
HETATM   23  O   UNL     1     -10.419  20.041  68.948  1.00  0.00    -0.345 OA 
HETATM   24  C   UNL     1      -7.738  18.284  65.834  1.00  0.00    -0.121 A  
HETATM   25  C   UNL     1      -8.409  19.498  66.068  1.00  0.00    -0.261 A  
HETATM   26  C   UNL     1      -9.162  19.528  67.255  1.00  0.00    -0.315 A  
HETATM   27  N   UNL     1      -9.896  20.525  67.764  1.00  0.00    -0.361 NA 
ENDBRANCH  12  19
ENDBRANCH   3   5
ENDBRANCH   2   3
TORSDOF 6
ENDMDL
MODEL      109
REMARK 921   NORMALIZED FREE ENERGY PREDICTED BY IDOCK:   -3.98 KCAL/MOL
REMARK 922        TOTAL FREE ENERGY PREDICTED BY IDOCK:   -6.82 KCAL/MOL
REMARK 923 INTER-LIGAND FREE ENERGY PREDICTED BY IDOCK:   -5.36 KCAL/MOL
REMARK 924 INTRA-LIGAND FREE ENERGY PREDICTED BY IDOCK:   -1.46 KCAL/MOL
REMARK 927      BINDING AFFINITY PREDICTED BY RF-SCORE:    0.00 PKD
ROOT
HETATM    1  C   UNL     1      -9.525   3.291  68.072  1.00  0.00    -0.160 C  
HETATM    2  O   UNL     1      -8.911   3.957  66.964  1.00  0.00    -0.113 OA 
ENDROOT
BRANCH   2   3
HETATM    3  C   UNL     1      -9.705   4.695  66.159  1.00  0.00    -0.203 C  
HETATM    4  O   UNL     1     -10.643   4.261  65.507  1.00  0.00    -0.221 OA 
BRANCH   3   5
HETATM    5  C   UNL     1      -9.254   6.116  66.129  1.00  0.00    -0.150 C  
HETATM    6  C   UNL     1      -8.287   6.473  65.247  1.00  0.00    -0.121 C  
HETATM    7  C   UNL     1      -7.483   5.543  64.365  1.00  0.00    -0.068 C  
HETATM    8  N   UNL     1      -7.953   7.804  65.098  1.00  0.00    -0.123 NA 
HETATM    9  C   UNL     1      -8.459   8.846  65.845  1.00  0.00    -0.136 C  
HETATM   10  C   UNL     1      -7.874  10.202  65.520  1.00  0.00    -0.147 C  
HETATM   11  C   UNL     1      -9.412   8.609  66.783  1.00  0.00    -0.250 C  
HETATM   12  C   UNL     1      -9.980   7.189  66.982  1.00  0.00    -0.283 C  
BRANCH  11  13
HETATM   13  C   UNL     1      -9.819   9.729  67.679  1.00  0.00    -0.165 C  
HETATM   14  O   UNL     1      -9.166  10.072  68.660  1.00  0.00    -0.143 OA 
BRANCH  13  15
HETATM   15  O   UNL     1     -11.006  10.285  67.334  1.00  0.00    -0.293 OA 
BRANCH  15  16
HETATM   16  C   UNL     1     -10.939  11.708  67.074  1.00  0.00    -0.288 C  
HETATM   17  C   UNL     1     -11.846  12.431  68.057  1.00  0.00    -0.376 C  
HETATM   18  C   UNL     1     -11.361  11.989  65.634  1.00  0.00    -0.381 C  
ENDBRANCH  15  16
ENDBRANCH  13  15
ENDBRANCH  11  13
BRANCH  12  19
HETATM   19  C   UNL     1     -10.070   6.812  68.450  1.00  0.00    -0.168 A  
HETATM   20  C   UNL     1      -8.939   6.710  69.304  1.00  0.00    -0.135 A  
HETATM   21  C   UNL     1     -11.302   6.574  69.117  1.00  0.00    -0.330 A  
HETATM   22  N   UNL     1      -7.643   6.888  69.021  1.00  0.00    -0.102 NA 
HETATM   23  O   UNL     1      -6.962   6.686  70.208  1.00  0.00    -0.062 OA 
HETATM   24  C   UNL     1     -11.401   6.256  70.497  1.00  0.00    -0.428 A  
HETATM   25  C   UNL     1     -10.286   6.156  71.349  1.00  0.00    -0.260 A  
HETATM   26  C   UNL     1      -9.050   6.392  70.721  1.00  0.00    -0.151 A  
HETATM   27  N   UNL     1      -7.820   6.384  71.249  1.00  0.00    -0.102 NA 
ENDBRANCH  12  19
ENDBRANCH   3   5
ENDBRANCH   2   3
TORSDOF 6
ENDMDL
MODEL      110
REMARK 921   NORMALIZED FREE ENERGY PREDICTED BY IDOCK:   -3.95 KCAL/MOL
REMARK 922        TOTAL FREE ENERGY PREDICTED BY IDOCK:   -6.79 KCAL/MOL
REMARK 923 INTER-LIGAND FREE ENERGY PREDICTED BY IDOCK:   -5.95 KCAL/MOL
REMARK 924 INTRA-LIGAND FREE ENERGY PREDICTED BY IDOCK:   -0.85 KCAL/MOL
REMARK 927      BINDING AFFINITY PREDICTED BY RF-SCORE:    0.00 PKD
ROOT
HETATM    1  C   UNL     1      -7.310  19.598  67.498  1.00  0.00    -0.249 C  
HETATM    2  O   UNL     1      -7.736  18.235  67.591  1.00  0.00    -0.224 OA 
ENDROOT
BRANCH   2   3
HETATM    3  C   UNL     1      -7.734  17.500  66.458  1.00  0.00    -0.275 C  
HETATM    4  O   UNL     1      -6.944  17.633  65.535  1.00  0.00    -0.351 OA 
BRANCH   3   5
HETATM    5  C   UNL     1      -8.866  16.528  66.455  1.00  0.00    -0.317 C  
HETATM    6  C   UNL     1     -10.111  16.982  66.167  1.00  0.00    -0.319 C  
HETATM    7  C   UNL     1     -10.527  18.425  65.985  1.00  0.00    -0.400 C  
HETATM    8  N   UNL     1     -11.149  16.083  66.016  1.00  0.00    -0.077 NA 
HETATM    9  C   UNL     1     -11.067  14.723  66.224  1.00  0.00    -0.341 C  
HETATM   10  C   UNL     1     -12.372  13.976  66.053  1.00  0.00    -0.504 C  
HETATM   11  C   UNL     1      -9.878  14.155  66.549  1.00  0.00    -0.298 C  
HETATM   12  C   UNL     1      -8.598  15.011  66.632  1.00  0.00    -0.246 C  
BRANCH  11  13
HETATM   13  C   UNL     1      -9.860  12.711  66.921  1.00  0.00    -0.234 C  
HETATM   14  O   UNL     1      -9.715  11.811  66.100  1.00  0.00    -0.217 OA 
BRANCH  13  15
HETATM   15  O   UNL     1     -10.079  12.497  68.241  1.00  0.00    -0.219 OA 
BRANCH  15  16
HETATM   16  C   UNL     1     -10.467  11.140  68.563  1.00  0.00    -0.191 C  
HETATM   17  C   UNL     1     -11.736  11.177  69.401  1.00  0.00    -0.402 C  
HETATM   18  C   UNL     1      -9.336  10.445  69.317  1.00  0.00    -0.202 C  
ENDBRANCH  15  16
ENDBRANCH  13  15
ENDBRANCH  11  13
BRANCH  12  19
HETATM   19  C   UNL     1      -7.782  14.697  67.873  1.00  0.00    -0.149 A  
HETATM   20  C   UNL     1      -6.786  13.685  67.922  1.00  0.00    -0.153 A  
HETATM   21  C   UNL     1      -7.908  15.421  69.090  1.00  0.00    -0.212 A  
HETATM   22  N   UNL     1      -6.392  12.836  66.964  1.00  0.00    -0.164 NA 
HETATM   23  O   UNL     1      -5.384  12.071  67.524  1.00  0.00    -0.072 OA 
HETATM   24  C   UNL     1      -7.125  15.159  70.245  1.00  0.00     0.176 A  
HETATM   25  C   UNL     1      -6.136  14.161  70.299  1.00  0.00    -0.164 A  
HETATM   26  C   UNL     1      -5.982  13.429  69.109  1.00  0.00    -0.087 A  
HETATM   27  N   UNL     1      -5.130  12.433  68.834  1.00  0.00    -0.055 NA 
ENDBRANCH  12  19
ENDBRANCH   3   5
ENDBRANCH   2   3
TORSDOF 6
ENDMDL
MODEL      111
REMARK 921   NORMALIZED FREE ENERGY PREDICTED BY IDOCK:   -3.91 KCAL/MOL
REMARK 922        TOTAL FREE ENERGY PREDICTED BY IDOCK:   -6.74 KCAL/MOL
REMARK 923 INTER-LIGAND FREE ENERGY PREDICTED BY IDOCK:   -5.40 KCAL/MOL
REMARK 924 INTRA-LIGAND FREE ENERGY PREDICTED BY IDOCK:   -1.35 KCAL/MOL
REMARK 927      BINDING AFFINITY PREDICTED BY RF-SCORE:    0.00 PKD
ROOT
HETATM    1  C   UNL     1      -6.486  13.452  69.219  1.00  0.00    -0.111 C  
HETATM    2  O   UNL     1      -7.342  12.320  69.038  1.00  0.00    -0.079 OA 
ENDROOT
BRANCH   2   3
HETATM    3  C   UNL     1      -6.931  11.137  69.545  1.00  0.00    -0.111 C  
HETATM    4  O   UNL     1      -6.303  10.998  70.583  1.00  0.00    -0.333 OA 
BRANCH   3   5
HETATM    5  C   UNL     1      -7.303  10.014  68.636  1.00  0.00    -0.081 C  
HETATM    6  C   UNL     1      -6.537   9.783  67.541  1.00  0.00    -0.069 C  
HETATM    7  C   UNL     1      -5.401  10.645  67.036  1.00  0.00    -0.043 C  
HETATM    8  N   UNL     1      -6.772   8.666  66.765  1.00  0.00    -0.068 NA 
HETATM    9  C   UNL     1      -7.804   7.769  66.943  1.00  0.00    -0.107 C  
HETATM   10  C   UNL     1      -7.872   6.667  65.909  1.00  0.00    -0.102 C  
HETATM   11  C   UNL     1      -8.658   7.914  67.988  1.00  0.00    -0.126 C  
HETATM   12  C   UNL     1      -8.451   9.043  69.018  1.00  0.00    -0.132 C  
BRANCH  11  13
HETATM   13  C   UNL     1      -9.852   7.023  68.057  1.00  0.00    -0.138 C  
HETATM   14  O   UNL     1     -10.915   7.285  67.503  1.00  0.00    -0.226 OA 
BRANCH  13  15
HETATM   15  O   UNL     1      -9.661   5.933  68.840  1.00  0.00    -0.127 OA 
BRANCH  15  16
HETATM   16  C   UNL     1      -9.680   6.215  70.260  1.00  0.00    -0.164 C  
HETATM   17  C   UNL     1      -8.646   5.337  70.949  1.00  0.00    -0.133 C  
HETATM   18  C   UNL     1     -11.076   5.955  70.819  1.00  0.00    -0.324 C  
ENDBRANCH  15  16
ENDBRANCH  13  15
ENDBRANCH  11  13
BRANCH  12  19
HETATM   19  C   UNL     1      -9.748   9.762  69.343  1.00  0.00    -0.214 A  
HETATM   20  C   UNL     1     -10.427  10.608  68.425  1.00  0.00    -0.188 A  
HETATM   21  C   UNL     1     -10.427   9.617  70.582  1.00  0.00    -0.379 A  
HETATM   22  N   UNL     1     -10.089  10.949  67.175  1.00  0.00    -0.192 NA 
HETATM   23  O   UNL     1     -11.098  11.778  66.720  1.00  0.00    -0.277 OA 
HETATM   24  C   UNL     1     -11.659  10.257  70.884  1.00  0.00    -0.454 A  
HETATM   25  C   UNL     1     -12.338  11.093  69.979  1.00  0.00    -0.351 A  
HETATM   26  C   UNL     1     -11.694  11.253  68.740  1.00  0.00    -0.338 A  
HETATM   27  N   UNL     1     -12.081  11.965  67.674  1.00  0.00    -0.528 NA 
ENDBRANCH  12  19
ENDBRANCH   3   5
ENDBRANCH   2   3
TORSDOF 6
ENDMDL
MODEL      112
REMARK 921   NORMALIZED FREE ENERGY PREDICTED BY IDOCK:   -3.91 KCAL/MOL
REMARK 922        TOTAL FREE ENERGY PREDICTED BY IDOCK:   -6.74 KCAL/MOL
REMARK 923 INTER-LIGAND FREE ENERGY PREDICTED BY IDOCK:   -5.61 KCAL/MOL
REMARK 924 INTRA-LIGAND FREE ENERGY PREDICTED BY IDOCK:   -1.13 KCAL/MOL
REMARK 927      BINDING AFFINITY PREDICTED BY RF-SCORE:    0.00 PKD
ROOT
HETATM    1  C   UNL     1      -5.811  11.906  70.357  1.00  0.00    -0.155 C  
HETATM    2  O   UNL     1      -6.943  11.041  70.228  1.00  0.00    -0.177 OA 
ENDROOT
BRANCH   2   3
HETATM    3  C   UNL     1      -6.710   9.713  70.156  1.00  0.00    -0.089 C  
HETATM    4  O   UNL     1      -5.864   9.185  69.449  1.00  0.00    -0.034 OA 
BRANCH   3   5
HETATM    5  C   UNL     1      -7.665   8.960  71.020  1.00  0.00    -0.155 C  
HETATM    6  C   UNL     1      -7.236   8.515  72.227  1.00  0.00    -0.056 C  
HETATM    7  C   UNL     1      -5.820   8.565  72.757  1.00  0.00    -0.073 C  
HETATM    8  N   UNL     1      -8.136   7.943  73.104  1.00  0.00    -0.147 NA 
HETATM    9  C   UNL     1      -9.464   7.686  72.837  1.00  0.00    -0.206 C  
HETATM   10  C   UNL     1     -10.212   6.991  73.952  1.00  0.00    -0.388 C  
HETATM   11  C   UNL     1     -10.002   8.058  71.647  1.00  0.00    -0.237 C  
HETATM   12  C   UNL     1      -9.154   8.821  70.609  1.00  0.00    -0.221 C  
BRANCH  11  13
HETATM   13  C   UNL     1     -11.392   7.623  71.330  1.00  0.00    -0.258 C  
HETATM   14  O   UNL     1     -11.760   6.454  71.402  1.00  0.00    -0.311 OA 
BRANCH  13  15
HETATM   15  O   UNL     1     -12.184   8.635  70.900  1.00  0.00    -0.230 OA 
BRANCH  15  16
HETATM   16  C   UNL     1     -12.634   9.522  71.952  1.00  0.00    -0.396 C  
HETATM   17  C   UNL     1     -13.908   8.956  72.560  1.00  0.00    -0.472 C  
HETATM   18  C   UNL     1     -12.873  10.918  71.383  1.00  0.00    -0.554 C  
ENDBRANCH  15  16
ENDBRANCH  13  15
ENDBRANCH  11  13
BRANCH  12  19
HETATM   19  C   UNL     1      -9.328   8.260  69.208  1.00  0.00    -0.155 A  
HETATM   20  C   UNL     1      -9.118   6.894  68.878  1.00  0.00    -0.134 A  
HETATM   21  C   UNL     1      -9.766   9.043  68.107  1.00  0.00    -0.172 A  
HETATM   22  N   UNL     1      -8.728   5.881  69.663  1.00  0.00    -0.126 NA 
HETATM   23  O   UNL     1      -8.695   4.761  68.853  1.00  0.00    -0.088 OA 
HETATM   24  C   UNL     1      -9.968   8.522  66.801  1.00  0.00    -0.351 A  
HETATM   25  C   UNL     1      -9.763   7.171  66.469  1.00  0.00    -0.199 A  
HETATM   26  C   UNL     1      -9.335   6.366  67.539  1.00  0.00    -0.118 A  
HETATM   27  N   UNL     1      -9.067   5.054  67.554  1.00  0.00    -0.114 NA 
ENDBRANCH  12  19
ENDBRANCH   3   5
ENDBRANCH   2   3
TORSDOF 6
ENDMDL
MODEL      113
REMARK 921   NORMALIZED FREE ENERGY PREDICTED BY IDOCK:   -3.91 KCAL/MOL
REMARK 922        TOTAL FREE ENERGY PREDICTED BY IDOCK:   -6.73 KCAL/MOL
REMARK 923 INTER-LIGAND FREE ENERGY PREDICTED BY IDOCK:   -5.10 KCAL/MOL
REMARK 924 INTRA-LIGAND FREE ENERGY PREDICTED BY IDOCK:   -1.63 KCAL/MOL
REMARK 927      BINDING AFFINITY PREDICTED BY RF-SCORE:    0.00 PKD
ROOT
HETATM    1  C   UNL     1      -8.215   4.828  72.188  1.00  0.00    -0.111 C  
HETATM    2  O   UNL     1      -8.779   6.053  71.710  1.00  0.00    -0.137 OA 
ENDROOT
BRANCH   2   3
HETATM    3  C   UNL     1      -9.779   5.971  70.806  1.00  0.00    -0.175 C  
HETATM    4  O   UNL     1     -10.029   4.990  70.121  1.00  0.00    -0.216 OA 
BRANCH   3   5
HETATM    5  C   UNL     1     -10.518   7.264  70.715  1.00  0.00    -0.224 C  
HETATM    6  C   UNL     1     -11.674   7.402  71.409  1.00  0.00    -0.288 C  
HETATM    7  C   UNL     1     -12.404   6.319  72.173  1.00  0.00    -0.193 C  
HETATM    8  N   UNL     1     -12.301   8.632  71.457  1.00  0.00    -0.314 NA 
HETATM    9  C   UNL     1     -11.904   9.760  70.772  1.00  0.00    -0.319 C  
HETATM   10  C   UNL     1     -12.808  10.960  70.950  1.00  0.00    -0.418 C  
HETATM   11  C   UNL     1     -10.777   9.736  70.016  1.00  0.00    -0.326 C  
HETATM   12  C   UNL     1      -9.898   8.470  69.962  1.00  0.00    -0.181 C  
BRANCH  11  13
HETATM   13  C   UNL     1     -10.468  10.921  69.166  1.00  0.00    -0.221 C  
HETATM   14  O   UNL     1      -9.559  11.706  69.418  1.00  0.00     0.279 OA 
BRANCH  13  15
HETATM   15  O   UNL     1     -11.326  11.072  68.127  1.00  0.00    -0.267 OA 
BRANCH  15  16
HETATM   16  C   UNL     1     -10.815  11.899  67.055  1.00  0.00    -0.259 C  
HETATM   17  C   UNL     1     -11.903  12.869  66.621  1.00  0.00    -0.461 C  
HETATM   18  C   UNL     1     -10.373  11.018  65.889  1.00  0.00    -0.315 C  
ENDBRANCH  15  16
ENDBRANCH  13  15
ENDBRANCH  11  13
BRANCH  12  19
HETATM   19  C   UNL     1      -9.480   8.127  68.543  1.00  0.00    -0.144 A  
HETATM   20  C   UNL     1      -8.187   8.397  68.020  1.00  0.00    -0.127 A  
HETATM   21  C   UNL     1     -10.331   7.460  67.621  1.00  0.00    -0.297 A  
HETATM   22  N   UNL     1      -7.138   8.987  68.609  1.00  0.00    -0.070 NA 
HETATM   23  O   UNL     1      -6.123   8.987  67.670  1.00  0.00    -0.049 OA 
HETATM   24  C   UNL     1      -9.938   7.103  66.304  1.00  0.00     0.032 A  
HETATM   25  C   UNL     1      -8.659   7.365  65.781  1.00  0.00    -0.150 A  
HETATM   26  C   UNL     1      -7.789   8.020  66.671  1.00  0.00    -0.098 A  
HETATM   27  N   UNL     1      -6.517   8.395  66.485  1.00  0.00    -0.054 NA 
ENDBRANCH  12  19
ENDBRANCH   3   5
ENDBRANCH   2   3
TORSDOF 6
ENDMDL
MODEL      114
REMARK 921   NORMALIZED FREE ENERGY PREDICTED BY IDOCK:   -3.90 KCAL/MOL
REMARK 922        TOTAL FREE ENERGY PREDICTED BY IDOCK:   -6.72 KCAL/MOL
REMARK 923 INTER-LIGAND FREE ENERGY PREDICTED BY IDOCK:   -5.30 KCAL/MOL
REMARK 924 INTRA-LIGAND FREE ENERGY PREDICTED BY IDOCK:   -1.42 KCAL/MOL
REMARK 927      BINDING AFFINITY PREDICTED BY RF-SCORE:    0.00 PKD
ROOT
HETATM    1  C   UNL     1      -6.986   4.441  67.333  1.00  0.00    -0.063 C  
HETATM    2  O   UNL     1      -7.500   5.777  67.320  1.00  0.00    -0.079 OA 
ENDROOT
BRANCH   2   3
HETATM    3  C   UNL     1      -8.714   5.974  66.763  1.00  0.00    -0.119 C  
HETATM    4  O   UNL     1      -9.666   5.215  66.865  1.00  0.00    -0.136 OA 
BRANCH   3   5
HETATM    5  C   UNL     1      -8.729   7.228  65.956  1.00  0.00    -0.168 C  
HETATM    6  C   UNL     1      -8.275   7.184  64.678  1.00  0.00    -0.025 C  
HETATM    7  C   UNL     1      -7.599   6.013  64.001  1.00  0.00    -0.087 C  
HETATM    8  N   UNL     1      -8.410   8.292  63.866  1.00  0.00    -0.087 NA 
HETATM    9  C   UNL     1      -8.899   9.519  64.258  1.00  0.00    -0.213 C  
HETATM   10  C   UNL     1      -8.879  10.583  63.183  1.00  0.00    -0.216 C  
HETATM   11  C   UNL     1      -9.355   9.696  65.525  1.00  0.00    -0.309 C  
HETATM   12  C   UNL     1      -9.386   8.516  66.517  1.00  0.00    -0.260 C  
BRANCH  11  13
HETATM   13  C   UNL     1      -9.726  11.073  65.959  1.00  0.00    -0.224 C  
HETATM   14  O   UNL     1      -8.916  11.867  66.427  1.00  0.00    -0.202 OA 
BRANCH  13  15
HETATM   15  O   UNL     1     -11.051  11.332  65.841  1.00  0.00    -0.219 OA 
BRANCH  15  16
HETATM   16  C   UNL     1     -11.354  12.532  65.091  1.00  0.00    -0.313 C  
HETATM   17  C   UNL     1     -12.162  13.472  65.972  1.00  0.00    -0.493 C  
HETATM   18  C   UNL     1     -12.128  12.168  63.826  1.00  0.00    -0.620 C  
ENDBRANCH  15  16
ENDBRANCH  13  15
ENDBRANCH  11  13
BRANCH  12  19
HETATM   19  C   UNL     1      -8.847   8.906  67.882  1.00  0.00    -0.133 A  
HETATM   20  C   UNL     1      -9.637   8.912  69.064  1.00  0.00    -0.158 A  
HETATM   21  C   UNL     1      -7.489   9.255  68.112  1.00  0.00    -0.083 A  
HETATM   22  N   UNL     1     -10.934   8.620  69.220  1.00  0.00    -0.056 NA 
HETATM   23  O   UNL     1     -11.199   8.766  70.570  1.00  0.00    -0.255 OA 
HETATM   24  C   UNL     1      -6.967   9.586  69.390  1.00  0.00    -0.050 A  
HETATM   25  C   UNL     1      -7.742   9.592  70.564  1.00  0.00    -0.177 A  
HETATM   26  C   UNL     1      -9.091   9.245  70.373  1.00  0.00    -0.247 A  
HETATM   27  N   UNL     1     -10.073   9.147  71.277  1.00  0.00    -0.309 NA 
ENDBRANCH  12  19
ENDBRANCH   3   5
ENDBRANCH   2   3
TORSDOF 6
ENDMDL
MODEL      115
REMARK 921   NORMALIZED FREE ENERGY PREDICTED BY IDOCK:   -3.87 KCAL/MOL
REMARK 922        TOTAL FREE ENERGY PREDICTED BY IDOCK:   -6.68 KCAL/MOL
REMARK 923 INTER-LIGAND FREE ENERGY PREDICTED BY IDOCK:   -6.34 KCAL/MOL
REMARK 924 INTRA-LIGAND FREE ENERGY PREDICTED BY IDOCK:   -0.34 KCAL/MOL
REMARK 927      BINDING AFFINITY PREDICTED BY RF-SCORE:    0.00 PKD
ROOT
HETATM    1  C   UNL     1      -8.587   6.249  70.686  1.00  0.00    -0.139 C  
HETATM    2  O   UNL     1      -7.894   7.227  71.467  1.00  0.00    -0.090 OA 
ENDROOT
BRANCH   2   3
HETATM    3  C   UNL     1      -8.504   8.415  71.666  1.00  0.00    -0.163 C  
HETATM    4  O   UNL     1      -9.048   8.761  72.704  1.00  0.00    -0.354 OA 
BRANCH   3   5
HETATM    5  C   UNL     1      -8.472   9.241  70.424  1.00  0.00    -0.234 C  
HETATM    6  C   UNL     1      -7.316   9.867  70.088  1.00  0.00    -0.160 C  
HETATM    7  C   UNL     1      -6.058   9.948  70.925  1.00  0.00    -0.082 C  
HETATM    8  N   UNL     1      -7.217  10.517  68.875  1.00  0.00    -0.079 NA 
HETATM    9  C   UNL     1      -8.242  10.680  67.967  1.00  0.00    -0.113 C  
HETATM   10  C   UNL     1      -7.881  11.493  66.744  1.00  0.00    -0.146 C  
HETATM   11  C   UNL     1      -9.458  10.127  68.208  1.00  0.00    -0.147 C  
HETATM   12  C   UNL     1      -9.689   9.262  69.464  1.00  0.00    -0.179 C  
BRANCH  11  13
HETATM   13  C   UNL     1     -10.582  10.457  67.287  1.00  0.00    -0.267 C  
HETATM   14  O   UNL     1     -11.406   9.628  66.913  1.00  0.00     0.263 OA 
BRANCH  13  15
HETATM   15  O   UNL     1     -10.564  11.743  66.860  1.00  0.00    -0.219 OA 
BRANCH  15  16
HETATM   16  C   UNL     1     -11.869  12.366  66.804  1.00  0.00    -0.315 C  
HETATM   17  C   UNL     1     -12.204  12.676  65.353  1.00  0.00    -0.517 C  
HETATM   18  C   UNL     1     -11.870  13.638  67.648  1.00  0.00    -0.404 C  
ENDBRANCH  15  16
ENDBRANCH  13  15
ENDBRANCH  11  13
BRANCH  12  19
HETATM   19  C   UNL     1     -10.988   9.615  70.166  1.00  0.00    -0.320 A  
HETATM   20  C   UNL     1     -11.866   8.647  70.726  1.00  0.00    -0.171 A  
HETATM   21  C   UNL     1     -11.423  10.952  70.372  1.00  0.00    -0.367 A  
HETATM   22  N   UNL     1     -11.760   7.312  70.737  1.00  0.00    -0.306 NA 
HETATM   23  O   UNL     1     -12.869   6.848  71.422  1.00  0.00    -0.366 OA 
HETATM   24  C   UNL     1     -12.618  11.295  71.059  1.00  0.00    -0.495 A  
HETATM   25  C   UNL     1     -13.489  10.342  71.617  1.00  0.00    -0.360 A  
HETATM   26  C   UNL     1     -13.085   9.007  71.436  1.00  0.00    -0.284 A  
HETATM   27  N   UNL     1     -13.679   7.882  71.852  1.00  0.00    -0.325 NA 
ENDBRANCH  12  19
ENDBRANCH   3   5
ENDBRANCH   2   3
TORSDOF 6
ENDMDL
MODEL      116
REMARK 921   NORMALIZED FREE ENERGY PREDICTED BY IDOCK:   -3.86 KCAL/MOL
REMARK 922        TOTAL FREE ENERGY PREDICTED BY IDOCK:   -6.67 KCAL/MOL
REMARK 923 INTER-LIGAND FREE ENERGY PREDICTED BY IDOCK:   -5.55 KCAL/MOL
REMARK 924 INTRA-LIGAND FREE ENERGY PREDICTED BY IDOCK:   -1.12 KCAL/MOL
REMARK 927      BINDING AFFINITY PREDICTED BY RF-SCORE:    0.00 PKD
ROOT
HETATM    1  C   UNL     1      -9.262   2.860  67.148  1.00  0.00    -0.159 C  
HETATM    2  O   UNL     1      -9.615   4.064  67.836  1.00  0.00    -0.174 OA 
ENDROOT
BRANCH   2   3
HETATM    3  C   UNL     1      -8.610   4.834  68.305  1.00  0.00    -0.101 C  
HETATM    4  O   UNL     1      -7.485   4.438  68.568  1.00  0.00    -0.063 OA 
BRANCH   3   5
HETATM    5  C   UNL     1      -9.071   6.238  68.512  1.00  0.00    -0.125 C  
HETATM    6  C   UNL     1      -8.833   7.151  67.538  1.00  0.00    -0.119 C  
HETATM    7  C   UNL     1      -8.001   6.944  66.291  1.00  0.00    -0.108 C  
HETATM    8  N   UNL     1      -9.373   8.417  67.640  1.00  0.00    -0.136 NA 
HETATM    9  C   UNL     1     -10.087   8.900  68.716  1.00  0.00    -0.200 C  
HETATM   10  C   UNL     1     -10.509  10.348  68.598  1.00  0.00    -0.216 C  
HETATM   11  C   UNL     1     -10.362   8.088  69.768  1.00  0.00    -0.219 C  
HETATM   12  C   UNL     1      -9.933   6.607  69.747  1.00  0.00    -0.189 C  
BRANCH  11  13
HETATM   13  C   UNL     1     -10.994   8.686  70.979  1.00  0.00    -0.260 C  
HETATM   14  O   UNL     1     -10.346   9.139  71.917  1.00  0.00    -0.335 OA 
BRANCH  13  15
HETATM   15  O   UNL     1     -12.348   8.622  70.962  1.00  0.00    -0.257 OA 
BRANCH  15  16
HETATM   16  C   UNL     1     -12.987   9.344  72.041  1.00  0.00    -0.423 C  
HETATM   17  C   UNL     1     -14.344   8.715  72.317  1.00  0.00    -0.486 C  
HETATM   18  C   UNL     1     -13.134  10.815  71.662  1.00  0.00    -0.551 C  
ENDBRANCH  15  16
ENDBRANCH  13  15
ENDBRANCH  11  13
BRANCH  12  19
HETATM   19  C   UNL     1      -9.298   6.179  71.058  1.00  0.00    -0.176 A  
HETATM   20  C   UNL     1     -10.017   5.546  72.108  1.00  0.00    -0.178 A  
HETATM   21  C   UNL     1      -7.914   6.330  71.337  1.00  0.00    -0.109 A  
HETATM   22  N   UNL     1     -11.317   5.231  72.177  1.00  0.00    -0.083 NA 
HETATM   23  O   UNL     1     -11.496   4.617  73.404  1.00  0.00    -0.328 OA 
HETATM   24  C   UNL     1      -7.302   5.901  72.545  1.00  0.00    -0.095 A  
HETATM   25  C   UNL     1      -8.008   5.272  73.587  1.00  0.00    -0.109 A  
HETATM   26  C   UNL     1      -9.381   5.102  73.341  1.00  0.00    -0.133 A  
HETATM   27  N   UNL     1     -10.314   4.536  74.116  1.00  0.00    -0.216 NA 
ENDBRANCH  12  19
ENDBRANCH   3   5
ENDBRANCH   2   3
TORSDOF 6
ENDMDL
MODEL      117
REMARK 921   NORMALIZED FREE ENERGY PREDICTED BY IDOCK:   -3.82 KCAL/MOL
REMARK 922        TOTAL FREE ENERGY PREDICTED BY IDOCK:   -6.62 KCAL/MOL
REMARK 923 INTER-LIGAND FREE ENERGY PREDICTED BY IDOCK:   -6.59 KCAL/MOL
REMARK 924 INTRA-LIGAND FREE ENERGY PREDICTED BY IDOCK:   -0.03 KCAL/MOL
REMARK 927      BINDING AFFINITY PREDICTED BY RF-SCORE:    0.00 PKD
ROOT
HETATM    1  C   UNL     1      -7.047  14.736  70.013  1.00  0.00    -0.030 C  
HETATM    2  O   UNL     1      -8.119  14.794  69.067  1.00  0.00    -0.152 OA 
ENDROOT
BRANCH   2   3
HETATM    3  C   UNL     1      -7.795  14.884  67.759  1.00  0.00    -0.152 C  
HETATM    4  O   UNL     1      -6.657  14.969  67.321  1.00  0.00    -0.292 OA 
BRANCH   3   5
HETATM    5  C   UNL     1      -9.021  14.920  66.911  1.00  0.00    -0.277 C  
HETATM    6  C   UNL     1      -9.411  16.106  66.381  1.00  0.00    -0.295 C  
HETATM    7  C   UNL     1      -8.817  17.465  66.677  1.00  0.00    -0.278 C  
HETATM    8  N   UNL     1     -10.455  16.142  65.479  1.00  0.00    -0.438 NA 
HETATM    9  C   UNL     1     -11.234  15.066  65.110  1.00  0.00    -0.388 C  
HETATM   10  C   UNL     1     -12.357  15.395  64.151  1.00  0.00    -0.015 C  
HETATM   11  C   UNL     1     -10.960  13.830  65.599  1.00  0.00    -0.288 C  
HETATM   12  C   UNL     1      -9.746  13.605  66.522  1.00  0.00    -0.298 C  
BRANCH  11  13
HETATM   13  C   UNL     1     -11.915  12.724  65.306  1.00  0.00    -0.429 C  
HETATM   14  O   UNL     1     -13.133  12.875  65.300  1.00  0.00    -0.682 OA 
BRANCH  13  15
HETATM   15  O   UNL     1     -11.306  11.529  65.108  1.00  0.00    -0.208 OA 
BRANCH  15  16
HETATM   16  C   UNL     1     -11.146  11.171  63.715  1.00  0.00    -0.077 C  
HETATM   17  C   UNL     1      -9.682  11.325  63.332  1.00  0.00    -0.385 C  
HETATM   18  C   UNL     1     -12.033  12.061  62.848  1.00  0.00     0.166 C  
ENDBRANCH  15  16
ENDBRANCH  13  15
ENDBRANCH  11  13
BRANCH  12  19
HETATM   19  C   UNL     1     -10.096  12.748  67.726  1.00  0.00    -0.224 A  
HETATM   20  C   UNL     1     -11.079  13.110  68.686  1.00  0.00    -0.269 A  
HETATM   21  C   UNL     1      -9.506  11.480  67.977  1.00  0.00    -0.181 A  
HETATM   22  N   UNL     1     -11.840  14.210  68.750  1.00  0.00    -0.336 NA 
HETATM   23  O   UNL     1     -12.639  14.058  69.869  1.00  0.00    -0.304 OA 
HETATM   24  C   UNL     1      -9.852  10.654  69.079  1.00  0.00    -0.218 A  
HETATM   25  C   UNL     1     -10.826  11.005  70.031  1.00  0.00    -0.054 A  
HETATM   26  C   UNL     1     -11.435  12.253  69.809  1.00  0.00    -0.166 A  
HETATM   27  N   UNL     1     -12.394  12.862  70.517  1.00  0.00    -0.324 NA 
ENDBRANCH  12  19
ENDBRANCH   3   5
ENDBRANCH   2   3
TORSDOF 6
ENDMDL
MODEL      118
REMARK 921   NORMALIZED FREE ENERGY PREDICTED BY IDOCK:   -3.81 KCAL/MOL
REMARK 922        TOTAL FREE ENERGY PREDICTED BY IDOCK:   -6.60 KCAL/MOL
REMARK 923 INTER-LIGAND FREE ENERGY PREDICTED BY IDOCK:   -5.71 KCAL/MOL
REMARK 924 INTRA-LIGAND FREE ENERGY PREDICTED BY IDOCK:   -0.89 KCAL/MOL
REMARK 927      BINDING AFFINITY PREDICTED BY RF-SCORE:    0.00 PKD
ROOT
HETATM    1  C   UNL     1      -8.340   5.524  65.534  1.00  0.00    -0.136 C  
HETATM    2  O   UNL     1      -8.747   6.207  66.724  1.00  0.00    -0.113 OA 
ENDROOT
BRANCH   2   3
HETATM    3  C   UNL     1     -10.072   6.350  66.941  1.00  0.00    -0.187 C  
HETATM    4  O   UNL     1     -10.950   5.716  66.373  1.00  0.00    -0.218 OA 
BRANCH   3   5
HETATM    5  C   UNL     1     -10.333   7.429  67.937  1.00  0.00    -0.258 C  
HETATM    6  C   UNL     1     -10.321   8.719  67.516  1.00  0.00    -0.268 C  
HETATM    7  C   UNL     1      -9.918   9.217  66.146  1.00  0.00    -0.348 C  
HETATM    8  N   UNL     1     -10.699   9.724  68.382  1.00  0.00    -0.228 NA 
HETATM    9  C   UNL     1     -11.018   9.558  69.713  1.00  0.00    -0.223 C  
HETATM   10  C   UNL     1     -11.334  10.839  70.454  1.00  0.00    -0.342 C  
HETATM   11  C   UNL     1     -11.033   8.315  70.259  1.00  0.00    -0.233 C  
HETATM   12  C   UNL     1     -10.755   7.075  69.386  1.00  0.00    -0.259 C  
BRANCH  11  13
HETATM   13  C   UNL     1     -11.224   8.189  71.732  1.00  0.00    -0.272 C  
HETATM   14  O   UNL     1     -12.247   7.737  72.237  1.00  0.00    -0.302 OA 
BRANCH  13  15
HETATM   15  O   UNL     1     -10.184   8.679  72.450  1.00  0.00    -0.312 OA 
BRANCH  15  16
HETATM   16  C   UNL     1      -9.318   7.661  73.004  1.00  0.00    -0.210 C  
HETATM   17  C   UNL     1     -10.106   6.842  74.016  1.00  0.00    -0.383 C  
HETATM   18  C   UNL     1      -8.105   8.317  73.659  1.00  0.00    -0.248 C  
ENDBRANCH  15  16
ENDBRANCH  13  15
ENDBRANCH  11  13
BRANCH  12  19
HETATM   19  C   UNL     1      -9.796   6.109  70.059  1.00  0.00    -0.207 A  
HETATM   20  C   UNL     1      -8.400   6.348  70.182  1.00  0.00    -0.134 A  
HETATM   21  C   UNL     1     -10.214   4.897  70.672  1.00  0.00    -0.282 A  
HETATM   22  N   UNL     1      -7.675   7.386  69.747  1.00  0.00    -0.101 NA 
HETATM   23  O   UNL     1      -6.373   7.134  70.140  1.00  0.00    -0.030 OA 
HETATM   24  C   UNL     1      -9.331   4.005  71.336  1.00  0.00    -0.212 A  
HETATM   25  C   UNL     1      -7.950   4.236  71.463  1.00  0.00    -0.082 A  
HETATM   26  C   UNL     1      -7.503   5.431  70.872  1.00  0.00    -0.087 A  
HETATM   27  N   UNL     1      -6.265   5.940  70.829  1.00  0.00    -0.033 NA 
ENDBRANCH  12  19
ENDBRANCH   3   5
ENDBRANCH   2   3
TORSDOF 6
ENDMDL
MODEL      119
REMARK 921   NORMALIZED FREE ENERGY PREDICTED BY IDOCK:   -3.78 KCAL/MOL
REMARK 922        TOTAL FREE ENERGY PREDICTED BY IDOCK:   -6.55 KCAL/MOL
REMARK 923 INTER-LIGAND FREE ENERGY PREDICTED BY IDOCK:   -5.17 KCAL/MOL
REMARK 924 INTRA-LIGAND FREE ENERGY PREDICTED BY IDOCK:   -1.39 KCAL/MOL
REMARK 927      BINDING AFFINITY PREDICTED BY RF-SCORE:    0.00 PKD
ROOT
HETATM    1  C   UNL     1      -5.660  10.793  64.662  1.00  0.00    -0.007 C  
HETATM    2  O   UNL     1      -6.338   9.797  65.433  1.00  0.00    -0.071 OA 
ENDROOT
BRANCH   2   3
HETATM    3  C   UNL     1      -7.639   9.568  65.155  1.00  0.00    -0.112 C  
HETATM    4  O   UNL     1      -8.235   9.999  64.180  1.00  0.00    -0.145 OA 
BRANCH   3   5
HETATM    5  C   UNL     1      -8.276   8.756  66.232  1.00  0.00    -0.115 C  
HETATM    6  C   UNL     1      -8.438   7.424  66.032  1.00  0.00    -0.148 C  
HETATM    7  C   UNL     1      -8.174   6.665  64.750  1.00  0.00    -0.064 C  
HETATM    8  N   UNL     1      -8.891   6.627  67.064  1.00  0.00    -0.112 NA 
HETATM    9  C   UNL     1      -9.297   7.074  68.303  1.00  0.00    -0.126 C  
HETATM   10  C   UNL     1      -9.812   5.995  69.229  1.00  0.00    -0.191 C  
HETATM   11  C   UNL     1      -9.213   8.394  68.611  1.00  0.00    -0.143 C  
HETATM   12  C   UNL     1      -8.609   9.395  67.605  1.00  0.00    -0.116 C  
BRANCH  11  13
HETATM   13  C   UNL     1      -9.808   8.862  69.895  1.00  0.00    -0.182 C  
HETATM   14  O   UNL     1      -9.131   9.228  70.852  1.00  0.00    -0.241 OA 
BRANCH  13  15
HETATM   15  O   UNL     1     -11.161   8.785  69.917  1.00  0.00    -0.220 OA 
BRANCH  15  16
HETATM   16  C   UNL     1     -11.732   8.796  71.247  1.00  0.00    -0.298 C  
HETATM   17  C   UNL     1     -12.659   7.599  71.393  1.00  0.00    -0.359 C  
HETATM   18  C   UNL     1     -12.488  10.102  71.473  1.00  0.00    -0.526 C  
ENDBRANCH  15  16
ENDBRANCH  13  15
ENDBRANCH  11  13
BRANCH  12  19
HETATM   19  C   UNL     1      -9.448  10.654  67.481  1.00  0.00    -0.169 A  
HETATM   20  C   UNL     1      -9.022  11.929  67.942  1.00  0.00    -0.179 A  
HETATM   21  C   UNL     1     -10.720  10.682  66.849  1.00  0.00    -0.297 A  
HETATM   22  N   UNL     1      -7.884  12.272  68.559  1.00  0.00    -0.130 NA 
HETATM   23  O   UNL     1      -7.963  13.636  68.775  1.00  0.00    -0.117 OA 
HETATM   24  C   UNL     1     -11.497  11.860  66.695  1.00  0.00    -0.382 A  
HETATM   25  C   UNL     1     -11.080  13.125  67.147  1.00  0.00    -0.305 A  
HETATM   26  C   UNL     1      -9.822  13.134  67.773  1.00  0.00    -0.228 A  
HETATM   27  N   UNL     1      -9.146  14.166  68.295  1.00  0.00    -0.186 NA 
ENDBRANCH  12  19
ENDBRANCH   3   5
ENDBRANCH   2   3
TORSDOF 6
ENDMDL
MODEL      120
REMARK 921   NORMALIZED FREE ENERGY PREDICTED BY IDOCK:   -3.76 KCAL/MOL
REMARK 922        TOTAL FREE ENERGY PREDICTED BY IDOCK:   -6.53 KCAL/MOL
REMARK 923 INTER-LIGAND FREE ENERGY PREDICTED BY IDOCK:   -5.77 KCAL/MOL
REMARK 924 INTRA-LIGAND FREE ENERGY PREDICTED BY IDOCK:   -0.76 KCAL/MOL
REMARK 927      BINDING AFFINITY PREDICTED BY RF-SCORE:    0.00 PKD
ROOT
HETATM    1  C   UNL     1      -7.448  19.785  68.711  1.00  0.00    -0.285 C  
HETATM    2  O   UNL     1      -8.470  19.091  67.990  1.00  0.00    -0.284 OA 
ENDROOT
BRANCH   2   3
HETATM    3  C   UNL     1      -8.241  18.818  66.687  1.00  0.00    -0.289 C  
HETATM    4  O   UNL     1      -7.342  19.300  66.015  1.00  0.00    -0.260 OA 
BRANCH   3   5
HETATM    5  C   UNL     1      -9.271  17.880  66.154  1.00  0.00    -0.135 C  
HETATM    6  C   UNL     1     -10.388  18.397  65.583  1.00  0.00    -0.039 C  
HETATM    7  C   UNL     1     -10.794  19.854  65.553  1.00  0.00    -0.232 C  
HETATM    8  N   UNL     1     -11.286  17.558  64.955  1.00  0.00    -0.635 NA 
HETATM    9  C   UNL     1     -11.209  16.182  64.921  1.00  0.00    -0.285 C  
HETATM   10  C   UNL     1     -12.362  15.500  64.220  1.00  0.00    -0.009 C  
HETATM   11  C   UNL     1     -10.152  15.546  65.487  1.00  0.00    -0.406 C  
HETATM   12  C   UNL     1      -9.000  16.354  66.120  1.00  0.00    -0.367 C  
BRANCH  11  13
HETATM   13  C   UNL     1     -10.181  14.058  65.572  1.00  0.00    -0.343 C  
HETATM   14  O   UNL     1     -10.406  13.452  66.615  1.00  0.00    -0.262 OA 
BRANCH  13  15
HETATM   15  O   UNL     1      -9.876  13.450  64.400  1.00  0.00    -0.168 OA 
BRANCH  15  16
HETATM   16  C   UNL     1     -10.463  12.136  64.246  1.00  0.00    -0.339 C  
HETATM   17  C   UNL     1      -9.508  11.260  63.450  1.00  0.00    -0.307 C  
HETATM   18  C   UNL     1     -11.812  12.253  63.541  1.00  0.00    -0.601 C  
ENDBRANCH  15  16
ENDBRANCH  13  15
ENDBRANCH  11  13
BRANCH  12  19
HETATM   19  C   UNL     1      -8.591  15.798  67.472  1.00  0.00    -0.180 A  
HETATM   20  C   UNL     1      -7.279  15.337  67.766  1.00  0.00    -0.165 A  
HETATM   21  C   UNL     1      -9.471  15.731  68.585  1.00  0.00    -0.208 A  
HETATM   22  N   UNL     1      -6.202  15.276  66.971  1.00  0.00    -0.138 NA 
HETATM   23  O   UNL     1      -5.180  14.766  67.751  1.00  0.00    -0.252 OA 
HETATM   24  C   UNL     1      -9.089  15.247  69.864  1.00  0.00     0.099 A  
HETATM   25  C   UNL     1      -7.792  14.792  70.162  1.00  0.00     0.537 A  
HETATM   26  C   UNL     1      -6.892  14.849  69.083  1.00  0.00    -0.132 A  
HETATM   27  N   UNL     1      -5.599  14.506  69.043  1.00  0.00    -0.084 NA 
ENDBRANCH  12  19
ENDBRANCH   3   5
ENDBRANCH   2   3
TORSDOF 6
ENDMDL
MODEL      121
REMARK 921   NORMALIZED FREE ENERGY PREDICTED BY IDOCK:   -3.76 KCAL/MOL
REMARK 922        TOTAL FREE ENERGY PREDICTED BY IDOCK:   -6.53 KCAL/MOL
REMARK 923 INTER-LIGAND FREE ENERGY PREDICTED BY IDOCK:   -5.63 KCAL/MOL
REMARK 924 INTRA-LIGAND FREE ENERGY PREDICTED BY IDOCK:   -0.89 KCAL/MOL
REMARK 927      BINDING AFFINITY PREDICTED BY RF-SCORE:    0.00 PKD
ROOT
HETATM    1  C   UNL     1      -7.323  19.564  68.512  1.00  0.00    -0.333 C  
HETATM    2  O   UNL     1      -8.401  18.936  67.811  1.00  0.00    -0.271 OA 
ENDROOT
BRANCH   2   3
HETATM    3  C   UNL     1      -8.247  18.727  66.486  1.00  0.00    -0.291 C  
HETATM    4  O   UNL     1      -7.377  19.230  65.791  1.00  0.00    -0.322 OA 
BRANCH   3   5
HETATM    5  C   UNL     1      -9.320  17.831  65.963  1.00  0.00    -0.059 C  
HETATM    6  C   UNL     1     -10.420  18.393  65.403  1.00  0.00     0.292 C  
HETATM    7  C   UNL     1     -10.767  19.865  65.376  1.00  0.00    -0.180 C  
HETATM    8  N   UNL     1     -11.358  17.591  64.784  1.00  0.00    -0.532 NA 
HETATM    9  C   UNL     1     -11.338  16.213  64.751  1.00  0.00    -0.249 C  
HETATM   10  C   UNL     1     -12.525  15.579  64.061  1.00  0.00     0.275 C  
HETATM   11  C   UNL     1     -10.302  15.535  65.307  1.00  0.00    -0.416 C  
HETATM   12  C   UNL     1      -9.112  16.295  65.928  1.00  0.00    -0.246 C  
BRANCH  11  13
HETATM   13  C   UNL     1     -10.391  14.050  65.393  1.00  0.00    -0.359 C  
HETATM   14  O   UNL     1     -10.732  13.458  66.412  1.00  0.00    -0.283 OA 
BRANCH  13  15
HETATM   15  O   UNL     1     -10.001  13.424  64.256  1.00  0.00    -0.282 OA 
BRANCH  15  16
HETATM   16  C   UNL     1     -10.568  12.103  64.084  1.00  0.00    -0.365 C  
HETATM   17  C   UNL     1      -9.681  11.307  63.138  1.00  0.00    -0.408 C  
HETATM   18  C   UNL     1     -11.987  12.218  63.534  1.00  0.00    -0.625 C  
ENDBRANCH  15  16
ENDBRANCH  13  15
ENDBRANCH  11  13
BRANCH  12  19
HETATM   19  C   UNL     1      -8.712  15.723  67.276  1.00  0.00    -0.210 A  
HETATM   20  C   UNL     1      -9.554  15.751  68.421  1.00  0.00    -0.200 A  
HETATM   21  C   UNL     1      -7.475  15.063  67.505  1.00  0.00    -0.226 A  
HETATM   22  N   UNL     1     -10.782  16.267  68.559  1.00  0.00    -0.289 NA 
HETATM   23  O   UNL     1     -11.158  16.014  69.866  1.00  0.00    -0.301 OA 
HETATM   24  C   UNL     1      -7.106  14.492  68.752  1.00  0.00    -0.112 A  
HETATM   25  C   UNL     1      -7.935  14.515  69.887  1.00  0.00     0.457 A  
HETATM   26  C   UNL     1      -9.171  15.157  69.694  1.00  0.00    -0.075 A  
HETATM   27  N   UNL     1     -10.175  15.334  70.561  1.00  0.00    -0.027 NA 
ENDBRANCH  12  19
ENDBRANCH   3   5
ENDBRANCH   2   3
TORSDOF 6
ENDMDL
MODEL      122
REMARK 921   NORMALIZED FREE ENERGY PREDICTED BY IDOCK:   -3.75 KCAL/MOL
REMARK 922        TOTAL FREE ENERGY PREDICTED BY IDOCK:   -6.52 KCAL/MOL
REMARK 923 INTER-LIGAND FREE ENERGY PREDICTED BY IDOCK:   -5.14 KCAL/MOL
REMARK 924 INTRA-LIGAND FREE ENERGY PREDICTED BY IDOCK:   -1.38 KCAL/MOL
REMARK 927      BINDING AFFINITY PREDICTED BY RF-SCORE:    0.00 PKD
ROOT
HETATM    1  C   UNL     1      -9.304   3.097  68.328  1.00  0.00    -0.187 C  
HETATM    2  O   UNL     1      -8.725   4.171  67.581  1.00  0.00    -0.102 OA 
ENDROOT
BRANCH   2   3
HETATM    3  C   UNL     1      -9.551   5.149  67.150  1.00  0.00    -0.146 C  
HETATM    4  O   UNL     1     -10.621   4.969  66.589  1.00  0.00    -0.274 OA 
BRANCH   3   5
HETATM    5  C   UNL     1      -8.957   6.494  67.403  1.00  0.00    -0.110 C  
HETATM    6  C   UNL     1      -8.106   7.013  66.483  1.00  0.00    -0.111 C  
HETATM    7  C   UNL     1      -7.557   6.307  65.263  1.00  0.00    -0.090 C  
HETATM    8  N   UNL     1      -7.657   8.310  66.621  1.00  0.00    -0.089 NA 
HETATM    9  C   UNL     1      -7.923   9.141  67.689  1.00  0.00    -0.100 C  
HETATM   10  C   UNL     1      -7.250  10.495  67.622  1.00  0.00    -0.086 C  
HETATM   11  C   UNL     1      -8.737   8.721  68.691  1.00  0.00    -0.134 C  
HETATM   12  C   UNL     1      -9.418   7.340  68.618  1.00  0.00    -0.137 C  
BRANCH  11  13
HETATM   13  C   UNL     1      -8.873   9.581  69.901  1.00  0.00    -0.211 C  
HETATM   14  O   UNL     1      -8.290   9.349  70.955  1.00  0.00    -0.294 OA 
BRANCH  13  15
HETATM   15  O   UNL     1      -9.749  10.602  69.735  1.00  0.00    -0.074 OA 
BRANCH  15  16
HETATM   16  C   UNL     1     -11.135  10.189  69.682  1.00  0.00    -0.263 C  
HETATM   17  C   UNL     1     -11.885  11.103  68.726  1.00  0.00    -0.388 C  
HETATM   18  C   UNL     1     -11.744  10.246  71.081  1.00  0.00    -0.430 C  
ENDBRANCH  15  16
ENDBRANCH  13  15
ENDBRANCH  11  13
BRANCH  12  19
HETATM   19  C   UNL     1      -9.319   6.586  69.933  1.00  0.00    -0.155 A  
HETATM   20  C   UNL     1     -10.430   6.353  70.788  1.00  0.00    -0.222 A  
HETATM   21  C   UNL     1      -8.114   6.003  70.406  1.00  0.00    -0.111 A  
HETATM   22  N   UNL     1     -11.706   6.734  70.646  1.00  0.00    -0.370 NA 
HETATM   23  O   UNL     1     -12.378   6.236  71.748  1.00  0.00    -0.283 OA 
HETATM   24  C   UNL     1      -8.017   5.266  71.616  1.00  0.00    -0.115 A  
HETATM   25  C   UNL     1      -9.113   5.029  72.465  1.00  0.00    -0.144 A  
HETATM   26  C   UNL     1     -10.324   5.588  72.023  1.00  0.00    -0.213 A  
HETATM   27  N   UNL     1     -11.536   5.534  72.591  1.00  0.00    -0.298 NA 
ENDBRANCH  12  19
ENDBRANCH   3   5
ENDBRANCH   2   3
TORSDOF 6
ENDMDL
MODEL      123
REMARK 921   NORMALIZED FREE ENERGY PREDICTED BY IDOCK:   -3.75 KCAL/MOL
REMARK 922        TOTAL FREE ENERGY PREDICTED BY IDOCK:   -6.52 KCAL/MOL
REMARK 923 INTER-LIGAND FREE ENERGY PREDICTED BY IDOCK:   -5.51 KCAL/MOL
REMARK 924 INTRA-LIGAND FREE ENERGY PREDICTED BY IDOCK:   -1.00 KCAL/MOL
REMARK 927      BINDING AFFINITY PREDICTED BY RF-SCORE:    0.00 PKD
ROOT
HETATM    1  C   UNL     1     -13.421   9.535  71.345  1.00  0.00    -0.333 C  
HETATM    2  O   UNL     1     -12.908  10.159  70.164  1.00  0.00    -0.119 OA 
ENDROOT
BRANCH   2   3
HETATM    3  C   UNL     1     -12.027  11.171  70.323  1.00  0.00    -0.373 C  
HETATM    4  O   UNL     1     -12.176  12.119  71.080  1.00  0.00    -0.310 OA 
BRANCH   3   5
HETATM    5  C   UNL     1     -10.861  11.007  69.408  1.00  0.00    -0.278 C  
HETATM    6  C   UNL     1     -10.804  11.767  68.285  1.00  0.00    -0.220 C  
HETATM    7  C   UNL     1     -11.887  12.683  67.760  1.00  0.00    -0.381 C  
HETATM    8  N   UNL     1      -9.670  11.740  67.498  1.00  0.00    -0.178 NA 
HETATM    9  C   UNL     1      -8.578  10.921  67.693  1.00  0.00    -0.124 C  
HETATM   10  C   UNL     1      -7.497  11.046  66.642  1.00  0.00    -0.146 C  
HETATM   11  C   UNL     1      -8.534  10.091  68.766  1.00  0.00    -0.126 C  
HETATM   12  C   UNL     1      -9.671  10.098  69.808  1.00  0.00    -0.232 C  
BRANCH  11  13
HETATM   13  C   UNL     1      -7.416   9.110  68.858  1.00  0.00    -0.075 C  
HETATM   14  O   UNL     1      -6.298   9.405  69.269  1.00  0.00    -0.044 OA 
BRANCH  13  15
HETATM   15  O   UNL     1      -7.743   7.882  68.385  1.00  0.00    -0.109 OA 
BRANCH  15  16
HETATM   16  C   UNL     1      -7.361   7.658  67.007  1.00  0.00    -0.090 C  
HETATM   17  C   UNL     1      -8.619   7.505  66.167  1.00  0.00    -0.159 C  
HETATM   18  C   UNL     1      -6.485   6.411  66.911  1.00  0.00    -0.046 C  
ENDBRANCH  15  16
ENDBRANCH  13  15
ENDBRANCH  11  13
BRANCH  12  19
HETATM   19  C   UNL     1     -10.104   8.693  70.187  1.00  0.00    -0.196 A  
HETATM   20  C   UNL     1      -9.878   8.120  71.468  1.00  0.00    -0.179 A  
HETATM   21  C   UNL     1     -10.820   7.836  69.308  1.00  0.00    -0.091 A  
HETATM   22  N   UNL     1      -9.261   8.645  72.535  1.00  0.00    -0.342 NA 
HETATM   23  O   UNL     1      -9.328   7.682  73.525  1.00  0.00    -0.237 OA 
HETATM   24  C   UNL     1     -11.261   6.534  69.663  1.00  0.00    -0.446 A  
HETATM   25  C   UNL     1     -11.043   5.963  70.930  1.00  0.00    -0.312 A  
HETATM   26  C   UNL     1     -10.341   6.787  71.827  1.00  0.00    -0.199 A  
HETATM   27  N   UNL     1      -9.989   6.546  73.096  1.00  0.00    -0.170 NA 
ENDBRANCH  12  19
ENDBRANCH   3   5
ENDBRANCH   2   3
TORSDOF 6
ENDMDL
MODEL      124
REMARK 921   NORMALIZED FREE ENERGY PREDICTED BY IDOCK:   -3.71 KCAL/MOL
REMARK 922        TOTAL FREE ENERGY PREDICTED BY IDOCK:   -6.46 KCAL/MOL
REMARK 923 INTER-LIGAND FREE ENERGY PREDICTED BY IDOCK:   -5.85 KCAL/MOL
REMARK 924 INTRA-LIGAND FREE ENERGY PREDICTED BY IDOCK:   -0.61 KCAL/MOL
REMARK 927      BINDING AFFINITY PREDICTED BY RF-SCORE:    0.00 PKD
ROOT
HETATM    1  C   UNL     1      -5.306  11.002  69.207  1.00  0.00    -0.040 C  
HETATM    2  O   UNL     1      -6.449  11.113  68.354  1.00  0.00    -0.055 OA 
ENDROOT
BRANCH   2   3
HETATM    3  C   UNL     1      -6.584  12.247  67.634  1.00  0.00    -0.122 C  
HETATM    4  O   UNL     1      -5.723  12.727  66.911  1.00  0.00    -0.280 OA 
BRANCH   3   5
HETATM    5  C   UNL     1      -7.915  12.874  67.877  1.00  0.00    -0.156 C  
HETATM    6  C   UNL     1      -8.013  13.849  68.815  1.00  0.00    -0.059 C  
HETATM    7  C   UNL     1      -6.931  14.289  69.776  1.00  0.00    -0.011 C  
HETATM    8  N   UNL     1      -9.197  14.544  68.959  1.00  0.00    -0.117 NA 
HETATM    9  C   UNL     1     -10.369  14.281  68.281  1.00  0.00    -0.242 C  
HETATM   10  C   UNL     1     -11.540  15.152  68.677  1.00  0.00    -0.358 C  
HETATM   11  C   UNL     1     -10.404  13.304  67.338  1.00  0.00    -0.243 C  
HETATM   12  C   UNL     1      -9.126  12.522  66.974  1.00  0.00    -0.213 C  
BRANCH  11  13
HETATM   13  C   UNL     1     -11.721  12.941  66.742  1.00  0.00    -0.383 C  
HETATM   14  O   UNL     1     -12.252  11.848  66.911  1.00  0.00    -0.493 OA 
BRANCH  13  15
HETATM   15  O   UNL     1     -12.237  13.914  65.952  1.00  0.00    -0.412 OA 
BRANCH  15  16
HETATM   16  C   UNL     1     -11.411  14.248  64.811  1.00  0.00    -0.393 C  
HETATM   17  C   UNL     1     -11.783  15.641  64.326  1.00  0.00    -0.171 C  
HETATM   18  C   UNL     1     -11.614  13.213  63.707  1.00  0.00    -0.481 C  
ENDBRANCH  15  16
ENDBRANCH  13  15
ENDBRANCH  11  13
BRANCH  12  19
HETATM   19  C   UNL     1      -9.379  11.028  66.884  1.00  0.00    -0.189 A  
HETATM   20  C   UNL     1      -9.016  10.237  65.760  1.00  0.00    -0.161 A  
HETATM   21  C   UNL     1      -9.960  10.273  67.937  1.00  0.00    -0.191 A  
HETATM   22  N   UNL     1      -8.435  10.609  64.612  1.00  0.00    -0.134 NA 
HETATM   23  O   UNL     1      -8.288   9.453  63.867  1.00  0.00    -0.153 OA 
HETATM   24  C   UNL     1     -10.168   8.869  67.879  1.00  0.00    -0.274 A  
HETATM   25  C   UNL     1      -9.809   8.081  66.771  1.00  0.00    -0.327 A  
HETATM   26  C   UNL     1      -9.226   8.797  65.711  1.00  0.00    -0.206 A  
HETATM   27  N   UNL     1      -8.769   8.344  64.536  1.00  0.00     0.012 NA 
ENDBRANCH  12  19
ENDBRANCH   3   5
ENDBRANCH   2   3
TORSDOF 6
ENDMDL
MODEL      125
REMARK 921   NORMALIZED FREE ENERGY PREDICTED BY IDOCK:   -3.70 KCAL/MOL
REMARK 922        TOTAL FREE ENERGY PREDICTED BY IDOCK:   -6.45 KCAL/MOL
REMARK 923 INTER-LIGAND FREE ENERGY PREDICTED BY IDOCK:   -5.63 KCAL/MOL
REMARK 924 INTRA-LIGAND FREE ENERGY PREDICTED BY IDOCK:   -0.83 KCAL/MOL
REMARK 927      BINDING AFFINITY PREDICTED BY RF-SCORE:    0.00 PKD
ROOT
HETATM    1  C   UNL     1      -5.145  11.842  66.984  1.00  0.00    -0.109 C  
HETATM    2  O   UNL     1      -6.524  12.176  67.169  1.00  0.00    -0.148 OA 
ENDROOT
BRANCH   2   3
HETATM    3  C   UNL     1      -6.917  12.546  68.407  1.00  0.00    -0.096 C  
HETATM    4  O   UNL     1      -6.203  13.082  69.241  1.00  0.00    -0.091 OA 
BRANCH   3   5
HETATM    5  C   UNL     1      -8.340  12.165  68.646  1.00  0.00    -0.016 C  
HETATM    6  C   UNL     1      -8.660  10.848  68.697  1.00  0.00    -0.153 C  
HETATM    7  C   UNL     1      -7.746   9.684  68.385  1.00  0.00    -0.081 C  
HETATM    8  N   UNL     1      -9.937  10.469  69.059  1.00  0.00    -0.202 NA 
HETATM    9  C   UNL     1     -10.990  11.325  69.299  1.00  0.00    -0.243 C  
HETATM   10  C   UNL     1     -12.303  10.642  69.615  1.00  0.00    -0.209 C  
HETATM   11  C   UNL     1     -10.800  12.668  69.247  1.00  0.00    -0.045 C  
HETATM   12  C   UNL     1      -9.398  13.250  68.977  1.00  0.00     0.399 C  
BRANCH  11  13
HETATM   13  C   UNL     1     -11.991  13.558  69.353  1.00  0.00    -0.330 C  
HETATM   14  O   UNL     1     -12.495  14.120  68.386  1.00  0.00    -0.114 OA 
BRANCH  13  15
HETATM   15  O   UNL     1     -12.420  13.727  70.628  1.00  0.00    -0.340 OA 
BRANCH  15  16
HETATM   16  C   UNL     1     -12.990  15.031  70.892  1.00  0.00    -0.405 C  
HETATM   17  C   UNL     1     -11.887  15.963  71.369  1.00  0.00    -0.524 C  
HETATM   18  C   UNL     1     -14.093  14.909  71.940  1.00  0.00    -0.613 C  
ENDBRANCH  15  16
ENDBRANCH  13  15
ENDBRANCH  11  13
BRANCH  12  19
HETATM   19  C   UNL     1      -9.433  14.371  67.953  1.00  0.00    -0.214 A  
HETATM   20  C   UNL     1      -9.817  14.182  66.598  1.00  0.00    -0.283 A  
HETATM   21  C   UNL     1      -9.130  15.722  68.269  1.00  0.00    -0.187 A  
HETATM   22  N   UNL     1     -10.184  13.059  65.967  1.00  0.00    -0.282 NA 
HETATM   23  O   UNL     1     -10.471  13.429  64.666  1.00  0.00    -0.385 OA 
HETATM   24  C   UNL     1      -9.195  16.784  67.328  1.00  0.00    -0.234 A  
HETATM   25  C   UNL     1      -9.577  16.605  65.987  1.00  0.00    -0.298 A  
HETATM   26  C   UNL     1      -9.889  15.278  65.642  1.00  0.00    -0.348 A  
HETATM   27  N   UNL     1     -10.293  14.785  64.464  1.00  0.00    -0.073 NA 
ENDBRANCH  12  19
ENDBRANCH   3   5
ENDBRANCH   2   3
TORSDOF 6
ENDMDL
MODEL      126
REMARK 921   NORMALIZED FREE ENERGY PREDICTED BY IDOCK:   -3.67 KCAL/MOL
REMARK 922        TOTAL FREE ENERGY PREDICTED BY IDOCK:   -6.42 KCAL/MOL
REMARK 923 INTER-LIGAND FREE ENERGY PREDICTED BY IDOCK:   -5.58 KCAL/MOL
REMARK 924 INTRA-LIGAND FREE ENERGY PREDICTED BY IDOCK:   -0.84 KCAL/MOL
REMARK 927      BINDING AFFINITY PREDICTED BY RF-SCORE:    0.00 PKD
ROOT
HETATM    1  C   UNL     1     -10.852  14.750  65.240  1.00  0.00    -0.383 C  
HETATM    2  O   UNL     1     -10.897  13.582  64.415  1.00  0.00    -0.392 OA 
ENDROOT
BRANCH   2   3
HETATM    3  C   UNL     1     -11.183  12.405  65.012  1.00  0.00    -0.312 C  
HETATM    4  O   UNL     1     -12.308  11.969  65.203  1.00  0.00    -0.423 OA 
BRANCH   3   5
HETATM    5  C   UNL     1      -9.935  11.721  65.460  1.00  0.00    -0.273 C  
HETATM    6  C   UNL     1      -9.247  10.971  64.564  1.00  0.00    -0.164 C  
HETATM    7  C   UNL     1      -9.685  10.615  63.161  1.00  0.00    -0.375 C  
HETATM    8  N   UNL     1      -8.018  10.447  64.911  1.00  0.00    -0.143 NA 
HETATM    9  C   UNL     1      -7.431  10.536  66.155  1.00  0.00    -0.136 C  
HETATM   10  C   UNL     1      -6.107   9.815  66.285  1.00  0.00    -0.064 C  
HETATM   11  C   UNL     1      -8.040  11.235  67.146  1.00  0.00    -0.150 C  
HETATM   12  C   UNL     1      -9.361  11.984  66.877  1.00  0.00    -0.200 C  
BRANCH  11  13
HETATM   13  C   UNL     1      -7.458  11.176  68.517  1.00  0.00    -0.112 C  
HETATM   14  O   UNL     1      -7.315  12.168  69.226  1.00  0.00     0.005 OA 
BRANCH  13  15
HETATM   15  O   UNL     1      -7.052   9.933  68.873  1.00  0.00    -0.067 OA 
BRANCH  15  16
HETATM   16  C   UNL     1      -6.707   9.801  70.272  1.00  0.00    -0.111 C  
HETATM   17  C   UNL     1      -5.196   9.686  70.397  1.00  0.00    -0.032 C  
HETATM   18  C   UNL     1      -7.399   8.574  70.861  1.00  0.00    -0.068 C  
ENDBRANCH  15  16
ENDBRANCH  13  15
ENDBRANCH  11  13
BRANCH  12  19
HETATM   19  C   UNL     1     -10.381  11.755  67.978  1.00  0.00    -0.212 A  
HETATM   20  C   UNL     1     -10.913  12.797  68.784  1.00  0.00    -0.250 A  
HETATM   21  C   UNL     1     -10.934  10.480  68.272  1.00  0.00    -0.314 A  
HETATM   22  N   UNL     1     -10.638  14.108  68.767  1.00  0.00    -0.250 NA 
HETATM   23  O   UNL     1     -11.439  14.678  69.740  1.00  0.00    -0.258 OA 
HETATM   24  C   UNL     1     -11.915  10.259  69.276  1.00  0.00    -0.005 A  
HETATM   25  C   UNL     1     -12.447  11.287  70.075  1.00  0.00    -0.251 A  
HETATM   26  C   UNL     1     -11.924  12.564  69.806  1.00  0.00    -0.289 A  
HETATM   27  N   UNL     1     -12.227  13.737  70.376  1.00  0.00    -0.346 NA 
ENDBRANCH  12  19
ENDBRANCH   3   5
ENDBRANCH   2   3
TORSDOF 6
ENDMDL
MODEL      127
REMARK 921   NORMALIZED FREE ENERGY PREDICTED BY IDOCK:   -3.67 KCAL/MOL
REMARK 922        TOTAL FREE ENERGY PREDICTED BY IDOCK:   -6.41 KCAL/MOL
REMARK 923 INTER-LIGAND FREE ENERGY PREDICTED BY IDOCK:   -5.03 KCAL/MOL
REMARK 924 INTRA-LIGAND FREE ENERGY PREDICTED BY IDOCK:   -1.38 KCAL/MOL
REMARK 927      BINDING AFFINITY PREDICTED BY RF-SCORE:    0.00 PKD
ROOT
HETATM    1  C   UNL     1      -9.342   8.723  68.508  1.00  0.00    -0.141 C  
HETATM    2  O   UNL     1      -9.258  10.150  68.556  1.00  0.00    -0.136 OA 
ENDROOT
BRANCH   2   3
HETATM    3  C   UNL     1      -8.392  10.755  67.714  1.00  0.00    -0.113 C  
HETATM    4  O   UNL     1      -8.121  10.367  66.587  1.00  0.00    -0.117 OA 
BRANCH   3   5
HETATM    5  C   UNL     1      -7.764  11.942  68.362  1.00  0.00    -0.131 C  
HETATM    6  C   UNL     1      -6.818  11.740  69.312  1.00  0.00    -0.093 C  
HETATM    7  C   UNL     1      -6.417  10.413  69.917  1.00  0.00    -0.109 C  
HETATM    8  N   UNL     1      -6.120  12.816  69.823  1.00  0.00    -0.131 NA 
HETATM    9  C   UNL     1      -6.354  14.140  69.520  1.00  0.00    -0.120 C  
HETATM   10  C   UNL     1      -5.487  15.125  70.273  1.00  0.00    -0.127 C  
HETATM   11  C   UNL     1      -7.300  14.471  68.605  1.00  0.00    -0.128 C  
HETATM   12  C   UNL     1      -8.079  13.373  67.853  1.00  0.00    -0.162 C  
BRANCH  11  13
HETATM   13  C   UNL     1      -7.635  15.912  68.420  1.00  0.00    -0.132 C  
HETATM   14  O   UNL     1      -8.168  16.591  69.292  1.00  0.00    -0.208 OA 
BRANCH  13  15
HETATM   15  O   UNL     1      -7.348  16.373  67.179  1.00  0.00    -0.155 OA 
BRANCH  15  16
HETATM   16  C   UNL     1      -7.924  17.667  66.881  1.00  0.00    -0.226 C  
HETATM   17  C   UNL     1      -9.281  17.462  66.224  1.00  0.00    -0.234 C  
HETATM   18  C   UNL     1      -6.987  18.450  65.965  1.00  0.00    -0.310 C  
ENDBRANCH  15  16
ENDBRANCH  13  15
ENDBRANCH  11  13
BRANCH  12  19
HETATM   19  C   UNL     1      -9.569  13.665  67.801  1.00  0.00    -0.224 A  
HETATM   20  C   UNL     1     -10.272  13.942  66.598  1.00  0.00    -0.276 A  
HETATM   21  C   UNL     1     -10.406  13.643  68.949  1.00  0.00    -0.127 A  
HETATM   22  N   UNL     1      -9.811  14.020  65.343  1.00  0.00    -0.240 NA 
HETATM   23  O   UNL     1     -10.909  14.296  64.549  1.00  0.00    -0.381 OA 
HETATM   24  C   UNL     1     -11.805  13.879  68.907  1.00  0.00    -0.393 A  
HETATM   25  C   UNL     1     -12.508  14.150  67.719  1.00  0.00     0.169 A  
HETATM   26  C   UNL     1     -11.709  14.175  66.563  1.00  0.00    -0.397 A  
HETATM   27  N   UNL     1     -12.071  14.390  65.292  1.00  0.00    -0.386 NA 
ENDBRANCH  12  19
ENDBRANCH   3   5
ENDBRANCH   2   3
TORSDOF 6
ENDMDL
MODEL      128
REMARK 921   NORMALIZED FREE ENERGY PREDICTED BY IDOCK:   -3.66 KCAL/MOL
REMARK 922        TOTAL FREE ENERGY PREDICTED BY IDOCK:   -6.40 KCAL/MOL
REMARK 923 INTER-LIGAND FREE ENERGY PREDICTED BY IDOCK:   -5.36 KCAL/MOL
REMARK 924 INTRA-LIGAND FREE ENERGY PREDICTED BY IDOCK:   -1.04 KCAL/MOL
REMARK 927      BINDING AFFINITY PREDICTED BY RF-SCORE:    0.00 PKD
ROOT
HETATM    1  C   UNL     1      -9.628  13.361  66.246  1.00  0.00    -0.235 C  
HETATM    2  O   UNL     1     -10.025  12.515  67.329  1.00  0.00    -0.208 OA 
ENDROOT
BRANCH   2   3
HETATM    3  C   UNL     1     -11.019  11.630  67.100  1.00  0.00    -0.280 C  
HETATM    4  O   UNL     1     -12.059  11.878  66.508  1.00  0.00    -0.568 OA 
BRANCH   3   5
HETATM    5  C   UNL     1     -10.703  10.308  67.714  1.00  0.00    -0.324 C  
HETATM    6  C   UNL     1     -11.024  10.102  69.016  1.00  0.00    -0.226 C  
HETATM    7  C   UNL     1     -11.547  11.135  69.990  1.00  0.00    -0.421 C  
HETATM    8  N   UNL     1     -10.876   8.846  69.567  1.00  0.00    -0.198 NA 
HETATM    9  C   UNL     1     -10.330   7.751  68.932  1.00  0.00    -0.213 C  
HETATM   10  C   UNL     1     -10.223   6.509  69.788  1.00  0.00    -0.221 C  
HETATM   11  C   UNL     1      -9.940   7.842  67.635  1.00  0.00    -0.230 C  
HETATM   12  C   UNL     1     -10.157   9.147  66.842  1.00  0.00    -0.328 C  
BRANCH  11  13
HETATM   13  C   UNL     1      -9.210   6.691  67.031  1.00  0.00    -0.135 C  
HETATM   14  O   UNL     1      -7.996   6.544  67.129  1.00  0.00    -0.109 OA 
BRANCH  13  15
HETATM   15  O   UNL     1     -10.012   5.865  66.316  1.00  0.00    -0.141 OA 
BRANCH  15  16
HETATM   16  C   UNL     1      -9.433   4.566  66.048  1.00  0.00    -0.173 C  
HETATM   17  C   UNL     1     -10.165   3.934  64.873  1.00  0.00    -0.172 C  
HETATM   18  C   UNL     1      -9.537   3.687  67.292  1.00  0.00    -0.194 C  
ENDBRANCH  15  16
ENDBRANCH  13  15
ENDBRANCH  11  13
BRANCH  12  19
HETATM   19  C   UNL     1      -8.928   9.539  66.042  1.00  0.00    -0.198 A  
HETATM   20  C   UNL     1      -8.970   9.908  64.670  1.00  0.00    -0.222 A  
HETATM   21  C   UNL     1      -7.626   9.619  66.605  1.00  0.00    -0.098 A  
HETATM   22  N   UNL     1     -10.018   9.967  63.838  1.00  0.00     0.243 NA 
HETATM   23  O   UNL     1      -9.517  10.398  62.623  1.00  0.00    -0.297 OA 
HETATM   24  C   UNL     1      -6.475  10.019  65.876  1.00  0.00    -0.096 A  
HETATM   25  C   UNL     1      -6.511  10.387  64.519  1.00  0.00    -0.039 A  
HETATM   26  C   UNL     1      -7.786  10.325  63.931  1.00  0.00    -0.115 A  
HETATM   27  N   UNL     1      -8.153  10.619  62.678  1.00  0.00    -0.165 NA 
ENDBRANCH  12  19
ENDBRANCH   3   5
ENDBRANCH   2   3
TORSDOF 6
ENDMDL
MODEL      129
REMARK 921   NORMALIZED FREE ENERGY PREDICTED BY IDOCK:   -3.65 KCAL/MOL
REMARK 922        TOTAL FREE ENERGY PREDICTED BY IDOCK:   -6.39 KCAL/MOL
REMARK 923 INTER-LIGAND FREE ENERGY PREDICTED BY IDOCK:   -5.16 KCAL/MOL
REMARK 924 INTRA-LIGAND FREE ENERGY PREDICTED BY IDOCK:   -1.23 KCAL/MOL
REMARK 927      BINDING AFFINITY PREDICTED BY RF-SCORE:    0.00 PKD
ROOT
HETATM    1  C   UNL     1      -5.800   7.657  68.533  1.00  0.00    -0.028 C  
HETATM    2  O   UNL     1      -5.807   9.088  68.563  1.00  0.00    -0.041 OA 
ENDROOT
BRANCH   2   3
HETATM    3  C   UNL     1      -6.377   9.688  69.631  1.00  0.00    -0.045 C  
HETATM    4  O   UNL     1      -6.094   9.463  70.798  1.00  0.00    -0.052 OA 
BRANCH   3   5
HETATM    5  C   UNL     1      -7.445  10.635  69.198  1.00  0.00    -0.123 C  
HETATM    6  C   UNL     1      -7.161  11.961  69.155  1.00  0.00    -0.020 C  
HETATM    7  C   UNL     1      -5.897  12.629  69.649  1.00  0.00    -0.114 C  
HETATM    8  N   UNL     1      -8.081  12.841  68.623  1.00  0.00    -0.067 NA 
HETATM    9  C   UNL     1      -9.349  12.513  68.193  1.00  0.00    -0.210 C  
HETATM   10  C   UNL     1     -10.179  13.683  67.714  1.00  0.00    -0.242 C  
HETATM   11  C   UNL     1      -9.761  11.219  68.217  1.00  0.00    -0.199 C  
HETATM   12  C   UNL     1      -8.801  10.100  68.668  1.00  0.00    -0.136 C  
BRANCH  11  13
HETATM   13  C   UNL     1     -11.187  10.923  67.896  1.00  0.00    -0.321 C  
HETATM   14  O   UNL     1     -11.525  10.128  67.025  1.00  0.00    -0.033 OA 
BRANCH  13  15
HETATM   15  O   UNL     1     -12.062  11.663  68.619  1.00  0.00    -0.449 OA 
BRANCH  15  16
HETATM   16  C   UNL     1     -12.035  11.390  70.040  1.00  0.00    -0.363 C  
HETATM   17  C   UNL     1     -13.025  10.276  70.346  1.00  0.00    -0.153 C  
HETATM   18  C   UNL     1     -12.383  12.658  70.816  1.00  0.00    -0.372 C  
ENDBRANCH  15  16
ENDBRANCH  13  15
ENDBRANCH  11  13
BRANCH  12  19
HETATM   19  C   UNL     1      -9.468   9.130  69.627  1.00  0.00    -0.178 A  
HETATM   20  C   UNL     1      -9.964   7.857  69.235  1.00  0.00    -0.190 A  
HETATM   21  C   UNL     1      -9.614   9.387  71.016  1.00  0.00    -0.272 A  
HETATM   22  N   UNL     1      -9.972   7.284  68.025  1.00  0.00    -0.152 NA 
HETATM   23  O   UNL     1     -10.553   6.040  68.195  1.00  0.00    -0.211 OA 
HETATM   24  C   UNL     1     -10.203   8.472  71.929  1.00  0.00    -0.369 A  
HETATM   25  C   UNL     1     -10.693   7.210  71.548  1.00  0.00    -0.245 A  
HETATM   26  C   UNL     1     -10.559   6.921  70.179  1.00  0.00    -0.220 A  
HETATM   27  N   UNL     1     -10.911   5.815  69.511  1.00  0.00    -0.354 NA 
ENDBRANCH  12  19
ENDBRANCH   3   5
ENDBRANCH   2   3
TORSDOF 6
ENDMDL
MODEL      130
REMARK 921   NORMALIZED FREE ENERGY PREDICTED BY IDOCK:   -3.65 KCAL/MOL
REMARK 922        TOTAL FREE ENERGY PREDICTED BY IDOCK:   -6.38 KCAL/MOL
REMARK 923 INTER-LIGAND FREE ENERGY PREDICTED BY IDOCK:   -5.14 KCAL/MOL
REMARK 924 INTRA-LIGAND FREE ENERGY PREDICTED BY IDOCK:   -1.24 KCAL/MOL
REMARK 927      BINDING AFFINITY PREDICTED BY RF-SCORE:    0.00 PKD
ROOT
HETATM    1  C   UNL     1      -7.588   3.491  66.555  1.00  0.00    -0.077 C  
HETATM    2  O   UNL     1      -7.974   4.696  67.224  1.00  0.00    -0.100 OA 
ENDROOT
BRANCH   2   3
HETATM    3  C   UNL     1      -9.239   5.134  67.043  1.00  0.00    -0.117 C  
HETATM    4  O   UNL     1     -10.114   4.527  66.443  1.00  0.00    -0.226 OA 
BRANCH   3   5
HETATM    5  C   UNL     1      -9.418   6.492  67.632  1.00  0.00    -0.126 C  
HETATM    6  C   UNL     1      -9.085   7.574  66.885  1.00  0.00    -0.141 C  
HETATM    7  C   UNL     1      -8.394   7.563  65.539  1.00  0.00    -0.137 C  
HETATM    8  N   UNL     1      -9.374   8.842  67.349  1.00  0.00    -0.135 NA 
HETATM    9  C   UNL     1      -9.910   9.140  68.584  1.00  0.00    -0.164 C  
HETATM   10  C   UNL     1     -10.065  10.618  68.867  1.00  0.00    -0.215 C  
HETATM   11  C   UNL     1     -10.256   8.141  69.435  1.00  0.00    -0.211 C  
HETATM   12  C   UNL     1     -10.109   6.666  69.010  1.00  0.00    -0.176 C  
BRANCH  11  13
HETATM   13  C   UNL     1     -10.681   8.502  70.817  1.00  0.00    -0.217 C  
HETATM   14  O   UNL     1      -9.906   8.939  71.662  1.00  0.00    -0.281 OA 
BRANCH  13  15
HETATM   15  O   UNL     1     -11.989   8.240  71.060  1.00  0.00    -0.296 OA 
BRANCH  15  16
HETATM   16  C   UNL     1     -12.675   9.286  71.789  1.00  0.00    -0.381 C  
HETATM   17  C   UNL     1     -13.985   8.731  72.327  1.00  0.00    -0.511 C  
HETATM   18  C   UNL     1     -12.924  10.478  70.869  1.00  0.00    -0.455 C  
ENDBRANCH  15  16
ENDBRANCH  13  15
ENDBRANCH  11  13
BRANCH  12  19
HETATM   19  C   UNL     1      -9.474   5.819  70.098  1.00  0.00    -0.195 A  
HETATM   20  C   UNL     1      -8.169   6.053  70.611  1.00  0.00    -0.120 A  
HETATM   21  C   UNL     1     -10.145   4.744  70.739  1.00  0.00    -0.286 A  
HETATM   22  N   UNL     1      -7.273   6.984  70.260  1.00  0.00    -0.070 NA 
HETATM   23  O   UNL     1      -6.175   6.783  71.078  1.00  0.00    -0.038 OA 
HETATM   24  C   UNL     1      -9.574   3.969  71.784  1.00  0.00    -0.223 A  
HETATM   25  C   UNL     1      -8.285   4.196  72.297  1.00  0.00    -0.098 A  
HETATM   26  C   UNL     1      -7.594   5.258  71.688  1.00  0.00    -0.103 A  
HETATM   27  N   UNL     1      -6.369   5.730  71.952  1.00  0.00    -0.043 NA 
ENDBRANCH  12  19
ENDBRANCH   3   5
ENDBRANCH   2   3
TORSDOF 6
ENDMDL
MODEL      131
REMARK 921   NORMALIZED FREE ENERGY PREDICTED BY IDOCK:   -3.63 KCAL/MOL
REMARK 922        TOTAL FREE ENERGY PREDICTED BY IDOCK:   -6.36 KCAL/MOL
REMARK 923 INTER-LIGAND FREE ENERGY PREDICTED BY IDOCK:   -5.00 KCAL/MOL
REMARK 924 INTRA-LIGAND FREE ENERGY PREDICTED BY IDOCK:   -1.36 KCAL/MOL
REMARK 927      BINDING AFFINITY PREDICTED BY RF-SCORE:    0.00 PKD
ROOT
HETATM    1  C   UNL     1     -13.018   9.876  71.811  1.00  0.00    -0.449 C  
HETATM    2  O   UNL     1     -11.666  10.032  71.370  1.00  0.00    -0.367 OA 
ENDROOT
BRANCH   2   3
HETATM    3  C   UNL     1     -10.811   9.013  71.602  1.00  0.00    -0.366 C  
HETATM    4  O   UNL     1     -10.228   8.810  72.658  1.00  0.00    -0.188 OA 
BRANCH   3   5
HETATM    5  C   UNL     1     -10.626   8.186  70.375  1.00  0.00    -0.226 C  
HETATM    6  C   UNL     1     -11.257   6.988  70.297  1.00  0.00    -0.298 C  
HETATM    7  C   UNL     1     -12.032   6.303  71.400  1.00  0.00    -0.208 C  
HETATM    8  N   UNL     1     -11.220   6.271  69.118  1.00  0.00    -0.397 NA 
HETATM    9  C   UNL     1     -10.506   6.617  67.991  1.00  0.00    -0.216 C  
HETATM   10  C   UNL     1     -10.587   5.618  66.857  1.00  0.00    -0.367 C  
HETATM   11  C   UNL     1      -9.807   7.780  67.960  1.00  0.00    -0.192 C  
HETATM   12  C   UNL     1      -9.851   8.752  69.156  1.00  0.00    -0.181 C  
BRANCH  11  13
HETATM   13  C   UNL     1      -8.921   8.044  66.791  1.00  0.00    -0.144 C  
HETATM   14  O   UNL     1      -9.308   8.607  65.771  1.00  0.00    -0.214 OA 
BRANCH  13  15
HETATM   15  O   UNL     1      -7.669   7.547  66.945  1.00  0.00    -0.105 OA 
BRANCH  15  16
HETATM   16  C   UNL     1      -6.905   7.477  65.718  1.00  0.00    -0.056 C  
HETATM   17  C   UNL     1      -6.411   6.051  65.527  1.00  0.00    -0.038 C  
HETATM   18  C   UNL     1      -5.736   8.456  65.782  1.00  0.00    -0.043 C  
ENDBRANCH  15  16
ENDBRANCH  13  15
ENDBRANCH  11  13
BRANCH  12  19
HETATM   19  C   UNL     1      -8.471   9.267  69.524  1.00  0.00    -0.144 A  
HETATM   20  C   UNL     1      -8.036  10.595  69.268  1.00  0.00    -0.135 A  
HETATM   21  C   UNL     1      -7.502   8.479  70.200  1.00  0.00    -0.060 A  
HETATM   22  N   UNL     1      -8.688  11.603  68.675  1.00  0.00    -0.127 NA 
HETATM   23  O   UNL     1      -7.823  12.682  68.695  1.00  0.00    -0.118 OA 
HETATM   24  C   UNL     1      -6.221   8.961  70.581  1.00  0.00    -0.042 A  
HETATM   25  C   UNL     1      -5.786  10.275  70.333  1.00  0.00    -0.078 A  
HETATM   26  C   UNL     1      -6.724  11.084  69.669  1.00  0.00    -0.137 A  
HETATM   27  N   UNL     1      -6.622  12.368  69.303  1.00  0.00    -0.105 NA 
ENDBRANCH  12  19
ENDBRANCH   3   5
ENDBRANCH   2   3
TORSDOF 6
ENDMDL
MODEL      132
REMARK 921   NORMALIZED FREE ENERGY PREDICTED BY IDOCK:   -3.62 KCAL/MOL
REMARK 922        TOTAL FREE ENERGY PREDICTED BY IDOCK:   -6.35 KCAL/MOL
REMARK 923 INTER-LIGAND FREE ENERGY PREDICTED BY IDOCK:   -4.82 KCAL/MOL
REMARK 924 INTRA-LIGAND FREE ENERGY PREDICTED BY IDOCK:   -1.52 KCAL/MOL
REMARK 927      BINDING AFFINITY PREDICTED BY RF-SCORE:    0.00 PKD
ROOT
HETATM    1  C   UNL     1      -7.150   4.614  66.886  1.00  0.00    -0.075 C  
HETATM    2  O   UNL     1      -7.882   5.840  66.983  1.00  0.00    -0.100 OA 
ENDROOT
BRANCH   2   3
HETATM    3  C   UNL     1      -7.329   6.843  67.698  1.00  0.00    -0.096 C  
HETATM    4  O   UNL     1      -6.170   6.875  68.085  1.00  0.00    -0.031 OA 
BRANCH   3   5
HETATM    5  C   UNL     1      -8.340   7.896  68.002  1.00  0.00    -0.123 C  
HETATM    6  C   UNL     1      -8.444   8.959  67.165  1.00  0.00    -0.106 C  
HETATM    7  C   UNL     1      -7.530   9.287  66.006  1.00  0.00    -0.095 C  
HETATM    8  N   UNL     1      -9.464   9.872  67.342  1.00  0.00    -0.147 NA 
HETATM    9  C   UNL     1     -10.376   9.865  68.376  1.00  0.00    -0.198 C  
HETATM   10  C   UNL     1     -11.351  11.022  68.369  1.00  0.00    -0.363 C  
HETATM   11  C   UNL     1     -10.352   8.868  69.297  1.00  0.00    -0.221 C  
HETATM   12  C   UNL     1      -9.349   7.704  69.164  1.00  0.00    -0.147 C  
BRANCH  11  13
HETATM   13  C   UNL     1     -11.244   8.979  70.485  1.00  0.00    -0.260 C  
HETATM   14  O   UNL     1     -10.993   9.701  71.445  1.00  0.00    -0.360 OA 
BRANCH  13  15
HETATM   15  O   UNL     1     -12.323   8.160  70.423  1.00  0.00     0.197 OA 
BRANCH  15  16
HETATM   16  C   UNL     1     -12.867   7.801  71.715  1.00  0.00    -0.327 C  
HETATM   17  C   UNL     1     -12.410   6.394  72.067  1.00  0.00    -0.268 C  
HETATM   18  C   UNL     1     -14.391   7.885  71.673  1.00  0.00    -0.595 C  
ENDBRANCH  15  16
ENDBRANCH  13  15
ENDBRANCH  11  13
BRANCH  12  19
HETATM   19  C   UNL     1      -8.672   7.383  70.485  1.00  0.00    -0.147 A  
HETATM   20  C   UNL     1      -7.782   8.272  71.146  1.00  0.00    -0.094 A  
HETATM   21  C   UNL     1      -8.903   6.181  71.205  1.00  0.00    -0.136 A  
HETATM   22  N   UNL     1      -7.360   9.486  70.771  1.00  0.00    -0.252 NA 
HETATM   23  O   UNL     1      -6.520   9.927  71.778  1.00  0.00    -0.288 OA 
HETATM   24  C   UNL     1      -8.303   5.886  72.458  1.00  0.00    -0.116 A  
HETATM   25  C   UNL     1      -7.424   6.762  73.119  1.00  0.00    -0.082 A  
HETATM   26  C   UNL     1      -7.177   7.965  72.435  1.00  0.00    -0.089 A  
HETATM   27  N   UNL     1      -6.408   8.999  72.797  1.00  0.00    -0.301 NA 
ENDBRANCH  12  19
ENDBRANCH   3   5
ENDBRANCH   2   3
TORSDOF 6
ENDMDL
MODEL      133
REMARK 921   NORMALIZED FREE ENERGY PREDICTED BY IDOCK:   -3.62 KCAL/MOL
REMARK 922        TOTAL FREE ENERGY PREDICTED BY IDOCK:   -6.34 KCAL/MOL
REMARK 923 INTER-LIGAND FREE ENERGY PREDICTED BY IDOCK:   -5.11 KCAL/MOL
REMARK 924 INTRA-LIGAND FREE ENERGY PREDICTED BY IDOCK:   -1.23 KCAL/MOL
REMARK 927      BINDING AFFINITY PREDICTED BY RF-SCORE:    0.00 PKD
ROOT
HETATM    1  C   UNL     1      -8.787   7.207  69.463  1.00  0.00    -0.137 C  
HETATM    2  O   UNL     1      -9.318   8.471  69.052  1.00  0.00    -0.146 OA 
ENDROOT
BRANCH   2   3
HETATM    3  C   UNL     1      -9.132   9.525  69.876  1.00  0.00    -0.216 C  
HETATM    4  O   UNL     1      -8.526   9.490  70.937  1.00  0.00    -0.269 OA 
BRANCH   3   5
HETATM    5  C   UNL     1      -9.814  10.740  69.344  1.00  0.00    -0.112 C  
HETATM    6  C   UNL     1     -11.115  10.949  69.666  1.00  0.00    -0.266 C  
HETATM    7  C   UNL     1     -12.027   9.993  70.403  1.00  0.00    -0.318 C  
HETATM    8  N   UNL     1     -11.727  12.134  69.308  1.00  0.00    -0.311 NA 
HETATM    9  C   UNL     1     -11.157  13.132  68.548  1.00  0.00    -0.266 C  
HETATM   10  C   UNL     1     -12.072  14.298  68.244  1.00  0.00    -0.278 C  
HETATM   11  C   UNL     1      -9.868  13.023  68.137  1.00  0.00    -0.228 C  
HETATM   12  C   UNL     1      -9.011  11.813  68.564  1.00  0.00    -0.132 C  
BRANCH  11  13
HETATM   13  C   UNL     1      -9.337  14.041  67.187  1.00  0.00    -0.242 C  
HETATM   14  O   UNL     1      -9.421  13.927  65.969  1.00  0.00    -0.228 OA 
BRANCH  13  15
HETATM   15  O   UNL     1      -8.702  15.068  67.804  1.00  0.00    -0.157 OA 
BRANCH  15  16
HETATM   16  C   UNL     1      -7.437  14.705  68.406  1.00  0.00    -0.117 C  
HETATM   17  C   UNL     1      -7.310  15.412  69.747  1.00  0.00    -0.123 C  
HETATM   18  C   UNL     1      -6.292  15.093  67.474  1.00  0.00    -0.109 C  
ENDBRANCH  15  16
ENDBRANCH  13  15
ENDBRANCH  11  13
BRANCH  12  19
HETATM   19  C   UNL     1      -8.227  11.232  67.401  1.00  0.00    -0.135 A  
HETATM   20  C   UNL     1      -8.834  10.727  66.220  1.00  0.00    -0.173 A  
HETATM   21  C   UNL     1      -6.807  11.185  67.366  1.00  0.00    -0.089 A  
HETATM   22  N   UNL     1     -10.133  10.638  65.904  1.00  0.00    -0.251 NA 
HETATM   23  O   UNL     1     -10.181  10.089  64.636  1.00  0.00    -0.201 OA 
HETATM   24  C   UNL     1      -6.063  10.677  66.269  1.00  0.00    -0.111 A  
HETATM   25  C   UNL     1      -6.658  10.178  65.096  1.00  0.00    -0.124 A  
HETATM   26  C   UNL     1      -8.063  10.215  65.095  1.00  0.00    -0.148 A  
HETATM   27  N   UNL     1      -8.917   9.831  64.138  1.00  0.00    -0.229 NA 
ENDBRANCH  12  19
ENDBRANCH   3   5
ENDBRANCH   2   3
TORSDOF 6
ENDMDL
MODEL      134
REMARK 921   NORMALIZED FREE ENERGY PREDICTED BY IDOCK:   -3.60 KCAL/MOL
REMARK 922        TOTAL FREE ENERGY PREDICTED BY IDOCK:   -6.32 KCAL/MOL
REMARK 923 INTER-LIGAND FREE ENERGY PREDICTED BY IDOCK:   -5.09 KCAL/MOL
REMARK 924 INTRA-LIGAND FREE ENERGY PREDICTED BY IDOCK:   -1.23 KCAL/MOL
REMARK 927      BINDING AFFINITY PREDICTED BY RF-SCORE:    0.00 PKD
ROOT
HETATM    1  C   UNL     1      -9.839   4.286  65.137  1.00  0.00    -0.200 C  
HETATM    2  O   UNL     1      -9.924   5.451  65.962  1.00  0.00    -0.151 OA 
ENDROOT
BRANCH   2   3
HETATM    3  C   UNL     1      -8.869   6.294  65.965  1.00  0.00    -0.151 C  
HETATM    4  O   UNL     1      -7.746   6.016  65.571  1.00  0.00    -0.085 OA 
BRANCH   3   5
HETATM    5  C   UNL     1      -9.242   7.608  66.566  1.00  0.00    -0.220 C  
HETATM    6  C   UNL     1      -9.197   8.716  65.786  1.00  0.00    -0.181 C  
HETATM    7  C   UNL     1      -8.658   8.805  64.375  1.00  0.00    -0.110 C  
HETATM    8  N   UNL     1      -9.673   9.916  66.274  1.00  0.00    -0.206 NA 
HETATM    9  C   UNL     1     -10.128  10.137  67.556  1.00  0.00    -0.201 C  
HETATM   10  C   UNL     1     -10.532  11.564  67.850  1.00  0.00    -0.211 C  
HETATM   11  C   UNL     1     -10.190   9.109  68.441  1.00  0.00    -0.230 C  
HETATM   12  C   UNL     1      -9.810   7.678  68.007  1.00  0.00    -0.188 C  
BRANCH  11  13
HETATM   13  C   UNL     1     -10.533   9.414  69.859  1.00  0.00    -0.233 C  
HETATM   14  O   UNL     1      -9.688   9.660  70.714  1.00  0.00    -0.250 OA 
BRANCH  13  15
HETATM   15  O   UNL     1     -11.861   9.333  70.117  1.00  0.00    -0.075 OA 
BRANCH  15  16
HETATM   16  C   UNL     1     -12.180   9.110  71.512  1.00  0.00    -0.349 C  
HETATM   17  C   UNL     1     -12.686   7.685  71.679  1.00  0.00    -0.368 C  
HETATM   18  C   UNL     1     -13.230  10.119  71.968  1.00  0.00    -0.534 C  
ENDBRANCH  15  16
ENDBRANCH  13  15
ENDBRANCH  11  13
BRANCH  12  19
HETATM   19  C   UNL     1      -8.919   6.992  69.027  1.00  0.00    -0.133 A  
HETATM   20  C   UNL     1      -9.380   5.991  69.924  1.00  0.00    -0.148 A  
HETATM   21  C   UNL     1      -7.528   7.254  69.145  1.00  0.00    -0.093 A  
HETATM   22  N   UNL     1     -10.611   5.486  70.072  1.00  0.00    -0.316 NA 
HETATM   23  O   UNL     1     -10.514   4.530  71.068  1.00  0.00    -0.085 OA 
HETATM   24  C   UNL     1      -6.677   6.592  70.070  1.00  0.00    -0.049 A  
HETATM   25  C   UNL     1      -7.127   5.599  70.958  1.00  0.00    -0.070 A  
HETATM   26  C   UNL     1      -8.499   5.311  70.864  1.00  0.00    -0.121 A  
HETATM   27  N   UNL     1      -9.224   4.420  71.552  1.00  0.00    -0.130 NA 
ENDBRANCH  12  19
ENDBRANCH   3   5
ENDBRANCH   2   3
TORSDOF 6
ENDMDL
MODEL      135
REMARK 921   NORMALIZED FREE ENERGY PREDICTED BY IDOCK:   -3.59 KCAL/MOL
REMARK 922        TOTAL FREE ENERGY PREDICTED BY IDOCK:   -6.31 KCAL/MOL
REMARK 923 INTER-LIGAND FREE ENERGY PREDICTED BY IDOCK:   -4.80 KCAL/MOL
REMARK 924 INTRA-LIGAND FREE ENERGY PREDICTED BY IDOCK:   -1.51 KCAL/MOL
REMARK 927      BINDING AFFINITY PREDICTED BY RF-SCORE:    0.00 PKD
ROOT
HETATM    1  C   UNL     1     -10.116   4.527  65.672  1.00  0.00    -0.244 C  
HETATM    2  O   UNL     1      -9.515   5.617  66.378  1.00  0.00    -0.149 OA 
ENDROOT
BRANCH   2   3
HETATM    3  C   UNL     1     -10.337   6.489  67.000  1.00  0.00    -0.253 C  
HETATM    4  O   UNL     1     -11.531   6.614  66.773  1.00  0.00    -0.139 OA 
BRANCH   3   5
HETATM    5  C   UNL     1      -9.580   7.326  67.976  1.00  0.00    -0.148 C  
HETATM    6  C   UNL     1      -9.644   7.007  69.293  1.00  0.00    -0.154 C  
HETATM    7  C   UNL     1     -10.534   5.961  69.926  1.00  0.00    -0.337 C  
HETATM    8  N   UNL     1      -8.842   7.674  70.198  1.00  0.00    -0.145 NA 
HETATM    9  C   UNL     1      -8.013   8.735  69.904  1.00  0.00    -0.106 C  
HETATM   10  C   UNL     1      -7.293   9.326  71.096  1.00  0.00    -0.050 C  
HETATM   11  C   UNL     1      -7.889   9.167  68.623  1.00  0.00    -0.097 C  
HETATM   12  C   UNL     1      -8.626   8.443  67.478  1.00  0.00    -0.129 C  
BRANCH  11  13
HETATM   13  C   UNL     1      -7.111  10.413  68.367  1.00  0.00    -0.078 C  
HETATM   14  O   UNL     1      -5.943  10.406  67.991  1.00  0.00    -0.044 OA 
BRANCH  13  15
HETATM   15  O   UNL     1      -7.804  11.543  68.649  1.00  0.00    -0.133 OA 
BRANCH  15  16
HETATM   16  C   UNL     1      -7.265  12.736  68.030  1.00  0.00    -0.115 C  
HETATM   17  C   UNL     1      -6.730  13.655  69.118  1.00  0.00    -0.109 C  
HETATM   18  C   UNL     1      -8.353  13.431  67.215  1.00  0.00    -0.183 C  
ENDBRANCH  15  16
ENDBRANCH  13  15
ENDBRANCH  11  13
BRANCH  12  19
HETATM   19  C   UNL     1      -9.302   9.417  66.530  1.00  0.00    -0.222 A  
HETATM   20  C   UNL     1      -8.992   9.506  65.146  1.00  0.00    -0.209 A  
HETATM   21  C   UNL     1     -10.343  10.296  66.930  1.00  0.00    -0.298 A  
HETATM   22  N   UNL     1      -8.090   8.821  64.431  1.00  0.00    -0.148 NA 
HETATM   23  O   UNL     1      -8.203   9.281  63.132  1.00  0.00    -0.156 OA 
HETATM   24  C   UNL     1     -11.007  11.185  66.044  1.00  0.00    -0.189 A  
HETATM   25  C   UNL     1     -10.707  11.277  64.673  1.00  0.00    -0.371 A  
HETATM   26  C   UNL     1      -9.683  10.415  64.242  1.00  0.00    -0.326 A  
HETATM   27  N   UNL     1      -9.178  10.254  63.013  1.00  0.00    -0.266 NA 
ENDBRANCH  12  19
ENDBRANCH   3   5
ENDBRANCH   2   3
TORSDOF 6
ENDMDL
MODEL      136
REMARK 921   NORMALIZED FREE ENERGY PREDICTED BY IDOCK:   -3.59 KCAL/MOL
REMARK 922        TOTAL FREE ENERGY PREDICTED BY IDOCK:   -6.30 KCAL/MOL
REMARK 923 INTER-LIGAND FREE ENERGY PREDICTED BY IDOCK:   -5.09 KCAL/MOL
REMARK 924 INTRA-LIGAND FREE ENERGY PREDICTED BY IDOCK:   -1.21 KCAL/MOL
REMARK 927      BINDING AFFINITY PREDICTED BY RF-SCORE:    0.00 PKD
ROOT
HETATM    1  C   UNL     1     -10.445  11.201  65.021  1.00  0.00    -0.293 C  
HETATM    2  O   UNL     1     -10.311  10.113  65.940  1.00  0.00    -0.229 OA 
ENDROOT
BRANCH   2   3
HETATM    3  C   UNL     1     -10.699  10.321  67.217  1.00  0.00    -0.263 C  
HETATM    4  O   UNL     1     -11.765  10.814  67.556  1.00  0.00    -0.510 OA 
BRANCH   3   5
HETATM    5  C   UNL     1      -9.626   9.915  68.170  1.00  0.00    -0.153 C  
HETATM    6  C   UNL     1      -8.733  10.850  68.580  1.00  0.00    -0.153 C  
HETATM    7  C   UNL     1      -8.602  12.263  68.057  1.00  0.00    -0.176 C  
HETATM    8  N   UNL     1      -7.821  10.538  69.568  1.00  0.00    -0.151 NA 
HETATM    9  C   UNL     1      -7.658   9.297  70.146  1.00  0.00    -0.111 C  
HETATM   10  C   UNL     1      -6.539   9.211  71.160  1.00  0.00    -0.088 C  
HETATM   11  C   UNL     1      -8.474   8.270  69.793  1.00  0.00    -0.128 C  
HETATM   12  C   UNL     1      -9.625   8.494  68.791  1.00  0.00    -0.150 C  
BRANCH  11  13
HETATM   13  C   UNL     1      -8.167   6.909  70.316  1.00  0.00    -0.129 C  
HETATM   14  O   UNL     1      -7.561   6.063  69.666  1.00  0.00    -0.085 OA 
BRANCH  13  15
HETATM   15  O   UNL     1      -8.677   6.683  71.552  1.00  0.00    -0.131 OA 
BRANCH  15  16
HETATM   16  C   UNL     1     -10.075   7.033  71.687  1.00  0.00    -0.182 C  
HETATM   17  C   UNL     1     -10.330   7.500  73.111  1.00  0.00    -0.402 C  
HETATM   18  C   UNL     1     -10.944   5.825  71.345  1.00  0.00    -0.304 C  
ENDBRANCH  15  16
ENDBRANCH  13  15
ENDBRANCH  11  13
BRANCH  12  19
HETATM   19  C   UNL     1      -9.692   7.394  67.746  1.00  0.00    -0.171 A  
HETATM   20  C   UNL     1      -8.724   7.228  66.720  1.00  0.00    -0.130 A  
HETATM   21  C   UNL     1     -10.707   6.400  67.728  1.00  0.00    -0.377 A  
HETATM   22  N   UNL     1      -7.634   7.959  66.454  1.00  0.00    -0.090 NA 
HETATM   23  O   UNL     1      -7.029   7.361  65.363  1.00  0.00    -0.057 OA 
HETATM   24  C   UNL     1     -10.760   5.346  66.778  1.00  0.00    -0.289 A  
HETATM   25  C   UNL     1      -9.803   5.174  65.761  1.00  0.00    -0.107 A  
HETATM   26  C   UNL     1      -8.781   6.139  65.754  1.00  0.00    -0.145 A  
HETATM   27  N   UNL     1      -7.728   6.247  64.934  1.00  0.00    -0.092 NA 
ENDBRANCH  12  19
ENDBRANCH   3   5
ENDBRANCH   2   3
TORSDOF 6
ENDMDL
MODEL      137
REMARK 921   NORMALIZED FREE ENERGY PREDICTED BY IDOCK:   -3.53 KCAL/MOL
REMARK 922        TOTAL FREE ENERGY PREDICTED BY IDOCK:   -6.23 KCAL/MOL
REMARK 923 INTER-LIGAND FREE ENERGY PREDICTED BY IDOCK:   -5.32 KCAL/MOL
REMARK 924 INTRA-LIGAND FREE ENERGY PREDICTED BY IDOCK:   -0.91 KCAL/MOL
REMARK 927      BINDING AFFINITY PREDICTED BY RF-SCORE:    0.00 PKD
ROOT
HETATM    1  C   UNL     1      -9.730   4.831  68.705  1.00  0.00    -0.167 C  
HETATM    2  O   UNL     1     -10.482   6.038  68.542  1.00  0.00    -0.184 OA 
ENDROOT
BRANCH   2   3
HETATM    3  C   UNL     1     -10.636   6.514  67.288  1.00  0.00    -0.315 C  
HETATM    4  O   UNL     1     -11.457   6.109  66.478  1.00  0.00     0.097 OA 
BRANCH   3   5
HETATM    5  C   UNL     1      -9.630   7.575  66.997  1.00  0.00    -0.221 C  
HETATM    6  C   UNL     1      -8.612   7.291  66.147  1.00  0.00    -0.149 C  
HETATM    7  C   UNL     1      -8.283   5.938  65.554  1.00  0.00    -0.137 C  
HETATM    8  N   UNL     1      -7.752   8.294  65.749  1.00  0.00    -0.088 NA 
HETATM    9  C   UNL     1      -7.766   9.593  66.212  1.00  0.00    -0.101 C  
HETATM   10  C   UNL     1      -6.668  10.475  65.660  1.00  0.00    -0.110 C  
HETATM   11  C   UNL     1      -8.719   9.990  67.093  1.00  0.00    -0.132 C  
HETATM   12  C   UNL     1      -9.829   9.015  67.537  1.00  0.00    -0.230 C  
BRANCH  11  13
HETATM   13  C   UNL     1      -8.608  11.350  67.692  1.00  0.00    -0.130 C  
HETATM   14  O   UNL     1      -7.664  11.696  68.395  1.00  0.00    -0.116 OA 
BRANCH  13  15
HETATM   15  O   UNL     1      -9.681  12.138  67.433  1.00  0.00    -0.178 OA 
BRANCH  15  16
HETATM   16  C   UNL     1      -9.700  12.687  66.094  1.00  0.00    -0.251 C  
HETATM   17  C   UNL     1      -9.870  14.196  66.184  1.00  0.00    -0.326 C  
HETATM   18  C   UNL     1     -10.838  12.057  65.295  1.00  0.00    -0.340 C  
ENDBRANCH  15  16
ENDBRANCH  13  15
ENDBRANCH  11  13
BRANCH  12  19
HETATM   19  C   UNL     1     -10.054   9.055  69.038  1.00  0.00    -0.204 A  
HETATM   20  C   UNL     1     -11.154   9.717  69.648  1.00  0.00    -0.193 A  
HETATM   21  C   UNL     1      -9.210   8.394  69.969  1.00  0.00    -0.158 A  
HETATM   22  N   UNL     1     -12.147  10.415  69.081  1.00  0.00    -0.136 NA 
HETATM   23  O   UNL     1     -12.962  10.832  70.118  1.00  0.00    -0.215 OA 
HETATM   24  C   UNL     1      -9.432   8.394  71.372  1.00  0.00    -0.251 A  
HETATM   25  C   UNL     1     -10.519   9.044  71.982  1.00  0.00    -0.309 A  
HETATM   26  C   UNL     1     -11.379   9.706  71.087  1.00  0.00    -0.386 A  
HETATM   27  N   UNL     1     -12.495  10.398  71.345  1.00  0.00    -0.392 NA 
ENDBRANCH  12  19
ENDBRANCH   3   5
ENDBRANCH   2   3
TORSDOF 6
ENDMDL
MODEL      138
REMARK 921   NORMALIZED FREE ENERGY PREDICTED BY IDOCK:   -3.49 KCAL/MOL
REMARK 922        TOTAL FREE ENERGY PREDICTED BY IDOCK:   -6.17 KCAL/MOL
REMARK 923 INTER-LIGAND FREE ENERGY PREDICTED BY IDOCK:   -7.17 KCAL/MOL
REMARK 924 INTRA-LIGAND FREE ENERGY PREDICTED BY IDOCK:    1.00 KCAL/MOL
REMARK 927      BINDING AFFINITY PREDICTED BY RF-SCORE:    0.00 PKD
ROOT
HETATM    1  C   UNL     1     -12.101   9.500  70.963  1.00  0.00    -0.318 C  
HETATM    2  O   UNL     1     -11.689  10.286  69.841  1.00  0.00    -0.252 OA 
ENDROOT
BRANCH   2   3
HETATM    3  C   UNL     1     -10.408  10.168  69.431  1.00  0.00    -0.232 C  
HETATM    4  O   UNL     1      -9.455   9.935  70.160  1.00  0.00    -0.237 OA 
BRANCH   3   5
HETATM    5  C   UNL     1     -10.296  10.413  67.964  1.00  0.00    -0.212 C  
HETATM    6  C   UNL     1      -9.866   9.404  67.167  1.00  0.00    -0.187 C  
HETATM    7  C   UNL     1      -9.331   8.063  67.619  1.00  0.00    -0.162 C  
HETATM    8  N   UNL     1      -9.891   9.557  65.795  1.00  0.00    -0.300 NA 
HETATM    9  C   UNL     1     -10.239  10.709  65.123  1.00  0.00    -0.299 C  
HETATM   10  C   UNL     1     -10.116  10.627  63.618  1.00  0.00    -0.311 C  
HETATM   11  C   UNL     1     -10.656  11.800  65.815  1.00  0.00    -0.312 C  
HETATM   12  C   UNL     1     -10.802  11.744  67.350  1.00  0.00    -0.299 C  
BRANCH  11  13
HETATM   13  C   UNL     1     -10.869  13.073  65.071  1.00  0.00    -0.308 C  
HETATM   14  O   UNL     1     -11.156  13.111  63.878  1.00  0.00    -0.388 OA 
BRANCH  13  15
HETATM   15  O   UNL     1     -10.655  14.178  65.827  1.00  0.00    -0.283 OA 
BRANCH  15  16
HETATM   16  C   UNL     1     -10.391  15.377  65.061  1.00  0.00    -0.329 C  
HETATM   17  C   UNL     1      -9.723  16.401  65.965  1.00  0.00    -0.356 C  
HETATM   18  C   UNL     1     -11.698  15.922  64.491  1.00  0.00    -0.161 C  
ENDBRANCH  15  16
ENDBRANCH  13  15
ENDBRANCH  11  13
BRANCH  12  19
HETATM   19  C   UNL     1     -10.207  12.968  68.023  1.00  0.00    -0.233 A  
HETATM   20  C   UNL     1     -10.966  13.880  68.805  1.00  0.00    -0.263 A  
HETATM   21  C   UNL     1      -8.824  13.288  67.972  1.00  0.00    -0.190 A  
HETATM   22  N   UNL     1     -12.277  13.875  69.082  1.00  0.00    -0.332 NA 
HETATM   23  O   UNL     1     -12.499  14.972  69.894  1.00  0.00    -0.297 OA 
HETATM   24  C   UNL     1      -8.250  14.410  68.628  1.00  0.00    -0.148 A  
HETATM   25  C   UNL     1      -8.996  15.314  69.405  1.00  0.00    -0.225 A  
HETATM   26  C   UNL     1     -10.369  15.024  69.481  1.00  0.00    -0.220 A  
HETATM   27  N   UNL     1     -11.335  15.675  70.141  1.00  0.00    -0.311 NA 
ENDBRANCH  12  19
ENDBRANCH   3   5
ENDBRANCH   2   3
TORSDOF 6
ENDMDL
MODEL      139
REMARK 921   NORMALIZED FREE ENERGY PREDICTED BY IDOCK:   -3.48 KCAL/MOL
REMARK 922        TOTAL FREE ENERGY PREDICTED BY IDOCK:   -6.16 KCAL/MOL
REMARK 923 INTER-LIGAND FREE ENERGY PREDICTED BY IDOCK:   -4.93 KCAL/MOL
REMARK 924 INTRA-LIGAND FREE ENERGY PREDICTED BY IDOCK:   -1.23 KCAL/MOL
REMARK 927      BINDING AFFINITY PREDICTED BY RF-SCORE:    0.00 PKD
ROOT
HETATM    1  C   UNL     1      -5.284  10.252  64.314  1.00  0.00    -0.125 C  
HETATM    2  O   UNL     1      -6.080  10.254  65.503  1.00  0.00    -0.093 OA 
ENDROOT
BRANCH   2   3
HETATM    3  C   UNL     1      -7.395   9.974  65.377  1.00  0.00    -0.139 C  
HETATM    4  O   UNL     1      -8.109  10.353  64.460  1.00  0.00    -0.164 OA 
BRANCH   3   5
HETATM    5  C   UNL     1      -7.881   9.177  66.540  1.00  0.00    -0.100 C  
HETATM    6  C   UNL     1      -8.208   7.875  66.344  1.00  0.00    -0.121 C  
HETATM    7  C   UNL     1      -8.281   7.153  65.017  1.00  0.00    -0.095 C  
HETATM    8  N   UNL     1      -8.522   7.079  67.427  1.00  0.00    -0.121 NA 
HETATM    9  C   UNL     1      -8.628   7.506  68.733  1.00  0.00    -0.129 C  
HETATM   10  C   UNL     1      -9.051   6.439  69.718  1.00  0.00    -0.141 C  
HETATM   11  C   UNL     1      -8.355   8.798  69.050  1.00  0.00    -0.129 C  
HETATM   12  C   UNL     1      -7.869   9.783  67.967  1.00  0.00    -0.086 C  
BRANCH  11  13
HETATM   13  C   UNL     1      -8.634   9.262  70.438  1.00  0.00    -0.219 C  
HETATM   14  O   UNL     1      -9.763   9.300  70.917  1.00  0.00    -0.256 OA 
BRANCH  13  15
HETATM   15  O   UNL     1      -7.526   9.691  71.091  1.00  0.00    -0.328 OA 
BRANCH  15  16
HETATM   16  C   UNL     1      -6.696   8.626  71.610  1.00  0.00    -0.083 C  
HETATM   17  C   UNL     1      -7.249   8.183  72.956  1.00  0.00    -0.147 C  
HETATM   18  C   UNL     1      -5.255   9.113  71.746  1.00  0.00    -0.052 C  
ENDBRANCH  15  16
ENDBRANCH  13  15
ENDBRANCH  11  13
BRANCH  12  19
HETATM   19  C   UNL     1      -8.589  11.118  68.046  1.00  0.00    -0.140 A  
HETATM   20  C   UNL     1     -10.000  11.255  67.940  1.00  0.00    -0.175 A  
HETATM   21  C   UNL     1      -7.921  12.349  68.283  1.00  0.00    -0.160 A  
HETATM   22  N   UNL     1     -10.932  10.314  67.741  1.00  0.00    -0.297 NA 
HETATM   23  O   UNL     1     -12.146  10.975  67.734  1.00  0.00    -0.534 OA 
HETATM   24  C   UNL     1      -8.588  13.598  68.395  1.00  0.00    -0.151 A  
HETATM   25  C   UNL     1      -9.984  13.740  68.293  1.00  0.00    -0.243 A  
HETATM   26  C   UNL     1     -10.677  12.538  68.065  1.00  0.00    -0.221 A  
HETATM   27  N   UNL     1     -11.994  12.335  67.933  1.00  0.00    -0.480 NA 
ENDBRANCH  12  19
ENDBRANCH   3   5
ENDBRANCH   2   3
TORSDOF 6
ENDMDL
MODEL      140
REMARK 921   NORMALIZED FREE ENERGY PREDICTED BY IDOCK:   -3.41 KCAL/MOL
REMARK 922        TOTAL FREE ENERGY PREDICTED BY IDOCK:   -6.06 KCAL/MOL
REMARK 923 INTER-LIGAND FREE ENERGY PREDICTED BY IDOCK:   -4.62 KCAL/MOL
REMARK 924 INTRA-LIGAND FREE ENERGY PREDICTED BY IDOCK:   -1.44 KCAL/MOL
REMARK 927      BINDING AFFINITY PREDICTED BY RF-SCORE:    0.00 PKD
ROOT
HETATM    1  C   UNL     1      -7.042   1.994  72.219  1.00  0.00    -0.030 C  
HETATM    2  O   UNL     1      -7.936   3.095  72.402  1.00  0.00    -0.057 OA 
ENDROOT
BRANCH   2   3
HETATM    3  C   UNL     1      -9.044   3.137  71.631  1.00  0.00    -0.106 C  
HETATM    4  O   UNL     1      -9.431   2.231  70.907  1.00  0.00    -0.131 OA 
BRANCH   3   5
HETATM    5  C   UNL     1      -9.715   4.465  71.738  1.00  0.00    -0.236 C  
HETATM    6  C   UNL     1     -10.742   4.606  72.612  1.00  0.00    -0.181 C  
HETATM    7  C   UNL     1     -11.405   3.505  73.410  1.00  0.00    -0.203 C  
HETATM    8  N   UNL     1     -11.284   5.856  72.835  1.00  0.00    -0.269 NA 
HETATM    9  C   UNL     1     -10.935   7.011  72.169  1.00  0.00    -0.234 C  
HETATM   10  C   UNL     1     -11.733   8.235  72.561  1.00  0.00    -0.451 C  
HETATM   11  C   UNL     1      -9.940   6.990  71.246  1.00  0.00    -0.196 C  
HETATM   12  C   UNL     1      -9.152   5.692  70.975  1.00  0.00    -0.159 C  
BRANCH  11  13
HETATM   13  C   UNL     1      -9.699   8.216  70.434  1.00  0.00    -0.178 C  
HETATM   14  O   UNL     1      -8.745   8.965  70.621  1.00  0.00    -0.158 OA 
BRANCH  13  15
HETATM   15  O   UNL     1     -10.669   8.450  69.516  1.00  0.00    -0.227 OA 
BRANCH  15  16
HETATM   16  C   UNL     1     -10.517   9.698  68.800  1.00  0.00    -0.215 C  
HETATM   17  C   UNL     1     -11.571  10.678  69.292  1.00  0.00    -0.346 C  
HETATM   18  C   UNL     1     -10.657   9.453  67.300  1.00  0.00    -0.314 C  
ENDBRANCH  15  16
ENDBRANCH  13  15
ENDBRANCH  11  13
BRANCH  12  19
HETATM   19  C   UNL     1      -8.975   5.432  69.489  1.00  0.00    -0.125 A  
HETATM   20  C   UNL     1      -7.715   5.459  68.833  1.00  0.00    -0.083 A  
HETATM   21  C   UNL     1     -10.051   5.092  68.626  1.00  0.00    -0.220 A  
HETATM   22  N   UNL     1      -6.501   5.718  69.335  1.00  0.00    -0.040 NA 
HETATM   23  O   UNL     1      -5.616   5.596  68.279  1.00  0.00    -0.010 OA 
HETATM   24  C   UNL     1      -9.893   4.812  67.243  1.00  0.00    -0.218 A  
HETATM   25  C   UNL     1      -8.648   4.834  66.588  1.00  0.00    -0.108 A  
HETATM   26  C   UNL     1      -7.560   5.162  67.415  1.00  0.00    -0.088 A  
HETATM   27  N   UNL     1      -6.261   5.255  67.105  1.00  0.00    -0.030 NA 
ENDBRANCH  12  19
ENDBRANCH   3   5
ENDBRANCH   2   3
TORSDOF 6
ENDMDL
MODEL      141
REMARK 921   NORMALIZED FREE ENERGY PREDICTED BY IDOCK:   -3.40 KCAL/MOL
REMARK 922        TOTAL FREE ENERGY PREDICTED BY IDOCK:   -6.05 KCAL/MOL
REMARK 923 INTER-LIGAND FREE ENERGY PREDICTED BY IDOCK:   -5.08 KCAL/MOL
REMARK 924 INTRA-LIGAND FREE ENERGY PREDICTED BY IDOCK:   -0.97 KCAL/MOL
REMARK 927      BINDING AFFINITY PREDICTED BY RF-SCORE:    0.00 PKD
ROOT
HETATM    1  C   UNL     1     -13.330   8.928  71.575  1.00  0.00    -0.325 C  
HETATM    2  O   UNL     1     -12.872   7.579  71.708  1.00  0.00    -0.326 OA 
ENDROOT
BRANCH   2   3
HETATM    3  C   UNL     1     -11.618   7.386  72.173  1.00  0.00    -0.293 C  
HETATM    4  O   UNL     1     -11.108   8.005  73.095  1.00  0.00    -0.334 OA 
BRANCH   3   5
HETATM    5  C   UNL     1     -10.910   6.345  71.373  1.00  0.00    -0.301 C  
HETATM    6  C   UNL     1     -10.742   5.113  71.914  1.00  0.00    -0.149 C  
HETATM    7  C   UNL     1     -11.067   4.698  73.332  1.00  0.00    -0.418 C  
HETATM    8  N   UNL     1     -10.220   4.093  71.144  1.00  0.00    -0.062 NA 
HETATM    9  C   UNL     1      -9.751   4.222  69.854  1.00  0.00    -0.221 C  
HETATM   10  C   UNL     1      -9.169   2.957  69.262  1.00  0.00    -0.212 C  
HETATM   11  C   UNL     1      -9.836   5.417  69.216  1.00  0.00    -0.249 C  
HETATM   12  C   UNL     1     -10.510   6.624  69.901  1.00  0.00    -0.247 C  
BRANCH  11  13
HETATM   13  C   UNL     1      -9.176   5.560  67.887  1.00  0.00    -0.108 C  
HETATM   14  O   UNL     1      -9.798   5.776  66.852  1.00  0.00    -0.136 OA 
BRANCH  13  15
HETATM   15  O   UNL     1      -7.835   5.368  67.933  1.00  0.00    -0.091 OA 
BRANCH  15  16
HETATM   16  C   UNL     1      -7.058   6.544  67.604  1.00  0.00    -0.084 C  
HETATM   17  C   UNL     1      -6.137   6.216  66.439  1.00  0.00    -0.032 C  
HETATM   18  C   UNL     1      -6.256   6.990  68.825  1.00  0.00    -0.027 C  
ENDBRANCH  15  16
ENDBRANCH  13  15
ENDBRANCH  11  13
BRANCH  12  19
HETATM   19  C   UNL     1      -9.696   7.896  69.742  1.00  0.00    -0.176 A  
HETATM   20  C   UNL     1     -10.023   8.925  68.819  1.00  0.00    -0.184 A  
HETATM   21  C   UNL     1      -8.558   8.196  70.538  1.00  0.00    -0.130 A  
HETATM   22  N   UNL     1     -11.030   8.988  67.938  1.00  0.00    -0.043 NA 
HETATM   23  O   UNL     1     -10.902  10.207  67.298  1.00  0.00    -0.271 OA 
HETATM   24  C   UNL     1      -7.811   9.398  70.423  1.00  0.00    -0.179 A  
HETATM   25  C   UNL     1      -8.131  10.422  69.513  1.00  0.00    -0.145 A  
HETATM   26  C   UNL     1      -9.256  10.159  68.713  1.00  0.00    -0.164 A  
HETATM   27  N   UNL     1      -9.820  10.926  67.771  1.00  0.00    -0.173 NA 
ENDBRANCH  12  19
ENDBRANCH   3   5
ENDBRANCH   2   3
TORSDOF 6
ENDMDL
MODEL      142
REMARK 921   NORMALIZED FREE ENERGY PREDICTED BY IDOCK:   -3.40 KCAL/MOL
REMARK 922        TOTAL FREE ENERGY PREDICTED BY IDOCK:   -6.05 KCAL/MOL
REMARK 923 INTER-LIGAND FREE ENERGY PREDICTED BY IDOCK:   -4.40 KCAL/MOL
REMARK 924 INTRA-LIGAND FREE ENERGY PREDICTED BY IDOCK:   -1.65 KCAL/MOL
REMARK 927      BINDING AFFINITY PREDICTED BY RF-SCORE:    0.00 PKD
ROOT
HETATM    1  C   UNL     1     -10.784  11.289  68.940  1.00  0.00    -0.207 C  
HETATM    2  O   UNL     1     -10.343  10.381  69.954  1.00  0.00    -0.244 OA 
ENDROOT
BRANCH   2   3
HETATM    3  C   UNL     1      -9.107   9.852  69.824  1.00  0.00    -0.225 C  
HETATM    4  O   UNL     1      -8.065  10.490  69.825  1.00  0.00    -0.116 OA 
BRANCH   3   5
HETATM    5  C   UNL     1      -9.181   8.375  69.626  1.00  0.00    -0.160 C  
HETATM    6  C   UNL     1      -9.124   7.569  70.715  1.00  0.00    -0.154 C  
HETATM    7  C   UNL     1      -8.838   7.994  72.138  1.00  0.00    -0.215 C  
HETATM    8  N   UNL     1      -9.334   6.212  70.574  1.00  0.00    -0.160 NA 
HETATM    9  C   UNL     1      -9.517   5.549  69.379  1.00  0.00    -0.133 C  
HETATM   10  C   UNL     1      -9.661   4.048  69.502  1.00  0.00    -0.265 C  
HETATM   11  C   UNL     1      -9.562   6.246  68.215  1.00  0.00    -0.119 C  
HETATM   12  C   UNL     1      -9.468   7.786  68.220  1.00  0.00    -0.150 C  
BRANCH  11  13
HETATM   13  C   UNL     1      -9.600   5.485  66.934  1.00  0.00    -0.141 C  
HETATM   14  O   UNL     1     -10.640   5.255  66.324  1.00  0.00    -0.283 OA 
BRANCH  13  15
HETATM   15  O   UNL     1      -8.385   5.025  66.548  1.00  0.00    -0.108 OA 
BRANCH  15  16
HETATM   16  C   UNL     1      -8.362   4.462  65.215  1.00  0.00    -0.112 C  
HETATM   17  C   UNL     1      -7.321   3.354  65.167  1.00  0.00    -0.072 C  
HETATM   18  C   UNL     1      -8.044   5.555  64.199  1.00  0.00    -0.124 C  
ENDBRANCH  15  16
ENDBRANCH  13  15
ENDBRANCH  11  13
BRANCH  12  19
HETATM   19  C   UNL     1      -8.512   8.301  67.159  1.00  0.00    -0.123 A  
HETATM   20  C   UNL     1      -8.919   9.108  66.062  1.00  0.00    -0.181 A  
HETATM   21  C   UNL     1      -7.112   8.064  67.192  1.00  0.00    -0.082 A  
HETATM   22  N   UNL     1     -10.144   9.540  65.735  1.00  0.00    -0.248 NA 
HETATM   23  O   UNL     1      -9.987  10.301  64.590  1.00  0.00    -0.336 OA 
HETATM   24  C   UNL     1      -6.204   8.571  66.225  1.00  0.00    -0.053 A  
HETATM   25  C   UNL     1      -6.600   9.372  65.139  1.00  0.00    -0.079 A  
HETATM   26  C   UNL     1      -7.981   9.631  65.079  1.00  0.00    -0.122 A  
HETATM   27  N   UNL     1      -8.665  10.359  64.188  1.00  0.00    -0.189 NA 
ENDBRANCH  12  19
ENDBRANCH   3   5
ENDBRANCH   2   3
TORSDOF 6
ENDMDL
MODEL      143
REMARK 921   NORMALIZED FREE ENERGY PREDICTED BY IDOCK:   -3.40 KCAL/MOL
REMARK 922        TOTAL FREE ENERGY PREDICTED BY IDOCK:   -6.05 KCAL/MOL
REMARK 923 INTER-LIGAND FREE ENERGY PREDICTED BY IDOCK:   -5.14 KCAL/MOL
REMARK 924 INTRA-LIGAND FREE ENERGY PREDICTED BY IDOCK:   -0.90 KCAL/MOL
REMARK 927      BINDING AFFINITY PREDICTED BY RF-SCORE:    0.00 PKD
ROOT
HETATM    1  C   UNL     1      -9.936  19.458  69.147  1.00  0.00    -0.342 C  
HETATM    2  O   UNL     1     -10.147  18.053  69.315  1.00  0.00    -0.282 OA 
ENDROOT
BRANCH   2   3
HETATM    3  C   UNL     1     -10.750  17.386  68.308  1.00  0.00    -0.327 C  
HETATM    4  O   UNL     1     -11.399  17.904  67.411  1.00  0.00     0.138 OA 
BRANCH   3   5
HETATM    5  C   UNL     1     -10.562  15.914  68.460  1.00  0.00    -0.263 C  
HETATM    6  C   UNL     1     -11.383  15.238  69.302  1.00  0.00    -0.298 C  
HETATM    7  C   UNL     1     -12.402  15.839  70.245  1.00  0.00    -0.341 C  
HETATM    8  N   UNL     1     -11.327  13.860  69.353  1.00  0.00    -0.263 NA 
HETATM    9  C   UNL     1     -10.425  13.069  68.674  1.00  0.00    -0.219 C  
HETATM   10  C   UNL     1     -10.539  11.588  68.960  1.00  0.00    -0.207 C  
HETATM   11  C   UNL     1      -9.530  13.634  67.824  1.00  0.00    -0.221 C  
HETATM   12  C   UNL     1      -9.550  15.154  67.564  1.00  0.00    -0.207 C  
BRANCH  11  13
HETATM   13  C   UNL     1      -8.470  12.770  67.232  1.00  0.00    -0.194 C  
HETATM   14  O   UNL     1      -7.413  12.521  67.803  1.00  0.00    -0.106 OA 
BRANCH  13  15
HETATM   15  O   UNL     1      -8.767  12.341  65.981  1.00  0.00     0.038 OA 
BRANCH  15  16
HETATM   16  C   UNL     1      -9.005  10.916  65.886  1.00  0.00    -0.192 C  
HETATM   17  C   UNL     1      -7.790  10.255  65.254  1.00  0.00    -0.145 C  
HETATM   18  C   UNL     1     -10.260  10.657  65.056  1.00  0.00    -0.380 C  
ENDBRANCH  15  16
ENDBRANCH  13  15
ENDBRANCH  11  13
BRANCH  12  19
HETATM   19  C   UNL     1      -8.158  15.758  67.605  1.00  0.00    -0.163 A  
HETATM   20  C   UNL     1      -7.273  15.614  68.708  1.00  0.00    -0.133 A  
HETATM   21  C   UNL     1      -7.592  16.484  66.522  1.00  0.00    -0.304 A  
HETATM   22  N   UNL     1      -7.464  14.981  69.873  1.00  0.00    -0.118 NA 
HETATM   23  O   UNL     1      -6.287  15.128  70.584  1.00  0.00    -0.034 OA 
HETATM   24  C   UNL     1      -6.278  17.022  66.536  1.00  0.00    -0.205 A  
HETATM   25  C   UNL     1      -5.397  16.880  67.623  1.00  0.00    -0.144 A  
HETATM   26  C   UNL     1      -5.924  16.162  68.710  1.00  0.00    -0.110 A  
HETATM   27  N   UNL     1      -5.343  15.847  69.875  1.00  0.00    -0.120 NA 
ENDBRANCH  12  19
ENDBRANCH   3   5
ENDBRANCH   2   3
TORSDOF 6
ENDMDL
MODEL      144
REMARK 921   NORMALIZED FREE ENERGY PREDICTED BY IDOCK:   -3.38 KCAL/MOL
REMARK 922        TOTAL FREE ENERGY PREDICTED BY IDOCK:   -6.03 KCAL/MOL
REMARK 923 INTER-LIGAND FREE ENERGY PREDICTED BY IDOCK:   -4.60 KCAL/MOL
REMARK 924 INTRA-LIGAND FREE ENERGY PREDICTED BY IDOCK:   -1.43 KCAL/MOL
REMARK 927      BINDING AFFINITY PREDICTED BY RF-SCORE:    0.00 PKD
ROOT
HETATM    1  C   UNL     1      -7.962  10.806  66.147  1.00  0.00    -0.157 C  
HETATM    2  O   UNL     1      -8.454   9.738  66.963  1.00  0.00    -0.117 OA 
ENDROOT
BRANCH   2   3
HETATM    3  C   UNL     1      -7.546   8.987  67.624  1.00  0.00    -0.093 C  
HETATM    4  O   UNL     1      -6.474   8.618  67.169  1.00  0.00    -0.056 OA 
BRANCH   3   5
HETATM    5  C   UNL     1      -8.051   8.617  68.978  1.00  0.00    -0.121 C  
HETATM    6  C   UNL     1      -7.668   9.366  70.042  1.00  0.00    -0.123 C  
HETATM    7  C   UNL     1      -6.643  10.479  70.040  1.00  0.00    -0.144 C  
HETATM    8  N   UNL     1      -8.232   9.135  71.280  1.00  0.00    -0.329 NA 
HETATM    9  C   UNL     1      -9.116   8.121  71.582  1.00  0.00    -0.163 C  
HETATM   10  C   UNL     1      -9.530   8.052  73.035  1.00  0.00    -0.345 C  
HETATM   11  C   UNL     1      -9.548   7.283  70.605  1.00  0.00    -0.172 C  
HETATM   12  C   UNL     1      -9.105   7.492  69.143  1.00  0.00    -0.138 C  
BRANCH  11  13
HETATM   13  C   UNL     1     -10.375   6.105  70.995  1.00  0.00    -0.210 C  
HETATM   14  O   UNL     1     -11.573   6.018  70.748  1.00  0.00    -0.259 OA 
BRANCH  13  15
HETATM   15  O   UNL     1      -9.683   5.176  71.699  1.00  0.00    -0.153 OA 
BRANCH  15  16
HETATM   16  C   UNL     1     -10.517   4.239  72.420  1.00  0.00    -0.126 C  
HETATM   17  C   UNL     1     -10.503   4.603  73.897  1.00  0.00    -0.309 C  
HETATM   18  C   UNL     1     -10.002   2.818  72.203  1.00  0.00    -0.238 C  
ENDBRANCH  15  16
ENDBRANCH  13  15
ENDBRANCH  11  13
BRANCH  12  19
HETATM   19  C   UNL     1      -8.686   6.190  68.484  1.00  0.00    -0.111 A  
HETATM   20  C   UNL     1      -9.440   5.549  67.464  1.00  0.00    -0.117 A  
HETATM   21  C   UNL     1      -7.474   5.516  68.794  1.00  0.00    -0.079 A  
HETATM   22  N   UNL     1     -10.606   5.911  66.915  1.00  0.00    -0.286 NA 
HETATM   23  O   UNL     1     -10.893   4.953  65.960  1.00  0.00    -0.301 OA 
HETATM   24  C   UNL     1      -7.054   4.317  68.159  1.00  0.00    -0.059 A  
HETATM   25  C   UNL     1      -7.794   3.679  67.147  1.00  0.00    -0.080 A  
HETATM   26  C   UNL     1      -8.998   4.323  66.811  1.00  0.00    -0.122 A  
HETATM   27  N   UNL     1      -9.911   3.982  65.893  1.00  0.00    -0.191 NA 
ENDBRANCH  12  19
ENDBRANCH   3   5
ENDBRANCH   2   3
TORSDOF 6
ENDMDL
MODEL      145
REMARK 921   NORMALIZED FREE ENERGY PREDICTED BY IDOCK:   -3.36 KCAL/MOL
REMARK 922        TOTAL FREE ENERGY PREDICTED BY IDOCK:   -6.00 KCAL/MOL
REMARK 923 INTER-LIGAND FREE ENERGY PREDICTED BY IDOCK:   -4.80 KCAL/MOL
REMARK 924 INTRA-LIGAND FREE ENERGY PREDICTED BY IDOCK:   -1.20 KCAL/MOL
REMARK 927      BINDING AFFINITY PREDICTED BY RF-SCORE:    0.00 PKD
ROOT
HETATM    1  C   UNL     1     -13.425   9.729  71.367  1.00  0.00    -0.322 C  
HETATM    2  O   UNL     1     -12.934  10.308  70.154  1.00  0.00    -0.162 OA 
ENDROOT
BRANCH   2   3
HETATM    3  C   UNL     1     -12.051  11.324  70.258  1.00  0.00    -0.373 C  
HETATM    4  O   UNL     1     -12.217  12.334  70.926  1.00  0.00    -0.353 OA 
BRANCH   3   5
HETATM    5  C   UNL     1     -10.855  11.077  69.403  1.00  0.00    -0.278 C  
HETATM    6  C   UNL     1     -10.800  11.657  68.178  1.00  0.00    -0.217 C  
HETATM    7  C   UNL     1     -11.906  12.430  67.496  1.00  0.00    -0.354 C  
HETATM    8  N   UNL     1      -9.646  11.562  67.427  1.00  0.00    -0.168 NA 
HETATM    9  C   UNL     1      -8.525  10.835  67.767  1.00  0.00    -0.120 C  
HETATM   10  C   UNL     1      -7.422  10.848  66.732  1.00  0.00    -0.134 C  
HETATM   11  C   UNL     1      -8.473  10.183  68.956  1.00  0.00    -0.151 C  
HETATM   12  C   UNL     1      -9.637  10.296  69.962  1.00  0.00     0.008 C  
BRANCH  11  13
HETATM   13  C   UNL     1      -7.317   9.280  69.221  1.00  0.00    -0.070 C  
HETATM   14  O   UNL     1      -7.086   8.277  68.552  1.00  0.00    -0.073 OA 
BRANCH  13  15
HETATM   15  O   UNL     1      -6.590   9.645  70.304  1.00  0.00    -0.066 OA 
BRANCH  15  16
HETATM   16  C   UNL     1      -6.508   8.628  71.331  1.00  0.00    -0.066 C  
HETATM   17  C   UNL     1      -6.648   9.292  72.693  1.00  0.00     0.418 C  
HETATM   18  C   UNL     1      -5.177   7.888  71.220  1.00  0.00    -0.030 C  
ENDBRANCH  15  16
ENDBRANCH  13  15
ENDBRANCH  11  13
BRANCH  12  19
HETATM   19  C   UNL     1     -10.020   8.946  70.544  1.00  0.00    -0.243 A  
HETATM   20  C   UNL     1     -10.427   7.838  69.753  1.00  0.00    -0.233 A  
HETATM   21  C   UNL     1      -9.960   8.653  71.933  1.00  0.00    -0.392 A  
HETATM   22  N   UNL     1     -10.573   7.751  68.425  1.00  0.00    -0.157 NA 
HETATM   23  O   UNL     1     -10.972   6.452  68.169  1.00  0.00    -0.290 OA 
HETATM   24  C   UNL     1     -10.280   7.384  72.484  1.00  0.00    -0.261 A  
HETATM   25  C   UNL     1     -10.681   6.283  71.707  1.00  0.00    -0.279 A  
HETATM   26  C   UNL     1     -10.746   6.538  70.326  1.00  0.00    -0.255 A  
HETATM   27  N   UNL     1     -11.078   5.708  69.329  1.00  0.00    -0.178 NA 
ENDBRANCH  12  19
ENDBRANCH   3   5
ENDBRANCH   2   3
TORSDOF 6
ENDMDL
MODEL      146
REMARK 921   NORMALIZED FREE ENERGY PREDICTED BY IDOCK:   -3.33 KCAL/MOL
REMARK 922        TOTAL FREE ENERGY PREDICTED BY IDOCK:   -5.95 KCAL/MOL
REMARK 923 INTER-LIGAND FREE ENERGY PREDICTED BY IDOCK:   -4.69 KCAL/MOL
REMARK 924 INTRA-LIGAND FREE ENERGY PREDICTED BY IDOCK:   -1.26 KCAL/MOL
REMARK 927      BINDING AFFINITY PREDICTED BY RF-SCORE:    0.00 PKD
ROOT
HETATM    1  C   UNL     1      -6.945   4.336  70.242  1.00  0.00    -0.038 C  
HETATM    2  O   UNL     1      -8.170   5.028  70.504  1.00  0.00    -0.096 OA 
ENDROOT
BRANCH   2   3
HETATM    3  C   UNL     1      -9.171   4.887  69.608  1.00  0.00    -0.118 C  
HETATM    4  O   UNL     1      -9.678   3.824  69.281  1.00  0.00    -0.176 OA 
BRANCH   3   5
HETATM    5  C   UNL     1      -9.548   6.207  69.023  1.00  0.00    -0.144 C  
HETATM    6  C   UNL     1     -10.615   6.865  69.539  1.00  0.00    -0.236 C  
HETATM    7  C   UNL     1     -11.588   6.338  70.570  1.00  0.00    -0.357 C  
HETATM    8  N   UNL     1     -10.898   8.148  69.115  1.00  0.00    -0.090 NA 
HETATM    9  C   UNL     1     -10.233   8.827  68.116  1.00  0.00    -0.205 C  
HETATM   10  C   UNL     1     -10.790  10.198  67.803  1.00  0.00    -0.346 C  
HETATM   11  C   UNL     1      -9.165   8.258  67.501  1.00  0.00    -0.155 C  
HETATM   12  C   UNL     1      -8.649   6.876  67.951  1.00  0.00    -0.122 C  
BRANCH  11  13
HETATM   13  C   UNL     1      -8.573   8.951  66.322  1.00  0.00    -0.133 C  
HETATM   14  O   UNL     1      -7.474   9.497  66.350  1.00  0.00    -0.095 OA 
BRANCH  13  15
HETATM   15  O   UNL     1      -9.394   8.967  65.244  1.00  0.00    -0.197 OA 
BRANCH  15  16
HETATM   16  C   UNL     1      -9.100  10.020  64.294  1.00  0.00    -0.255 C  
HETATM   17  C   UNL     1     -10.308  10.938  64.189  1.00  0.00    -0.432 C  
HETATM   18  C   UNL     1      -8.759   9.409  62.937  1.00  0.00    -0.228 C  
ENDBRANCH  15  16
ENDBRANCH  13  15
ENDBRANCH  11  13
BRANCH  12  19
HETATM   19  C   UNL     1      -8.360   5.964  66.772  1.00  0.00    -0.109 A  
HETATM   20  C   UNL     1      -9.373   5.298  66.030  1.00  0.00    -0.158 A  
HETATM   21  C   UNL     1      -7.051   5.731  66.271  1.00  0.00    -0.068 A  
HETATM   22  N   UNL     1     -10.700   5.309  66.205  1.00  0.00    -0.269 NA 
HETATM   23  O   UNL     1     -11.224   4.510  65.204  1.00  0.00    -0.174 OA 
HETATM   24  C   UNL     1      -6.773   4.909  65.146  1.00  0.00    -0.048 A  
HETATM   25  C   UNL     1      -7.771   4.249  64.406  1.00  0.00    -0.084 A  
HETATM   26  C   UNL     1      -9.080   4.463  64.872  1.00  0.00    -0.151 A  
HETATM   27  N   UNL     1     -10.236   3.994  64.387  1.00  0.00    -0.212 NA 
ENDBRANCH  12  19
ENDBRANCH   3   5
ENDBRANCH   2   3
TORSDOF 6
ENDMDL
MODEL      147
REMARK 921   NORMALIZED FREE ENERGY PREDICTED BY IDOCK:   -3.32 KCAL/MOL
REMARK 922        TOTAL FREE ENERGY PREDICTED BY IDOCK:   -5.94 KCAL/MOL
REMARK 923 INTER-LIGAND FREE ENERGY PREDICTED BY IDOCK:   -4.33 KCAL/MOL
REMARK 924 INTRA-LIGAND FREE ENERGY PREDICTED BY IDOCK:   -1.61 KCAL/MOL
REMARK 927      BINDING AFFINITY PREDICTED BY RF-SCORE:    0.00 PKD
ROOT
HETATM    1  C   UNL     1      -8.500   6.685  66.185  1.00  0.00    -0.135 C  
HETATM    2  O   UNL     1      -9.335   7.516  66.997  1.00  0.00    -0.136 OA 
ENDROOT
BRANCH   2   3
HETATM    3  C   UNL     1     -10.461   6.968  67.503  1.00  0.00    -0.250 C  
HETATM    4  O   UNL     1     -11.390   6.533  66.839  1.00  0.00    -0.330 OA 
BRANCH   3   5
HETATM    5  C   UNL     1     -10.447   7.009  68.994  1.00  0.00    -0.219 C  
HETATM    6  C   UNL     1     -10.665   8.196  69.614  1.00  0.00    -0.195 C  
HETATM    7  C   UNL     1     -10.779   9.552  68.952  1.00  0.00    -0.220 C  
HETATM    8  N   UNL     1     -10.800   8.236  70.987  1.00  0.00    -0.228 NA 
HETATM    9  C   UNL     1     -10.643   7.164  71.839  1.00  0.00    -0.213 C  
HETATM   10  C   UNL     1     -10.781   7.497  73.308  1.00  0.00    -0.437 C  
HETATM   11  C   UNL     1     -10.389   5.928  71.338  1.00  0.00    -0.271 C  
HETATM   12  C   UNL     1     -10.334   5.698  69.814  1.00  0.00    -0.352 C  
BRANCH  11  13
HETATM   13  C   UNL     1     -10.067   4.828  72.291  1.00  0.00    -0.187 C  
HETATM   14  O   UNL     1     -10.898   4.010  72.674  1.00  0.00    -0.111 OA 
BRANCH  13  15
HETATM   15  O   UNL     1      -8.787   4.863  72.735  1.00  0.00    -0.120 OA 
BRANCH  15  16
HETATM   16  C   UNL     1      -8.348   3.638  73.370  1.00  0.00    -0.083 C  
HETATM   17  C   UNL     1      -7.420   3.988  74.523  1.00  0.00    -0.074 C  
HETATM   18  C   UNL     1      -7.640   2.753  72.348  1.00  0.00    -0.053 C  
ENDBRANCH  15  16
ENDBRANCH  13  15
ENDBRANCH  11  13
BRANCH  12  19
HETATM   19  C   UNL     1      -9.140   4.851  69.409  1.00  0.00    -0.149 A  
HETATM   20  C   UNL     1      -7.793   5.290  69.520  1.00  0.00    -0.084 A  
HETATM   21  C   UNL     1      -9.259   3.520  68.926  1.00  0.00    -0.227 A  
HETATM   22  N   UNL     1      -7.316   6.464  69.952  1.00  0.00    -0.080 NA 
HETATM   23  O   UNL     1      -5.938   6.368  69.873  1.00  0.00    -0.021 OA 
HETATM   24  C   UNL     1      -8.149   2.706  68.579  1.00  0.00    -0.069 A  
HETATM   25  C   UNL     1      -6.813   3.134  68.689  1.00  0.00    -0.045 A  
HETATM   26  C   UNL     1      -6.659   4.446  69.169  1.00  0.00    -0.041 A  
HETATM   27  N   UNL     1      -5.534   5.135  69.396  1.00  0.00    -0.007 NA 
ENDBRANCH  12  19
ENDBRANCH   3   5
ENDBRANCH   2   3
TORSDOF 6
ENDMDL
MODEL      148
REMARK 921   NORMALIZED FREE ENERGY PREDICTED BY IDOCK:   -3.32 KCAL/MOL
REMARK 922        TOTAL FREE ENERGY PREDICTED BY IDOCK:   -5.94 KCAL/MOL
REMARK 923 INTER-LIGAND FREE ENERGY PREDICTED BY IDOCK:   -5.11 KCAL/MOL
REMARK 924 INTRA-LIGAND FREE ENERGY PREDICTED BY IDOCK:   -0.83 KCAL/MOL
REMARK 927      BINDING AFFINITY PREDICTED BY RF-SCORE:    0.00 PKD
ROOT
HETATM    1  C   UNL     1      -5.190  11.821  71.167  1.00  0.00    -0.098 C  
HETATM    2  O   UNL     1      -6.225  11.116  70.475  1.00  0.00    -0.271 OA 
ENDROOT
BRANCH   2   3
HETATM    3  C   UNL     1      -6.108   9.774  70.373  1.00  0.00    -0.075 C  
HETATM    4  O   UNL     1      -5.255   9.191  69.721  1.00  0.00    -0.033 OA 
BRANCH   3   5
HETATM    5  C   UNL     1      -7.197   9.088  71.127  1.00  0.00    -0.111 C  
HETATM    6  C   UNL     1      -6.874   8.385  72.241  1.00  0.00    -0.089 C  
HETATM    7  C   UNL     1      -5.480   8.082  72.744  1.00  0.00    -0.038 C  
HETATM    8  N   UNL     1      -7.875   7.862  73.035  1.00  0.00    -0.120 NA 
HETATM    9  C   UNL     1      -9.224   7.907  72.756  1.00  0.00    -0.221 C  
HETATM   10  C   UNL     1     -10.103   7.198  73.763  1.00  0.00    -0.391 C  
HETATM   11  C   UNL     1      -9.669   8.556  71.650  1.00  0.00    -0.322 C  
HETATM   12  C   UNL     1      -8.681   9.300  70.729  1.00  0.00    -0.272 C  
BRANCH  11  13
HETATM   13  C   UNL     1     -11.113   8.448  71.297  1.00  0.00    -0.255 C  
HETATM   14  O   UNL     1     -11.855   9.421  71.210  1.00  0.00    -0.308 OA 
BRANCH  13  15
HETATM   15  O   UNL     1     -11.531   7.168  71.143  1.00  0.00    -0.267 OA 
BRANCH  15  16
HETATM   16  C   UNL     1     -10.741   6.397  70.206  1.00  0.00    -0.266 C  
HETATM   17  C   UNL     1     -11.517   6.260  68.905  1.00  0.00    -0.101 C  
HETATM   18  C   UNL     1     -10.428   5.026  70.801  1.00  0.00    -0.222 C  
ENDBRANCH  15  16
ENDBRANCH  13  15
ENDBRANCH  11  13
BRANCH  12  19
HETATM   19  C   UNL     1      -8.944   9.011  69.261  1.00  0.00    -0.144 A  
HETATM   20  C   UNL     1      -9.708   9.864  68.420  1.00  0.00    -0.149 A  
HETATM   21  C   UNL     1      -8.409   7.885  68.582  1.00  0.00    -0.128 A  
HETATM   22  N   UNL     1     -10.335  11.010  68.716  1.00  0.00    -0.192 NA 
HETATM   23  O   UNL     1     -10.915  11.444  67.537  1.00  0.00    -0.226 OA 
HETATM   24  C   UNL     1      -8.619   7.624  67.202  1.00  0.00    -0.121 A  
HETATM   25  C   UNL     1      -9.372   8.465  66.363  1.00  0.00    -0.274 A  
HETATM   26  C   UNL     1      -9.912   9.594  67.003  1.00  0.00    -0.206 A  
HETATM   27  N   UNL     1     -10.656  10.581  66.488  1.00  0.00    -0.209 NA 
ENDBRANCH  12  19
ENDBRANCH   3   5
ENDBRANCH   2   3
TORSDOF 6
ENDMDL
MODEL      149
REMARK 921   NORMALIZED FREE ENERGY PREDICTED BY IDOCK:   -3.29 KCAL/MOL
REMARK 922        TOTAL FREE ENERGY PREDICTED BY IDOCK:   -5.90 KCAL/MOL
REMARK 923 INTER-LIGAND FREE ENERGY PREDICTED BY IDOCK:   -5.05 KCAL/MOL
REMARK 924 INTRA-LIGAND FREE ENERGY PREDICTED BY IDOCK:   -0.84 KCAL/MOL
REMARK 927      BINDING AFFINITY PREDICTED BY RF-SCORE:    0.00 PKD
ROOT
HETATM    1  C   UNL     1      -7.636   8.330  64.533  1.00  0.00    -0.108 C  
HETATM    2  O   UNL     1      -8.229   7.459  65.500  1.00  0.00    -0.125 OA 
ENDROOT
BRANCH   2   3
HETATM    3  C   UNL     1      -8.989   8.021  66.465  1.00  0.00    -0.157 C  
HETATM    4  O   UNL     1     -10.187   7.835  66.615  1.00  0.00    -0.269 OA 
BRANCH   3   5
HETATM    5  C   UNL     1      -8.177   8.950  67.304  1.00  0.00    -0.104 C  
HETATM    6  C   UNL     1      -7.565   8.460  68.410  1.00  0.00    -0.097 C  
HETATM    7  C   UNL     1      -7.730   7.074  68.994  1.00  0.00    -0.109 C  
HETATM    8  N   UNL     1      -6.694   9.261  69.122  1.00  0.00    -0.049 NA 
HETATM    9  C   UNL     1      -6.438  10.591  68.867  1.00  0.00    -0.048 C  
HETATM   10  C   UNL     1      -5.490  11.253  69.842  1.00  0.00    -0.068 C  
HETATM   11  C   UNL     1      -7.019  11.203  67.804  1.00  0.00    -0.078 C  
HETATM   12  C   UNL     1      -7.921  10.407  66.838  1.00  0.00    -0.114 C  
BRANCH  11  13
HETATM   13  C   UNL     1      -6.846  12.676  67.652  1.00  0.00    -0.144 C  
HETATM   14  O   UNL     1      -5.817  13.188  67.223  1.00  0.00    -0.343 OA 
BRANCH  13  15
HETATM   15  O   UNL     1      -7.914  13.387  68.090  1.00  0.00    -0.129 OA 
BRANCH  15  16
HETATM   16  C   UNL     1      -7.838  14.804  67.802  1.00  0.00    -0.151 C  
HETATM   17  C   UNL     1      -8.276  15.580  69.035  1.00  0.00    -0.227 C  
HETATM   18  C   UNL     1      -8.727  15.135  66.605  1.00  0.00    -0.308 C  
ENDBRANCH  15  16
ENDBRANCH  13  15
ENDBRANCH  11  13
BRANCH  12  19
HETATM   19  C   UNL     1      -9.200  11.154  66.508  1.00  0.00    -0.194 A  
HETATM   20  C   UNL     1     -10.270  11.323  67.428  1.00  0.00    -0.188 A  
HETATM   21  C   UNL     1      -9.427  11.795  65.260  1.00  0.00    -0.132 A  
HETATM   22  N   UNL     1     -10.386  10.877  68.686  1.00  0.00    -0.182 NA 
HETATM   23  O   UNL     1     -11.612  11.331  69.140  1.00  0.00    -0.259 OA 
HETATM   24  C   UNL     1     -10.604  12.527  64.953  1.00  0.00    -0.330 A  
HETATM   25  C   UNL     1     -11.665  12.700  65.860  1.00  0.00    -0.470 A  
HETATM   26  C   UNL     1     -11.471  12.082  67.108  1.00  0.00    -0.335 A  
HETATM   27  N   UNL     1     -12.276  12.069  68.178  1.00  0.00    -0.337 NA 
ENDBRANCH  12  19
ENDBRANCH   3   5
ENDBRANCH   2   3
TORSDOF 6
ENDMDL
MODEL      150
REMARK 921   NORMALIZED FREE ENERGY PREDICTED BY IDOCK:   -3.25 KCAL/MOL
REMARK 922        TOTAL FREE ENERGY PREDICTED BY IDOCK:   -5.85 KCAL/MOL
REMARK 923 INTER-LIGAND FREE ENERGY PREDICTED BY IDOCK:   -4.42 KCAL/MOL
REMARK 924 INTRA-LIGAND FREE ENERGY PREDICTED BY IDOCK:   -1.43 KCAL/MOL
REMARK 927      BINDING AFFINITY PREDICTED BY RF-SCORE:    0.00 PKD
ROOT
HETATM    1  C   UNL     1      -9.244   9.687  69.310  1.00  0.00    -0.183 C  
HETATM    2  O   UNL     1      -9.311   8.484  68.537  1.00  0.00    -0.139 OA 
ENDROOT
BRANCH   2   3
HETATM    3  C   UNL     1      -8.223   7.684  68.530  1.00  0.00    -0.125 C  
HETATM    4  O   UNL     1      -7.068   8.068  68.422  1.00  0.00    -0.079 OA 
BRANCH   3   5
HETATM    5  C   UNL     1      -8.621   6.249  68.620  1.00  0.00    -0.121 C  
HETATM    6  C   UNL     1      -8.924   5.586  67.476  1.00  0.00    -0.107 C  
HETATM    7  C   UNL     1      -9.052   6.184  66.093  1.00  0.00    -0.158 C  
HETATM    8  N   UNL     1      -9.154   4.225  67.515  1.00  0.00    -0.125 NA 
HETATM    9  C   UNL     1      -9.198   3.452  68.655  1.00  0.00    -0.168 C  
HETATM   10  C   UNL     1      -9.536   1.996  68.421  1.00  0.00    -0.227 C  
HETATM   11  C   UNL     1      -8.943   4.010  69.866  1.00  0.00    -0.161 C  
HETATM   12  C   UNL     1      -8.545   5.497  69.974  1.00  0.00    -0.120 C  
BRANCH  11  13
HETATM   13  C   UNL     1      -9.155   3.183  71.088  1.00  0.00    -0.112 C  
HETATM   14  O   UNL     1     -10.198   3.199  71.733  1.00  0.00    -0.106 OA 
BRANCH  13  15
HETATM   15  O   UNL     1      -8.062   2.464  71.443  1.00  0.00    -0.052 OA 
BRANCH  15  16
HETATM   16  C   UNL     1      -6.996   3.255  72.021  1.00  0.00    -0.034 C  
HETATM   17  C   UNL     1      -5.662   2.710  71.537  1.00  0.00    -0.012 C  
HETATM   18  C   UNL     1      -7.086   3.206  73.544  1.00  0.00    -0.041 C  
ENDBRANCH  15  16
ENDBRANCH  13  15
ENDBRANCH  11  13
BRANCH  12  19
HETATM   19  C   UNL     1      -9.296   6.208  71.086  1.00  0.00    -0.175 A  
HETATM   20  C   UNL     1     -10.680   6.522  71.021  1.00  0.00    -0.243 A  
HETATM   21  C   UNL     1      -8.692   6.581  72.316  1.00  0.00    -0.130 A  
HETATM   22  N   UNL     1     -11.556   6.298  70.033  1.00  0.00    -0.401 NA 
HETATM   23  O   UNL     1     -12.771   6.783  70.484  1.00  0.00    -0.137 OA 
HETATM   24  C   UNL     1      -9.392   7.214  73.377  1.00  0.00    -0.220 A  
HETATM   25  C   UNL     1     -10.763   7.526  73.320  1.00  0.00    -0.437 A  
HETATM   26  C   UNL     1     -11.393   7.164  72.117  1.00  0.00    -0.264 A  
HETATM   27  N   UNL     1     -12.675   7.311  71.758  1.00  0.00    -0.342 NA 
ENDBRANCH  12  19
ENDBRANCH   3   5
ENDBRANCH   2   3
TORSDOF 6
ENDMDL
MODEL      151
REMARK 921   NORMALIZED FREE ENERGY PREDICTED BY IDOCK:   -3.24 KCAL/MOL
REMARK 922        TOTAL FREE ENERGY PREDICTED BY IDOCK:   -5.83 KCAL/MOL
REMARK 923 INTER-LIGAND FREE ENERGY PREDICTED BY IDOCK:   -4.84 KCAL/MOL
REMARK 924 INTRA-LIGAND FREE ENERGY PREDICTED BY IDOCK:   -0.99 KCAL/MOL
REMARK 927      BINDING AFFINITY PREDICTED BY RF-SCORE:    0.00 PKD
ROOT
HETATM    1  C   UNL     1     -13.516  10.174  71.155  1.00  0.00    -0.201 C  
HETATM    2  O   UNL     1     -12.617  10.321  70.052  1.00  0.00    -0.161 OA 
ENDROOT
BRANCH   2   3
HETATM    3  C   UNL     1     -11.309  10.065  70.272  1.00  0.00    -0.308 C  
HETATM    4  O   UNL     1     -10.682  10.409  71.262  1.00  0.00     0.389 OA 
BRANCH   3   5
HETATM    5  C   UNL     1     -10.709   9.343  69.113  1.00  0.00    -0.216 C  
HETATM    6  C   UNL     1     -10.532   8.001  69.203  1.00  0.00    -0.208 C  
HETATM    7  C   UNL     1     -10.742   7.144  70.432  1.00  0.00    -0.255 C  
HETATM    8  N   UNL     1     -10.114   7.290  68.096  1.00  0.00    -0.166 NA 
HETATM    9  C   UNL     1      -9.757   7.834  66.881  1.00  0.00    -0.216 C  
HETATM   10  C   UNL     1      -9.271   6.834  65.856  1.00  0.00    -0.001 C  
HETATM   11  C   UNL     1      -9.861   9.173  66.679  1.00  0.00    -0.307 C  
HETATM   12  C   UNL     1     -10.433  10.088  67.781  1.00  0.00    -0.282 C  
BRANCH  11  13
HETATM   13  C   UNL     1      -9.319   9.743  65.414  1.00  0.00    -0.252 C  
HETATM   14  O   UNL     1      -8.122   9.746  65.140  1.00  0.00    -0.121 OA 
BRANCH  13  15
HETATM   15  O   UNL     1     -10.270  10.309  64.631  1.00  0.00    -0.322 OA 
BRANCH  15  16
HETATM   16  C   UNL     1      -9.757  11.274  63.682  1.00  0.00    -0.321 C  
HETATM   17  C   UNL     1     -10.760  12.409  63.543  1.00  0.00    -0.473 C  
HETATM   18  C   UNL     1      -9.513  10.594  62.337  1.00  0.00    -0.240 C  
ENDBRANCH  15  16
ENDBRANCH  13  15
ENDBRANCH  11  13
BRANCH  12  19
HETATM   19  C   UNL     1      -9.596  11.342  67.970  1.00  0.00    -0.182 A  
HETATM   20  C   UNL     1      -8.197  11.321  68.216  1.00  0.00    -0.143 A  
HETATM   21  C   UNL     1     -10.130  12.655  67.871  1.00  0.00    -0.222 A  
HETATM   22  N   UNL     1      -7.373  10.273  68.346  1.00  0.00    -0.083 NA 
HETATM   23  O   UNL     1      -6.113  10.802  68.558  1.00  0.00    -0.044 OA 
HETATM   24  C   UNL     1      -9.351  13.834  68.010  1.00  0.00    -0.199 A  
HETATM   25  C   UNL     1      -7.965  13.820  68.250  1.00  0.00    -0.146 A  
HETATM   26  C   UNL     1      -7.403  12.535  68.349  1.00  0.00    -0.114 A  
HETATM   27  N   UNL     1      -6.128  12.185  68.559  1.00  0.00    -0.050 NA 
ENDBRANCH  12  19
ENDBRANCH   3   5
ENDBRANCH   2   3
TORSDOF 6
ENDMDL
MODEL      152
REMARK 921   NORMALIZED FREE ENERGY PREDICTED BY IDOCK:   -3.16 KCAL/MOL
REMARK 922        TOTAL FREE ENERGY PREDICTED BY IDOCK:   -5.72 KCAL/MOL
REMARK 923 INTER-LIGAND FREE ENERGY PREDICTED BY IDOCK:   -4.74 KCAL/MOL
REMARK 924 INTRA-LIGAND FREE ENERGY PREDICTED BY IDOCK:   -0.98 KCAL/MOL
REMARK 927      BINDING AFFINITY PREDICTED BY RF-SCORE:    0.00 PKD
ROOT
HETATM    1  C   UNL     1      -9.507   8.282  70.823  1.00  0.00    -0.161 C  
HETATM    2  O   UNL     1     -10.179   7.109  71.295  1.00  0.00    -0.191 OA 
ENDROOT
BRANCH   2   3
HETATM    3  C   UNL     1     -11.035   6.497  70.449  1.00  0.00    -0.298 C  
HETATM    4  O   UNL     1     -12.231   6.733  70.366  1.00  0.00    -0.324 OA 
BRANCH   3   5
HETATM    5  C   UNL     1     -10.335   5.445  69.656  1.00  0.00    -0.361 C  
HETATM    6  C   UNL     1      -9.825   4.370  70.307  1.00  0.00    -0.214 C  
HETATM    7  C   UNL     1      -9.752   4.175  71.806  1.00  0.00    -0.245 C  
HETATM    8  N   UNL     1      -9.301   3.317  69.585  1.00  0.00    -0.163 NA 
HETATM    9  C   UNL     1      -9.155   3.279  68.215  1.00  0.00    -0.160 C  
HETATM   10  C   UNL     1      -8.489   2.030  67.683  1.00  0.00    -0.094 C  
HETATM   11  C   UNL     1      -9.598   4.313  67.455  1.00  0.00    -0.219 C  
HETATM   12  C   UNL     1     -10.321   5.510  68.106  1.00  0.00    -0.236 C  
BRANCH  11  13
HETATM   13  C   UNL     1      -9.280   4.311  65.999  1.00  0.00    -0.145 C  
HETATM   14  O   UNL     1      -8.207   4.698  65.548  1.00  0.00    -0.111 OA 
BRANCH  13  15
HETATM   15  O   UNL     1     -10.314   3.896  65.226  1.00  0.00    -0.137 OA 
BRANCH  15  16
HETATM   16  C   UNL     1      -9.922   3.431  63.913  1.00  0.00    -0.178 C  
HETATM   17  C   UNL     1     -11.105   3.569  62.968  1.00  0.00     0.038 C  
HETATM   18  C   UNL     1      -9.458   1.979  63.998  1.00  0.00    -0.126 C  
ENDBRANCH  15  16
ENDBRANCH  13  15
ENDBRANCH  11  13
BRANCH  12  19
HETATM   19  C   UNL     1      -9.814   6.839  67.576  1.00  0.00    -0.164 A  
HETATM   20  C   UNL     1      -8.468   7.274  67.709  1.00  0.00    -0.121 A  
HETATM   21  C   UNL     1     -10.630   7.751  66.855  1.00  0.00    -0.347 A  
HETATM   22  N   UNL     1      -7.434   6.666  68.304  1.00  0.00    -0.093 NA 
HETATM   23  O   UNL     1      -6.348   7.506  68.136  1.00  0.00    -0.045 OA 
HETATM   24  C   UNL     1     -10.158   8.980  66.323  1.00  0.00    -0.311 A  
HETATM   25  C   UNL     1      -8.826   9.415  66.449  1.00  0.00    -0.167 A  
HETATM   26  C   UNL     1      -7.989   8.533  67.154  1.00  0.00    -0.101 A  
HETATM   27  N   UNL     1      -6.685   8.647  67.432  1.00  0.00    -0.062 NA 
ENDBRANCH  12  19
ENDBRANCH   3   5
ENDBRANCH   2   3
TORSDOF 6
ENDMDL
MODEL      153
REMARK 921   NORMALIZED FREE ENERGY PREDICTED BY IDOCK:   -3.12 KCAL/MOL
REMARK 922        TOTAL FREE ENERGY PREDICTED BY IDOCK:   -5.66 KCAL/MOL
REMARK 923 INTER-LIGAND FREE ENERGY PREDICTED BY IDOCK:   -4.63 KCAL/MOL
REMARK 924 INTRA-LIGAND FREE ENERGY PREDICTED BY IDOCK:   -1.03 KCAL/MOL
REMARK 927      BINDING AFFINITY PREDICTED BY RF-SCORE:    0.00 PKD
ROOT
HETATM    1  C   UNL     1      -8.865   3.387  65.934  1.00  0.00    -0.135 C  
HETATM    2  O   UNL     1      -8.973   4.303  67.027  1.00  0.00    -0.113 OA 
ENDROOT
BRANCH   2   3
HETATM    3  C   UNL     1      -9.801   5.360  66.879  1.00  0.00    -0.166 C  
HETATM    4  O   UNL     1     -10.892   5.326  66.330  1.00  0.00    -0.285 OA 
BRANCH   3   5
HETATM    5  C   UNL     1      -9.182   6.599  67.432  1.00  0.00    -0.124 C  
HETATM    6  C   UNL     1      -8.219   7.224  66.710  1.00  0.00    -0.121 C  
HETATM    7  C   UNL     1      -7.574   6.717  65.439  1.00  0.00    -0.090 C  
HETATM    8  N   UNL     1      -7.734   8.446  67.129  1.00  0.00    -0.096 NA 
HETATM    9  C   UNL     1      -8.076   9.085  68.301  1.00  0.00    -0.109 C  
HETATM   10  C   UNL     1      -7.346  10.386  68.551  1.00  0.00    -0.086 C  
HETATM   11  C   UNL     1      -9.008   8.541  69.125  1.00  0.00    -0.146 C  
HETATM   12  C   UNL     1      -9.734   7.239  68.733  1.00  0.00    -0.151 C  
BRANCH  11  13
HETATM   13  C   UNL     1      -9.235   9.175  70.455  1.00  0.00    -0.233 C  
HETATM   14  O   UNL     1     -10.294   9.712  70.768  1.00  0.00    -0.291 OA 
BRANCH  13  15
HETATM   15  O   UNL     1      -8.140   9.151  71.253  1.00  0.00    -0.285 OA 
BRANCH  15  16
HETATM   16  C   UNL     1      -7.949   7.901  71.957  1.00  0.00    -0.113 C  
HETATM   17  C   UNL     1      -8.620   7.995  73.318  1.00  0.00    -0.297 C  
HETATM   18  C   UNL     1      -6.457   7.614  72.103  1.00  0.00    -0.051 C  
ENDBRANCH  15  16
ENDBRANCH  13  15
ENDBRANCH  11  13
BRANCH  12  19
HETATM   19  C   UNL     1      -9.805   6.256  69.889  1.00  0.00    -0.198 A  
HETATM   20  C   UNL     1     -10.905   6.178  70.785  1.00  0.00    -0.288 A  
HETATM   21  C   UNL     1      -8.796   5.291  70.152  1.00  0.00    -0.144 A  
HETATM   22  N   UNL     1     -12.026   6.910  70.819  1.00  0.00    -0.378 NA 
HETATM   23  O   UNL     1     -12.771   6.417  71.875  1.00  0.00    -0.280 OA 
HETATM   24  C   UNL     1      -8.869   4.344  71.208  1.00  0.00    -0.152 A  
HETATM   25  C   UNL     1      -9.956   4.259  72.096  1.00  0.00    -0.246 A  
HETATM   26  C   UNL     1     -10.975   5.198  71.860  1.00  0.00    -0.042 A  
HETATM   27  N   UNL     1     -12.132   5.369  72.512  1.00  0.00    -0.014 NA 
ENDBRANCH  12  19
ENDBRANCH   3   5
ENDBRANCH   2   3
TORSDOF 6
ENDMDL
MODEL      154
REMARK 921   NORMALIZED FREE ENERGY PREDICTED BY IDOCK:   -3.10 KCAL/MOL
REMARK 922        TOTAL FREE ENERGY PREDICTED BY IDOCK:   -5.64 KCAL/MOL
REMARK 923 INTER-LIGAND FREE ENERGY PREDICTED BY IDOCK:   -4.85 KCAL/MOL
REMARK 924 INTRA-LIGAND FREE ENERGY PREDICTED BY IDOCK:   -0.79 KCAL/MOL
REMARK 927      BINDING AFFINITY PREDICTED BY RF-SCORE:    0.00 PKD
ROOT
HETATM    1  C   UNL     1      -6.159   8.061  72.035  1.00  0.00    -0.043 C  
HETATM    2  O   UNL     1      -7.264   8.749  71.441  1.00  0.00    -0.085 OA 
ENDROOT
BRANCH   2   3
HETATM    3  C   UNL     1      -8.080   8.041  70.632  1.00  0.00    -0.104 C  
HETATM    4  O   UNL     1      -7.786   6.988  70.085  1.00  0.00    -0.105 OA 
BRANCH   3   5
HETATM    5  C   UNL     1      -9.383   8.743  70.447  1.00  0.00    -0.205 C  
HETATM    6  C   UNL     1     -10.502   8.186  70.973  1.00  0.00    -0.201 C  
HETATM    7  C   UNL     1     -10.613   6.822  71.618  1.00  0.00    -0.239 C  
HETATM    8  N   UNL     1     -11.693   8.883  70.941  1.00  0.00    -0.281 NA 
HETATM    9  C   UNL     1     -11.893  10.101  70.328  1.00  0.00    -0.261 C  
HETATM   10  C   UNL     1     -13.315  10.614  70.386  1.00  0.00     0.220 C  
HETATM   11  C   UNL     1     -10.853  10.744  69.738  1.00  0.00    -0.284 C  
HETATM   12  C   UNL     1      -9.431  10.151  69.798  1.00  0.00    -0.201 C  
BRANCH  11  13
HETATM   13  C   UNL     1     -11.137  11.976  68.949  1.00  0.00    -0.247 C  
HETATM   14  O   UNL     1     -10.957  13.108  69.388  1.00  0.00    -0.139 OA 
BRANCH  13  15
HETATM   15  O   UNL     1     -11.667  11.719  67.728  1.00  0.00    -0.464 OA 
BRANCH  15  16
HETATM   16  C   UNL     1     -11.163  12.573  66.673  1.00  0.00    -0.307 C  
HETATM   17  C   UNL     1     -11.657  13.992  66.911  1.00  0.00    -0.407 C  
HETATM   18  C   UNL     1     -11.633  12.051  65.318  1.00  0.00    -0.337 C  
ENDBRANCH  15  16
ENDBRANCH  13  15
ENDBRANCH  11  13
BRANCH  12  19
HETATM   19  C   UNL     1      -8.735  10.202  68.450  1.00  0.00    -0.123 A  
HETATM   20  C   UNL     1      -7.669  11.094  68.151  1.00  0.00    -0.107 A  
HETATM   21  C   UNL     1      -9.054   9.329  67.376  1.00  0.00    -0.141 A  
HETATM   22  N   UNL     1      -7.101  12.028  68.924  1.00  0.00    -0.111 NA 
HETATM   23  O   UNL     1      -6.102  12.601  68.159  1.00  0.00    -0.065 OA 
HETATM   24  C   UNL     1      -8.385   9.344  66.123  1.00  0.00    -0.118 A  
HETATM   25  C   UNL     1      -7.329  10.222  65.822  1.00  0.00    -0.140 A  
HETATM   26  C   UNL     1      -6.983  11.097  66.866  1.00  0.00    -0.131 A  
HETATM   27  N   UNL     1      -6.027  12.033  66.901  1.00  0.00    -0.217 NA 
ENDBRANCH  12  19
ENDBRANCH   3   5
ENDBRANCH   2   3
TORSDOF 6
ENDMDL
MODEL      155
REMARK 921   NORMALIZED FREE ENERGY PREDICTED BY IDOCK:   -3.07 KCAL/MOL
REMARK 922        TOTAL FREE ENERGY PREDICTED BY IDOCK:   -5.60 KCAL/MOL
REMARK 923 INTER-LIGAND FREE ENERGY PREDICTED BY IDOCK:   -4.14 KCAL/MOL
REMARK 924 INTRA-LIGAND FREE ENERGY PREDICTED BY IDOCK:   -1.46 KCAL/MOL
REMARK 927      BINDING AFFINITY PREDICTED BY RF-SCORE:    0.00 PKD
ROOT
HETATM    1  C   UNL     1      -8.043  11.274  68.612  1.00  0.00    -0.145 C  
HETATM    2  O   UNL     1      -8.232  10.277  67.603  1.00  0.00    -0.113 OA 
ENDROOT
BRANCH   2   3
HETATM    3  C   UNL     1      -7.322   9.282  67.530  1.00  0.00    -0.087 C  
HETATM    4  O   UNL     1      -6.110   9.432  67.572  1.00  0.00    -0.052 OA 
BRANCH   3   5
HETATM    5  C   UNL     1      -7.994   7.964  67.337  1.00  0.00    -0.122 C  
HETATM    6  C   UNL     1      -8.235   7.536  66.073  1.00  0.00    -0.130 C  
HETATM    7  C   UNL     1      -8.030   8.325  64.799  1.00  0.00    -0.146 C  
HETATM    8  N   UNL     1      -8.723   6.261  65.863  1.00  0.00    -0.151 NA 
HETATM    9  C   UNL     1      -9.089   5.371  66.849  1.00  0.00    -0.114 C  
HETATM   10  C   UNL     1      -9.656   4.063  66.344  1.00  0.00    -0.217 C  
HETATM   11  C   UNL     1      -8.925   5.699  68.156  1.00  0.00    -0.111 C  
HETATM   12  C   UNL     1      -8.274   7.040  68.551  1.00  0.00    -0.124 C  
BRANCH  11  13
HETATM   13  C   UNL     1      -9.478   4.781  69.193  1.00  0.00    -0.149 C  
HETATM   14  O   UNL     1     -10.634   4.848  69.597  1.00  0.00    -0.126 OA 
BRANCH  13  15
HETATM   15  O   UNL     1      -8.560   3.911  69.681  1.00  0.00    -0.065 OA 
BRANCH  15  16
HETATM   16  C   UNL     1      -8.997   2.531  69.686  1.00  0.00    -0.104 C  
HETATM   17  C   UNL     1      -8.934   2.001  71.110  1.00  0.00    -0.138 C  
HETATM   18  C   UNL     1      -8.111   1.706  68.757  1.00  0.00    -0.061 C  
ENDBRANCH  15  16
ENDBRANCH  13  15
ENDBRANCH  11  13
BRANCH  12  19
HETATM   19  C   UNL     1      -9.040   7.740  69.660  1.00  0.00    -0.146 A  
HETATM   20  C   UNL     1      -8.570   7.837  70.997  1.00  0.00    -0.127 A  
HETATM   21  C   UNL     1     -10.278   8.406  69.450  1.00  0.00    -0.208 A  
HETATM   22  N   UNL     1      -7.446   7.351  71.540  1.00  0.00    -0.079 NA 
HETATM   23  O   UNL     1      -7.464   7.739  72.867  1.00  0.00    -0.090 OA 
HETATM   24  C   UNL     1     -10.985   9.094  70.471  1.00  0.00    -0.307 A  
HETATM   25  C   UNL     1     -10.524   9.195  71.796  1.00  0.00    -0.361 A  
HETATM   26  C   UNL     1      -9.298   8.552  72.037  1.00  0.00    -0.283 A  
HETATM   27  N   UNL     1      -8.595   8.474  73.174  1.00  0.00    -0.383 NA 
ENDBRANCH  12  19
ENDBRANCH   3   5
ENDBRANCH   2   3
TORSDOF 6
ENDMDL
MODEL      156
REMARK 921   NORMALIZED FREE ENERGY PREDICTED BY IDOCK:   -3.05 KCAL/MOL
REMARK 922        TOTAL FREE ENERGY PREDICTED BY IDOCK:   -5.58 KCAL/MOL
REMARK 923 INTER-LIGAND FREE ENERGY PREDICTED BY IDOCK:   -5.39 KCAL/MOL
REMARK 924 INTRA-LIGAND FREE ENERGY PREDICTED BY IDOCK:   -0.19 KCAL/MOL
REMARK 927      BINDING AFFINITY PREDICTED BY RF-SCORE:    0.00 PKD
ROOT
HETATM    1  C   UNL     1     -11.869   9.449  71.273  1.00  0.00    -0.360 C  
HETATM    2  O   UNL     1     -11.279   8.372  72.008  1.00  0.00    -0.287 OA 
ENDROOT
BRANCH   2   3
HETATM    3  C   UNL     1     -11.850   7.153  71.900  1.00  0.00    -0.300 C  
HETATM    4  O   UNL     1     -13.052   6.935  71.931  1.00  0.00    -0.316 OA 
BRANCH   3   5
HETATM    5  C   UNL     1     -10.811   6.089  71.789  1.00  0.00    -0.312 C  
HETATM    6  C   UNL     1     -10.174   5.683  72.915  1.00  0.00    -0.186 C  
HETATM    7  C   UNL     1     -10.291   6.300  74.291  1.00  0.00    -0.304 C  
HETATM    8  N   UNL     1      -9.314   4.604  72.864  1.00  0.00    -0.126 NA 
HETATM    9  C   UNL     1      -8.952   3.921  71.722  1.00  0.00    -0.110 C  
HETATM   10  C   UNL     1      -7.940   2.817  71.937  1.00  0.00    -0.054 C  
HETATM   11  C   UNL     1      -9.499   4.258  70.526  1.00  0.00    -0.244 C  
HETATM   12  C   UNL     1     -10.572   5.363  70.440  1.00  0.00    -0.322 C  
BRANCH  11  13
HETATM   13  C   UNL     1      -8.967   3.608  69.295  1.00  0.00    -0.116 C  
HETATM   14  O   UNL     1      -9.688   3.101  68.441  1.00  0.00    -0.118 OA 
BRANCH  13  15
HETATM   15  O   UNL     1      -7.613   3.583  69.246  1.00  0.00    -0.052 OA 
BRANCH  15  16
HETATM   16  C   UNL     1      -7.052   4.215  68.071  1.00  0.00    -0.059 C  
HETATM   17  C   UNL     1      -6.318   5.478  68.495  1.00  0.00    -0.038 C  
HETATM   18  C   UNL     1      -8.166   4.540  67.078  1.00  0.00    -0.102 C  
ENDBRANCH  15  16
ENDBRANCH  13  15
ENDBRANCH  11  13
BRANCH  12  19
HETATM   19  C   UNL     1     -10.311   6.321  69.292  1.00  0.00    -0.266 A  
HETATM   20  C   UNL     1      -9.310   7.330  69.325  1.00  0.00    -0.154 A  
HETATM   21  C   UNL     1     -11.013   6.267  68.058  1.00  0.00    -0.418 A  
HETATM   22  N   UNL     1      -8.457   7.647  70.307  1.00  0.00    -0.132 NA 
HETATM   23  O   UNL     1      -7.687   8.689  69.822  1.00  0.00    -0.083 OA 
HETATM   24  C   UNL     1     -10.752   7.135  66.965  1.00  0.00    -0.420 A  
HETATM   25  C   UNL     1      -9.762   8.133  66.990  1.00  0.00    -0.275 A  
HETATM   26  C   UNL     1      -9.044   8.211  68.197  1.00  0.00    -0.134 A  
HETATM   27  N   UNL     1      -8.042   9.034  68.531  1.00  0.00    -0.107 NA 
ENDBRANCH  12  19
ENDBRANCH   3   5
ENDBRANCH   2   3
TORSDOF 6
ENDMDL
MODEL      157
REMARK 921   NORMALIZED FREE ENERGY PREDICTED BY IDOCK:   -3.05 KCAL/MOL
REMARK 922        TOTAL FREE ENERGY PREDICTED BY IDOCK:   -5.57 KCAL/MOL
REMARK 923 INTER-LIGAND FREE ENERGY PREDICTED BY IDOCK:   -4.45 KCAL/MOL
REMARK 924 INTRA-LIGAND FREE ENERGY PREDICTED BY IDOCK:   -1.13 KCAL/MOL
REMARK 927      BINDING AFFINITY PREDICTED BY RF-SCORE:    0.00 PKD
ROOT
HETATM    1  C   UNL     1      -9.268  10.712  69.262  1.00  0.00    -0.104 C  
HETATM    2  O   UNL     1      -9.427   9.697  70.259  1.00  0.00    -0.242 OA 
ENDROOT
BRANCH   2   3
HETATM    3  C   UNL     1     -10.529   8.920  70.190  1.00  0.00    -0.214 C  
HETATM    4  O   UNL     1     -11.670   9.295  70.420  1.00  0.00    -0.225 OA 
BRANCH   3   5
HETATM    5  C   UNL     1     -10.166   7.515  69.843  1.00  0.00    -0.210 C  
HETATM    6  C   UNL     1      -9.830   6.665  70.844  1.00  0.00    -0.183 C  
HETATM    7  C   UNL     1      -9.632   7.019  72.301  1.00  0.00    -0.165 C  
HETATM    8  N   UNL     1      -9.630   5.327  70.567  1.00  0.00    -0.165 NA 
HETATM    9  C   UNL     1      -9.650   4.756  69.313  1.00  0.00    -0.173 C  
HETATM   10  C   UNL     1      -9.334   3.277  69.284  1.00  0.00    -0.233 C  
HETATM   11  C   UNL     1      -9.943   5.515  68.226  1.00  0.00    -0.201 C  
HETATM   12  C   UNL     1     -10.314   7.003  68.387  1.00  0.00    -0.216 C  
BRANCH  11  13
HETATM   13  C   UNL     1      -9.799   4.902  66.874  1.00  0.00    -0.197 C  
HETATM   14  O   UNL     1     -10.748   4.722  66.118  1.00  0.00    -0.308 OA 
BRANCH  13  15
HETATM   15  O   UNL     1      -8.531   4.514  66.596  1.00  0.00    -0.106 OA 
BRANCH  15  16
HETATM   16  C   UNL     1      -8.437   3.489  65.577  1.00  0.00    -0.107 C  
HETATM   17  C   UNL     1      -7.632   2.322  66.127  1.00  0.00    -0.067 C  
HETATM   18  C   UNL     1      -7.779   4.065  64.326  1.00  0.00    -0.084 C  
ENDBRANCH  15  16
ENDBRANCH  13  15
ENDBRANCH  11  13
BRANCH  12  19
HETATM   19  C   UNL     1      -9.595   7.881  67.377  1.00  0.00    -0.195 A  
HETATM   20  C   UNL     1      -8.182   8.028  67.331  1.00  0.00    -0.123 A  
HETATM   21  C   UNL     1     -10.268   8.600  66.354  1.00  0.00    -0.224 A  
HETATM   22  N   UNL     1      -7.246   7.484  68.119  1.00  0.00    -0.088 NA 
HETATM   23  O   UNL     1      -6.031   7.936  67.636  1.00  0.00    -0.043 OA 
HETATM   24  C   UNL     1      -9.604   9.395  65.383  1.00  0.00    -0.296 A  
HETATM   25  C   UNL     1      -8.206   9.543  65.330  1.00  0.00    -0.131 A  
HETATM   26  C   UNL     1      -7.508   8.838  66.326  1.00  0.00    -0.087 A  
HETATM   27  N   UNL     1      -6.188   8.763  66.539  1.00  0.00    -0.060 NA 
ENDBRANCH  12  19
ENDBRANCH   3   5
ENDBRANCH   2   3
TORSDOF 6
ENDMDL
MODEL      158
REMARK 921   NORMALIZED FREE ENERGY PREDICTED BY IDOCK:   -3.03 KCAL/MOL
REMARK 922        TOTAL FREE ENERGY PREDICTED BY IDOCK:   -5.55 KCAL/MOL
REMARK 923 INTER-LIGAND FREE ENERGY PREDICTED BY IDOCK:   -4.16 KCAL/MOL
REMARK 924 INTRA-LIGAND FREE ENERGY PREDICTED BY IDOCK:   -1.40 KCAL/MOL
REMARK 927      BINDING AFFINITY PREDICTED BY RF-SCORE:    0.00 PKD
ROOT
HETATM    1  C   UNL     1      -7.118   7.198  63.146  1.00  0.00    -0.065 C  
HETATM    2  O   UNL     1      -7.880   7.214  64.357  1.00  0.00    -0.112 OA 
ENDROOT
BRANCH   2   3
HETATM    3  C   UNL     1      -7.219   6.997  65.515  1.00  0.00    -0.070 C  
HETATM    4  O   UNL     1      -6.004   6.949  65.632  1.00  0.00    -0.034 OA 
BRANCH   3   5
HETATM    5  C   UNL     1      -8.176   6.769  66.636  1.00  0.00    -0.115 C  
HETATM    6  C   UNL     1      -8.718   5.535  66.788  1.00  0.00    -0.114 C  
HETATM    7  C   UNL     1      -8.577   4.365  65.839  1.00  0.00    -0.114 C  
HETATM    8  N   UNL     1      -9.492   5.259  67.897  1.00  0.00    -0.120 NA 
HETATM    9  C   UNL     1      -9.860   6.170  68.864  1.00  0.00    -0.140 C  
HETATM   10  C   UNL     1     -10.768   5.619  69.941  1.00  0.00    -0.399 C  
HETATM   11  C   UNL     1      -9.405   7.447  68.803  1.00  0.00    -0.144 C  
HETATM   12  C   UNL     1      -8.428   7.878  67.690  1.00  0.00    -0.127 C  
BRANCH  11  13
HETATM   13  C   UNL     1      -9.949   8.441  69.772  1.00  0.00    -0.191 C  
HETATM   14  O   UNL     1     -11.100   8.863  69.722  1.00  0.00    -0.200 OA 
BRANCH  13  15
HETATM   15  O   UNL     1      -9.029   8.872  70.670  1.00  0.00    -0.162 OA 
BRANCH  15  16
HETATM   16  C   UNL     1      -8.729   7.915  71.714  1.00  0.00    -0.123 C  
HETATM   17  C   UNL     1      -9.493   8.303  72.970  1.00  0.00    -0.298 C  
HETATM   18  C   UNL     1      -7.225   7.892  71.975  1.00  0.00    -0.080 C  
ENDBRANCH  15  16
ENDBRANCH  13  15
ENDBRANCH  11  13
BRANCH  12  19
HETATM   19  C   UNL     1      -8.825   9.205  67.067  1.00  0.00    -0.135 A  
HETATM   20  C   UNL     1      -8.118  10.418  67.288  1.00  0.00    -0.114 A  
HETATM   21  C   UNL     1      -9.913   9.346  66.165  1.00  0.00    -0.351 A  
HETATM   22  N   UNL     1      -7.042  10.646  68.053  1.00  0.00    -0.084 NA 
HETATM   23  O   UNL     1      -6.746  11.989  67.904  1.00  0.00    -0.067 OA 
HETATM   24  C   UNL     1     -10.271  10.574  65.548  1.00  0.00    -0.325 A  
HETATM   25  C   UNL     1      -9.574  11.777  65.761  1.00  0.00    -0.253 A  
HETATM   26  C   UNL     1      -8.486  11.672  66.645  1.00  0.00    -0.165 A  
HETATM   27  N   UNL     1      -7.626  12.618  67.043  1.00  0.00    -0.055 NA 
ENDBRANCH  12  19
ENDBRANCH   3   5
ENDBRANCH   2   3
TORSDOF 6
ENDMDL
MODEL      159
REMARK 921   NORMALIZED FREE ENERGY PREDICTED BY IDOCK:   -3.03 KCAL/MOL
REMARK 922        TOTAL FREE ENERGY PREDICTED BY IDOCK:   -5.55 KCAL/MOL
REMARK 923 INTER-LIGAND FREE ENERGY PREDICTED BY IDOCK:   -4.07 KCAL/MOL
REMARK 924 INTRA-LIGAND FREE ENERGY PREDICTED BY IDOCK:   -1.48 KCAL/MOL
REMARK 927      BINDING AFFINITY PREDICTED BY RF-SCORE:    0.00 PKD
ROOT
HETATM    1  C   UNL     1     -11.021   6.429  67.078  1.00  0.00    -0.389 C  
HETATM    2  O   UNL     1     -10.571   7.577  67.805  1.00  0.00    -0.227 OA 
ENDROOT
BRANCH   2   3
HETATM    3  C   UNL     1      -9.241   7.720  67.987  1.00  0.00    -0.138 C  
HETATM    4  O   UNL     1      -8.414   7.803  67.091  1.00  0.00    -0.122 OA 
BRANCH   3   5
HETATM    5  C   UNL     1      -8.900   7.713  69.439  1.00  0.00    -0.139 C  
HETATM    6  C   UNL     1      -8.791   8.900  70.087  1.00  0.00    -0.163 C  
HETATM    7  C   UNL     1      -8.831  10.276  69.461  1.00  0.00    -0.166 C  
HETATM    8  N   UNL     1      -8.620   8.918  71.457  1.00  0.00    -0.309 NA 
HETATM    9  C   UNL     1      -8.453   7.810  72.259  1.00  0.00    -0.128 C  
HETATM   10  C   UNL     1      -8.218   8.115  73.721  1.00  0.00    -0.303 C  
HETATM   11  C   UNL     1      -8.510   6.565  71.719  1.00  0.00    -0.123 C  
HETATM   12  C   UNL     1      -8.820   6.376  70.220  1.00  0.00    -0.151 C  
BRANCH  11  13
HETATM   13  C   UNL     1      -8.168   5.401  72.584  1.00  0.00    -0.114 C  
HETATM   14  O   UNL     1      -7.074   4.846  72.556  1.00  0.00    -0.072 OA 
BRANCH  13  15
HETATM   15  O   UNL     1      -9.202   4.984  73.354  1.00  0.00    -0.124 OA 
BRANCH  15  16
HETATM   16  C   UNL     1     -10.280   4.366  72.612  1.00  0.00    -0.180 C  
HETATM   17  C   UNL     1     -11.604   4.749  73.257  1.00  0.00    -0.286 C  
HETATM   18  C   UNL     1     -10.097   2.851  72.601  1.00  0.00    -0.232 C  
ENDBRANCH  15  16
ENDBRANCH  13  15
ENDBRANCH  11  13
BRANCH  12  19
HETATM   19  C   UNL     1      -7.890   5.368  69.569  1.00  0.00    -0.085 A  
HETATM   20  C   UNL     1      -8.317   4.096  69.101  1.00  0.00    -0.073 A  
HETATM   21  C   UNL     1      -6.514   5.624  69.325  1.00  0.00    -0.045 A  
HETATM   22  N   UNL     1      -9.534   3.539  69.146  1.00  0.00    -0.176 NA 
HETATM   23  O   UNL     1      -9.410   2.301  68.541  1.00  0.00    -0.171 OA 
HETATM   24  C   UNL     1      -5.643   4.703  68.685  1.00  0.00    -0.016 A  
HETATM   25  C   UNL     1      -6.060   3.443  68.217  1.00  0.00    -0.031 A  
HETATM   26  C   UNL     1      -7.419   3.160  68.438  1.00  0.00    -0.049 A  
HETATM   27  N   UNL     1      -8.118   2.067  68.106  1.00  0.00    -0.057 NA 
ENDBRANCH  12  19
ENDBRANCH   3   5
ENDBRANCH   2   3
TORSDOF 6
ENDMDL
MODEL      160
REMARK 921   NORMALIZED FREE ENERGY PREDICTED BY IDOCK:   -3.01 KCAL/MOL
REMARK 922        TOTAL FREE ENERGY PREDICTED BY IDOCK:   -5.52 KCAL/MOL
REMARK 923 INTER-LIGAND FREE ENERGY PREDICTED BY IDOCK:   -4.37 KCAL/MOL
REMARK 924 INTRA-LIGAND FREE ENERGY PREDICTED BY IDOCK:   -1.15 KCAL/MOL
REMARK 927      BINDING AFFINITY PREDICTED BY RF-SCORE:    0.00 PKD
ROOT
HETATM    1  C   UNL     1     -13.033   9.792  72.452  1.00  0.00    -0.228 C  
HETATM    2  O   UNL     1     -11.727   9.802  71.868  1.00  0.00    -0.314 OA 
ENDROOT
BRANCH   2   3
HETATM    3  C   UNL     1     -10.941   8.724  72.074  1.00  0.00    -0.368 C  
HETATM    4  O   UNL     1     -10.457   8.402  73.149  1.00  0.00    -0.058 OA 
BRANCH   3   5
HETATM    5  C   UNL     1     -10.693   7.997  70.795  1.00  0.00    -0.236 C  
HETATM    6  C   UNL     1     -11.587   7.058  70.397  1.00  0.00    -0.295 C  
HETATM    7  C   UNL     1     -12.765   6.540  71.192  1.00  0.00     0.027 C  
HETATM    8  N   UNL     1     -11.458   6.475  69.153  1.00  0.00    -0.265 NA 
HETATM    9  C   UNL     1     -10.423   6.691  68.269  1.00  0.00    -0.209 C  
HETATM   10  C   UNL     1     -10.491   5.872  66.999  1.00  0.00    -0.341 C  
HETATM   11  C   UNL     1      -9.448   7.587  68.570  1.00  0.00    -0.146 C  
HETATM   12  C   UNL     1      -9.519   8.413  69.871  1.00  0.00    -0.166 C  
BRANCH  11  13
HETATM   13  C   UNL     1      -8.265   7.678  67.668  1.00  0.00    -0.121 C  
HETATM   14  O   UNL     1      -7.354   6.856  67.675  1.00  0.00    -0.091 OA 
BRANCH  13  15
HETATM   15  O   UNL     1      -8.271   8.787  66.889  1.00  0.00    -0.107 OA 
BRANCH  15  16
HETATM   16  C   UNL     1      -9.014   8.639  65.656  1.00  0.00    -0.182 C  
HETATM   17  C   UNL     1      -8.051   8.250  64.545  1.00  0.00    -0.146 C  
HETATM   18  C   UNL     1      -9.729   9.947  65.325  1.00  0.00    -0.383 C  
ENDBRANCH  15  16
ENDBRANCH  13  15
ENDBRANCH  11  13
BRANCH  12  19
HETATM   19  C   UNL     1      -8.184   8.451  70.594  1.00  0.00    -0.117 A  
HETATM   20  C   UNL     1      -7.666   7.359  71.341  1.00  0.00    -0.086 A  
HETATM   21  C   UNL     1      -7.308   9.568  70.551  1.00  0.00    -0.147 A  
HETATM   22  N   UNL     1      -8.206   6.155  71.572  1.00  0.00    -0.118 NA 
HETATM   23  O   UNL     1      -7.286   5.464  72.340  1.00  0.00    -0.087 OA 
HETATM   24  C   UNL     1      -6.042   9.601  71.193  1.00  0.00    -0.060 A  
HETATM   25  C   UNL     1      -5.522   8.523  71.932  1.00  0.00    -0.041 A  
HETATM   26  C   UNL     1      -6.363   7.398  71.990  1.00  0.00    -0.043 A  
HETATM   27  N   UNL     1      -6.157   6.221  72.596  1.00  0.00    -0.045 NA 
ENDBRANCH  12  19
ENDBRANCH   3   5
ENDBRANCH   2   3
TORSDOF 6
ENDMDL
MODEL      161
REMARK 921   NORMALIZED FREE ENERGY PREDICTED BY IDOCK:   -3.00 KCAL/MOL
REMARK 922        TOTAL FREE ENERGY PREDICTED BY IDOCK:   -5.51 KCAL/MOL
REMARK 923 INTER-LIGAND FREE ENERGY PREDICTED BY IDOCK:   -4.41 KCAL/MOL
REMARK 924 INTRA-LIGAND FREE ENERGY PREDICTED BY IDOCK:   -1.10 KCAL/MOL
REMARK 927      BINDING AFFINITY PREDICTED BY RF-SCORE:    0.00 PKD
ROOT
HETATM    1  C   UNL     1      -5.718  11.979  70.262  1.00  0.00    -0.159 C  
HETATM    2  O   UNL     1      -6.109  11.605  68.938  1.00  0.00    -0.048 OA 
ENDROOT
BRANCH   2   3
HETATM    3  C   UNL     1      -6.055  10.294  68.616  1.00  0.00    -0.047 C  
HETATM    4  O   UNL     1      -5.333   9.810  67.757  1.00  0.00    -0.036 OA 
BRANCH   3   5
HETATM    5  C   UNL     1      -7.038   9.511  69.419  1.00  0.00    -0.055 C  
HETATM    6  C   UNL     1      -6.594   8.451  70.139  1.00  0.00    -0.039 C  
HETATM    7  C   UNL     1      -5.201   7.861  70.109  1.00  0.00    -0.023 C  
HETATM    8  N   UNL     1      -7.453   7.799  71.000  1.00  0.00    -0.072 NA 
HETATM    9  C   UNL     1      -8.797   8.068  71.146  1.00  0.00    -0.140 C  
HETATM   10  C   UNL     1      -9.524   7.159  72.112  1.00  0.00    -0.152 C  
HETATM   11  C   UNL     1      -9.366   9.087  70.453  1.00  0.00    -0.244 C  
HETATM   12  C   UNL     1      -8.508   9.990  69.543  1.00  0.00    -0.186 C  
BRANCH  11  13
HETATM   13  C   UNL     1     -10.847   9.247  70.514  1.00  0.00    -0.263 C  
HETATM   14  O   UNL     1     -11.628   8.427  70.041  1.00  0.00    -0.016 OA 
BRANCH  13  15
HETATM   15  O   UNL     1     -11.236  10.412  71.088  1.00  0.00    -0.204 OA 
BRANCH  15  16
HETATM   16  C   UNL     1     -12.420  10.996  70.495  1.00  0.00    -0.344 C  
HETATM   17  C   UNL     1     -12.231  12.503  70.402  1.00  0.00    -0.368 C  
HETATM   18  C   UNL     1     -13.644  10.651  71.340  1.00  0.00     0.028 C  
ENDBRANCH  15  16
ENDBRANCH  13  15
ENDBRANCH  11  13
BRANCH  12  19
HETATM   19  C   UNL     1      -9.166  10.230  68.196  1.00  0.00    -0.137 A  
HETATM   20  C   UNL     1      -9.582  11.511  67.743  1.00  0.00    -0.175 A  
HETATM   21  C   UNL     1      -9.383   9.199  67.242  1.00  0.00    -0.166 A  
HETATM   22  N   UNL     1      -9.511  12.695  68.364  1.00  0.00    -0.198 NA 
HETATM   23  O   UNL     1     -10.036  13.622  67.482  1.00  0.00    -0.233 OA 
HETATM   24  C   UNL     1      -9.965   9.418  65.965  1.00  0.00    -0.352 A  
HETATM   25  C   UNL     1     -10.376  10.684  65.510  1.00  0.00    -0.297 A  
HETATM   26  C   UNL     1     -10.170  11.728  66.428  1.00  0.00    -0.215 A  
HETATM   27  N   UNL     1     -10.438  13.033  66.297  1.00  0.00    -0.272 NA 
ENDBRANCH  12  19
ENDBRANCH   3   5
ENDBRANCH   2   3
TORSDOF 6
ENDMDL
MODEL      162
REMARK 921   NORMALIZED FREE ENERGY PREDICTED BY IDOCK:   -3.00 KCAL/MOL
REMARK 922        TOTAL FREE ENERGY PREDICTED BY IDOCK:   -5.51 KCAL/MOL
REMARK 923 INTER-LIGAND FREE ENERGY PREDICTED BY IDOCK:   -4.37 KCAL/MOL
REMARK 924 INTRA-LIGAND FREE ENERGY PREDICTED BY IDOCK:   -1.14 KCAL/MOL
REMARK 927      BINDING AFFINITY PREDICTED BY RF-SCORE:    0.00 PKD
ROOT
HETATM    1  C   UNL     1      -6.224  17.909  69.700  1.00  0.00    -0.209 C  
HETATM    2  O   UNL     1      -7.474  17.215  69.638  1.00  0.00     0.097 OA 
ENDROOT
BRANCH   2   3
HETATM    3  C   UNL     1      -7.895  16.793  68.426  1.00  0.00    -0.214 C  
HETATM    4  O   UNL     1      -8.672  17.398  67.702  1.00  0.00    -0.217 OA 
BRANCH   3   5
HETATM    5  C   UNL     1      -7.323  15.454  68.103  1.00  0.00    -0.122 C  
HETATM    6  C   UNL     1      -6.127  15.395  67.465  1.00  0.00    -0.066 C  
HETATM    7  C   UNL     1      -5.350  16.560  66.895  1.00  0.00    -0.006 C  
HETATM    8  N   UNL     1      -5.509  14.174  67.283  1.00  0.00    -0.160 NA 
HETATM    9  C   UNL     1      -6.042  12.947  67.617  1.00  0.00    -0.154 C  
HETATM   10  C   UNL     1      -5.181  11.760  67.248  1.00  0.00    -0.089 C  
HETATM   11  C   UNL     1      -7.250  12.876  68.232  1.00  0.00    -0.112 C  
HETATM   12  C   UNL     1      -8.009  14.162  68.617  1.00  0.00    -0.132 C  
BRANCH  11  13
HETATM   13  C   UNL     1      -7.866  11.534  68.433  1.00  0.00    -0.136 C  
HETATM   14  O   UNL     1      -7.881  10.960  69.518  1.00  0.00    -0.095 OA 
BRANCH  13  15
HETATM   15  O   UNL     1      -8.348  10.990  67.289  1.00  0.00    -0.121 OA 
BRANCH  15  16
HETATM   16  C   UNL     1      -9.499  10.133  67.481  1.00  0.00    -0.152 C  
HETATM   17  C   UNL     1      -9.119   8.709  67.107  1.00  0.00    -0.156 C  
HETATM   18  C   UNL     1     -10.661  10.631  66.625  1.00  0.00    -0.246 C  
ENDBRANCH  15  16
ENDBRANCH  13  15
ENDBRANCH  11  13
BRANCH  12  19
HETATM   19  C   UNL     1      -9.480  14.088  68.245  1.00  0.00    -0.216 A  
HETATM   20  C   UNL     1      -9.957  14.193  66.911  1.00  0.00    -0.261 A  
HETATM   21  C   UNL     1     -10.511  13.859  69.194  1.00  0.00    -0.074 A  
HETATM   22  N   UNL     1      -9.272  14.387  65.776  1.00  0.00     0.036 NA 
HETATM   23  O   UNL     1     -10.211  14.396  64.760  1.00  0.00    -0.404 OA 
HETATM   24  C   UNL     1     -11.886  13.751  68.853  1.00  0.00    -0.396 A  
HETATM   25  C   UNL     1     -12.365  13.852  67.535  1.00  0.00    -0.113 A  
HETATM   26  C   UNL     1     -11.368  14.074  66.568  1.00  0.00    -0.336 A  
HETATM   27  N   UNL     1     -11.492  14.203  65.241  1.00  0.00    -0.319 NA 
ENDBRANCH  12  19
ENDBRANCH   3   5
ENDBRANCH   2   3
TORSDOF 6
ENDMDL
MODEL      163
REMARK 921   NORMALIZED FREE ENERGY PREDICTED BY IDOCK:   -2.95 KCAL/MOL
REMARK 922        TOTAL FREE ENERGY PREDICTED BY IDOCK:   -5.44 KCAL/MOL
REMARK 923 INTER-LIGAND FREE ENERGY PREDICTED BY IDOCK:   -4.64 KCAL/MOL
REMARK 924 INTRA-LIGAND FREE ENERGY PREDICTED BY IDOCK:   -0.80 KCAL/MOL
REMARK 927      BINDING AFFINITY PREDICTED BY RF-SCORE:    0.00 PKD
ROOT
HETATM    1  C   UNL     1      -9.655   4.827  68.702  1.00  0.00    -0.160 C  
HETATM    2  O   UNL     1     -10.266   6.116  68.587  1.00  0.00    -0.152 OA 
ENDROOT
BRANCH   2   3
HETATM    3  C   UNL     1     -10.371   6.651  67.351  1.00  0.00    -0.220 C  
HETATM    4  O   UNL     1     -11.209   6.336  66.519  1.00  0.00    -0.142 OA 
BRANCH   3   5
HETATM    5  C   UNL     1      -9.290   7.649  67.112  1.00  0.00    -0.180 C  
HETATM    6  C   UNL     1      -8.287   7.329  66.257  1.00  0.00    -0.129 C  
HETATM    7  C   UNL     1      -8.048   5.983  65.610  1.00  0.00    -0.126 C  
HETATM    8  N   UNL     1      -7.354   8.285  65.908  1.00  0.00    -0.075 NA 
HETATM    9  C   UNL     1      -7.280   9.560  66.426  1.00  0.00    -0.089 C  
HETATM   10  C   UNL     1      -6.118  10.384  65.918  1.00  0.00    -0.113 C  
HETATM   11  C   UNL     1      -8.211   9.987  67.317  1.00  0.00    -0.117 C  
HETATM   12  C   UNL     1      -9.391   9.076  67.712  1.00  0.00    -0.156 C  
BRANCH  11  13
HETATM   13  C   UNL     1      -8.010  11.309  67.975  1.00  0.00    -0.119 C  
HETATM   14  O   UNL     1      -8.905  12.139  68.096  1.00  0.00    -0.176 OA 
BRANCH  13  15
HETATM   15  O   UNL     1      -6.730  11.521  68.367  1.00  0.00    -0.061 OA 
BRANCH  15  16
HETATM   16  C   UNL     1      -6.508  11.336  69.785  1.00  0.00    -0.140 C  
HETATM   17  C   UNL     1      -5.807  12.568  70.338  1.00  0.00    -0.150 C  
HETATM   18  C   UNL     1      -5.669  10.081  70.016  1.00  0.00    -0.046 C  
ENDBRANCH  15  16
ENDBRANCH  13  15
ENDBRANCH  11  13
BRANCH  12  19
HETATM   19  C   UNL     1      -9.627   9.068  69.212  1.00  0.00    -0.162 A  
HETATM   20  C   UNL     1     -10.752   9.676  69.832  1.00  0.00    -0.252 A  
HETATM   21  C   UNL     1      -8.767   8.411  70.132  1.00  0.00    -0.136 A  
HETATM   22  N   UNL     1     -11.764  10.355  69.276  1.00  0.00    -0.188 NA 
HETATM   23  O   UNL     1     -12.599  10.717  70.318  1.00  0.00    -0.325 OA 
HETATM   24  C   UNL     1      -8.997   8.367  71.532  1.00  0.00    -0.251 A  
HETATM   25  C   UNL     1     -10.109   8.964  72.151  1.00  0.00    -0.287 A  
HETATM   26  C   UNL     1     -10.985   9.619  71.268  1.00  0.00    -0.329 A  
HETATM   27  N   UNL     1     -12.126  10.267  71.537  1.00  0.00    -0.355 NA 
ENDBRANCH  12  19
ENDBRANCH   3   5
ENDBRANCH   2   3
TORSDOF 6
ENDMDL
MODEL      164
REMARK 921   NORMALIZED FREE ENERGY PREDICTED BY IDOCK:   -2.94 KCAL/MOL
REMARK 922        TOTAL FREE ENERGY PREDICTED BY IDOCK:   -5.42 KCAL/MOL
REMARK 923 INTER-LIGAND FREE ENERGY PREDICTED BY IDOCK:   -4.31 KCAL/MOL
REMARK 924 INTRA-LIGAND FREE ENERGY PREDICTED BY IDOCK:   -1.12 KCAL/MOL
REMARK 927      BINDING AFFINITY PREDICTED BY RF-SCORE:    0.00 PKD
ROOT
HETATM    1  C   UNL     1      -8.921   8.096  66.820  1.00  0.00    -0.146 C  
HETATM    2  O   UNL     1      -9.742   8.114  67.992  1.00  0.00    -0.153 OA 
ENDROOT
BRANCH   2   3
HETATM    3  C   UNL     1     -10.601   7.087  68.170  1.00  0.00    -0.204 C  
HETATM    4  O   UNL     1     -11.371   6.660  67.323  1.00  0.00    -0.324 OA 
BRANCH   3   5
HETATM    5  C   UNL     1     -10.523   6.567  69.566  1.00  0.00    -0.265 C  
HETATM    6  C   UNL     1     -10.927   7.370  70.582  1.00  0.00    -0.256 C  
HETATM    7  C   UNL     1     -11.321   8.827  70.478  1.00  0.00    -0.255 C  
HETATM    8  N   UNL     1     -11.002   6.865  71.864  1.00  0.00    -0.230 NA 
HETATM    9  C   UNL     1     -10.609   5.603  72.253  1.00  0.00    -0.221 C  
HETATM   10  C   UNL     1     -10.736   5.327  73.735  1.00  0.00    -0.343 C  
HETATM   11  C   UNL     1     -10.155   4.717  71.329  1.00  0.00    -0.258 C  
HETATM   12  C   UNL     1     -10.131   5.091  69.833  1.00  0.00    -0.344 C  
BRANCH  11  13
HETATM   13  C   UNL     1      -9.591   3.422  71.805  1.00  0.00    -0.155 C  
HETATM   14  O   UNL     1      -9.974   2.333  71.390  1.00  0.00    -0.145 OA 
BRANCH  13  15
HETATM   15  O   UNL     1      -8.661   3.571  72.781  1.00  0.00    -0.085 OA 
BRANCH  15  16
HETATM   16  C   UNL     1      -7.399   4.107  72.317  1.00  0.00    -0.062 C  
HETATM   17  C   UNL     1      -6.505   2.955  71.885  1.00  0.00    -0.015 C  
HETATM   18  C   UNL     1      -6.743   4.918  73.432  1.00  0.00    -0.068 C  
ENDBRANCH  15  16
ENDBRANCH  13  15
ENDBRANCH  11  13
BRANCH  12  19
HETATM   19  C   UNL     1      -8.822   4.699  69.170  1.00  0.00    -0.126 A  
HETATM   20  C   UNL     1      -8.676   3.556  68.338  1.00  0.00    -0.105 A  
HETATM   21  C   UNL     1      -7.633   5.468  69.282  1.00  0.00    -0.086 A  
HETATM   22  N   UNL     1      -9.583   2.632  67.999  1.00  0.00    -0.139 NA 
HETATM   23  O   UNL     1      -8.931   1.747  67.159  1.00  0.00    -0.122 OA 
HETATM   24  C   UNL     1      -6.414   5.131  68.637  1.00  0.00    -0.040 A  
HETATM   25  C   UNL     1      -6.263   4.003  67.811  1.00  0.00    -0.036 A  
HETATM   26  C   UNL     1      -7.424   3.222  67.674  1.00  0.00    -0.058 A  
HETATM   27  N   UNL     1      -7.611   2.107  66.957  1.00  0.00    -0.064 NA 
ENDBRANCH  12  19
ENDBRANCH   3   5
ENDBRANCH   2   3
TORSDOF 6
ENDMDL
MODEL      165
REMARK 921   NORMALIZED FREE ENERGY PREDICTED BY IDOCK:   -2.93 KCAL/MOL
REMARK 922        TOTAL FREE ENERGY PREDICTED BY IDOCK:   -5.41 KCAL/MOL
REMARK 923 INTER-LIGAND FREE ENERGY PREDICTED BY IDOCK:   -4.61 KCAL/MOL
REMARK 924 INTRA-LIGAND FREE ENERGY PREDICTED BY IDOCK:   -0.80 KCAL/MOL
REMARK 927      BINDING AFFINITY PREDICTED BY RF-SCORE:    0.00 PKD
ROOT
HETATM    1  C   UNL     1      -5.662  13.710  70.646  1.00  0.00    -0.187 C  
HETATM    2  O   UNL     1      -5.774  13.007  69.404  1.00  0.00    -0.079 OA 
ENDROOT
BRANCH   2   3
HETATM    3  C   UNL     1      -5.995  13.737  68.290  1.00  0.00    -0.108 C  
HETATM    4  O   UNL     1      -5.129  14.295  67.632  1.00  0.00    -0.306 OA 
BRANCH   3   5
HETATM    5  C   UNL     1      -7.454  13.820  67.990  1.00  0.00    -0.139 C  
HETATM    6  C   UNL     1      -8.123  14.951  68.323  1.00  0.00    -0.132 C  
HETATM    7  C   UNL     1      -7.582  16.118  69.119  1.00  0.00    -0.230 C  
HETATM    8  N   UNL     1      -9.437  15.110  67.929  1.00  0.00    -0.193 NA 
HETATM    9  C   UNL     1     -10.199  14.163  67.281  1.00  0.00    -0.256 C  
HETATM   10  C   UNL     1     -11.633  14.571  67.023  1.00  0.00    -0.402 C  
HETATM   11  C   UNL     1      -9.648  12.975  66.923  1.00  0.00    -0.243 C  
HETATM   12  C   UNL     1      -8.154  12.696  67.182  1.00  0.00    -0.141 C  
BRANCH  11  13
HETATM   13  C   UNL     1     -10.541  11.917  66.369  1.00  0.00    -0.248 C  
HETATM   14  O   UNL     1     -10.367  11.405  65.268  1.00  0.00    -0.259 OA 
BRANCH  13  15
HETATM   15  O   UNL     1     -11.590  11.627  67.176  1.00  0.00    -0.491 OA 
BRANCH  15  16
HETATM   16  C   UNL     1     -11.222  10.956  68.406  1.00  0.00    -0.285 C  
HETATM   17  C   UNL     1     -11.363   9.455  68.208  1.00  0.00     0.299 C  
HETATM   18  C   UNL     1     -12.114  11.443  69.545  1.00  0.00    -0.370 C  
ENDBRANCH  15  16
ENDBRANCH  13  15
ENDBRANCH  11  13
BRANCH  12  19
HETATM   19  C   UNL     1      -7.927  11.316  67.774  1.00  0.00    -0.117 A  
HETATM   20  C   UNL     1      -7.423  10.216  67.028  1.00  0.00    -0.092 A  
HETATM   21  C   UNL     1      -8.153  11.009  69.142  1.00  0.00    -0.066 A  
HETATM   22  N   UNL     1      -7.083  10.153  65.734  1.00  0.00    -0.120 NA 
HETATM   23  O   UNL     1      -6.637   8.861  65.520  1.00  0.00    -0.066 OA 
HETATM   24  C   UNL     1      -7.910   9.732  69.714  1.00  0.00    -0.159 A  
HETATM   25  C   UNL     1      -7.409   8.641  68.982  1.00  0.00    -0.077 A  
HETATM   26  C   UNL     1      -7.169   8.912  67.624  1.00  0.00    -0.080 A  
HETATM   27  N   UNL     1      -6.687   8.101  66.674  1.00  0.00    -0.062 NA 
ENDBRANCH  12  19
ENDBRANCH   3   5
ENDBRANCH   2   3
TORSDOF 6
ENDMDL
MODEL      166
REMARK 921   NORMALIZED FREE ENERGY PREDICTED BY IDOCK:   -2.92 KCAL/MOL
REMARK 922        TOTAL FREE ENERGY PREDICTED BY IDOCK:   -5.40 KCAL/MOL
REMARK 923 INTER-LIGAND FREE ENERGY PREDICTED BY IDOCK:   -4.09 KCAL/MOL
REMARK 924 INTRA-LIGAND FREE ENERGY PREDICTED BY IDOCK:   -1.31 KCAL/MOL
REMARK 927      BINDING AFFINITY PREDICTED BY RF-SCORE:    0.00 PKD
ROOT
HETATM    1  C   UNL     1      -5.277   3.523  70.730  1.00  0.00    -0.004 C  
HETATM    2  O   UNL     1      -5.908   4.472  69.865  1.00  0.00    -0.016 OA 
ENDROOT
BRANCH   2   3
HETATM    3  C   UNL     1      -6.824   4.007  68.988  1.00  0.00    -0.046 C  
HETATM    4  O   UNL     1      -6.613   3.156  68.137  1.00  0.00    -0.036 OA 
BRANCH   3   5
HETATM    5  C   UNL     1      -8.128   4.711  69.161  1.00  0.00    -0.073 C  
HETATM    6  C   UNL     1      -9.021   4.216  70.053  1.00  0.00    -0.098 C  
HETATM    7  C   UNL     1      -8.910   2.911  70.811  1.00  0.00    -0.147 C  
HETATM    8  N   UNL     1     -10.171   4.925  70.336  1.00  0.00    -0.245 NA 
HETATM    9  C   UNL     1     -10.566   6.092  69.717  1.00  0.00    -0.289 C  
HETATM   10  C   UNL     1     -11.905   6.629  70.172  1.00  0.00    -0.347 C  
HETATM   11  C   UNL     1      -9.769   6.668  68.781  1.00  0.00    -0.130 C  
HETATM   12  C   UNL     1      -8.392   6.061  68.445  1.00  0.00    -0.113 C  
BRANCH  11  13
HETATM   13  C   UNL     1     -10.298   7.835  68.020  1.00  0.00    -0.209 C  
HETATM   14  O   UNL     1     -10.906   7.723  66.960  1.00  0.00    -0.316 OA 
BRANCH  13  15
HETATM   15  O   UNL     1      -9.988   9.028  68.586  1.00  0.00    -0.162 OA 
BRANCH  15  16
HETATM   16  C   UNL     1     -10.541  10.172  67.893  1.00  0.00    -0.249 C  
HETATM   17  C   UNL     1      -9.399  11.039  67.386  1.00  0.00    -0.165 C  
HETATM   18  C   UNL     1     -11.446  10.959  68.838  1.00  0.00    -0.369 C  
ENDBRANCH  15  16
ENDBRANCH  13  15
ENDBRANCH  11  13
BRANCH  12  19
HETATM   19  C   UNL     1      -8.151   5.991  66.947  1.00  0.00    -0.105 A  
HETATM   20  C   UNL     1      -8.871   5.128  66.077  1.00  0.00    -0.137 A  
HETATM   21  C   UNL     1      -7.214   6.817  66.270  1.00  0.00    -0.072 A  
HETATM   22  N   UNL     1      -9.831   4.240  66.365  1.00  0.00    -0.218 NA 
HETATM   23  O   UNL     1     -10.205   3.678  65.158  1.00  0.00    -0.089 OA 
HETATM   24  C   UNL     1      -7.007   6.786  64.866  1.00  0.00    -0.055 A  
HETATM   25  C   UNL     1      -7.717   5.936  63.999  1.00  0.00    -0.103 A  
HETATM   26  C   UNL     1      -8.657   5.107  64.636  1.00  0.00    -0.142 A  
HETATM   27  N   UNL     1      -9.491   4.207  64.099  1.00  0.00    -0.157 NA 
ENDBRANCH  12  19
ENDBRANCH   3   5
ENDBRANCH   2   3
TORSDOF 6
ENDMDL
MODEL      167
REMARK 921   NORMALIZED FREE ENERGY PREDICTED BY IDOCK:   -2.92 KCAL/MOL
REMARK 922        TOTAL FREE ENERGY PREDICTED BY IDOCK:   -5.39 KCAL/MOL
REMARK 923 INTER-LIGAND FREE ENERGY PREDICTED BY IDOCK:   -6.32 KCAL/MOL
REMARK 924 INTRA-LIGAND FREE ENERGY PREDICTED BY IDOCK:    0.92 KCAL/MOL
REMARK 927      BINDING AFFINITY PREDICTED BY RF-SCORE:    0.00 PKD
ROOT
HETATM    1  C   UNL     1     -13.091  15.347  70.968  1.00  0.00    -0.501 C  
HETATM    2  O   UNL     1     -12.167  14.493  70.285  1.00  0.00    -0.292 OA 
ENDROOT
BRANCH   2   3
HETATM    3  C   UNL     1     -12.217  13.172  70.559  1.00  0.00    -0.328 C  
HETATM    4  O   UNL     1     -12.629  12.685  71.601  1.00  0.00    -0.214 OA 
BRANCH   3   5
HETATM    5  C   UNL     1     -11.650  12.376  69.432  1.00  0.00    -0.371 C  
HETATM    6  C   UNL     1     -11.682  12.902  68.183  1.00  0.00    -0.352 C  
HETATM    7  C   UNL     1     -12.378  14.177  67.759  1.00  0.00    -0.050 C  
HETATM    8  N   UNL     1     -11.038  12.252  67.150  1.00  0.00    -0.262 NA 
HETATM    9  C   UNL     1     -10.412  11.027  67.239  1.00  0.00    -0.231 C  
HETATM   10  C   UNL     1      -9.840  10.511  65.938  1.00  0.00    -0.291 C  
HETATM   11  C   UNL     1     -10.342  10.386  68.433  1.00  0.00    -0.198 C  
HETATM   12  C   UNL     1     -10.907  11.043  69.709  1.00  0.00    -0.205 C  
BRANCH  11  13
HETATM   13  C   UNL     1      -9.802   8.997  68.461  1.00  0.00    -0.169 C  
HETATM   14  O   UNL     1     -10.517   8.000  68.444  1.00  0.00    -0.206 OA 
BRANCH  13  15
HETATM   15  O   UNL     1      -8.451   8.950  68.569  1.00  0.00    -0.126 OA 
BRANCH  15  16
HETATM   16  C   UNL     1      -7.849  10.197  68.991  1.00  0.00    -0.107 C  
HETATM   17  C   UNL     1      -6.848  10.641  67.936  1.00  0.00    -0.073 C  
HETATM   18  C   UNL     1      -7.168  10.010  70.344  1.00  0.00    -0.119 C  
ENDBRANCH  15  16
ENDBRANCH  13  15
ENDBRANCH  11  13
BRANCH  12  19
HETATM   19  C   UNL     1     -11.730  10.069  70.534  1.00  0.00    -0.400 A  
HETATM   20  C   UNL     1     -11.189   9.275  71.581  1.00  0.00    -0.379 A  
HETATM   21  C   UNL     1     -13.131   9.898  70.367  1.00  0.00     0.071 A  
HETATM   22  N   UNL     1      -9.927   9.199  72.023  1.00  0.00    -0.176 NA 
HETATM   23  O   UNL     1      -9.942   8.291  73.066  1.00  0.00    -0.269 OA 
HETATM   24  C   UNL     1     -13.917   9.018  71.156  1.00  0.00    -0.100 A  
HETATM   25  C   UNL     1     -13.387   8.231  72.195  1.00  0.00    -0.293 A  
HETATM   26  C   UNL     1     -12.003   8.381  72.392  1.00  0.00    -0.384 A  
HETATM   27  N   UNL     1     -11.210   7.790  73.295  1.00  0.00    -0.291 NA 
ENDBRANCH  12  19
ENDBRANCH   3   5
ENDBRANCH   2   3
TORSDOF 6
ENDMDL
MODEL      168
REMARK 921   NORMALIZED FREE ENERGY PREDICTED BY IDOCK:   -2.90 KCAL/MOL
REMARK 922        TOTAL FREE ENERGY PREDICTED BY IDOCK:   -5.37 KCAL/MOL
REMARK 923 INTER-LIGAND FREE ENERGY PREDICTED BY IDOCK:   -4.01 KCAL/MOL
REMARK 924 INTRA-LIGAND FREE ENERGY PREDICTED BY IDOCK:   -1.36 KCAL/MOL
REMARK 927      BINDING AFFINITY PREDICTED BY RF-SCORE:    0.00 PKD
ROOT
HETATM    1  C   UNL     1      -5.773   2.498  70.208  1.00  0.00    -0.017 C  
HETATM    2  O   UNL     1      -6.437   3.529  69.471  1.00  0.00    -0.032 OA 
ENDROOT
BRANCH   2   3
HETATM    3  C   UNL     1      -7.548   3.190  68.782  1.00  0.00    -0.048 C  
HETATM    4  O   UNL     1      -7.628   2.264  67.989  1.00  0.00    -0.054 OA 
BRANCH   3   5
HETATM    5  C   UNL     1      -8.664   4.135  69.078  1.00  0.00    -0.123 C  
HETATM    6  C   UNL     1      -9.431   3.913  70.173  1.00  0.00    -0.191 C  
HETATM    7  C   UNL     1      -9.382   2.702  71.078  1.00  0.00    -0.216 C  
HETATM    8  N   UNL     1     -10.375   4.848  70.549  1.00  0.00    -0.216 NA 
HETATM    9  C   UNL     1     -10.694   5.991  69.848  1.00  0.00    -0.325 C  
HETATM   10  C   UNL     1     -11.814   6.811  70.449  1.00  0.00    -0.395 C  
HETATM   11  C   UNL     1     -10.015   6.306  68.716  1.00  0.00    -0.173 C  
HETATM   12  C   UNL     1      -8.845   5.424  68.234  1.00  0.00    -0.105 C  
BRANCH  11  13
HETATM   13  C   UNL     1     -10.491   7.459  67.901  1.00  0.00    -0.205 C  
HETATM   14  O   UNL     1     -11.130   7.326  66.861  1.00  0.00    -0.287 OA 
BRANCH  13  15
HETATM   15  O   UNL     1     -10.097   8.660  68.392  1.00  0.00    -0.179 OA 
BRANCH  15  16
HETATM   16  C   UNL     1      -8.718   8.992  68.103  1.00  0.00    -0.130 C  
HETATM   17  C   UNL     1      -8.097   9.628  69.337  1.00  0.00    -0.118 C  
HETATM   18  C   UNL     1      -8.655   9.942  66.910  1.00  0.00    -0.131 C  
ENDBRANCH  15  16
ENDBRANCH  13  15
ENDBRANCH  11  13
BRANCH  12  19
HETATM   19  C   UNL     1      -8.918   5.147  66.743  1.00  0.00    -0.113 A  
HETATM   20  C   UNL     1      -8.045   5.741  65.792  1.00  0.00    -0.116 A  
HETATM   21  C   UNL     1      -9.836   4.230  66.166  1.00  0.00    -0.232 A  
HETATM   22  N   UNL     1      -7.056   6.624  65.982  1.00  0.00    -0.061 NA 
HETATM   23  O   UNL     1      -6.512   6.862  64.733  1.00  0.00    -0.041 OA 
HETATM   24  C   UNL     1      -9.889   3.936  64.778  1.00  0.00    -0.197 A  
HETATM   25  C   UNL     1      -9.026   4.518  63.832  1.00  0.00    -0.136 A  
HETATM   26  C   UNL     1      -8.100   5.428  64.370  1.00  0.00    -0.123 A  
HETATM   27  N   UNL     1      -7.147   6.131  63.746  1.00  0.00    -0.049 NA 
ENDBRANCH  12  19
ENDBRANCH   3   5
ENDBRANCH   2   3
TORSDOF 6
ENDMDL
MODEL      169
REMARK 921   NORMALIZED FREE ENERGY PREDICTED BY IDOCK:   -2.89 KCAL/MOL
REMARK 922        TOTAL FREE ENERGY PREDICTED BY IDOCK:   -5.36 KCAL/MOL
REMARK 923 INTER-LIGAND FREE ENERGY PREDICTED BY IDOCK:   -4.00 KCAL/MOL
REMARK 924 INTRA-LIGAND FREE ENERGY PREDICTED BY IDOCK:   -1.36 KCAL/MOL
REMARK 927      BINDING AFFINITY PREDICTED BY RF-SCORE:    0.00 PKD
ROOT
HETATM    1  C   UNL     1     -10.421   8.101  72.690  1.00  0.00    -0.330 C  
HETATM    2  O   UNL     1     -10.635   6.692  72.558  1.00  0.00    -0.204 OA 
ENDROOT
BRANCH   2   3
HETATM    3  C   UNL     1     -11.030   6.230  71.352  1.00  0.00    -0.275 C  
HETATM    4  O   UNL     1     -12.139   6.392  70.866  1.00  0.00    -0.300 OA 
BRANCH   3   5
HETATM    5  C   UNL     1      -9.941   5.442  70.705  1.00  0.00    -0.280 C  
HETATM    6  C   UNL     1      -9.675   4.196  71.170  1.00  0.00    -0.188 C  
HETATM    7  C   UNL     1     -10.270   3.546  72.400  1.00  0.00    -0.205 C  
HETATM    8  N   UNL     1      -8.774   3.393  70.500  1.00  0.00    -0.070 NA 
HETATM    9  C   UNL     1      -8.019   3.772  69.411  1.00  0.00    -0.054 C  
HETATM   10  C   UNL     1      -7.059   2.717  68.908  1.00  0.00    -0.044 C  
HETATM   11  C   UNL     1      -8.173   5.008  68.873  1.00  0.00    -0.084 C  
HETATM   12  C   UNL     1      -9.233   5.979  69.434  1.00  0.00    -0.140 C  
BRANCH  11  13
HETATM   13  C   UNL     1      -7.230   5.439  67.802  1.00  0.00    -0.072 C  
HETATM   14  O   UNL     1      -6.016   5.500  67.965  1.00  0.00    -0.016 OA 
BRANCH  13  15
HETATM   15  O   UNL     1      -7.855   5.811  66.658  1.00  0.00    -0.099 OA 
BRANCH  15  16
HETATM   16  C   UNL     1      -7.209   6.903  65.961  1.00  0.00    -0.074 C  
HETATM   17  C   UNL     1      -8.227   8.009  65.729  1.00  0.00    -0.132 C  
HETATM   18  C   UNL     1      -6.637   6.402  64.637  1.00  0.00    -0.034 C  
ENDBRANCH  15  16
ENDBRANCH  13  15
ENDBRANCH  11  13
BRANCH  12  19
HETATM   19  C   UNL     1      -8.681   7.382  69.615  1.00  0.00    -0.137 A  
HETATM   20  C   UNL     1      -9.346   8.551  69.158  1.00  0.00    -0.153 A  
HETATM   21  C   UNL     1      -7.468   7.658  70.302  1.00  0.00    -0.083 A  
HETATM   22  N   UNL     1     -10.507   8.665  68.499  1.00  0.00    -0.199 NA 
HETATM   23  O   UNL     1     -10.706  10.021  68.310  1.00  0.00    -0.213 OA 
HETATM   24  C   UNL     1      -6.961   8.968  70.509  1.00  0.00    -0.069 A  
HETATM   25  C   UNL     1      -7.616  10.129  70.062  1.00  0.00    -0.164 A  
HETATM   26  C   UNL     1      -8.823   9.892  69.382  1.00  0.00    -0.187 A  
HETATM   27  N   UNL     1      -9.680  10.773  68.849  1.00  0.00    -0.195 NA 
ENDBRANCH  12  19
ENDBRANCH   3   5
ENDBRANCH   2   3
TORSDOF 6
ENDMDL
MODEL      170
REMARK 921   NORMALIZED FREE ENERGY PREDICTED BY IDOCK:   -2.89 KCAL/MOL
REMARK 922        TOTAL FREE ENERGY PREDICTED BY IDOCK:   -5.35 KCAL/MOL
REMARK 923 INTER-LIGAND FREE ENERGY PREDICTED BY IDOCK:   -3.72 KCAL/MOL
REMARK 924 INTRA-LIGAND FREE ENERGY PREDICTED BY IDOCK:   -1.63 KCAL/MOL
REMARK 927      BINDING AFFINITY PREDICTED BY RF-SCORE:    0.00 PKD
ROOT
HETATM    1  C   UNL     1     -11.051   6.475  67.261  1.00  0.00    -0.350 C  
HETATM    2  O   UNL     1     -10.105   7.311  66.588  1.00  0.00    -0.217 OA 
ENDROOT
BRANCH   2   3
HETATM    3  C   UNL     1      -8.797   6.996  66.706  1.00  0.00    -0.126 C  
HETATM    4  O   UNL     1      -8.248   6.056  66.152  1.00  0.00    -0.113 OA 
BRANCH   3   5
HETATM    5  C   UNL     1      -8.112   7.924  67.652  1.00  0.00    -0.124 C  
HETATM    6  C   UNL     1      -7.576   9.071  67.164  1.00  0.00    -0.091 C  
HETATM    7  C   UNL     1      -7.458   9.463  65.708  1.00  0.00    -0.099 C  
HETATM    8  N   UNL     1      -7.064  10.012  68.035  1.00  0.00    -0.080 NA 
HETATM    9  C   UNL     1      -6.957   9.865  69.401  1.00  0.00    -0.063 C  
HETATM   10  C   UNL     1      -6.297  11.025  70.113  1.00  0.00    -0.147 C  
HETATM   11  C   UNL     1      -7.430   8.745  70.004  1.00  0.00    -0.054 C  
HETATM   12  C   UNL     1      -8.143   7.654  69.179  1.00  0.00    -0.125 C  
BRANCH  11  13
HETATM   13  C   UNL     1      -7.154   8.550  71.455  1.00  0.00    -0.092 C  
HETATM   14  O   UNL     1      -6.137   8.007  71.876  1.00  0.00    -0.039 OA 
BRANCH  13  15
HETATM   15  O   UNL     1      -8.164   8.975  72.253  1.00  0.00    -0.354 OA 
BRANCH  15  16
HETATM   16  C   UNL     1      -9.006   7.912  72.758  1.00  0.00    -0.198 C  
HETATM   17  C   UNL     1     -10.463   8.301  72.556  1.00  0.00    -0.406 C  
HETATM   18  C   UNL     1      -8.705   7.672  74.236  1.00  0.00    -0.261 C  
ENDBRANCH  15  16
ENDBRANCH  13  15
ENDBRANCH  11  13
BRANCH  12  19
HETATM   19  C   UNL     1      -7.662   6.260  69.540  1.00  0.00    -0.099 A  
HETATM   20  C   UNL     1      -8.490   5.278  70.148  1.00  0.00    -0.109 A  
HETATM   21  C   UNL     1      -6.350   5.793  69.261  1.00  0.00    -0.040 A  
HETATM   22  N   UNL     1      -9.772   5.364  70.526  1.00  0.00    -0.174 NA 
HETATM   23  O   UNL     1     -10.101   4.125  71.046  1.00  0.00    -0.167 OA 
HETATM   24  C   UNL     1      -5.900   4.480  69.562  1.00  0.00    -0.017 A  
HETATM   25  C   UNL     1      -6.715   3.503  70.160  1.00  0.00    -0.033 A  
HETATM   26  C   UNL     1      -8.024   3.931  70.446  1.00  0.00    -0.050 A  
HETATM   27  N   UNL     1      -9.034   3.247  70.997  1.00  0.00    -0.088 NA 
ENDBRANCH  12  19
ENDBRANCH   3   5
ENDBRANCH   2   3
TORSDOF 6
ENDMDL
MODEL      171
REMARK 921   NORMALIZED FREE ENERGY PREDICTED BY IDOCK:   -2.86 KCAL/MOL
REMARK 922        TOTAL FREE ENERGY PREDICTED BY IDOCK:   -5.31 KCAL/MOL
REMARK 923 INTER-LIGAND FREE ENERGY PREDICTED BY IDOCK:   -4.34 KCAL/MOL
REMARK 924 INTRA-LIGAND FREE ENERGY PREDICTED BY IDOCK:   -0.97 KCAL/MOL
REMARK 927      BINDING AFFINITY PREDICTED BY RF-SCORE:    0.00 PKD
ROOT
HETATM    1  C   UNL     1      -6.694   4.025  70.173  1.00  0.00    -0.033 C  
HETATM    2  O   UNL     1      -7.569   5.151  70.059  1.00  0.00    -0.062 OA 
ENDROOT
BRANCH   2   3
HETATM    3  C   UNL     1      -8.265   5.287  68.910  1.00  0.00    -0.089 C  
HETATM    4  O   UNL     1      -8.746   4.367  68.265  1.00  0.00    -0.097 OA 
BRANCH   3   5
HETATM    5  C   UNL     1      -8.329   6.719  68.496  1.00  0.00    -0.120 C  
HETATM    6  C   UNL     1      -7.207   7.305  68.008  1.00  0.00    -0.091 C  
HETATM    7  C   UNL     1      -5.819   6.705  67.969  1.00  0.00    -0.016 C  
HETATM    8  N   UNL     1      -7.274   8.581  67.486  1.00  0.00    -0.083 NA 
HETATM    9  C   UNL     1      -8.390   9.391  67.487  1.00  0.00    -0.122 C  
HETATM   10  C   UNL     1      -8.172  10.772  66.909  1.00  0.00    -0.130 C  
HETATM   11  C   UNL     1      -9.566   8.926  67.979  1.00  0.00    -0.167 C  
HETATM   12  C   UNL     1      -9.684   7.474  68.485  1.00  0.00    -0.159 C  
BRANCH  11  13
HETATM   13  C   UNL     1     -10.706   9.878  68.112  1.00  0.00    -0.233 C  
HETATM   14  O   UNL     1     -11.651   9.903  67.329  1.00  0.00     0.221 OA 
BRANCH  13  15
HETATM   15  O   UNL     1     -10.560  10.746  69.142  1.00  0.00    -0.200 OA 
BRANCH  15  16
HETATM   16  C   UNL     1     -11.150  12.047  68.907  1.00  0.00    -0.247 C  
HETATM   17  C   UNL     1     -10.068  12.998  68.419  1.00  0.00    -0.225 C  
HETATM   18  C   UNL     1     -11.790  12.563  70.193  1.00  0.00    -0.336 C  
ENDBRANCH  15  16
ENDBRANCH  13  15
ENDBRANCH  11  13
BRANCH  12  19
HETATM   19  C   UNL     1     -10.415   7.391  69.813  1.00  0.00    -0.235 A  
HETATM   20  C   UNL     1      -9.853   7.821  71.046  1.00  0.00    -0.174 A  
HETATM   21  C   UNL     1     -11.749   6.918  69.939  1.00  0.00    -0.199 A  
HETATM   22  N   UNL     1      -8.641   8.335  71.293  1.00  0.00    -0.135 NA 
HETATM   23  O   UNL     1      -8.609   8.599  72.651  1.00  0.00    -0.376 OA 
HETATM   24  C   UNL     1     -12.455   6.870  71.170  1.00  0.00    -0.398 A  
HETATM   25  C   UNL     1     -11.906   7.297  72.392  1.00  0.00    -0.247 A  
HETATM   26  C   UNL     1     -10.587   7.776  72.303  1.00  0.00    -0.259 A  
HETATM   27  N   UNL     1      -9.797   8.260  73.270  1.00  0.00    -0.126 NA 
ENDBRANCH  12  19
ENDBRANCH   3   5
ENDBRANCH   2   3
TORSDOF 6
ENDMDL
MODEL      172
REMARK 921   NORMALIZED FREE ENERGY PREDICTED BY IDOCK:   -2.85 KCAL/MOL
REMARK 922        TOTAL FREE ENERGY PREDICTED BY IDOCK:   -5.31 KCAL/MOL
REMARK 923 INTER-LIGAND FREE ENERGY PREDICTED BY IDOCK:   -3.93 KCAL/MOL
REMARK 924 INTRA-LIGAND FREE ENERGY PREDICTED BY IDOCK:   -1.38 KCAL/MOL
REMARK 927      BINDING AFFINITY PREDICTED BY RF-SCORE:    0.00 PKD
ROOT
HETATM    1  C   UNL     1      -8.885   2.952  66.852  1.00  0.00    -0.143 C  
HETATM    2  O   UNL     1      -9.153   4.293  67.274  1.00  0.00    -0.121 OA 
ENDROOT
BRANCH   2   3
HETATM    3  C   UNL     1      -9.921   5.060  66.470  1.00  0.00    -0.224 C  
HETATM    4  O   UNL     1     -11.028   4.752  66.052  1.00  0.00    -0.213 OA 
BRANCH   3   5
HETATM    5  C   UNL     1      -9.216   6.324  66.111  1.00  0.00    -0.143 C  
HETATM    6  C   UNL     1      -8.534   6.378  64.940  1.00  0.00     0.008 C  
HETATM    7  C   UNL     1      -8.273   5.227  63.994  1.00  0.00    -0.131 C  
HETATM    8  N   UNL     1      -7.994   7.576  64.517  1.00  0.00    -0.135 NA 
HETATM    9  C   UNL     1      -8.000   8.755  65.232  1.00  0.00    -0.118 C  
HETATM   10  C   UNL     1      -7.280   9.905  64.564  1.00  0.00    -0.137 C  
HETATM   11  C   UNL     1      -8.625   8.817  66.435  1.00  0.00    -0.138 C  
HETATM   12  C   UNL     1      -9.384   7.593  66.987  1.00  0.00    -0.195 C  
BRANCH  11  13
HETATM   13  C   UNL     1      -8.475  10.056  67.250  1.00  0.00    -0.122 C  
HETATM   14  O   UNL     1      -7.522  10.254  67.997  1.00  0.00    -0.086 OA 
BRANCH  13  15
HETATM   15  O   UNL     1      -9.522  10.908  67.125  1.00  0.00    -0.159 OA 
BRANCH  15  16
HETATM   16  C   UNL     1      -9.843  11.630  68.338  1.00  0.00    -0.202 C  
HETATM   17  C   UNL     1     -11.319  11.435  68.650  1.00  0.00    -0.327 C  
HETATM   18  C   UNL     1      -9.514  13.110  68.159  1.00  0.00    -0.222 C  
ENDBRANCH  15  16
ENDBRANCH  13  15
ENDBRANCH  11  13
BRANCH  12  19
HETATM   19  C   UNL     1      -9.072   7.343  68.452  1.00  0.00    -0.132 A  
HETATM   20  C   UNL     1     -10.033   7.470  69.491  1.00  0.00    -0.180 A  
HETATM   21  C   UNL     1      -7.800   6.911  68.914  1.00  0.00    -0.111 A  
HETATM   22  N   UNL     1     -11.320   7.832  69.417  1.00  0.00     0.184 NA 
HETATM   23  O   UNL     1     -11.807   7.780  70.711  1.00  0.00    -0.271 OA 
HETATM   24  C   UNL     1      -7.507   6.639  70.277  1.00  0.00    -0.094 A  
HETATM   25  C   UNL     1      -8.454   6.761  71.309  1.00  0.00    -0.124 A  
HETATM   26  C   UNL     1      -9.727   7.182  70.886  1.00  0.00    -0.170 A  
HETATM   27  N   UNL     1     -10.835   7.381  71.611  1.00  0.00    -0.219 NA 
ENDBRANCH  12  19
ENDBRANCH   3   5
ENDBRANCH   2   3
TORSDOF 6
ENDMDL
MODEL      173
REMARK 921   NORMALIZED FREE ENERGY PREDICTED BY IDOCK:   -2.82 KCAL/MOL
REMARK 922        TOTAL FREE ENERGY PREDICTED BY IDOCK:   -5.26 KCAL/MOL
REMARK 923 INTER-LIGAND FREE ENERGY PREDICTED BY IDOCK:   -4.29 KCAL/MOL
REMARK 924 INTRA-LIGAND FREE ENERGY PREDICTED BY IDOCK:   -0.98 KCAL/MOL
REMARK 927      BINDING AFFINITY PREDICTED BY RF-SCORE:    0.00 PKD
ROOT
HETATM    1  C   UNL     1      -8.765   5.248  65.918  1.00  0.00    -0.138 C  
HETATM    2  O   UNL     1      -9.173   6.591  66.199  1.00  0.00    -0.156 OA 
ENDROOT
BRANCH   2   3
HETATM    3  C   UNL     1      -8.222   7.550  66.180  1.00  0.00    -0.125 C  
HETATM    4  O   UNL     1      -7.018   7.345  66.170  1.00  0.00    -0.062 OA 
BRANCH   3   5
HETATM    5  C   UNL     1      -8.839   8.907  66.228  1.00  0.00    -0.187 C  
HETATM    6  C   UNL     1      -9.187   9.505  65.062  1.00  0.00    -0.236 C  
HETATM    7  C   UNL     1      -8.882   9.006  63.666  1.00  0.00    -0.016 C  
HETATM    8  N   UNL     1      -9.887  10.694  65.084  1.00  0.00    -0.261 NA 
HETATM    9  C   UNL     1     -10.208  11.414  66.215  1.00  0.00    -0.233 C  
HETATM   10  C   UNL     1     -10.924  12.720  65.953  1.00  0.00    -0.303 C  
HETATM   11  C   UNL     1      -9.883  10.933  67.442  1.00  0.00    -0.199 C  
HETATM   12  C   UNL     1      -9.208   9.554  67.589  1.00  0.00    -0.138 C  
BRANCH  11  13
HETATM   13  C   UNL     1     -10.101  11.809  68.628  1.00  0.00    -0.189 C  
HETATM   14  O   UNL     1      -9.667  12.955  68.702  1.00  0.00    -0.160 OA 
BRANCH  13  15
HETATM   15  O   UNL     1     -10.770  11.193  69.633  1.00  0.00    -0.198 OA 
BRANCH  15  16
HETATM   16  C   UNL     1     -12.144  11.625  69.780  1.00  0.00    -0.289 C  
HETATM   17  C   UNL     1     -12.168  12.933  70.555  1.00  0.00    -0.395 C  
HETATM   18  C   UNL     1     -12.948  10.548  70.503  1.00  0.00    -0.289 C  
ENDBRANCH  15  16
ENDBRANCH  13  15
ENDBRANCH  11  13
BRANCH  12  19
HETATM   19  C   UNL     1      -8.041   9.592  68.559  1.00  0.00    -0.101 A  
HETATM   20  C   UNL     1      -7.989   8.821  69.753  1.00  0.00    -0.095 A  
HETATM   21  C   UNL     1      -6.871  10.366  68.339  1.00  0.00    -0.064 A  
HETATM   22  N   UNL     1      -8.895   7.974  70.257  1.00  0.00    -0.144 NA 
HETATM   23  O   UNL     1      -8.345   7.478  71.425  1.00  0.00    -0.106 OA 
HETATM   24  C   UNL     1      -5.758  10.381  69.222  1.00  0.00    -0.037 A  
HETATM   25  C   UNL     1      -5.699   9.619  70.403  1.00  0.00    -0.048 A  
HETATM   26  C   UNL     1      -6.841   8.836  70.649  1.00  0.00    -0.050 A  
HETATM   27  N   UNL     1      -7.089   8.002  71.666  1.00  0.00    -0.067 NA 
ENDBRANCH  12  19
ENDBRANCH   3   5
ENDBRANCH   2   3
TORSDOF 6
ENDMDL
MODEL      174
REMARK 921   NORMALIZED FREE ENERGY PREDICTED BY IDOCK:   -2.80 KCAL/MOL
REMARK 922        TOTAL FREE ENERGY PREDICTED BY IDOCK:   -5.23 KCAL/MOL
REMARK 923 INTER-LIGAND FREE ENERGY PREDICTED BY IDOCK:   -3.92 KCAL/MOL
REMARK 924 INTRA-LIGAND FREE ENERGY PREDICTED BY IDOCK:   -1.31 KCAL/MOL
REMARK 927      BINDING AFFINITY PREDICTED BY RF-SCORE:    0.00 PKD
ROOT
HETATM    1  C   UNL     1      -7.962  10.806  66.147  1.00  0.00    -0.157 C  
HETATM    2  O   UNL     1      -8.454   9.738  66.963  1.00  0.00    -0.117 OA 
ENDROOT
BRANCH   2   3
HETATM    3  C   UNL     1      -7.546   8.987  67.624  1.00  0.00    -0.093 C  
HETATM    4  O   UNL     1      -6.474   8.618  67.169  1.00  0.00    -0.056 OA 
BRANCH   3   5
HETATM    5  C   UNL     1      -8.051   8.617  68.978  1.00  0.00    -0.121 C  
HETATM    6  C   UNL     1      -7.668   9.366  70.042  1.00  0.00    -0.123 C  
HETATM    7  C   UNL     1      -6.643  10.479  70.040  1.00  0.00    -0.144 C  
HETATM    8  N   UNL     1      -8.232   9.135  71.280  1.00  0.00    -0.329 NA 
HETATM    9  C   UNL     1      -9.116   8.121  71.582  1.00  0.00    -0.163 C  
HETATM   10  C   UNL     1      -9.530   8.052  73.035  1.00  0.00    -0.345 C  
HETATM   11  C   UNL     1      -9.548   7.283  70.605  1.00  0.00    -0.172 C  
HETATM   12  C   UNL     1      -9.105   7.492  69.143  1.00  0.00    -0.138 C  
BRANCH  11  13
HETATM   13  C   UNL     1     -10.375   6.105  70.995  1.00  0.00    -0.210 C  
HETATM   14  O   UNL     1     -11.573   6.018  70.748  1.00  0.00    -0.259 OA 
BRANCH  13  15
HETATM   15  O   UNL     1      -9.683   5.176  71.699  1.00  0.00    -0.153 OA 
BRANCH  15  16
HETATM   16  C   UNL     1     -10.517   4.239  72.420  1.00  0.00    -0.126 C  
HETATM   17  C   UNL     1     -10.503   4.603  73.897  1.00  0.00    -0.309 C  
HETATM   18  C   UNL     1     -10.002   2.818  72.203  1.00  0.00    -0.238 C  
ENDBRANCH  15  16
ENDBRANCH  13  15
ENDBRANCH  11  13
BRANCH  12  19
HETATM   19  C   UNL     1      -8.686   6.190  68.484  1.00  0.00    -0.111 A  
HETATM   20  C   UNL     1      -7.485   5.500  68.805  1.00  0.00    -0.079 A  
HETATM   21  C   UNL     1      -9.480   5.515  67.518  1.00  0.00    -0.123 A  
HETATM   22  N   UNL     1      -6.523   5.830  69.675  1.00  0.00    -0.040 NA 
HETATM   23  O   UNL     1      -5.588   4.813  69.615  1.00  0.00    -0.011 OA 
HETATM   24  C   UNL     1      -9.115   4.279  66.922  1.00  0.00    -0.144 A  
HETATM   25  C   UNL     1      -7.930   3.590  67.237  1.00  0.00    -0.082 A  
HETATM   26  C   UNL     1      -7.122   4.228  68.195  1.00  0.00    -0.059 A  
HETATM   27  N   UNL     1      -5.952   3.831  68.712  1.00  0.00    -0.023 NA 
ENDBRANCH  12  19
ENDBRANCH   3   5
ENDBRANCH   2   3
TORSDOF 6
ENDMDL
MODEL      175
REMARK 921   NORMALIZED FREE ENERGY PREDICTED BY IDOCK:   -2.71 KCAL/MOL
REMARK 922        TOTAL FREE ENERGY PREDICTED BY IDOCK:   -5.12 KCAL/MOL
REMARK 923 INTER-LIGAND FREE ENERGY PREDICTED BY IDOCK:   -3.91 KCAL/MOL
REMARK 924 INTRA-LIGAND FREE ENERGY PREDICTED BY IDOCK:   -1.21 KCAL/MOL
REMARK 927      BINDING AFFINITY PREDICTED BY RF-SCORE:    0.00 PKD
ROOT
HETATM    1  C   UNL     1      -7.360   9.776  65.411  1.00  0.00    -0.118 C  
HETATM    2  O   UNL     1      -8.145  10.603  66.276  1.00  0.00    -0.139 OA 
ENDROOT
BRANCH   2   3
HETATM    3  C   UNL     1      -9.056   9.995  67.066  1.00  0.00    -0.142 C  
HETATM    4  O   UNL     1     -10.239   9.855  66.795  1.00  0.00    -0.222 OA 
BRANCH   3   5
HETATM    5  C   UNL     1      -8.435   9.556  68.349  1.00  0.00    -0.119 C  
HETATM    6  C   UNL     1      -7.831  10.486  69.130  1.00  0.00    -0.138 C  
HETATM    7  C   UNL     1      -7.575  11.934  68.776  1.00  0.00    -0.090 C  
HETATM    8  N   UNL     1      -7.377  10.134  70.385  1.00  0.00    -0.273 NA 
HETATM    9  C   UNL     1      -7.394   8.863  70.917  1.00  0.00    -0.097 C  
HETATM   10  C   UNL     1      -6.773   8.741  72.291  1.00  0.00    -0.023 C  
HETATM   11  C   UNL     1      -7.945   7.840  70.215  1.00  0.00    -0.100 C  
HETATM   12  C   UNL     1      -8.609   8.098  68.847  1.00  0.00    -0.130 C  
BRANCH  11  13
HETATM   13  C   UNL     1      -7.804   6.456  70.749  1.00  0.00    -0.106 C  
HETATM   14  O   UNL     1      -6.838   5.739  70.504  1.00  0.00    -0.052 OA 
BRANCH  13  15
HETATM   15  O   UNL     1      -8.873   6.052  71.479  1.00  0.00    -0.138 OA 
BRANCH  15  16
HETATM   16  C   UNL     1      -9.790   5.195  70.758  1.00  0.00    -0.202 C  
HETATM   17  C   UNL     1     -11.160   5.856  70.728  1.00  0.00    -0.324 C  
HETATM   18  C   UNL     1      -9.859   3.828  71.435  1.00  0.00    -0.226 C  
ENDBRANCH  15  16
ENDBRANCH  13  15
ENDBRANCH  11  13
BRANCH  12  19
HETATM   19  C   UNL     1      -8.195   7.068  67.810  1.00  0.00    -0.114 A  
HETATM   20  C   UNL     1      -9.119   6.254  67.101  1.00  0.00    -0.119 A  
HETATM   21  C   UNL     1      -6.845   6.858  67.419  1.00  0.00    -0.076 A  
HETATM   22  N   UNL     1     -10.454   6.203  67.198  1.00  0.00    -0.226 NA 
HETATM   23  O   UNL     1     -10.867   5.257  66.277  1.00  0.00    -0.285 OA 
HETATM   24  C   UNL     1      -6.450   5.923  66.425  1.00  0.00    -0.043 A  
HETATM   25  C   UNL     1      -7.360   5.117  65.718  1.00  0.00    -0.077 A  
HETATM   26  C   UNL     1      -8.706   5.304  66.078  1.00  0.00    -0.137 A  
HETATM   27  N   UNL     1      -9.801   4.707  65.590  1.00  0.00    -0.194 NA 
ENDBRANCH  12  19
ENDBRANCH   3   5
ENDBRANCH   2   3
TORSDOF 6
ENDMDL
MODEL      176
REMARK 921   NORMALIZED FREE ENERGY PREDICTED BY IDOCK:   -2.69 KCAL/MOL
REMARK 922        TOTAL FREE ENERGY PREDICTED BY IDOCK:   -5.09 KCAL/MOL
REMARK 923 INTER-LIGAND FREE ENERGY PREDICTED BY IDOCK:   -3.90 KCAL/MOL
REMARK 924 INTRA-LIGAND FREE ENERGY PREDICTED BY IDOCK:   -1.19 KCAL/MOL
REMARK 927      BINDING AFFINITY PREDICTED BY RF-SCORE:    0.00 PKD
ROOT
HETATM    1  C   UNL     1      -7.373   4.376  73.841  1.00  0.00    -0.069 C  
HETATM    2  O   UNL     1      -7.569   5.108  72.627  1.00  0.00    -0.093 OA 
ENDROOT
BRANCH   2   3
HETATM    3  C   UNL     1      -7.198   6.406  72.613  1.00  0.00    -0.083 C  
HETATM    4  O   UNL     1      -6.128   6.836  73.018  1.00  0.00    -0.056 OA 
BRANCH   3   5
HETATM    5  C   UNL     1      -8.295   7.265  72.081  1.00  0.00    -0.115 C  
HETATM    6  C   UNL     1      -9.300   7.627  72.915  1.00  0.00    -0.198 C  
HETATM    7  C   UNL     1      -9.526   7.129  74.326  1.00  0.00    -0.236 C  
HETATM    8  N   UNL     1     -10.249   8.536  72.490  1.00  0.00    -0.298 NA 
HETATM    9  C   UNL     1     -10.336   9.070  71.222  1.00  0.00    -0.313 C  
HETATM   10  C   UNL     1     -11.513   9.994  71.003  1.00  0.00    -0.463 C  
HETATM   11  C   UNL     1      -9.403   8.757  70.288  1.00  0.00    -0.193 C  
HETATM   12  C   UNL     1      -8.207   7.851  70.647  1.00  0.00    -0.114 C  
BRANCH  11  13
HETATM   13  C   UNL     1      -9.616   9.224  68.888  1.00  0.00    -0.155 C  
HETATM   14  O   UNL     1     -10.492   8.770  68.158  1.00  0.00    -0.216 OA 
BRANCH  13  15
HETATM   15  O   UNL     1      -8.711  10.151  68.490  1.00  0.00    -0.116 OA 
BRANCH  15  16
HETATM   16  C   UNL     1      -9.239  11.134  67.568  1.00  0.00    -0.153 C  
HETATM   17  C   UNL     1      -8.082  11.775  66.816  1.00  0.00    -0.133 C  
HETATM   18  C   UNL     1     -10.039  12.184  68.335  1.00  0.00    -0.210 C  
ENDBRANCH  15  16
ENDBRANCH  13  15
ENDBRANCH  11  13
BRANCH  12  19
HETATM   19  C   UNL     1      -7.959   6.790  69.591  1.00  0.00    -0.124 A  
HETATM   20  C   UNL     1      -8.790   5.651  69.413  1.00  0.00    -0.111 A  
HETATM   21  C   UNL     1      -6.898   6.863  68.649  1.00  0.00    -0.070 A  
HETATM   22  N   UNL     1      -9.878   5.278  70.099  1.00  0.00    -0.200 NA 
HETATM   23  O   UNL     1     -10.317   4.106  69.511  1.00  0.00     0.219 OA 
HETATM   24  C   UNL     1      -6.678   5.895  67.634  1.00  0.00    -0.058 A  
HETATM   25  C   UNL     1      -7.497   4.767  67.451  1.00  0.00    -0.082 A  
HETATM   26  C   UNL     1      -8.562   4.666  68.364  1.00  0.00    -0.097 A  
HETATM   27  N   UNL     1      -9.515   3.730  68.450  1.00  0.00    -0.164 NA 
ENDBRANCH  12  19
ENDBRANCH   3   5
ENDBRANCH   2   3
TORSDOF 6
ENDMDL
MODEL      177
REMARK 921   NORMALIZED FREE ENERGY PREDICTED BY IDOCK:   -2.67 KCAL/MOL
REMARK 922        TOTAL FREE ENERGY PREDICTED BY IDOCK:   -5.06 KCAL/MOL
REMARK 923 INTER-LIGAND FREE ENERGY PREDICTED BY IDOCK:   -5.20 KCAL/MOL
REMARK 924 INTRA-LIGAND FREE ENERGY PREDICTED BY IDOCK:    0.13 KCAL/MOL
REMARK 927      BINDING AFFINITY PREDICTED BY RF-SCORE:    0.00 PKD
ROOT
HETATM    1  C   UNL     1      -5.149  13.495  67.706  1.00  0.00    -0.036 C  
HETATM    2  O   UNL     1      -5.785  14.489  68.516  1.00  0.00    -0.085 OA 
ENDROOT
BRANCH   2   3
HETATM    3  C   UNL     1      -6.608  14.062  69.498  1.00  0.00    -0.115 C  
HETATM    4  O   UNL     1      -6.357  14.101  70.693  1.00  0.00    -0.155 OA 
BRANCH   3   5
HETATM    5  C   UNL     1      -7.858  13.481  68.926  1.00  0.00     0.059 C  
HETATM    6  C   UNL     1      -7.904  12.148  68.684  1.00  0.00    -0.078 C  
HETATM    7  C   UNL     1      -6.754  11.171  68.792  1.00  0.00    -0.067 C  
HETATM    8  N   UNL     1      -9.092  11.564  68.293  1.00  0.00    -0.180 NA 
HETATM    9  C   UNL     1     -10.265  12.235  68.025  1.00  0.00    -0.206 C  
HETATM   10  C   UNL     1     -11.403  11.360  67.548  1.00  0.00    -0.362 C  
HETATM   11  C   UNL     1     -10.334  13.580  68.199  1.00  0.00    -0.247 C  
HETATM   12  C   UNL     1      -9.124  14.360  68.753  1.00  0.00    -0.133 C  
BRANCH  11  13
HETATM   13  C   UNL     1     -11.564  14.292  67.749  1.00  0.00    -0.354 C  
HETATM   14  O   UNL     1     -12.644  14.187  68.321  1.00  0.00     0.069 OA 
BRANCH  13  15
HETATM   15  O   UNL     1     -11.380  15.012  66.615  1.00  0.00    -0.344 OA 
BRANCH  15  16
HETATM   16  C   UNL     1     -11.806  14.334  65.409  1.00  0.00    -0.363 C  
HETATM   17  C   UNL     1     -10.587  13.730  64.729  1.00  0.00    -0.444 C  
HETATM   18  C   UNL     1     -12.513  15.322  64.485  1.00  0.00    -0.032 C  
ENDBRANCH  15  16
ENDBRANCH  13  15
ENDBRANCH  11  13
BRANCH  12  19
HETATM   19  C   UNL     1      -8.857  15.630  67.966  1.00  0.00    -0.169 A  
HETATM   20  C   UNL     1      -9.362  16.905  68.340  1.00  0.00    -0.255 A  
HETATM   21  C   UNL     1      -8.036  15.669  66.807  1.00  0.00    -0.246 A  
HETATM   22  N   UNL     1     -10.142  17.239  69.376  1.00  0.00    -0.163 NA 
HETATM   23  O   UNL     1     -10.326  18.607  69.289  1.00  0.00    -0.151 OA 
HETATM   24  C   UNL     1      -7.750  16.857  66.084  1.00  0.00    -0.259 A  
HETATM   25  C   UNL     1      -8.244  18.122  66.450  1.00  0.00    -0.282 A  
HETATM   26  C   UNL     1      -9.057  18.121  67.597  1.00  0.00    -0.259 A  
HETATM   27  N   UNL     1      -9.663  19.149  68.204  1.00  0.00    -0.339 NA 
ENDBRANCH  12  19
ENDBRANCH   3   5
ENDBRANCH   2   3
TORSDOF 6
ENDMDL
MODEL      178
REMARK 921   NORMALIZED FREE ENERGY PREDICTED BY IDOCK:   -2.66 KCAL/MOL
REMARK 922        TOTAL FREE ENERGY PREDICTED BY IDOCK:   -5.05 KCAL/MOL
REMARK 923 INTER-LIGAND FREE ENERGY PREDICTED BY IDOCK:   -4.64 KCAL/MOL
REMARK 924 INTRA-LIGAND FREE ENERGY PREDICTED BY IDOCK:   -0.42 KCAL/MOL
REMARK 927      BINDING AFFINITY PREDICTED BY RF-SCORE:    0.00 PKD
ROOT
HETATM    1  C   UNL     1     -11.007   6.401  72.999  1.00  0.00    -0.238 C  
HETATM    2  O   UNL     1     -11.394   7.664  72.449  1.00  0.00    -0.284 OA 
ENDROOT
BRANCH   2   3
HETATM    3  C   UNL     1     -10.411   8.525  72.107  1.00  0.00    -0.339 C  
HETATM    4  O   UNL     1      -9.536   8.927  72.860  1.00  0.00    -0.128 OA 
BRANCH   3   5
HETATM    5  C   UNL     1     -10.562   8.967  70.691  1.00  0.00    -0.277 C  
HETATM    6  C   UNL     1     -11.490   9.912  70.400  1.00  0.00    -0.301 C  
HETATM    7  C   UNL     1     -12.522  10.484  71.347  1.00  0.00    -0.516 C  
HETATM    8  N   UNL     1     -11.552  10.441  69.127  1.00  0.00    -0.205 NA 
HETATM    9  C   UNL     1     -10.797  10.030  68.050  1.00  0.00    -0.260 C  
HETATM   10  C   UNL     1     -11.111  10.734  66.749  1.00  0.00    -0.153 C  
HETATM   11  C   UNL     1      -9.855   9.065  68.209  1.00  0.00    -0.186 C  
HETATM   12  C   UNL     1      -9.579   8.464  69.602  1.00  0.00    -0.163 C  
BRANCH  11  13
HETATM   13  C   UNL     1      -9.171   8.535  66.996  1.00  0.00    -0.152 C  
HETATM   14  O   UNL     1      -9.523   7.507  66.426  1.00  0.00    -0.184 OA 
BRANCH  13  15
HETATM   15  O   UNL     1      -8.091   9.267  66.627  1.00  0.00    -0.107 OA 
BRANCH  15  16
HETATM   16  C   UNL     1      -6.829   8.575  66.778  1.00  0.00    -0.069 C  
HETATM   17  C   UNL     1      -7.065   7.081  66.622  1.00  0.00    -0.078 C  
HETATM   18  C   UNL     1      -6.226   8.892  68.144  1.00  0.00    -0.051 C  
ENDBRANCH  15  16
ENDBRANCH  13  15
ENDBRANCH  11  13
BRANCH  12  19
HETATM   19  C   UNL     1      -9.474   6.949  69.557  1.00  0.00    -0.146 A  
HETATM   20  C   UNL     1      -8.387   6.222  70.115  1.00  0.00    -0.129 A  
HETATM   21  C   UNL     1     -10.477   6.116  68.995  1.00  0.00    -0.305 A  
HETATM   22  N   UNL     1      -7.291   6.677  70.736  1.00  0.00    -0.077 NA 
HETATM   23  O   UNL     1      -6.565   5.556  71.096  1.00  0.00    -0.040 OA 
HETATM   24  C   UNL     1     -10.406   4.698  68.980  1.00  0.00     0.112 A  
HETATM   25  C   UNL     1      -9.335   3.972  69.532  1.00  0.00    -0.243 A  
HETATM   26  C   UNL     1      -8.326   4.767  70.103  1.00  0.00    -0.075 A  
HETATM   27  N   UNL     1      -7.196   4.387  70.712  1.00  0.00    -0.041 NA 
ENDBRANCH  12  19
ENDBRANCH   3   5
ENDBRANCH   2   3
TORSDOF 6
ENDMDL
MODEL      179
REMARK 921   NORMALIZED FREE ENERGY PREDICTED BY IDOCK:   -2.61 KCAL/MOL
REMARK 922        TOTAL FREE ENERGY PREDICTED BY IDOCK:   -4.99 KCAL/MOL
REMARK 923 INTER-LIGAND FREE ENERGY PREDICTED BY IDOCK:   -4.02 KCAL/MOL
REMARK 924 INTRA-LIGAND FREE ENERGY PREDICTED BY IDOCK:   -0.97 KCAL/MOL
REMARK 927      BINDING AFFINITY PREDICTED BY RF-SCORE:    0.00 PKD
ROOT
HETATM    1  C   UNL     1      -8.187   7.894  63.563  1.00  0.00    -0.008 C  
HETATM    2  O   UNL     1      -8.389   7.545  64.936  1.00  0.00    -0.124 OA 
ENDROOT
BRANCH   2   3
HETATM    3  C   UNL     1      -7.352   6.989  65.599  1.00  0.00    -0.079 C  
HETATM    4  O   UNL     1      -6.188   7.013  65.230  1.00  0.00    -0.036 OA 
BRANCH   3   5
HETATM    5  C   UNL     1      -7.824   6.289  66.829  1.00  0.00    -0.104 C  
HETATM    6  C   UNL     1      -8.080   4.959  66.762  1.00  0.00    -0.107 C  
HETATM    7  C   UNL     1      -8.085   4.103  65.515  1.00  0.00    -0.101 C  
HETATM    8  N   UNL     1      -8.378   4.261  67.915  1.00  0.00    -0.094 NA 
HETATM    9  C   UNL     1      -8.536   4.813  69.168  1.00  0.00    -0.080 C  
HETATM   10  C   UNL     1      -8.928   3.829  70.249  1.00  0.00    -0.170 C  
HETATM   11  C   UNL     1      -8.338   6.142  69.355  1.00  0.00    -0.116 C  
HETATM   12  C   UNL     1      -7.877   7.037  68.186  1.00  0.00    -0.118 C  
BRANCH  11  13
HETATM   13  C   UNL     1      -8.672   6.729  70.684  1.00  0.00    -0.143 C  
HETATM   14  O   UNL     1      -7.874   7.387  71.345  1.00  0.00    -0.092 OA 
BRANCH  13  15
HETATM   15  O   UNL     1      -9.919   6.412  71.111  1.00  0.00    -0.179 OA 
BRANCH  15  16
HETATM   16  C   UNL     1     -10.895   7.463  70.918  1.00  0.00    -0.240 C  
HETATM   17  C   UNL     1     -10.700   8.518  71.997  1.00  0.00    -0.410 C  
HETATM   18  C   UNL     1     -12.303   6.877  70.977  1.00  0.00    -0.401 C  
ENDBRANCH  15  16
ENDBRANCH  13  15
ENDBRANCH  11  13
BRANCH  12  19
HETATM   19  C   UNL     1      -8.666   8.332  68.116  1.00  0.00    -0.136 A  
HETATM   20  C   UNL     1      -8.099   9.610  68.372  1.00  0.00    -0.104 A  
HETATM   21  C   UNL     1     -10.034   8.390  67.739  1.00  0.00    -0.236 A  
HETATM   22  N   UNL     1      -6.848   9.929  68.726  1.00  0.00    -0.053 NA 
HETATM   23  O   UNL     1      -6.820  11.308  68.833  1.00  0.00    -0.071 OA 
HETATM   24  C   UNL     1     -10.772   9.599  67.634  1.00  0.00    -0.324 A  
HETATM   25  C   UNL     1     -10.217  10.867  67.884  1.00  0.00    -0.205 A  
HETATM   26  C   UNL     1      -8.861  10.846  68.255  1.00  0.00    -0.140 A  
HETATM   27  N   UNL     1      -8.049  11.871  68.544  1.00  0.00    -0.148 NA 
ENDBRANCH  12  19
ENDBRANCH   3   5
ENDBRANCH   2   3
TORSDOF 6
ENDMDL
MODEL      180
REMARK 921   NORMALIZED FREE ENERGY PREDICTED BY IDOCK:   -2.61 KCAL/MOL
REMARK 922        TOTAL FREE ENERGY PREDICTED BY IDOCK:   -4.99 KCAL/MOL
REMARK 923 INTER-LIGAND FREE ENERGY PREDICTED BY IDOCK:   -3.80 KCAL/MOL
REMARK 924 INTRA-LIGAND FREE ENERGY PREDICTED BY IDOCK:   -1.18 KCAL/MOL
REMARK 927      BINDING AFFINITY PREDICTED BY RF-SCORE:    0.00 PKD
ROOT
HETATM    1  C   UNL     1      -8.984   7.747  67.418  1.00  0.00    -0.123 C  
HETATM    2  O   UNL     1      -9.773   7.639  68.607  1.00  0.00    -0.151 OA 
ENDROOT
BRANCH   2   3
HETATM    3  C   UNL     1     -10.628   6.598  68.699  1.00  0.00    -0.234 C  
HETATM    4  O   UNL     1     -11.405   6.247  67.824  1.00  0.00    -0.250 OA 
BRANCH   3   5
HETATM    5  C   UNL     1     -10.536   5.955  70.042  1.00  0.00    -0.364 C  
HETATM    6  C   UNL     1     -11.293   6.450  71.052  1.00  0.00    -0.328 C  
HETATM    7  C   UNL     1     -12.135   7.707  71.017  1.00  0.00    -0.282 C  
HETATM    8  N   UNL     1     -11.337   5.788  72.263  1.00  0.00    -0.288 NA 
HETATM    9  C   UNL     1     -10.592   4.677  72.596  1.00  0.00    -0.195 C  
HETATM   10  C   UNL     1     -10.783   4.187  74.014  1.00  0.00    -0.310 C  
HETATM   11  C   UNL     1      -9.772   4.108  71.676  1.00  0.00    -0.246 C  
HETATM   12  C   UNL     1      -9.708   4.659  70.237  1.00  0.00    -0.295 C  
BRANCH  11  13
HETATM   13  C   UNL     1      -8.865   3.010  72.117  1.00  0.00    -0.082 C  
HETATM   14  O   UNL     1      -8.846   1.904  71.586  1.00  0.00    -0.061 OA 
BRANCH  13  15
HETATM   15  O   UNL     1      -8.114   3.338  73.196  1.00  0.00    -0.071 OA 
BRANCH  15  16
HETATM   16  C   UNL     1      -6.789   3.822  72.869  1.00  0.00    -0.039 C  
HETATM   17  C   UNL     1      -5.798   2.676  73.010  1.00  0.00    -0.008 C  
HETATM   18  C   UNL     1      -6.420   4.979  73.793  1.00  0.00    -0.063 C  
ENDBRANCH  15  16
ENDBRANCH  13  15
ENDBRANCH  11  13
BRANCH  12  19
HETATM   19  C   UNL     1      -8.279   4.792  69.741  1.00  0.00    -0.068 A  
HETATM   20  C   UNL     1      -7.380   5.792  70.200  1.00  0.00    -0.073 A  
HETATM   21  C   UNL     1      -7.694   3.898  68.805  1.00  0.00    -0.053 A  
HETATM   22  N   UNL     1      -7.584   6.775  71.087  1.00  0.00    -0.087 NA 
HETATM   23  O   UNL     1      -6.384   7.455  71.186  1.00  0.00    -0.036 OA 
HETATM   24  C   UNL     1      -6.348   3.992  68.362  1.00  0.00    -0.036 A  
HETATM   25  C   UNL     1      -5.452   4.977  68.814  1.00  0.00    -0.011 A  
HETATM   26  C   UNL     1      -5.999   5.877  69.747  1.00  0.00    -0.025 A  
HETATM   27  N   UNL     1      -5.412   6.907  70.369  1.00  0.00    -0.023 NA 
ENDBRANCH  12  19
ENDBRANCH   3   5
ENDBRANCH   2   3
TORSDOF 6
ENDMDL
MODEL      181
REMARK 921   NORMALIZED FREE ENERGY PREDICTED BY IDOCK:   -2.59 KCAL/MOL
REMARK 922        TOTAL FREE ENERGY PREDICTED BY IDOCK:   -4.95 KCAL/MOL
REMARK 923 INTER-LIGAND FREE ENERGY PREDICTED BY IDOCK:   -4.44 KCAL/MOL
REMARK 924 INTRA-LIGAND FREE ENERGY PREDICTED BY IDOCK:   -0.51 KCAL/MOL
REMARK 927      BINDING AFFINITY PREDICTED BY RF-SCORE:    0.00 PKD
ROOT
HETATM    1  C   UNL     1      -8.237  10.059  66.328  1.00  0.00    -0.124 C  
HETATM    2  O   UNL     1      -7.545  10.117  67.580  1.00  0.00    -0.090 OA 
ENDROOT
BRANCH   2   3
HETATM    3  C   UNL     1      -7.016   8.970  68.056  1.00  0.00    -0.077 C  
HETATM    4  O   UNL     1      -6.172   8.295  67.485  1.00  0.00    -0.050 OA 
BRANCH   3   5
HETATM    5  C   UNL     1      -7.639   8.600  69.359  1.00  0.00    -0.092 C  
HETATM    6  C   UNL     1      -6.956   8.856  70.503  1.00  0.00    -0.057 C  
HETATM    7  C   UNL     1      -5.532   9.354  70.611  1.00  0.00    -0.039 C  
HETATM    8  N   UNL     1      -7.568   8.657  71.724  1.00  0.00    -0.214 NA 
HETATM    9  C   UNL     1      -8.823   8.119  71.915  1.00  0.00    -0.159 C  
HETATM   10  C   UNL     1      -9.227   7.949  73.362  1.00  0.00    -0.351 C  
HETATM   11  C   UNL     1      -9.591   7.792  70.845  1.00  0.00    -0.173 C  
HETATM   12  C   UNL     1      -9.097   8.072  69.411  1.00  0.00    -0.148 C  
BRANCH  11  13
HETATM   13  C   UNL     1     -10.872   7.068  71.086  1.00  0.00    -0.237 C  
HETATM   14  O   UNL     1     -10.935   6.007  71.699  1.00  0.00    -0.253 OA 
BRANCH  13  15
HETATM   15  O   UNL     1     -11.942   7.668  70.510  1.00  0.00    -0.170 OA 
BRANCH  15  16
HETATM   16  C   UNL     1     -12.514   8.740  71.298  1.00  0.00    -0.260 C  
HETATM   17  C   UNL     1     -11.627   9.969  71.172  1.00  0.00    -0.460 C  
HETATM   18  C   UNL     1     -12.634   8.301  72.755  1.00  0.00    -0.053 C  
ENDBRANCH  15  16
ENDBRANCH  13  15
ENDBRANCH  11  13
BRANCH  12  19
HETATM   19  C   UNL     1      -9.328   6.889  68.488  1.00  0.00    -0.134 A  
HETATM   20  C   UNL     1      -8.637   5.653  68.610  1.00  0.00    -0.104 A  
HETATM   21  C   UNL     1     -10.292   6.893  67.445  1.00  0.00    -0.297 A  
HETATM   22  N   UNL     1      -7.688   5.293  69.483  1.00  0.00    -0.072 NA 
HETATM   23  O   UNL     1      -7.367   3.982  69.179  1.00  0.00    -0.053 OA 
HETATM   24  C   UNL     1     -10.542   5.780  66.599  1.00  0.00    -0.347 A  
HETATM   25  C   UNL     1      -9.864   4.553  66.716  1.00  0.00    -0.242 A  
HETATM   26  C   UNL     1      -8.905   4.513  67.743  1.00  0.00    -0.107 A  
HETATM   27  N   UNL     1      -8.110   3.503  68.117  1.00  0.00    -0.078 NA 
ENDBRANCH  12  19
ENDBRANCH   3   5
ENDBRANCH   2   3
TORSDOF 6
ENDMDL
MODEL      182
REMARK 921   NORMALIZED FREE ENERGY PREDICTED BY IDOCK:   -2.57 KCAL/MOL
REMARK 922        TOTAL FREE ENERGY PREDICTED BY IDOCK:   -4.92 KCAL/MOL
REMARK 923 INTER-LIGAND FREE ENERGY PREDICTED BY IDOCK:   -3.33 KCAL/MOL
REMARK 924 INTRA-LIGAND FREE ENERGY PREDICTED BY IDOCK:   -1.59 KCAL/MOL
REMARK 927      BINDING AFFINITY PREDICTED BY RF-SCORE:    0.00 PKD
ROOT
HETATM    1  C   UNL     1      -5.722  10.346  71.564  1.00  0.00     0.159 C  
HETATM    2  O   UNL     1      -6.849  10.349  70.683  1.00  0.00    -0.328 OA 
ENDROOT
BRANCH   2   3
HETATM    3  C   UNL     1      -6.662   9.888  69.427  1.00  0.00    -0.057 C  
HETATM    4  O   UNL     1      -5.711  10.167  68.711  1.00  0.00    -0.038 OA 
BRANCH   3   5
HETATM    5  C   UNL     1      -7.803   9.028  69.003  1.00  0.00    -0.090 C  
HETATM    6  C   UNL     1      -8.810   9.589  68.287  1.00  0.00    -0.124 C  
HETATM    7  C   UNL     1      -8.991  11.060  67.985  1.00  0.00    -0.145 C  
HETATM    8  N   UNL     1      -9.804   8.788  67.760  1.00  0.00    -0.165 NA 
HETATM    9  C   UNL     1      -9.934   7.432  67.967  1.00  0.00    -0.164 C  
HETATM   10  C   UNL     1     -11.154   6.807  67.326  1.00  0.00    -0.394 C  
HETATM   11  C   UNL     1      -9.004   6.762  68.695  1.00  0.00    -0.125 C  
HETATM   12  C   UNL     1      -7.765   7.496  69.246  1.00  0.00    -0.112 C  
BRANCH  11  13
HETATM   13  C   UNL     1      -9.261   5.333  69.031  1.00  0.00    -0.118 C  
HETATM   14  O   UNL     1     -10.018   4.983  69.931  1.00  0.00    -0.209 OA 
BRANCH  13  15
HETATM   15  O   UNL     1      -8.530   4.469  68.285  1.00  0.00    -0.093 OA 
BRANCH  15  16
HETATM   16  C   UNL     1      -7.835   3.462  69.059  1.00  0.00    -0.050 C  
HETATM   17  C   UNL     1      -6.351   3.529  68.735  1.00  0.00    -0.029 C  
HETATM   18  C   UNL     1      -8.402   2.081  68.736  1.00  0.00    -0.079 C  
ENDBRANCH  15  16
ENDBRANCH  13  15
ENDBRANCH  11  13
BRANCH  12  19
HETATM   19  C   UNL     1      -7.488   7.137  70.695  1.00  0.00    -0.081 A  
HETATM   20  C   UNL     1      -8.358   7.475  71.767  1.00  0.00    -0.107 A  
HETATM   21  C   UNL     1      -6.354   6.387  71.108  1.00  0.00    -0.048 A  
HETATM   22  N   UNL     1      -9.515   8.150  71.741  1.00  0.00    -0.171 NA 
HETATM   23  O   UNL     1      -9.964   8.187  73.049  1.00  0.00    -0.285 OA 
HETATM   24  C   UNL     1      -6.104   6.014  72.455  1.00  0.00    -0.041 A  
HETATM   25  C   UNL     1      -6.963   6.343  73.519  1.00  0.00    -0.082 A  
HETATM   26  C   UNL     1      -8.099   7.082  73.145  1.00  0.00    -0.101 A  
HETATM   27  N   UNL     1      -9.102   7.533  73.909  1.00  0.00    -0.253 NA 
ENDBRANCH  12  19
ENDBRANCH   3   5
ENDBRANCH   2   3
TORSDOF 6
ENDMDL
MODEL      183
REMARK 921   NORMALIZED FREE ENERGY PREDICTED BY IDOCK:   -2.56 KCAL/MOL
REMARK 922        TOTAL FREE ENERGY PREDICTED BY IDOCK:   -4.91 KCAL/MOL
REMARK 923 INTER-LIGAND FREE ENERGY PREDICTED BY IDOCK:   -4.57 KCAL/MOL
REMARK 924 INTRA-LIGAND FREE ENERGY PREDICTED BY IDOCK:   -0.34 KCAL/MOL
REMARK 927      BINDING AFFINITY PREDICTED BY RF-SCORE:    0.00 PKD
ROOT
HETATM    1  C   UNL     1      -5.129   9.584  67.831  1.00  0.00    -0.036 C  
HETATM    2  O   UNL     1      -5.311   8.327  67.172  1.00  0.00    -0.035 OA 
ENDROOT
BRANCH   2   3
HETATM    3  C   UNL     1      -6.576   7.945  66.893  1.00  0.00    -0.059 C  
HETATM    4  O   UNL     1      -7.110   8.028  65.797  1.00  0.00    -0.062 OA 
BRANCH   3   5
HETATM    5  C   UNL     1      -7.263   7.450  68.121  1.00  0.00    -0.090 C  
HETATM    6  C   UNL     1      -7.273   6.116  68.368  1.00  0.00    -0.084 C  
HETATM    7  C   UNL     1      -6.783   5.024  67.443  1.00  0.00    -0.055 C  
HETATM    8  N   UNL     1      -7.774   5.645  69.565  1.00  0.00    -0.089 NA 
HETATM    9  C   UNL     1      -8.370   6.413  70.542  1.00  0.00    -0.129 C  
HETATM   10  C   UNL     1      -8.893   5.634  71.729  1.00  0.00    -0.138 C  
HETATM   11  C   UNL     1      -8.448   7.760  70.394  1.00  0.00    -0.132 C  
HETATM   12  C   UNL     1      -7.821   8.451  69.166  1.00  0.00    -0.105 C  
BRANCH  11  13
HETATM   13  C   UNL     1      -9.239   8.538  71.390  1.00  0.00    -0.210 C  
HETATM   14  O   UNL     1      -8.928   8.618  72.575  1.00  0.00    -0.337 OA 
BRANCH  13  15
HETATM   15  O   UNL     1     -10.360   9.092  70.868  1.00  0.00    -0.233 OA 
BRANCH  15  16
HETATM   16  C   UNL     1     -11.583   8.684  71.526  1.00  0.00    -0.302 C  
HETATM   17  C   UNL     1     -11.975   7.304  71.023  1.00  0.00    -0.362 C  
HETATM   18  C   UNL     1     -12.685   9.702  71.243  1.00  0.00    -0.443 C  
ENDBRANCH  15  16
ENDBRANCH  13  15
ENDBRANCH  11  13
BRANCH  12  19
HETATM   19  C   UNL     1      -8.753   9.482  68.555  1.00  0.00    -0.124 A  
HETATM   20  C   UNL     1      -8.469  10.874  68.525  1.00  0.00    -0.147 A  
HETATM   21  C   UNL     1      -9.974   9.144  67.914  1.00  0.00    -0.228 A  
HETATM   22  N   UNL     1      -7.410  11.536  69.009  1.00  0.00    -0.113 NA 
HETATM   23  O   UNL     1      -7.619  12.868  68.702  1.00  0.00    -0.126 OA 
HETATM   24  C   UNL     1     -10.836  10.096  67.307  1.00  0.00    -0.295 A  
HETATM   25  C   UNL     1     -10.559  11.475  67.271  1.00  0.00    -0.266 A  
HETATM   26  C   UNL     1      -9.354  11.844  67.893  1.00  0.00    -0.187 A  
HETATM   27  N   UNL     1      -8.806  13.059  68.018  1.00  0.00    -0.185 NA 
ENDBRANCH  12  19
ENDBRANCH   3   5
ENDBRANCH   2   3
TORSDOF 6
ENDMDL
MODEL      184
REMARK 921   NORMALIZED FREE ENERGY PREDICTED BY IDOCK:   -2.54 KCAL/MOL
REMARK 922        TOTAL FREE ENERGY PREDICTED BY IDOCK:   -4.89 KCAL/MOL
REMARK 923 INTER-LIGAND FREE ENERGY PREDICTED BY IDOCK:   -3.42 KCAL/MOL
REMARK 924 INTRA-LIGAND FREE ENERGY PREDICTED BY IDOCK:   -1.47 KCAL/MOL
REMARK 927      BINDING AFFINITY PREDICTED BY RF-SCORE:    0.00 PKD
ROOT
HETATM    1  C   UNL     1     -10.572   6.275  67.192  1.00  0.00    -0.311 C  
HETATM    2  O   UNL     1     -11.212   6.106  68.461  1.00  0.00    -0.341 OA 
ENDROOT
BRANCH   2   3
HETATM    3  C   UNL     1     -11.053   7.086  69.377  1.00  0.00    -0.157 C  
HETATM    4  O   UNL     1     -11.197   8.280  69.161  1.00  0.00     0.116 OA 
BRANCH   3   5
HETATM    5  C   UNL     1     -10.622   6.520  70.688  1.00  0.00    -0.280 C  
HETATM    6  C   UNL     1     -11.539   6.408  71.681  1.00  0.00    -0.310 C  
HETATM    7  C   UNL     1     -12.955   6.940  71.665  1.00  0.00    -0.359 C  
HETATM    8  N   UNL     1     -11.204   5.758  72.851  1.00  0.00    -0.284 NA 
HETATM    9  C   UNL     1      -9.956   5.266  73.167  1.00  0.00    -0.167 C  
HETATM   10  C   UNL     1      -9.844   4.656  74.546  1.00  0.00    -0.209 C  
HETATM   11  C   UNL     1      -8.945   5.349  72.264  1.00  0.00    -0.134 C  
HETATM   12  C   UNL     1      -9.195   5.937  70.860  1.00  0.00    -0.167 C  
BRANCH  11  13
HETATM   13  C   UNL     1      -7.574   4.954  72.696  1.00  0.00    -0.092 C  
HETATM   14  O   UNL     1      -6.764   5.750  73.160  1.00  0.00    -0.071 OA 
BRANCH  13  15
HETATM   15  O   UNL     1      -7.298   3.646  72.469  1.00  0.00    -0.047 OA 
BRANCH  15  16
HETATM   16  C   UNL     1      -6.014   3.414  71.841  1.00  0.00    -0.013 C  
HETATM   17  C   UNL     1      -6.243   2.982  70.400  1.00  0.00    -0.023 C  
HETATM   18  C   UNL     1      -5.247   2.346  72.616  1.00  0.00     0.000 C  
ENDBRANCH  15  16
ENDBRANCH  13  15
ENDBRANCH  11  13
BRANCH  12  19
HETATM   19  C   UNL     1      -8.106   6.912  70.449  1.00  0.00    -0.116 A  
HETATM   20  C   UNL     1      -7.215   6.681  69.366  1.00  0.00    -0.090 A  
HETATM   21  C   UNL     1      -7.908   8.168  71.081  1.00  0.00    -0.096 A  
HETATM   22  N   UNL     1      -7.131   5.625  68.546  1.00  0.00    -0.068 NA 
HETATM   23  O   UNL     1      -6.109   5.911  67.659  1.00  0.00    -0.020 OA 
HETATM   24  C   UNL     1      -6.917   9.103  70.681  1.00  0.00    -0.090 A  
HETATM   25  C   UNL     1      -6.034   8.882  69.609  1.00  0.00    -0.035 A  
HETATM   26  C   UNL     1      -6.206   7.648  68.957  1.00  0.00    -0.035 A  
HETATM   27  N   UNL     1      -5.543   7.148  67.908  1.00  0.00    -0.020 NA 
ENDBRANCH  12  19
ENDBRANCH   3   5
ENDBRANCH   2   3
TORSDOF 6
ENDMDL
MODEL      185
REMARK 921   NORMALIZED FREE ENERGY PREDICTED BY IDOCK:   -2.52 KCAL/MOL
REMARK 922        TOTAL FREE ENERGY PREDICTED BY IDOCK:   -4.85 KCAL/MOL
REMARK 923 INTER-LIGAND FREE ENERGY PREDICTED BY IDOCK:   -3.32 KCAL/MOL
REMARK 924 INTRA-LIGAND FREE ENERGY PREDICTED BY IDOCK:   -1.53 KCAL/MOL
REMARK 927      BINDING AFFINITY PREDICTED BY RF-SCORE:    0.00 PKD
ROOT
HETATM    1  C   UNL     1      -9.849  11.746  67.449  1.00  0.00    -0.178 C  
HETATM    2  O   UNL     1      -9.126  11.125  68.517  1.00  0.00    -0.165 OA 
ENDROOT
BRANCH   2   3
HETATM    3  C   UNL     1      -8.284  10.119  68.200  1.00  0.00    -0.113 C  
HETATM    4  O   UNL     1      -8.036   9.740  67.065  1.00  0.00    -0.105 OA 
BRANCH   3   5
HETATM    5  C   UNL     1      -7.727   9.486  69.431  1.00  0.00    -0.094 C  
HETATM    6  C   UNL     1      -6.568   9.969  69.943  1.00  0.00    -0.089 C  
HETATM    7  C   UNL     1      -5.667  11.008  69.313  1.00  0.00    -0.042 C  
HETATM    8  N   UNL     1      -6.107   9.499  71.157  1.00  0.00    -0.078 NA 
HETATM    9  C   UNL     1      -6.681   8.485  71.894  1.00  0.00    -0.081 C  
HETATM   10  C   UNL     1      -5.935   8.121  73.158  1.00  0.00    -0.067 C  
HETATM   11  C   UNL     1      -7.829   7.900  71.467  1.00  0.00    -0.100 C  
HETATM   12  C   UNL     1      -8.535   8.401  70.190  1.00  0.00    -0.126 C  
BRANCH  11  13
HETATM   13  C   UNL     1      -8.332   6.705  72.201  1.00  0.00    -0.105 C  
HETATM   14  O   UNL     1      -7.964   5.561  71.948  1.00  0.00    -0.110 OA 
BRANCH  13  15
HETATM   15  O   UNL     1      -9.274   7.004  73.128  1.00  0.00    -0.130 OA 
BRANCH  15  16
HETATM   16  C   UNL     1     -10.634   6.874  72.652  1.00  0.00    -0.233 C  
HETATM   17  C   UNL     1     -11.367   8.185  72.893  1.00  0.00    -0.301 C  
HETATM   18  C   UNL     1     -11.327   5.721  73.374  1.00  0.00     0.012 C  
ENDBRANCH  15  16
ENDBRANCH  13  15
ENDBRANCH  11  13
BRANCH  12  19
HETATM   19  C   UNL     1      -8.970   7.256  69.293  1.00  0.00    -0.135 A  
HETATM   20  C   UNL     1      -8.059   6.404  68.612  1.00  0.00    -0.113 A  
HETATM   21  C   UNL     1     -10.330   6.901  69.091  1.00  0.00    -0.207 A  
HETATM   22  N   UNL     1      -6.721   6.433  68.594  1.00  0.00    -0.058 NA 
HETATM   23  O   UNL     1      -6.327   5.376  67.793  1.00  0.00    -0.036 OA 
HETATM   24  C   UNL     1     -10.748   5.809  68.283  1.00  0.00    -0.285 A  
HETATM   25  C   UNL     1      -9.852   4.961  67.609  1.00  0.00    -0.205 A  
HETATM   26  C   UNL     1      -8.495   5.281  67.793  1.00  0.00    -0.105 A  
HETATM   27  N   UNL     1      -7.409   4.670  67.303  1.00  0.00    -0.073 NA 
ENDBRANCH  12  19
ENDBRANCH   3   5
ENDBRANCH   2   3
TORSDOF 6
ENDMDL
MODEL      186
REMARK 921   NORMALIZED FREE ENERGY PREDICTED BY IDOCK:   -2.51 KCAL/MOL
REMARK 922        TOTAL FREE ENERGY PREDICTED BY IDOCK:   -4.85 KCAL/MOL
REMARK 923 INTER-LIGAND FREE ENERGY PREDICTED BY IDOCK:   -3.73 KCAL/MOL
REMARK 924 INTRA-LIGAND FREE ENERGY PREDICTED BY IDOCK:   -1.12 KCAL/MOL
REMARK 927      BINDING AFFINITY PREDICTED BY RF-SCORE:    0.00 PKD
ROOT
HETATM    1  C   UNL     1      -8.699   7.760  74.287  1.00  0.00    -0.190 C  
HETATM    2  O   UNL     1      -8.060   7.155  73.158  1.00  0.00    -0.099 OA 
ENDROOT
BRANCH   2   3
HETATM    3  C   UNL     1      -7.897   7.912  72.052  1.00  0.00    -0.104 C  
HETATM    4  O   UNL     1      -7.205   8.917  71.983  1.00  0.00    -0.287 OA 
BRANCH   3   5
HETATM    5  C   UNL     1      -8.720   7.386  70.925  1.00  0.00    -0.144 C  
HETATM    6  C   UNL     1      -9.882   8.016  70.619  1.00  0.00    -0.184 C  
HETATM    7  C   UNL     1     -10.535   9.134  71.401  1.00  0.00    -0.414 C  
HETATM    8  N   UNL     1     -10.588   7.641  69.494  1.00  0.00    -0.231 NA 
HETATM    9  C   UNL     1     -10.270   6.589  68.662  1.00  0.00    -0.172 C  
HETATM   10  C   UNL     1     -11.252   6.353  67.535  1.00  0.00    -0.278 C  
HETATM   11  C   UNL     1      -9.146   5.861  68.885  1.00  0.00    -0.120 C  
HETATM   12  C   UNL     1      -8.185   6.237  70.031  1.00  0.00    -0.125 C  
BRANCH  11  13
HETATM   13  C   UNL     1      -8.919   4.637  68.065  1.00  0.00    -0.114 C  
HETATM   14  O   UNL     1      -9.485   3.571  68.284  1.00  0.00    -0.175 OA 
BRANCH  13  15
HETATM   15  O   UNL     1      -7.986   4.808  67.097  1.00  0.00    -0.101 OA 
BRANCH  15  16
HETATM   16  C   UNL     1      -7.838   3.672  66.212  1.00  0.00    -0.089 C  
HETATM   17  C   UNL     1      -6.366   3.510  65.862  1.00  0.00    -0.032 C  
HETATM   18  C   UNL     1      -8.677   3.885  64.955  1.00  0.00    -0.116 C  
ENDBRANCH  15  16
ENDBRANCH  13  15
ENDBRANCH  11  13
BRANCH  12  19
HETATM   19  C   UNL     1      -7.749   5.022  70.830  1.00  0.00    -0.083 A  
HETATM   20  C   UNL     1      -8.626   4.278  71.666  1.00  0.00    -0.108 A  
HETATM   21  C   UNL     1      -6.434   4.489  70.779  1.00  0.00    -0.030 A  
HETATM   22  N   UNL     1      -9.923   4.480  71.929  1.00  0.00    -0.184 NA 
HETATM   23  O   UNL     1     -10.301   3.463  72.787  1.00  0.00    -0.162 OA 
HETATM   24  C   UNL     1      -6.025   3.332  71.495  1.00  0.00    -0.014 A  
HETATM   25  C   UNL     1      -6.887   2.590  72.321  1.00  0.00    -0.019 A  
HETATM   26  C   UNL     1      -8.200   3.088  72.390  1.00  0.00    -0.067 A  
HETATM   27  N   UNL     1      -9.250   2.610  73.069  1.00  0.00    -0.087 NA 
ENDBRANCH  12  19
ENDBRANCH   3   5
ENDBRANCH   2   3
TORSDOF 6
ENDMDL
MODEL      187
REMARK 921   NORMALIZED FREE ENERGY PREDICTED BY IDOCK:   -2.49 KCAL/MOL
REMARK 922        TOTAL FREE ENERGY PREDICTED BY IDOCK:   -4.82 KCAL/MOL
REMARK 923 INTER-LIGAND FREE ENERGY PREDICTED BY IDOCK:   -3.65 KCAL/MOL
REMARK 924 INTRA-LIGAND FREE ENERGY PREDICTED BY IDOCK:   -1.17 KCAL/MOL
REMARK 927      BINDING AFFINITY PREDICTED BY RF-SCORE:    0.00 PKD
ROOT
HETATM    1  C   UNL     1      -7.712   3.239  63.526  1.00  0.00    -0.068 C  
HETATM    2  O   UNL     1      -7.789   3.974  64.751  1.00  0.00    -0.084 OA 
ENDROOT
BRANCH   2   3
HETATM    3  C   UNL     1      -8.215   5.253  64.688  1.00  0.00    -0.134 C  
HETATM    4  O   UNL     1      -8.014   6.016  63.754  1.00  0.00    -0.115 OA 
BRANCH   3   5
HETATM    5  C   UNL     1      -8.927   5.637  65.941  1.00  0.00    -0.160 C  
HETATM    6  C   UNL     1     -10.168   5.137  66.164  1.00  0.00    -0.222 C  
HETATM    7  C   UNL     1     -11.001   4.327  65.195  1.00  0.00     0.017 C  
HETATM    8  N   UNL     1     -10.788   5.359  67.377  1.00  0.00    -0.072 NA 
HETATM    9  C   UNL     1     -10.295   6.144  68.397  1.00  0.00    -0.200 C  
HETATM   10  C   UNL     1     -11.208   6.273  69.596  1.00  0.00    -0.506 C  
HETATM   11  C   UNL     1      -9.074   6.726  68.278  1.00  0.00    -0.124 C  
HETATM   12  C   UNL     1      -8.203   6.470  67.031  1.00  0.00    -0.113 C  
BRANCH  11  13
HETATM   13  C   UNL     1      -8.644   7.693  69.328  1.00  0.00    -0.136 C  
HETATM   14  O   UNL     1      -9.010   8.865  69.348  1.00  0.00    -0.140 OA 
BRANCH  13  15
HETATM   15  O   UNL     1      -7.767   7.164  70.215  1.00  0.00    -0.092 OA 
BRANCH  15  16
HETATM   16  C   UNL     1      -7.589   7.956  71.414  1.00  0.00    -0.083 C  
HETATM   17  C   UNL     1      -6.138   8.404  71.496  1.00  0.00    -0.043 C  
HETATM   18  C   UNL     1      -7.976   7.130  72.639  1.00  0.00    -0.108 C  
ENDBRANCH  15  16
ENDBRANCH  13  15
ENDBRANCH  11  13
BRANCH  12  19
HETATM   19  C   UNL     1      -7.596   7.751  66.488  1.00  0.00    -0.096 A  
HETATM   20  C   UNL     1      -8.367   8.831  65.981  1.00  0.00    -0.126 A  
HETATM   21  C   UNL     1      -6.198   8.007  66.481  1.00  0.00    -0.050 A  
HETATM   22  N   UNL     1      -9.697   8.942  65.860  1.00  0.00    -0.236 NA 
HETATM   23  O   UNL     1      -9.928  10.197  65.327  1.00  0.00    -0.300 OA 
HETATM   24  C   UNL     1      -5.622   9.216  66.008  1.00  0.00    -0.045 A  
HETATM   25  C   UNL     1      -6.380  10.289  65.508  1.00  0.00    -0.117 A  
HETATM   26  C   UNL     1      -7.769  10.071  65.507  1.00  0.00    -0.135 A  
HETATM   27  N   UNL     1      -8.751  10.890  65.111  1.00  0.00    -0.164 NA 
ENDBRANCH  12  19
ENDBRANCH   3   5
ENDBRANCH   2   3
TORSDOF 6
ENDMDL
MODEL      188
REMARK 921   NORMALIZED FREE ENERGY PREDICTED BY IDOCK:   -2.42 KCAL/MOL
REMARK 922        TOTAL FREE ENERGY PREDICTED BY IDOCK:   -4.73 KCAL/MOL
REMARK 923 INTER-LIGAND FREE ENERGY PREDICTED BY IDOCK:   -3.40 KCAL/MOL
REMARK 924 INTRA-LIGAND FREE ENERGY PREDICTED BY IDOCK:   -1.32 KCAL/MOL
REMARK 927      BINDING AFFINITY PREDICTED BY RF-SCORE:    0.00 PKD
ROOT
HETATM    1  C   UNL     1      -8.404   5.494  62.822  1.00  0.00    -0.097 C  
HETATM    2  O   UNL     1      -8.748   5.206  64.181  1.00  0.00    -0.134 OA 
ENDROOT
BRANCH   2   3
HETATM    3  C   UNL     1      -7.737   5.030  65.059  1.00  0.00    -0.083 C  
HETATM    4  O   UNL     1      -6.549   5.020  64.770  1.00  0.00    -0.038 OA 
BRANCH   3   5
HETATM    5  C   UNL     1      -8.264   4.795  66.434  1.00  0.00    -0.107 C  
HETATM    6  C   UNL     1      -8.836   3.597  66.715  1.00  0.00    -0.130 C  
HETATM    7  C   UNL     1      -9.144   2.491  65.730  1.00  0.00    -0.101 C  
HETATM    8  N   UNL     1      -9.201   3.301  68.013  1.00  0.00    -0.176 NA 
HETATM    9  C   UNL     1      -9.123   4.165  69.085  1.00  0.00    -0.131 C  
HETATM   10  C   UNL     1      -9.652   3.608  70.388  1.00  0.00    -0.254 C  
HETATM   11  C   UNL     1      -8.597   5.406  68.921  1.00  0.00    -0.099 C  
HETATM   12  C   UNL     1      -8.029   5.841  67.554  1.00  0.00    -0.102 C  
BRANCH  11  13
HETATM   13  C   UNL     1      -8.675   6.365  70.059  1.00  0.00    -0.142 C  
HETATM   14  O   UNL     1      -9.725   6.883  70.426  1.00  0.00    -0.172 OA 
BRANCH  13  15
HETATM   15  O   UNL     1      -7.466   6.650  70.602  1.00  0.00    -0.080 OA 
BRANCH  15  16
HETATM   16  C   UNL     1      -7.294   6.157  71.952  1.00  0.00    -0.093 C  
HETATM   17  C   UNL     1      -6.603   7.228  72.782  1.00  0.00    -0.063 C  
HETATM   18  C   UNL     1      -6.475   4.869  71.931  1.00  0.00    -0.031 C  
ENDBRANCH  15  16
ENDBRANCH  13  15
ENDBRANCH  11  13
BRANCH  12  19
HETATM   19  C   UNL     1      -8.488   7.235  67.165  1.00  0.00    -0.118 A  
HETATM   20  C   UNL     1      -7.595   8.294  66.849  1.00  0.00    -0.092 A  
HETATM   21  C   UNL     1      -9.856   7.595  67.034  1.00  0.00    -0.282 A  
HETATM   22  N   UNL     1      -6.255   8.303  66.846  1.00  0.00    -0.054 NA 
HETATM   23  O   UNL     1      -5.883   9.575  66.449  1.00  0.00    -0.056 OA 
HETATM   24  C   UNL     1     -10.295   8.886  66.636  1.00  0.00    -0.294 A  
HETATM   25  C   UNL     1      -9.417   9.937  66.319  1.00  0.00    -0.245 A  
HETATM   26  C   UNL     1      -8.054   9.612  66.433  1.00  0.00    -0.112 A  
HETATM   27  N   UNL     1      -6.981  10.377  66.195  1.00  0.00    -0.119 NA 
ENDBRANCH  12  19
ENDBRANCH   3   5
ENDBRANCH   2   3
TORSDOF 6
ENDMDL
MODEL      189
REMARK 921   NORMALIZED FREE ENERGY PREDICTED BY IDOCK:   -2.41 KCAL/MOL
REMARK 922        TOTAL FREE ENERGY PREDICTED BY IDOCK:   -4.71 KCAL/MOL
REMARK 923 INTER-LIGAND FREE ENERGY PREDICTED BY IDOCK:   -3.45 KCAL/MOL
REMARK 924 INTRA-LIGAND FREE ENERGY PREDICTED BY IDOCK:   -1.26 KCAL/MOL
REMARK 927      BINDING AFFINITY PREDICTED BY RF-SCORE:    0.00 PKD
ROOT
HETATM    1  C   UNL     1     -12.387  10.341  71.710  1.00  0.00    -0.268 C  
HETATM    2  O   UNL     1     -11.098   9.756  71.504  1.00  0.00    -0.343 OA 
ENDROOT
BRANCH   2   3
HETATM    3  C   UNL     1     -10.866   8.544  72.053  1.00  0.00    -0.335 C  
HETATM    4  O   UNL     1     -10.863   8.304  73.251  1.00  0.00    -0.006 OA 
BRANCH   3   5
HETATM    5  C   UNL     1     -10.560   7.534  70.999  1.00  0.00    -0.230 C  
HETATM    6  C   UNL     1     -11.591   6.935  70.353  1.00  0.00    -0.335 C  
HETATM    7  C   UNL     1     -13.061   7.065  70.686  1.00  0.00     0.239 C  
HETATM    8  N   UNL     1     -11.338   6.107  69.278  1.00  0.00    -0.392 NA 
HETATM    9  C   UNL     1     -10.088   5.739  68.827  1.00  0.00    -0.177 C  
HETATM   10  C   UNL     1     -10.093   4.766  67.670  1.00  0.00    -0.142 C  
HETATM   11  C   UNL     1      -8.976   6.249  69.415  1.00  0.00    -0.126 C  
HETATM   12  C   UNL     1      -9.096   7.287  70.550  1.00  0.00    -0.158 C  
BRANCH  11  13
HETATM   13  C   UNL     1      -7.647   5.709  69.009  1.00  0.00    -0.088 C  
HETATM   14  O   UNL     1      -7.351   4.522  69.103  1.00  0.00    -0.052 OA 
BRANCH  13  15
HETATM   15  O   UNL     1      -6.787   6.667  68.585  1.00  0.00    -0.065 OA 
BRANCH  15  16
HETATM   16  C   UNL     1      -6.973   7.061  67.205  1.00  0.00    -0.078 C  
HETATM   17  C   UNL     1      -5.763   6.615  66.399  1.00  0.00    -0.018 C  
HETATM   18  C   UNL     1      -7.159   8.574  67.120  1.00  0.00    -0.076 C  
ENDBRANCH  15  16
ENDBRANCH  13  15
ENDBRANCH  11  13
BRANCH  12  19
HETATM   19  C   UNL     1      -8.169   6.972  71.710  1.00  0.00    -0.103 A  
HETATM   20  C   UNL     1      -8.302   5.818  72.529  1.00  0.00    -0.117 A  
HETATM   21  C   UNL     1      -7.053   7.779  72.055  1.00  0.00    -0.069 A  
HETATM   22  N   UNL     1      -9.216   4.840  72.476  1.00  0.00    -0.128 NA 
HETATM   23  O   UNL     1      -8.884   3.953  73.484  1.00  0.00    -0.093 OA 
HETATM   24  C   UNL     1      -6.158   7.475  73.115  1.00  0.00    -0.059 A  
HETATM   25  C   UNL     1      -6.283   6.334  73.928  1.00  0.00    -0.065 A  
HETATM   26  C   UNL     1      -7.376   5.509  73.610  1.00  0.00    -0.087 A  
HETATM   27  N   UNL     1      -7.759   4.358  74.177  1.00  0.00    -0.084 NA 
ENDBRANCH  12  19
ENDBRANCH   3   5
ENDBRANCH   2   3
TORSDOF 6
ENDMDL
MODEL      190
REMARK 921   NORMALIZED FREE ENERGY PREDICTED BY IDOCK:   -2.38 KCAL/MOL
REMARK 922        TOTAL FREE ENERGY PREDICTED BY IDOCK:   -4.67 KCAL/MOL
REMARK 923 INTER-LIGAND FREE ENERGY PREDICTED BY IDOCK:   -4.17 KCAL/MOL
REMARK 924 INTRA-LIGAND FREE ENERGY PREDICTED BY IDOCK:   -0.50 KCAL/MOL
REMARK 927      BINDING AFFINITY PREDICTED BY RF-SCORE:    0.00 PKD
ROOT
HETATM    1  C   UNL     1     -11.296  10.349  70.113  1.00  0.00    -0.323 C  
HETATM    2  O   UNL     1     -11.468   9.009  70.584  1.00  0.00    -0.263 OA 
ENDROOT
BRANCH   2   3
HETATM    3  C   UNL     1     -10.397   8.397  71.135  1.00  0.00    -0.212 C  
HETATM    4  O   UNL     1      -9.765   8.816  72.093  1.00  0.00    -0.307 OA 
BRANCH   3   5
HETATM    5  C   UNL     1     -10.049   7.157  70.383  1.00  0.00    -0.199 C  
HETATM    6  C   UNL     1     -10.347   5.956  70.937  1.00  0.00    -0.229 C  
HETATM    7  C   UNL     1     -10.873   5.712  72.334  1.00  0.00    -0.298 C  
HETATM    8  N   UNL     1     -10.169   4.800  70.203  1.00  0.00    -0.236 NA 
HETATM    9  C   UNL     1      -9.613   4.729  68.943  1.00  0.00    -0.162 C  
HETATM   10  C   UNL     1      -9.473   3.328  68.391  1.00  0.00    -0.209 C  
HETATM   11  C   UNL     1      -9.245   5.865  68.297  1.00  0.00    -0.117 C  
HETATM   12  C   UNL     1      -9.497   7.245  68.937  1.00  0.00    -0.143 C  
BRANCH  11  13
HETATM   13  C   UNL     1      -8.504   5.740  67.010  1.00  0.00    -0.107 C  
HETATM   14  O   UNL     1      -7.391   5.230  66.925  1.00  0.00    -0.083 OA 
BRANCH  13  15
HETATM   15  O   UNL     1      -9.156   6.299  65.961  1.00  0.00    -0.156 OA 
BRANCH  15  16
HETATM   16  C   UNL     1      -8.283   6.779  64.910  1.00  0.00    -0.082 C  
HETATM   17  C   UNL     1      -8.036   5.648  63.923  1.00  0.00    -0.122 C  
HETATM   18  C   UNL     1      -6.971   7.272  65.515  1.00  0.00    -0.060 C  
ENDBRANCH  15  16
ENDBRANCH  13  15
ENDBRANCH  11  13
BRANCH  12  19
HETATM   19  C   UNL     1      -8.286   8.155  68.823  1.00  0.00    -0.125 A  
HETATM   20  C   UNL     1      -8.254   9.319  68.008  1.00  0.00    -0.115 A  
HETATM   21  C   UNL     1      -7.088   7.951  69.559  1.00  0.00    -0.059 A  
HETATM   22  N   UNL     1      -9.202   9.821  67.206  1.00  0.00    -0.134 NA 
HETATM   23  O   UNL     1      -8.667  10.972  66.657  1.00  0.00    -0.150 OA 
HETATM   24  C   UNL     1      -5.964   8.816  69.488  1.00  0.00    -0.036 A  
HETATM   25  C   UNL     1      -5.926   9.970  68.686  1.00  0.00    -0.041 A  
HETATM   26  C   UNL     1      -7.099  10.204  67.947  1.00  0.00    -0.085 A  
HETATM   27  N   UNL     1      -7.382  11.210  67.109  1.00  0.00    -0.114 NA 
ENDBRANCH  12  19
ENDBRANCH   3   5
ENDBRANCH   2   3
TORSDOF 6
ENDMDL
MODEL      191
REMARK 921   NORMALIZED FREE ENERGY PREDICTED BY IDOCK:   -2.35 KCAL/MOL
REMARK 922        TOTAL FREE ENERGY PREDICTED BY IDOCK:   -4.63 KCAL/MOL
REMARK 923 INTER-LIGAND FREE ENERGY PREDICTED BY IDOCK:   -3.54 KCAL/MOL
REMARK 924 INTRA-LIGAND FREE ENERGY PREDICTED BY IDOCK:   -1.09 KCAL/MOL
REMARK 927      BINDING AFFINITY PREDICTED BY RF-SCORE:    0.00 PKD
ROOT
HETATM    1  C   UNL     1     -11.035   6.596  66.942  1.00  0.00    -0.326 C  
HETATM    2  O   UNL     1     -10.165   7.525  67.596  1.00  0.00    -0.182 OA 
ENDROOT
BRANCH   2   3
HETATM    3  C   UNL     1      -9.482   8.395  66.822  1.00  0.00    -0.197 C  
HETATM    4  O   UNL     1      -9.643   8.542  65.619  1.00  0.00    -0.097 OA 
BRANCH   3   5
HETATM    5  C   UNL     1      -8.456   9.124  67.622  1.00  0.00    -0.116 C  
HETATM    6  C   UNL     1      -7.521   8.405  68.291  1.00  0.00    -0.096 C  
HETATM    7  C   UNL     1      -7.480   6.900  68.446  1.00  0.00    -0.098 C  
HETATM    8  N   UNL     1      -6.477   9.055  68.919  1.00  0.00    -0.048 NA 
HETATM    9  C   UNL     1      -6.328  10.422  69.017  1.00  0.00    -0.044 C  
HETATM   10  C   UNL     1      -5.126  10.872  69.819  1.00  0.00    -0.042 C  
HETATM   11  C   UNL     1      -7.220  11.248  68.415  1.00  0.00    -0.085 C  
HETATM   12  C   UNL     1      -8.373  10.672  67.567  1.00  0.00    -0.115 C  
BRANCH  11  13
HETATM   13  C   UNL     1      -7.118  12.713  68.674  1.00  0.00    -0.096 C  
HETATM   14  O   UNL     1      -7.422  13.224  69.747  1.00  0.00     0.524 OA 
BRANCH  13  15
HETATM   15  O   UNL     1      -6.715  13.421  67.591  1.00  0.00    -0.149 OA 
BRANCH  15  16
HETATM   16  C   UNL     1      -6.751  14.856  67.777  1.00  0.00    -0.172 C  
HETATM   17  C   UNL     1      -7.794  15.447  66.841  1.00  0.00    -0.196 C  
HETATM   18  C   UNL     1      -5.371  15.447  67.498  1.00  0.00     0.036 C  
ENDBRANCH  15  16
ENDBRANCH  13  15
ENDBRANCH  11  13
BRANCH  12  19
HETATM   19  C   UNL     1      -9.698  11.344  67.877  1.00  0.00    -0.186 A  
HETATM   20  C   UNL     1     -10.348  12.243  66.988  1.00  0.00    -0.219 A  
HETATM   21  C   UNL     1     -10.436  11.099  69.066  1.00  0.00    -0.233 A  
HETATM   22  N   UNL     1      -9.955  12.678  65.784  1.00  0.00    -0.265 NA 
HETATM   23  O   UNL     1     -10.957  13.522  65.338  1.00  0.00    -0.284 OA 
HETATM   24  C   UNL     1     -11.693  11.695  69.350  1.00  0.00    -0.405 A  
HETATM   25  C   UNL     1     -12.343  12.583  68.473  1.00  0.00     0.307 A  
HETATM   26  C   UNL     1     -11.642  12.843  67.283  1.00  0.00    -0.360 A  
HETATM   27  N   UNL     1     -11.989  13.624  66.252  1.00  0.00    -0.398 NA 
ENDBRANCH  12  19
ENDBRANCH   3   5
ENDBRANCH   2   3
TORSDOF 6
ENDMDL
MODEL      192
REMARK 921   NORMALIZED FREE ENERGY PREDICTED BY IDOCK:   -2.29 KCAL/MOL
REMARK 922        TOTAL FREE ENERGY PREDICTED BY IDOCK:   -4.54 KCAL/MOL
REMARK 923 INTER-LIGAND FREE ENERGY PREDICTED BY IDOCK:   -3.71 KCAL/MOL
REMARK 924 INTRA-LIGAND FREE ENERGY PREDICTED BY IDOCK:   -0.83 KCAL/MOL
REMARK 927      BINDING AFFINITY PREDICTED BY RF-SCORE:    0.00 PKD
ROOT
HETATM    1  C   UNL     1      -5.346  10.330  64.426  1.00  0.00    -0.127 C  
HETATM    2  O   UNL     1      -6.284  10.522  65.490  1.00  0.00    -0.117 OA 
ENDROOT
BRANCH   2   3
HETATM    3  C   UNL     1      -7.595  10.369  65.203  1.00  0.00    -0.103 C  
HETATM    4  O   UNL     1      -8.157  10.824  64.218  1.00  0.00    -0.011 OA 
BRANCH   3   5
HETATM    5  C   UNL     1      -8.288   9.609  66.283  1.00  0.00    -0.117 C  
HETATM    6  C   UNL     1      -8.648   8.323  66.045  1.00  0.00    -0.149 C  
HETATM    7  C   UNL     1      -8.560   7.591  64.724  1.00  0.00     0.165 C  
HETATM    8  N   UNL     1      -9.159   7.555  67.072  1.00  0.00    -0.130 NA 
HETATM    9  C   UNL     1      -9.436   8.001  68.346  1.00  0.00    -0.145 C  
HETATM   10  C   UNL     1     -10.054   6.966  69.260  1.00  0.00    -0.178 C  
HETATM   11  C   UNL     1      -9.148   9.280  68.696  1.00  0.00    -0.132 C  
HETATM   12  C   UNL     1      -8.457  10.229  67.695  1.00  0.00    -0.118 C  
BRANCH  11  13
HETATM   13  C   UNL     1      -9.606   9.772  70.027  1.00  0.00    -0.241 C  
HETATM   14  O   UNL     1     -10.760  10.125  70.249  1.00  0.00    -0.284 OA 
BRANCH  13  15
HETATM   15  O   UNL     1      -8.608   9.846  70.941  1.00  0.00    -0.036 OA 
BRANCH  15  16
HETATM   16  C   UNL     1      -7.765   8.671  70.992  1.00  0.00    -0.108 C  
HETATM   17  C   UNL     1      -7.823   8.084  72.394  1.00  0.00    -0.161 C  
HETATM   18  C   UNL     1      -6.333   9.047  70.617  1.00  0.00    -0.049 C  
ENDBRANCH  15  16
ENDBRANCH  13  15
ENDBRANCH  11  13
BRANCH  12  19
HETATM   19  C   UNL     1      -9.113  11.598  67.663  1.00  0.00    -0.174 A  
HETATM   20  C   UNL     1      -8.391  12.816  67.789  1.00  0.00    -0.177 A  
HETATM   21  C   UNL     1     -10.505  11.789  67.455  1.00  0.00    -0.238 A  
HETATM   22  N   UNL     1      -7.078  13.010  67.971  1.00  0.00    -0.099 NA 
HETATM   23  O   UNL     1      -6.897  14.381  68.011  1.00  0.00    -0.110 OA 
HETATM   24  C   UNL     1     -11.123  13.066  67.387  1.00  0.00    -0.302 A  
HETATM   25  C   UNL     1     -10.414  14.275  67.508  1.00  0.00    -0.252 A  
HETATM   26  C   UNL     1      -9.031  14.122  67.710  1.00  0.00    -0.187 A  
HETATM   27  N   UNL     1      -8.089  15.063  67.850  1.00  0.00    -0.129 NA 
ENDBRANCH  12  19
ENDBRANCH   3   5
ENDBRANCH   2   3
TORSDOF 6
ENDMDL
MODEL      193
REMARK 921   NORMALIZED FREE ENERGY PREDICTED BY IDOCK:   -2.27 KCAL/MOL
REMARK 922        TOTAL FREE ENERGY PREDICTED BY IDOCK:   -4.52 KCAL/MOL
REMARK 923 INTER-LIGAND FREE ENERGY PREDICTED BY IDOCK:   -4.67 KCAL/MOL
REMARK 924 INTRA-LIGAND FREE ENERGY PREDICTED BY IDOCK:    0.15 KCAL/MOL
REMARK 927      BINDING AFFINITY PREDICTED BY RF-SCORE:    0.00 PKD
ROOT
HETATM    1  C   UNL     1      -6.369   9.848  65.421  1.00  0.00    -0.089 C  
HETATM    2  O   UNL     1      -7.779   9.725  65.632  1.00  0.00    -0.107 OA 
ENDROOT
BRANCH   2   3
HETATM    3  C   UNL     1      -8.223   9.724  66.907  1.00  0.00    -0.117 C  
HETATM    4  O   UNL     1      -9.014   8.918  67.375  1.00  0.00    -0.131 OA 
BRANCH   3   5
HETATM    5  C   UNL     1      -7.658  10.877  67.666  1.00  0.00    -0.096 C  
HETATM    6  C   UNL     1      -6.809  10.626  68.693  1.00  0.00    -0.059 C  
HETATM    7  C   UNL     1      -6.470   9.270  69.272  1.00  0.00    -0.045 C  
HETATM    8  N   UNL     1      -6.161  11.673  69.317  1.00  0.00    -0.076 NA 
HETATM    9  C   UNL     1      -6.362  13.011  69.054  1.00  0.00    -0.099 C  
HETATM   10  C   UNL     1      -5.570  13.955  69.930  1.00  0.00    -0.108 C  
HETATM   11  C   UNL     1      -7.215  13.389  68.068  1.00  0.00    -0.123 C  
HETATM   12  C   UNL     1      -7.920  12.331  67.195  1.00  0.00    -0.161 C  
BRANCH  11  13
HETATM   13  C   UNL     1      -7.528  14.838  67.918  1.00  0.00    -0.145 C  
HETATM   14  O   UNL     1      -8.419  15.399  68.548  1.00  0.00    -0.150 OA 
BRANCH  13  15
HETATM   15  O   UNL     1      -6.772  15.454  66.976  1.00  0.00    -0.261 OA 
BRANCH  15  16
HETATM   16  C   UNL     1      -6.655  16.886  67.156  1.00  0.00    -0.189 C  
HETATM   17  C   UNL     1      -7.645  17.580  66.233  1.00  0.00    -0.343 C  
HETATM   18  C   UNL     1      -5.225  17.328  66.853  1.00  0.00    -0.195 C  
ENDBRANCH  15  16
ENDBRANCH  13  15
ENDBRANCH  11  13
BRANCH  12  19
HETATM   19  C   UNL     1      -9.397  12.635  67.013  1.00  0.00    -0.220 A  
HETATM   20  C   UNL     1     -10.415  12.101  67.849  1.00  0.00    -0.208 A  
HETATM   21  C   UNL     1      -9.892  13.520  66.019  1.00  0.00    -0.277 A  
HETATM   22  N   UNL     1     -10.309  11.261  68.887  1.00  0.00    -0.205 NA 
HETATM   23  O   UNL     1     -11.595  11.073  69.359  1.00  0.00    -0.256 OA 
HETATM   24  C   UNL     1     -11.267  13.839  65.864  1.00  0.00    -0.305 A  
HETATM   25  C   UNL     1     -12.280  13.317  66.689  1.00  0.00    -0.359 A  
HETATM   26  C   UNL     1     -11.822  12.440  67.688  1.00  0.00    -0.295 A  
HETATM   27  N   UNL     1     -12.522  11.794  68.629  1.00  0.00    -0.056 NA 
ENDBRANCH  12  19
ENDBRANCH   3   5
ENDBRANCH   2   3
TORSDOF 6
ENDMDL
MODEL      194
REMARK 921   NORMALIZED FREE ENERGY PREDICTED BY IDOCK:   -2.15 KCAL/MOL
REMARK 922        TOTAL FREE ENERGY PREDICTED BY IDOCK:   -4.36 KCAL/MOL
REMARK 923 INTER-LIGAND FREE ENERGY PREDICTED BY IDOCK:   -4.70 KCAL/MOL
REMARK 924 INTRA-LIGAND FREE ENERGY PREDICTED BY IDOCK:    0.34 KCAL/MOL
REMARK 927      BINDING AFFINITY PREDICTED BY RF-SCORE:    0.00 PKD
ROOT
HETATM    1  C   UNL     1     -10.538   5.424  68.294  1.00  0.00    -0.074 C  
HETATM    2  O   UNL     1      -9.505   5.231  67.323  1.00  0.00    -0.119 OA 
ENDROOT
BRANCH   2   3
HETATM    3  C   UNL     1      -8.444   6.065  67.364  1.00  0.00    -0.104 C  
HETATM    4  O   UNL     1      -7.334   5.769  67.779  1.00  0.00    -0.074 OA 
BRANCH   3   5
HETATM    5  C   UNL     1      -8.820   7.424  66.878  1.00  0.00    -0.140 C  
HETATM    6  C   UNL     1      -8.557   7.750  65.588  1.00  0.00    -0.127 C  
HETATM    7  C   UNL     1      -7.772   6.926  64.591  1.00  0.00    -0.116 C  
HETATM    8  N   UNL     1      -9.022   8.944  65.075  1.00  0.00    -0.157 NA 
HETATM    9  C   UNL     1      -9.678   9.922  65.791  1.00  0.00    -0.266 C  
HETATM   10  C   UNL     1     -10.021  11.165  65.000  1.00  0.00    -0.325 C  
HETATM   11  C   UNL     1      -9.970   9.725  67.102  1.00  0.00    -0.252 C  
HETATM   12  C   UNL     1      -9.626   8.387  67.788  1.00  0.00    -0.185 C  
BRANCH  11  13
HETATM   13  C   UNL     1     -10.534  10.863  67.882  1.00  0.00    -0.195 C  
HETATM   14  O   UNL     1      -9.857  11.813  68.265  1.00  0.00    -0.187 OA 
BRANCH  13  15
HETATM   15  O   UNL     1     -11.849  10.711  68.175  1.00  0.00    -0.482 OA 
BRANCH  15  16
HETATM   16  C   UNL     1     -12.264  11.374  69.393  1.00  0.00    -0.221 C  
HETATM   17  C   UNL     1     -11.769  12.812  69.364  1.00  0.00    -0.380 C  
HETATM   18  C   UNL     1     -11.704  10.628  70.602  1.00  0.00    -0.454 C  
ENDBRANCH  15  16
ENDBRANCH  13  15
ENDBRANCH  11  13
BRANCH  12  19
HETATM   19  C   UNL     1      -8.980   8.593  69.147  1.00  0.00    -0.142 A  
HETATM   20  C   UNL     1      -7.760   9.296  69.336  1.00  0.00    -0.082 A  
HETATM   21  C   UNL     1      -9.563   8.143  70.361  1.00  0.00    -0.171 A  
HETATM   22  N   UNL     1      -6.960   9.869  68.428  1.00  0.00    -0.067 NA 
HETATM   23  O   UNL     1      -5.915  10.430  69.139  1.00  0.00    -0.037 OA 
HETATM   24  C   UNL     1      -8.987   8.361  71.640  1.00  0.00    -0.261 A  
HETATM   25  C   UNL     1      -7.780   9.058  71.835  1.00  0.00     0.144 A  
HETATM   26  C   UNL     1      -7.179   9.523  70.653  1.00  0.00    -0.122 A  
HETATM   27  N   UNL     1      -6.047  10.221  70.500  1.00  0.00    -0.104 NA 
ENDBRANCH  12  19
ENDBRANCH   3   5
ENDBRANCH   2   3
TORSDOF 6
ENDMDL
MODEL      195
REMARK 921   NORMALIZED FREE ENERGY PREDICTED BY IDOCK:   -2.08 KCAL/MOL
REMARK 922        TOTAL FREE ENERGY PREDICTED BY IDOCK:   -4.26 KCAL/MOL
REMARK 923 INTER-LIGAND FREE ENERGY PREDICTED BY IDOCK:   -4.17 KCAL/MOL
REMARK 924 INTRA-LIGAND FREE ENERGY PREDICTED BY IDOCK:   -0.09 KCAL/MOL
REMARK 927      BINDING AFFINITY PREDICTED BY RF-SCORE:    0.00 PKD
ROOT
HETATM    1  C   UNL     1      -5.761   4.647  67.242  1.00  0.00    -0.022 C  
HETATM    2  O   UNL     1      -6.622   5.788  67.298  1.00  0.00    -0.052 OA 
ENDROOT
BRANCH   2   3
HETATM    3  C   UNL     1      -6.560   6.564  68.401  1.00  0.00    -0.059 C  
HETATM    4  O   UNL     1      -5.682   6.512  69.249  1.00  0.00    -0.016 OA 
BRANCH   3   5
HETATM    5  C   UNL     1      -7.743   7.469  68.479  1.00  0.00    -0.120 C  
HETATM    6  C   UNL     1      -7.730   8.619  67.760  1.00  0.00    -0.102 C  
HETATM    7  C   UNL     1      -6.564   9.182  66.979  1.00  0.00    -0.064 C  
HETATM    8  N   UNL     1      -8.866   9.402  67.701  1.00  0.00    -0.116 NA 
HETATM    9  C   UNL     1     -10.034   9.173  68.396  1.00  0.00    -0.181 C  
HETATM   10  C   UNL     1     -11.104  10.225  68.200  1.00  0.00    -0.324 C  
HETATM   11  C   UNL     1     -10.156   8.069  69.176  1.00  0.00    -0.202 C  
HETATM   12  C   UNL     1      -9.017   7.032  69.247  1.00  0.00    -0.138 C  
BRANCH  11  13
HETATM   13  C   UNL     1     -11.368   7.938  70.034  1.00  0.00    -0.027 C  
HETATM   14  O   UNL     1     -12.088   6.944  70.026  1.00  0.00    -0.176 OA 
BRANCH  13  15
HETATM   15  O   UNL     1     -11.622   9.045  70.773  1.00  0.00    -0.276 OA 
BRANCH  15  16
HETATM   16  C   UNL     1     -12.054   8.766  72.126  1.00  0.00    -0.371 C  
HETATM   17  C   UNL     1     -11.896   7.277  72.396  1.00  0.00    -0.247 C  
HETATM   18  C   UNL     1     -13.507   9.201  72.304  1.00  0.00    -0.546 C  
ENDBRANCH  15  16
ENDBRANCH  13  15
ENDBRANCH  11  13
BRANCH  12  19
HETATM   19  C   UNL     1      -8.727   6.602  70.674  1.00  0.00    -0.143 A  
HETATM   20  C   UNL     1      -9.021   5.306  71.177  1.00  0.00    -0.139 A  
HETATM   21  C   UNL     1      -8.090   7.443  71.625  1.00  0.00    -0.099 A  
HETATM   22  N   UNL     1      -9.594   4.264  70.560  1.00  0.00    -0.181 NA 
HETATM   23  O   UNL     1      -9.631   3.242  71.491  1.00  0.00    -0.143 OA 
HETATM   24  C   UNL     1      -7.781   7.039  72.951  1.00  0.00    -0.089 A  
HETATM   25  C   UNL     1      -8.067   5.757  73.455  1.00  0.00    -0.113 A  
HETATM   26  C   UNL     1      -8.693   4.897  72.537  1.00  0.00    -0.119 A  
HETATM   27  N   UNL     1      -9.080   3.626  72.700  1.00  0.00    -0.102 NA 
ENDBRANCH  12  19
ENDBRANCH   3   5
ENDBRANCH   2   3
TORSDOF 6
ENDMDL
MODEL      196
REMARK 921   NORMALIZED FREE ENERGY PREDICTED BY IDOCK:   -2.07 KCAL/MOL
REMARK 922        TOTAL FREE ENERGY PREDICTED BY IDOCK:   -4.25 KCAL/MOL
REMARK 923 INTER-LIGAND FREE ENERGY PREDICTED BY IDOCK:   -2.83 KCAL/MOL
REMARK 924 INTRA-LIGAND FREE ENERGY PREDICTED BY IDOCK:   -1.42 KCAL/MOL
REMARK 927      BINDING AFFINITY PREDICTED BY RF-SCORE:    0.00 PKD
ROOT
HETATM    1  C   UNL     1      -5.616  10.830  71.360  1.00  0.00     0.111 C  
HETATM    2  O   UNL     1      -6.340  11.691  70.476  1.00  0.00    -0.265 OA 
ENDROOT
BRANCH   2   3
HETATM    3  C   UNL     1      -6.190  11.493  69.148  1.00  0.00    -0.071 C  
HETATM    4  O   UNL     1      -5.137  11.598  68.536  1.00  0.00    -0.040 OA 
BRANCH   3   5
HETATM    5  C   UNL     1      -7.499  11.175  68.509  1.00  0.00    -0.112 C  
HETATM    6  C   UNL     1      -8.228  12.189  67.980  1.00  0.00    -0.158 C  
HETATM    7  C   UNL     1      -7.931  13.668  68.093  1.00  0.00    -0.148 C  
HETATM    8  N   UNL     1      -9.370  11.907  67.258  1.00  0.00    -0.174 NA 
HETATM    9  C   UNL     1      -9.920  10.655  67.085  1.00  0.00    -0.195 C  
HETATM   10  C   UNL     1     -11.215  10.634  66.303  1.00  0.00     0.241 C  
HETATM   11  C   UNL     1      -9.298   9.562  67.597  1.00  0.00    -0.141 C  
HETATM   12  C   UNL     1      -7.945   9.701  68.323  1.00  0.00    -0.096 C  
BRANCH  11  13
HETATM   13  C   UNL     1     -10.001   8.249  67.529  1.00  0.00    -0.193 C  
HETATM   14  O   UNL     1     -10.926   7.946  68.276  1.00  0.00     0.017 OA 
BRANCH  13  15
HETATM   15  O   UNL     1      -9.476   7.409  66.604  1.00  0.00    -0.173 OA 
BRANCH  15  16
HETATM   16  C   UNL     1      -9.329   6.044  67.062  1.00  0.00    -0.122 C  
HETATM   17  C   UNL     1      -7.884   5.611  66.862  1.00  0.00    -0.101 C  
HETATM   18  C   UNL     1     -10.282   5.135  66.290  1.00  0.00    -0.289 C  
ENDBRANCH  15  16
ENDBRANCH  13  15
ENDBRANCH  11  13
BRANCH  12  19
HETATM   19  C   UNL     1      -7.909   8.907  69.617  1.00  0.00    -0.090 A  
HETATM   20  C   UNL     1      -7.001   7.840  69.856  1.00  0.00    -0.050 A  
HETATM   21  C   UNL     1      -8.749   9.189  70.726  1.00  0.00    -0.285 A  
HETATM   22  N   UNL     1      -6.064   7.324  69.050  1.00  0.00    -0.026 NA 
HETATM   23  O   UNL     1      -5.451   6.317  69.773  1.00  0.00    -0.012 OA 
HETATM   24  C   UNL     1      -8.699   8.477  71.954  1.00  0.00    -0.270 A  
HETATM   25  C   UNL     1      -7.802   7.421  72.198  1.00  0.00    -0.095 A  
HETATM   26  C   UNL     1      -6.951   7.119  71.121  1.00  0.00    -0.061 A  
HETATM   27  N   UNL     1      -5.990   6.190  71.040  1.00  0.00    -0.029 NA 
ENDBRANCH  12  19
ENDBRANCH   3   5
ENDBRANCH   2   3
TORSDOF 6
ENDMDL
MODEL      197
REMARK 921   NORMALIZED FREE ENERGY PREDICTED BY IDOCK:   -2.03 KCAL/MOL
REMARK 922        TOTAL FREE ENERGY PREDICTED BY IDOCK:   -4.20 KCAL/MOL
REMARK 923 INTER-LIGAND FREE ENERGY PREDICTED BY IDOCK:   -3.92 KCAL/MOL
REMARK 924 INTRA-LIGAND FREE ENERGY PREDICTED BY IDOCK:   -0.28 KCAL/MOL
REMARK 927      BINDING AFFINITY PREDICTED BY RF-SCORE:    0.00 PKD
ROOT
HETATM    1  C   UNL     1     -10.180   3.673  65.186  1.00  0.00     0.035 C  
HETATM    2  O   UNL     1      -9.371   4.704  64.612  1.00  0.00    -0.150 OA 
ENDROOT
BRANCH   2   3
HETATM    3  C   UNL     1      -8.334   5.166  65.344  1.00  0.00    -0.132 C  
HETATM    4  O   UNL     1      -7.828   4.584  66.292  1.00  0.00    -0.097 OA 
BRANCH   3   5
HETATM    5  C   UNL     1      -7.914   6.518  64.873  1.00  0.00    -0.124 C  
HETATM    6  C   UNL     1      -6.994   6.603  63.880  1.00  0.00    -0.055 C  
HETATM    7  C   UNL     1      -6.211   5.459  63.274  1.00  0.00    -0.022 C  
HETATM    8  N   UNL     1      -6.696   7.833  63.328  1.00  0.00    -0.069 NA 
HETATM    9  C   UNL     1      -7.189   9.046  63.758  1.00  0.00    -0.096 C  
HETATM   10  C   UNL     1      -6.647  10.249  63.019  1.00  0.00    -0.127 C  
HETATM   11  C   UNL     1      -8.095   9.092  64.769  1.00  0.00    -0.144 C  
HETATM   12  C   UNL     1      -8.624   7.790  65.405  1.00  0.00    -0.092 C  
BRANCH  11  13
HETATM   13  C   UNL     1      -8.484  10.424  65.312  1.00  0.00    -0.169 C  
HETATM   14  O   UNL     1      -7.740  11.105  66.011  1.00  0.00    -0.111 OA 
BRANCH  13  15
HETATM   15  O   UNL     1      -9.758  10.774  65.007  1.00  0.00    -0.226 OA 
BRANCH  15  16
HETATM   16  C   UNL     1     -10.623  10.916  66.159  1.00  0.00    -0.206 C  
HETATM   17  C   UNL     1     -11.647  12.004  65.873  1.00  0.00    -0.364 C  
HETATM   18  C   UNL     1      -9.790  11.260  67.391  1.00  0.00    -0.201 C  
ENDBRANCH  15  16
ENDBRANCH  13  15
ENDBRANCH  11  13
BRANCH  12  19
HETATM   19  C   UNL     1      -8.642   7.864  66.921  1.00  0.00    -0.130 A  
HETATM   20  C   UNL     1      -9.705   7.360  67.718  1.00  0.00    -0.143 A  
HETATM   21  C   UNL     1      -7.573   8.402  67.687  1.00  0.00    -0.098 A  
HETATM   22  N   UNL     1     -10.848   6.774  67.338  1.00  0.00    -0.325 NA 
HETATM   23  O   UNL     1     -11.523   6.460  68.503  1.00  0.00    -0.228 OA 
HETATM   24  C   UNL     1      -7.563   8.443  69.106  1.00  0.00    -0.087 A  
HETATM   25  C   UNL     1      -8.611   7.945  69.901  1.00  0.00    -0.139 A  
HETATM   26  C   UNL     1      -9.684   7.399  69.174  1.00  0.00    -0.165 A  
HETATM   27  N   UNL     1     -10.813   6.840  69.628  1.00  0.00    -0.252 NA 
ENDBRANCH  12  19
ENDBRANCH   3   5
ENDBRANCH   2   3
TORSDOF 6
ENDMDL
MODEL      198
REMARK 921   NORMALIZED FREE ENERGY PREDICTED BY IDOCK:   -2.00 KCAL/MOL
REMARK 922        TOTAL FREE ENERGY PREDICTED BY IDOCK:   -4.16 KCAL/MOL
REMARK 923 INTER-LIGAND FREE ENERGY PREDICTED BY IDOCK:   -4.04 KCAL/MOL
REMARK 924 INTRA-LIGAND FREE ENERGY PREDICTED BY IDOCK:   -0.12 KCAL/MOL
REMARK 927      BINDING AFFINITY PREDICTED BY RF-SCORE:    0.00 PKD
ROOT
HETATM    1  C   UNL     1     -10.115   6.472  74.273  1.00  0.00    -0.356 C  
HETATM    2  O   UNL     1      -9.123   6.625  73.253  1.00  0.00    -0.127 OA 
ENDROOT
BRANCH   2   3
HETATM    3  C   UNL     1      -8.832   7.879  72.847  1.00  0.00    -0.202 C  
HETATM    4  O   UNL     1      -8.367   8.758  73.557  1.00  0.00    -0.357 OA 
BRANCH   3   5
HETATM    5  C   UNL     1      -9.204   8.071  71.415  1.00  0.00    -0.180 C  
HETATM    6  C   UNL     1     -10.416   8.608  71.125  1.00  0.00    -0.227 C  
HETATM    7  C   UNL     1     -11.528   8.908  72.105  1.00  0.00    -0.387 C  
HETATM    8  N   UNL     1     -10.726   8.929  69.819  1.00  0.00    -0.231 NA 
HETATM    9  C   UNL     1      -9.936   8.670  68.719  1.00  0.00    -0.183 C  
HETATM   10  C   UNL     1     -10.545   9.067  67.393  1.00  0.00    -0.309 C  
HETATM   11  C   UNL     1      -8.712   8.105  68.880  1.00  0.00    -0.137 C  
HETATM   12  C   UNL     1      -8.169   7.802  70.292  1.00  0.00    -0.125 C  
BRANCH  11  13
HETATM   13  C   UNL     1      -7.955   7.694  67.664  1.00  0.00    -0.121 C  
HETATM   14  O   UNL     1      -6.939   8.268  67.283  1.00  0.00    -0.072 OA 
BRANCH  13  15
HETATM   15  O   UNL     1      -8.534   6.668  66.995  1.00  0.00    -0.112 OA 
BRANCH  15  16
HETATM   16  C   UNL     1      -7.662   6.017  66.040  1.00  0.00    -0.095 C  
HETATM   17  C   UNL     1      -6.675   5.140  66.795  1.00  0.00    -0.061 C  
HETATM   18  C   UNL     1      -6.932   7.069  65.208  1.00  0.00    -0.056 C  
ENDBRANCH  15  16
ENDBRANCH  13  15
ENDBRANCH  11  13
BRANCH  12  19
HETATM   19  C   UNL     1      -7.551   6.418  70.380  1.00  0.00    -0.096 A  
HETATM   20  C   UNL     1      -8.300   5.216  70.264  1.00  0.00    -0.097 A  
HETATM   21  C   UNL     1      -6.157   6.198  70.538  1.00  0.00    -0.030 A  
HETATM   22  N   UNL     1      -9.618   5.050  70.087  1.00  0.00    -0.171 NA 
HETATM   23  O   UNL     1      -9.825   3.684  70.024  1.00  0.00    -0.161 OA 
HETATM   24  C   UNL     1      -5.563   4.908  70.585  1.00  0.00    -0.015 A  
HETATM   25  C   UNL     1      -6.299   3.715  70.468  1.00  0.00    -0.027 A  
HETATM   26  C   UNL     1      -7.683   3.897  70.305  1.00  0.00    -0.048 A  
HETATM   27  N   UNL     1      -8.644   2.977  70.155  1.00  0.00    -0.056 NA 
ENDBRANCH  12  19
ENDBRANCH   3   5
ENDBRANCH   2   3
TORSDOF 6
ENDMDL
MODEL      199
REMARK 921   NORMALIZED FREE ENERGY PREDICTED BY IDOCK:   -1.91 KCAL/MOL
REMARK 922        TOTAL FREE ENERGY PREDICTED BY IDOCK:   -4.04 KCAL/MOL
REMARK 923 INTER-LIGAND FREE ENERGY PREDICTED BY IDOCK:   -3.62 KCAL/MOL
REMARK 924 INTRA-LIGAND FREE ENERGY PREDICTED BY IDOCK:   -0.42 KCAL/MOL
REMARK 927      BINDING AFFINITY PREDICTED BY RF-SCORE:    0.00 PKD
ROOT
HETATM    1  C   UNL     1     -10.590  18.892  66.130  1.00  0.00    -0.407 C  
HETATM    2  O   UNL     1     -10.692  17.622  65.479  1.00  0.00    -0.565 OA 
ENDROOT
BRANCH   2   3
HETATM    3  C   UNL     1      -9.643  16.778  65.586  1.00  0.00     0.065 C  
HETATM    4  O   UNL     1      -8.470  17.118  65.641  1.00  0.00    -0.460 OA 
BRANCH   3   5
HETATM    5  C   UNL     1     -10.101  15.359  65.575  1.00  0.00    -0.405 C  
HETATM    6  C   UNL     1     -11.134  15.015  64.766  1.00  0.00    -0.376 C  
HETATM    7  C   UNL     1     -11.998  15.956  63.956  1.00  0.00     0.235 C  
HETATM    8  N   UNL     1     -11.483  13.686  64.629  1.00  0.00    -0.350 NA 
HETATM    9  C   UNL     1     -10.926  12.635  65.327  1.00  0.00    -0.286 C  
HETATM   10  C   UNL     1     -11.540  11.284  65.034  1.00  0.00     0.204 C  
HETATM   11  C   UNL     1      -9.905  12.859  66.192  1.00  0.00    -0.270 C  
HETATM   12  C   UNL     1      -9.318  14.275  66.361  1.00  0.00    -0.270 C  
BRANCH  11  13
HETATM   13  C   UNL     1      -9.437  11.729  67.044  1.00  0.00    -0.185 C  
HETATM   14  O   UNL     1     -10.126  11.226  67.926  1.00  0.00    -0.172 OA 
BRANCH  13  15
HETATM   15  O   UNL     1      -8.159  11.358  66.785  1.00  0.00    -0.152 OA 
BRANCH  15  16
HETATM   16  C   UNL     1      -8.013  10.520  65.614  1.00  0.00    -0.158 C  
HETATM   17  C   UNL     1      -8.598   9.148  65.914  1.00  0.00    -0.168 C  
HETATM   18  C   UNL     1      -6.538  10.412  65.237  1.00  0.00    -0.100 C  
ENDBRANCH  15  16
ENDBRANCH  13  15
ENDBRANCH  11  13
BRANCH  12  19
HETATM   19  C   UNL     1      -9.115  14.637  67.821  1.00  0.00    -0.191 A  
HETATM   20  C   UNL     1     -10.185  14.865  68.729  1.00  0.00    -0.243 A  
HETATM   21  C   UNL     1      -7.834  14.734  68.428  1.00  0.00    -0.128 A  
HETATM   22  N   UNL     1     -11.506  14.835  68.509  1.00  0.00    -0.293 NA 
HETATM   23  O   UNL     1     -12.102  15.111  69.726  1.00  0.00    -0.310 OA 
HETATM   24  C   UNL     1      -7.634  15.036  69.801  1.00  0.00    -0.072 A  
HETATM   25  C   UNL     1      -8.688  15.261  70.704  1.00  0.00     1.704 A  
HETATM   26  C   UNL     1      -9.971  15.167  70.137  1.00  0.00     0.050 A  
HETATM   27  N   UNL     1     -11.166  15.313  70.724  1.00  0.00    -0.313 NA 
ENDBRANCH  12  19
ENDBRANCH   3   5
ENDBRANCH   2   3
TORSDOF 6
ENDMDL
MODEL      200
REMARK 921   NORMALIZED FREE ENERGY PREDICTED BY IDOCK:   -1.55 KCAL/MOL
REMARK 922        TOTAL FREE ENERGY PREDICTED BY IDOCK:   -3.54 KCAL/MOL
REMARK 923 INTER-LIGAND FREE ENERGY PREDICTED BY IDOCK:   -2.87 KCAL/MOL
REMARK 924 INTRA-LIGAND FREE ENERGY PREDICTED BY IDOCK:   -0.67 KCAL/MOL
REMARK 927      BINDING AFFINITY PREDICTED BY RF-SCORE:    0.00 PKD
ROOT
HETATM    1  C   UNL     1     -11.099   6.135  66.911  1.00  0.00    -0.219 C  
HETATM    2  O   UNL     1     -11.418   6.094  68.305  1.00  0.00    -0.117 OA 
ENDROOT
BRANCH   2   3
HETATM    3  C   UNL     1     -10.820   6.998  69.111  1.00  0.00    -0.195 C  
HETATM    4  O   UNL     1     -11.370   7.971  69.605  1.00  0.00    -0.006 OA 
BRANCH   3   5
HETATM    5  C   UNL     1      -9.373   6.681  69.280  1.00  0.00    -0.142 C  
HETATM    6  C   UNL     1      -8.994   5.910  70.330  1.00  0.00    -0.147 C  
HETATM    7  C   UNL     1      -9.874   5.441  71.468  1.00  0.00    -0.221 C  
HETATM    8  N   UNL     1      -7.685   5.484  70.429  1.00  0.00    -0.083 NA 
HETATM    9  C   UNL     1      -6.658   5.846  69.585  1.00  0.00    -0.047 C  
HETATM   10  C   UNL     1      -5.303   5.287  69.959  1.00  0.00    -0.004 C  
HETATM   11  C   UNL     1      -6.907   6.642  68.514  1.00  0.00    -0.070 C  
HETATM   12  C   UNL     1      -8.345   7.099  68.196  1.00  0.00    -0.124 C  
BRANCH  11  13
HETATM   13  C   UNL     1      -5.750   7.142  67.717  1.00  0.00    -0.028 C  
HETATM   14  O   UNL     1      -5.136   8.166  68.001  1.00  0.00    -0.031 OA 
BRANCH  13  15
HETATM   15  O   UNL     1      -5.489   6.387  66.622  1.00  0.00    -0.012 OA 
BRANCH  15  16
HETATM   16  C   UNL     1      -6.275   5.175  66.539  1.00  0.00    -0.035 C  
HETATM   17  C   UNL     1      -5.335   3.979  66.535  1.00  0.00    -0.013 C  
HETATM   18  C   UNL     1      -7.130   5.200  65.275  1.00  0.00    -0.066 C  
ENDBRANCH  15  16
ENDBRANCH  13  15
ENDBRANCH  11  13
BRANCH  12  19
HETATM   19  C   UNL     1      -8.412   8.579  67.862  1.00  0.00    -0.130 A  
HETATM   20  C   UNL     1      -8.441   9.081  66.533  1.00  0.00    -0.119 A  
HETATM   21  C   UNL     1      -8.499   9.596  68.849  1.00  0.00    -0.125 A  
HETATM   22  N   UNL     1      -8.398   8.415  65.372  1.00  0.00    -0.150 NA 
HETATM   23  O   UNL     1      -8.473   9.375  64.378  1.00  0.00    -0.162 OA 
HETATM   24  C   UNL     1      -8.597  10.981  68.547  1.00  0.00    -0.158 A  
HETATM   25  C   UNL     1      -8.629  11.484  67.234  1.00  0.00    -0.150 A  
HETATM   26  C   UNL     1      -8.550  10.502  66.231  1.00  0.00    -0.147 A  
HETATM   27  N   UNL     1      -8.567  10.651  64.901  1.00  0.00    -0.169 NA 
ENDBRANCH  12  19
ENDBRANCH   3   5
ENDBRANCH   2   3
TORSDOF 6
ENDMDL
MODEL      201
REMARK 921   NORMALIZED FREE ENERGY PREDICTED BY IDOCK:   -1.50 KCAL/MOL
REMARK 922        TOTAL FREE ENERGY PREDICTED BY IDOCK:   -3.47 KCAL/MOL
REMARK 923 INTER-LIGAND FREE ENERGY PREDICTED BY IDOCK:   -3.38 KCAL/MOL
REMARK 924 INTRA-LIGAND FREE ENERGY PREDICTED BY IDOCK:   -0.10 KCAL/MOL
REMARK 927      BINDING AFFINITY PREDICTED BY RF-SCORE:    0.00 PKD
ROOT
HETATM    1  C   UNL     1      -5.284  18.455  71.644  1.00  0.00    -0.098 C  
HETATM    2  O   UNL     1      -6.395  17.988  70.872  1.00  0.00     0.778 OA 
ENDROOT
BRANCH   2   3
HETATM    3  C   UNL     1      -6.142  17.516  69.633  1.00  0.00    -0.249 C  
HETATM    4  O   UNL     1      -5.312  16.661  69.362  1.00  0.00    -0.132 OA 
BRANCH   3   5
HETATM    5  C   UNL     1      -6.980  18.217  68.617  1.00  0.00    -0.270 C  
HETATM    6  C   UNL     1      -6.797  19.548  68.430  1.00  0.00    -0.290 C  
HETATM    7  C   UNL     1      -5.920  20.463  69.256  1.00  0.00    -0.377 C  
HETATM    8  N   UNL     1      -7.455  20.191  67.401  1.00  0.00    -0.277 NA 
HETATM    9  C   UNL     1      -8.385  19.617  66.562  1.00  0.00    -0.332 C  
HETATM   10  C   UNL     1      -9.005  20.565  65.559  1.00  0.00     0.613 C  
HETATM   11  C   UNL     1      -8.677  18.296  66.673  1.00  0.00    -0.289 C  
HETATM   12  C   UNL     1      -7.932  17.413  67.695  1.00  0.00    -0.199 C  
BRANCH  11  13
HETATM   13  C   UNL     1      -9.800  17.747  65.860  1.00  0.00    -0.063 C  
HETATM   14  O   UNL     1     -10.872  18.326  65.723  1.00  0.00    -0.319 OA 
BRANCH  13  15
HETATM   15  O   UNL     1      -9.535  16.522  65.342  1.00  0.00    -0.411 OA 
BRANCH  15  16
HETATM   16  C   UNL     1     -10.674  15.629  65.326  1.00  0.00    -0.425 C  
HETATM   17  C   UNL     1     -10.176  14.199  65.184  1.00  0.00    -0.411 C  
HETATM   18  C   UNL     1     -11.605  16.000  64.174  1.00  0.00    -0.007 C  
ENDBRANCH  15  16
ENDBRANCH  13  15
ENDBRANCH  11  13
BRANCH  12  19
HETATM   19  C   UNL     1      -8.880  16.512  68.467  1.00  0.00    -0.228 A  
HETATM   20  C   UNL     1      -8.768  15.096  68.494  1.00  0.00    -0.172 A  
HETATM   21  C   UNL     1      -9.939  17.007  69.273  1.00  0.00    -0.169 A  
HETATM   22  N   UNL     1      -7.884  14.302  67.876  1.00  0.00    -0.137 NA 
HETATM   23  O   UNL     1      -8.205  13.009  68.249  1.00  0.00    -0.146 OA 
HETATM   24  C   UNL     1     -10.809  16.176  70.029  1.00  0.00    -0.349 A  
HETATM   25  C   UNL     1     -10.702  14.775  70.062  1.00  0.00    -0.103 A  
HETATM   26  C   UNL     1      -9.659  14.251  69.278  1.00  0.00     0.189 A  
HETATM   27  N   UNL     1      -9.289  12.976  69.107  1.00  0.00     0.497 NA 
ENDBRANCH  12  19
ENDBRANCH   3   5
ENDBRANCH   2   3
TORSDOF 6
ENDMDL
MODEL      202
REMARK 921   NORMALIZED FREE ENERGY PREDICTED BY IDOCK:   -1.37 KCAL/MOL
REMARK 922        TOTAL FREE ENERGY PREDICTED BY IDOCK:   -3.31 KCAL/MOL
REMARK 923 INTER-LIGAND FREE ENERGY PREDICTED BY IDOCK:   -2.96 KCAL/MOL
REMARK 924 INTRA-LIGAND FREE ENERGY PREDICTED BY IDOCK:   -0.34 KCAL/MOL
REMARK 927      BINDING AFFINITY PREDICTED BY RF-SCORE:    0.00 PKD
ROOT
HETATM    1  C   UNL     1     -10.797   5.753  66.617  1.00  0.00    -0.214 C  
HETATM    2  O   UNL     1     -10.759   6.014  68.023  1.00  0.00    -0.245 OA 
ENDROOT
BRANCH   2   3
HETATM    3  C   UNL     1      -9.744   6.772  68.492  1.00  0.00    -0.133 C  
HETATM    4  O   UNL     1      -9.811   7.517  69.458  1.00  0.00    -0.167 OA 
BRANCH   3   5
HETATM    5  C   UNL     1      -8.531   6.619  67.637  1.00  0.00    -0.121 C  
HETATM    6  C   UNL     1      -7.855   5.443  67.672  1.00  0.00    -0.100 C  
HETATM    7  C   UNL     1      -8.107   4.285  68.611  1.00  0.00    -0.077 C  
HETATM    8  N   UNL     1      -6.818   5.224  66.788  1.00  0.00    -0.061 NA 
HETATM    9  C   UNL     1      -6.318   6.147  65.894  1.00  0.00    -0.038 C  
HETATM   10  C   UNL     1      -5.132   5.669  65.086  1.00  0.00    -0.009 C  
HETATM   11  C   UNL     1      -6.892   7.373  65.790  1.00  0.00    -0.056 C  
HETATM   12  C   UNL     1      -8.141   7.725  66.623  1.00  0.00    -0.111 C  
BRANCH  11  13
HETATM   13  C   UNL     1      -6.229   8.396  64.932  1.00  0.00    -0.056 C  
HETATM   14  O   UNL     1      -5.343   9.140  65.342  1.00  0.00    -0.037 OA 
BRANCH  13  15
HETATM   15  O   UNL     1      -6.744   8.460  63.680  1.00  0.00    -0.082 OA 
BRANCH  15  16
HETATM   16  C   UNL     1      -8.068   9.040  63.615  1.00  0.00    -0.164 C  
HETATM   17  C   UNL     1      -8.804   8.455  62.419  1.00  0.00     0.083 C  
HETATM   18  C   UNL     1      -7.961  10.559  63.499  1.00  0.00    -0.036 C  
ENDBRANCH  15  16
ENDBRANCH  13  15
ENDBRANCH  11  13
BRANCH  12  19
HETATM   19  C   UNL     1      -8.030   9.098  67.262  1.00  0.00    -0.102 A  
HETATM   20  C   UNL     1      -9.075  10.061  67.239  1.00  0.00    -0.138 A  
HETATM   21  C   UNL     1      -6.886   9.529  67.985  1.00  0.00    -0.074 A  
HETATM   22  N   UNL     1     -10.287   9.984  66.674  1.00  0.00    -0.230 NA 
HETATM   23  O   UNL     1     -10.917  11.183  66.959  1.00  0.00    -0.275 OA 
HETATM   24  C   UNL     1      -6.785  10.797  68.618  1.00  0.00    -0.058 A  
HETATM   25  C   UNL     1      -7.817  11.753  68.601  1.00  0.00    -0.117 A  
HETATM   26  C   UNL     1      -8.967  11.355  67.897  1.00  0.00    -0.153 A  
HETATM   27  N   UNL     1     -10.113  12.022  67.708  1.00  0.00    -0.190 NA 
ENDBRANCH  12  19
ENDBRANCH   3   5
ENDBRANCH   2   3
TORSDOF 6
ENDMDL
MODEL      203
REMARK 921   NORMALIZED FREE ENERGY PREDICTED BY IDOCK:   -1.35 KCAL/MOL
REMARK 922        TOTAL FREE ENERGY PREDICTED BY IDOCK:   -3.28 KCAL/MOL
REMARK 923 INTER-LIGAND FREE ENERGY PREDICTED BY IDOCK:   -2.81 KCAL/MOL
REMARK 924 INTRA-LIGAND FREE ENERGY PREDICTED BY IDOCK:   -0.47 KCAL/MOL
REMARK 927      BINDING AFFINITY PREDICTED BY RF-SCORE:    0.00 PKD
ROOT
HETATM    1  C   UNL     1     -10.996   6.256  66.955  1.00  0.00    -0.364 C  
HETATM    2  O   UNL     1     -10.795   7.231  67.983  1.00  0.00    -0.178 OA 
ENDROOT
BRANCH   2   3
HETATM    3  C   UNL     1      -9.558   7.756  68.114  1.00  0.00    -0.151 C  
HETATM    4  O   UNL     1      -9.017   8.492  67.302  1.00  0.00    -0.128 OA 
BRANCH   3   5
HETATM    5  C   UNL     1      -8.909   7.275  69.368  1.00  0.00    -0.137 C  
HETATM    6  C   UNL     1      -8.995   8.044  70.481  1.00  0.00    -0.152 C  
HETATM    7  C   UNL     1      -9.562   9.443  70.569  1.00  0.00    -0.330 C  
HETATM    8  N   UNL     1      -8.529   7.558  71.686  1.00  0.00    -0.110 NA 
HETATM    9  C   UNL     1      -7.878   6.357  71.869  1.00  0.00    -0.100 C  
HETATM   10  C   UNL     1      -7.413   6.096  73.284  1.00  0.00    -0.092 C  
HETATM   11  C   UNL     1      -7.703   5.512  70.820  1.00  0.00    -0.091 C  
HETATM   12  C   UNL     1      -8.279   5.859  69.432  1.00  0.00    -0.113 C  
BRANCH  11  13
HETATM   13  C   UNL     1      -6.859   4.300  71.019  1.00  0.00    -0.036 C  
HETATM   14  O   UNL     1      -5.743   4.174  70.523  1.00  0.00    -0.012 OA 
BRANCH  13  15
HETATM   15  O   UNL     1      -7.471   3.336  71.748  1.00  0.00    -0.049 OA 
BRANCH  15  16
HETATM   16  C   UNL     1      -8.055   2.276  70.954  1.00  0.00    -0.049 C  
HETATM   17  C   UNL     1      -7.174   2.028  69.739  1.00  0.00    -0.036 C  
HETATM   18  C   UNL     1      -9.469   2.668  70.531  1.00  0.00    -0.195 C  
ENDBRANCH  15  16
ENDBRANCH  13  15
ENDBRANCH  11  13
BRANCH  12  19
HETATM   19  C   UNL     1      -7.276   5.609  68.320  1.00  0.00    -0.075 A  
HETATM   20  C   UNL     1      -7.455   4.628  67.308  1.00  0.00    -0.085 A  
HETATM   21  C   UNL     1      -6.085   6.367  68.163  1.00  0.00    -0.027 A  
HETATM   22  N   UNL     1      -8.460   3.760  67.135  1.00  0.00    -0.099 NA 
HETATM   23  O   UNL     1      -8.154   3.043  65.992  1.00  0.00    -0.084 OA 
HETATM   24  C   UNL     1      -5.157   6.166  67.107  1.00  0.00    -0.005 A  
HETATM   25  C   UNL     1      -5.330   5.199  66.100  1.00  0.00    -0.013 A  
HETATM   26  C   UNL     1      -6.503   4.433  66.223  1.00  0.00    -0.041 A  
HETATM   27  N   UNL     1      -6.959   3.454  65.432  1.00  0.00    -0.056 NA 
ENDBRANCH  12  19
ENDBRANCH   3   5
ENDBRANCH   2   3
TORSDOF 6
ENDMDL
MODEL      204
REMARK 921   NORMALIZED FREE ENERGY PREDICTED BY IDOCK:   -1.21 KCAL/MOL
REMARK 922        TOTAL FREE ENERGY PREDICTED BY IDOCK:   -3.09 KCAL/MOL
REMARK 923 INTER-LIGAND FREE ENERGY PREDICTED BY IDOCK:   -4.82 KCAL/MOL
REMARK 924 INTRA-LIGAND FREE ENERGY PREDICTED BY IDOCK:    1.73 KCAL/MOL
REMARK 927      BINDING AFFINITY PREDICTED BY RF-SCORE:    0.00 PKD
ROOT
HETATM    1  C   UNL     1      -5.150  15.173  71.194  1.00  0.00    -0.149 C  
HETATM    2  O   UNL     1      -5.504  15.235  69.809  1.00  0.00    -0.100 OA 
ENDROOT
BRANCH   2   3
HETATM    3  C   UNL     1      -6.617  14.579  69.417  1.00  0.00    -0.138 C  
HETATM    4  O   UNL     1      -6.853  13.401  69.640  1.00  0.00    -0.012 OA 
BRANCH   3   5
HETATM    5  C   UNL     1      -7.508  15.473  68.623  1.00  0.00    -0.131 C  
HETATM    6  C   UNL     1      -7.298  16.812  68.674  1.00  0.00    -0.218 C  
HETATM    7  C   UNL     1      -6.331  17.540  69.582  1.00  0.00    -0.191 C  
HETATM    8  N   UNL     1      -8.012  17.650  67.841  1.00  0.00    -0.225 NA 
HETATM    9  C   UNL     1      -9.023  17.260  66.988  1.00  0.00    -0.232 C  
HETATM   10  C   UNL     1      -9.687  18.391  66.234  1.00  0.00    -0.298 C  
HETATM   11  C   UNL     1      -9.347  15.947  66.873  1.00  0.00    -0.244 C  
HETATM   12  C   UNL     1      -8.554  14.874  67.647  1.00  0.00    -0.181 C  
BRANCH  11  13
HETATM   13  C   UNL     1     -10.546  15.581  66.066  1.00  0.00    -0.325 C  
HETATM   14  O   UNL     1     -11.691  15.862  66.405  1.00  0.00     0.370 OA 
BRANCH  13  15
HETATM   15  O   UNL     1     -10.245  14.857  64.961  1.00  0.00    -0.380 OA 
BRANCH  15  16
HETATM   16  C   UNL     1     -11.320  14.002  64.504  1.00  0.00    -0.358 C  
HETATM   17  C   UNL     1     -12.414  14.868  63.900  1.00  0.00     0.182 C  
HETATM   18  C   UNL     1     -11.857  13.179  65.672  1.00  0.00    -0.430 C  
ENDBRANCH  15  16
ENDBRANCH  13  15
ENDBRANCH  11  13
BRANCH  12  19
HETATM   19  C   UNL     1      -9.467  13.860  68.312  1.00  0.00    -0.217 A  
HETATM   20  C   UNL     1     -10.394  14.192  69.337  1.00  0.00     0.081 A  
HETATM   21  C   UNL     1      -9.513  12.491  67.936  1.00  0.00    -0.196 A  
HETATM   22  N   UNL     1     -10.634  15.377  69.913  1.00  0.00    -0.288 NA 
HETATM   23  O   UNL     1     -11.640  15.156  70.836  1.00  0.00    -0.290 OA 
HETATM   24  C   UNL     1     -10.388  11.541  68.526  1.00  0.00    -0.224 A  
HETATM   25  C   UNL     1     -11.310  11.864  69.539  1.00  0.00    -0.306 A  
HETATM   26  C   UNL     1     -11.295  13.214  69.931  1.00  0.00     0.015 A  
HETATM   27  N   UNL     1     -12.047  13.835  70.848  1.00  0.00    -0.331 NA 
ENDBRANCH  12  19
ENDBRANCH   3   5
ENDBRANCH   2   3
TORSDOF 6
ENDMDL
MODEL      205
REMARK 921   NORMALIZED FREE ENERGY PREDICTED BY IDOCK:   -1.17 KCAL/MOL
REMARK 922        TOTAL FREE ENERGY PREDICTED BY IDOCK:   -3.04 KCAL/MOL
REMARK 923 INTER-LIGAND FREE ENERGY PREDICTED BY IDOCK:   -4.07 KCAL/MOL
REMARK 924 INTRA-LIGAND FREE ENERGY PREDICTED BY IDOCK:    1.04 KCAL/MOL
REMARK 927      BINDING AFFINITY PREDICTED BY RF-SCORE:    0.00 PKD
ROOT
HETATM    1  C   UNL     1      -5.133  13.588  67.208  1.00  0.00     0.423 C  
HETATM    2  O   UNL     1      -6.516  13.742  67.541  1.00  0.00    -0.231 OA 
ENDROOT
BRANCH   2   3
HETATM    3  C   UNL     1      -6.944  13.201  68.702  1.00  0.00    -0.102 C  
HETATM    4  O   UNL     1      -6.614  13.577  69.817  1.00  0.00    -0.089 OA 
BRANCH   3   5
HETATM    5  C   UNL     1      -7.842  12.038  68.445  1.00  0.00    -0.147 C  
HETATM    6  C   UNL     1      -7.302  10.794  68.414  1.00  0.00    -0.092 C  
HETATM    7  C   UNL     1      -5.831  10.447  68.465  1.00  0.00    -0.040 C  
HETATM    8  N   UNL     1      -8.128   9.692  68.322  1.00  0.00    -0.104 NA 
HETATM    9  C   UNL     1      -9.497   9.727  68.163  1.00  0.00    -0.135 C  
HETATM   10  C   UNL     1     -10.154   8.371  68.023  1.00  0.00    -0.245 C  
HETATM   11  C   UNL     1     -10.149  10.917  68.147  1.00  0.00    -0.190 C  
HETATM   12  C   UNL     1      -9.378  12.235  68.364  1.00  0.00    -0.162 C  
BRANCH  11  13
HETATM   13  C   UNL     1     -11.602  10.925  67.814  1.00  0.00    -0.146 C  
HETATM   14  O   UNL     1     -12.049  11.408  66.778  1.00  0.00    -0.186 OA 
BRANCH  13  15
HETATM   15  O   UNL     1     -12.378  10.403  68.796  1.00  0.00    -0.103 OA 
BRANCH  15  16
HETATM   16  C   UNL     1     -12.790  11.363  69.797  1.00  0.00     0.327 C  
HETATM   17  C   UNL     1     -11.595  12.226  70.173  1.00  0.00    -0.177 C  
HETATM   18  C   UNL     1     -13.339  10.630  71.019  1.00  0.00    -0.125 C  
ENDBRANCH  15  16
ENDBRANCH  13  15
ENDBRANCH  11  13
BRANCH  12  19
HETATM   19  C   UNL     1      -9.783  13.303  67.364  1.00  0.00    -0.221 A  
HETATM   20  C   UNL     1     -10.147  14.626  67.734  1.00  0.00    -0.228 A  
HETATM   21  C   UNL     1      -9.791  13.091  65.960  1.00  0.00    -0.259 A  
HETATM   22  N   UNL     1     -10.226  15.176  68.953  1.00  0.00    -0.228 NA 
HETATM   23  O   UNL     1     -10.608  16.490  68.756  1.00  0.00    -0.280 OA 
HETATM   24  C   UNL     1     -10.133  14.094  65.013  1.00  0.00    -0.326 A  
HETATM   25  C   UNL     1     -10.491  15.405  65.373  1.00  0.00    -0.426 A  
HETATM   26  C   UNL     1     -10.488  15.651  66.757  1.00  0.00    -0.297 A  
HETATM   27  N   UNL     1     -10.767  16.784  67.414  1.00  0.00    -0.288 NA 
ENDBRANCH  12  19
ENDBRANCH   3   5
ENDBRANCH   2   3
TORSDOF 6
ENDMDL
MODEL      206
REMARK 921   NORMALIZED FREE ENERGY PREDICTED BY IDOCK:   -1.16 KCAL/MOL
REMARK 922        TOTAL FREE ENERGY PREDICTED BY IDOCK:   -3.02 KCAL/MOL
REMARK 923 INTER-LIGAND FREE ENERGY PREDICTED BY IDOCK:   -3.85 KCAL/MOL
REMARK 924 INTRA-LIGAND FREE ENERGY PREDICTED BY IDOCK:    0.83 KCAL/MOL
REMARK 927      BINDING AFFINITY PREDICTED BY RF-SCORE:    0.00 PKD
ROOT
HETATM    1  C   UNL     1     -10.945   6.864  67.763  1.00  0.00    -0.207 C  
HETATM    2  O   UNL     1     -10.104   7.642  68.621  1.00  0.00    -0.180 OA 
ENDROOT
BRANCH   2   3
HETATM    3  C   UNL     1      -8.772   7.439  68.542  1.00  0.00    -0.127 C  
HETATM    4  O   UNL     1      -7.995   7.492  69.484  1.00  0.00    -0.120 OA 
BRANCH   3   5
HETATM    5  C   UNL     1      -8.357   7.191  67.131  1.00  0.00    -0.118 C  
HETATM    6  C   UNL     1      -7.975   5.939  66.776  1.00  0.00    -0.102 C  
HETATM    7  C   UNL     1      -7.773   4.761  67.702  1.00  0.00    -0.086 C  
HETATM    8  N   UNL     1      -7.725   5.650  65.449  1.00  0.00    -0.084 NA 
HETATM    9  C   UNL     1      -7.738   6.561  64.414  1.00  0.00    -0.109 C  
HETATM   10  C   UNL     1      -7.363   5.991  63.064  1.00  0.00    -0.059 C  
HETATM   11  C   UNL     1      -8.075   7.854  64.651  1.00  0.00    -0.125 C  
HETATM   12  C   UNL     1      -8.502   8.306  66.062  1.00  0.00    -0.148 C  
BRANCH  11  13
HETATM   13  C   UNL     1      -7.923   8.840  63.543  1.00  0.00    -0.158 C  
HETATM   14  O   UNL     1      -6.855   9.377  63.267  1.00  0.00    -0.094 OA 
BRANCH  13  15
HETATM   15  O   UNL     1      -9.092   9.126  62.919  1.00  0.00    -0.139 OA 
BRANCH  15  16
HETATM   16  C   UNL     1      -9.190  10.489  62.443  1.00  0.00    -0.272 C  
HETATM   17  C   UNL     1      -7.814  11.134  62.512  1.00  0.00     0.010 C  
HETATM   18  C   UNL     1     -10.197  11.261  63.291  1.00  0.00    -0.417 C  
ENDBRANCH  15  16
ENDBRANCH  13  15
ENDBRANCH  11  13
BRANCH  12  19
HETATM   19  C   UNL     1      -7.832   9.606  66.471  1.00  0.00    -0.108 A  
HETATM   20  C   UNL     1      -8.519  10.846  66.565  1.00  0.00    -0.159 A  
HETATM   21  C   UNL     1      -6.464   9.691  66.845  1.00  0.00    -0.067 A  
HETATM   22  N   UNL     1      -9.804  11.127  66.313  1.00  0.00    -0.207 NA 
HETATM   23  O   UNL     1      -9.959  12.476  66.575  1.00  0.00    -0.233 OA 
HETATM   24  C   UNL     1      -5.836  10.894  67.264  1.00  0.00    -0.049 A  
HETATM   25  C   UNL     1      -6.511  12.124  67.361  1.00  0.00    -0.149 A  
HETATM   26  C   UNL     1      -7.869  12.074  67.003  1.00  0.00    -0.138 A  
HETATM   27  N   UNL     1      -8.778  13.057  66.999  1.00  0.00    -0.210 NA 
ENDBRANCH  12  19
ENDBRANCH   3   5
ENDBRANCH   2   3
TORSDOF 6
ENDMDL
MODEL      207
REMARK 921   NORMALIZED FREE ENERGY PREDICTED BY IDOCK:   -1.13 KCAL/MOL
REMARK 922        TOTAL FREE ENERGY PREDICTED BY IDOCK:   -2.99 KCAL/MOL
REMARK 923 INTER-LIGAND FREE ENERGY PREDICTED BY IDOCK:   -2.41 KCAL/MOL
REMARK 924 INTRA-LIGAND FREE ENERGY PREDICTED BY IDOCK:   -0.57 KCAL/MOL
REMARK 927      BINDING AFFINITY PREDICTED BY RF-SCORE:    0.00 PKD
ROOT
HETATM    1  C   UNL     1     -10.797   5.753  66.617  1.00  0.00    -0.214 C  
HETATM    2  O   UNL     1     -10.759   6.014  68.023  1.00  0.00    -0.245 OA 
ENDROOT
BRANCH   2   3
HETATM    3  C   UNL     1      -9.744   6.772  68.492  1.00  0.00    -0.133 C  
HETATM    4  O   UNL     1      -9.811   7.517  69.458  1.00  0.00    -0.167 OA 
BRANCH   3   5
HETATM    5  C   UNL     1      -8.531   6.619  67.637  1.00  0.00    -0.121 C  
HETATM    6  C   UNL     1      -7.855   5.443  67.672  1.00  0.00    -0.100 C  
HETATM    7  C   UNL     1      -8.107   4.285  68.611  1.00  0.00    -0.077 C  
HETATM    8  N   UNL     1      -6.818   5.224  66.788  1.00  0.00    -0.061 NA 
HETATM    9  C   UNL     1      -6.318   6.147  65.894  1.00  0.00    -0.038 C  
HETATM   10  C   UNL     1      -5.132   5.669  65.086  1.00  0.00    -0.009 C  
HETATM   11  C   UNL     1      -6.892   7.373  65.790  1.00  0.00    -0.056 C  
HETATM   12  C   UNL     1      -8.141   7.725  66.623  1.00  0.00    -0.111 C  
BRANCH  11  13
HETATM   13  C   UNL     1      -6.229   8.396  64.932  1.00  0.00    -0.056 C  
HETATM   14  O   UNL     1      -5.343   9.140  65.342  1.00  0.00    -0.037 OA 
BRANCH  13  15
HETATM   15  O   UNL     1      -6.744   8.460  63.680  1.00  0.00    -0.082 OA 
BRANCH  15  16
HETATM   16  C   UNL     1      -8.068   9.040  63.615  1.00  0.00    -0.164 C  
HETATM   17  C   UNL     1      -8.804   8.455  62.419  1.00  0.00     0.083 C  
HETATM   18  C   UNL     1      -7.961  10.559  63.499  1.00  0.00    -0.036 C  
ENDBRANCH  15  16
ENDBRANCH  13  15
ENDBRANCH  11  13
BRANCH  12  19
HETATM   19  C   UNL     1      -8.030   9.098  67.262  1.00  0.00    -0.102 A  
HETATM   20  C   UNL     1      -7.018   9.448  68.197  1.00  0.00    -0.075 A  
HETATM   21  C   UNL     1      -8.901  10.175  66.948  1.00  0.00    -0.142 A  
HETATM   22  N   UNL     1      -6.029   8.698  68.699  1.00  0.00    -0.044 NA 
HETATM   23  O   UNL     1      -5.319   9.523  69.552  1.00  0.00    -0.035 OA 
HETATM   24  C   UNL     1      -8.784  11.473  67.512  1.00  0.00    -0.145 A  
HETATM   25  C   UNL     1      -7.784  11.827  68.436  1.00  0.00    -0.131 A  
HETATM   26  C   UNL     1      -6.901  10.784  68.765  1.00  0.00    -0.067 A  
HETATM   27  N   UNL     1      -5.849  10.799  69.593  1.00  0.00    -0.046 NA 
ENDBRANCH  12  19
ENDBRANCH   3   5
ENDBRANCH   2   3
TORSDOF 6
ENDMDL
MODEL      208
REMARK 921   NORMALIZED FREE ENERGY PREDICTED BY IDOCK:   -0.86 KCAL/MOL
REMARK 922        TOTAL FREE ENERGY PREDICTED BY IDOCK:   -2.62 KCAL/MOL
REMARK 923 INTER-LIGAND FREE ENERGY PREDICTED BY IDOCK:   -3.40 KCAL/MOL
REMARK 924 INTRA-LIGAND FREE ENERGY PREDICTED BY IDOCK:    0.78 KCAL/MOL
REMARK 927      BINDING AFFINITY PREDICTED BY RF-SCORE:    0.00 PKD
ROOT
HETATM    1  C   UNL     1     -12.986  10.791  69.617  1.00  0.00     0.525 C  
HETATM    2  O   UNL     1     -11.632  11.214  69.798  1.00  0.00    -0.275 OA 
ENDROOT
BRANCH   2   3
HETATM    3  C   UNL     1     -11.260  12.383  69.234  1.00  0.00    -0.201 C  
HETATM    4  O   UNL     1     -11.304  13.474  69.784  1.00  0.00    -0.200 OA 
BRANCH   3   5
HETATM    5  C   UNL     1     -10.834  12.177  67.820  1.00  0.00    -0.263 C  
HETATM    6  C   UNL     1     -11.552  12.767  66.832  1.00  0.00    -0.366 C  
HETATM    7  C   UNL     1     -12.859  13.512  66.988  1.00  0.00     0.848 C  
HETATM    8  N   UNL     1     -11.097  12.712  65.530  1.00  0.00    -0.286 NA 
HETATM    9  C   UNL     1      -9.989  12.016  65.096  1.00  0.00    -0.239 C  
HETATM   10  C   UNL     1      -9.752  12.069  63.603  1.00  0.00    -0.218 C  
HETATM   11  C   UNL     1      -9.208  11.358  65.989  1.00  0.00    -0.229 C  
HETATM   12  C   UNL     1      -9.514  11.429  67.499  1.00  0.00    -0.173 C  
BRANCH  11  13
HETATM   13  C   UNL     1      -8.115  10.488  65.469  1.00  0.00    -0.155 C  
HETATM   14  O   UNL     1      -6.937  10.636  65.779  1.00  0.00    -0.133 OA 
BRANCH  13  15
HETATM   15  O   UNL     1      -8.547   9.562  64.577  1.00  0.00    -0.163 OA 
BRANCH  15  16
HETATM   16  C   UNL     1      -7.942   9.677  63.267  1.00  0.00    -0.143 C  
HETATM   17  C   UNL     1      -8.327   8.460  62.440  1.00  0.00    -0.180 C  
HETATM   18  C   UNL     1      -6.425   9.784  63.407  1.00  0.00    -0.115 C  
ENDBRANCH  15  16
ENDBRANCH  13  15
ENDBRANCH  11  13
BRANCH  12  19
HETATM   19  C   UNL     1      -9.434  10.065  68.161  1.00  0.00    -0.148 A  
HETATM   20  C   UNL     1      -8.652   9.800  69.318  1.00  0.00    -0.158 A  
HETATM   21  C   UNL     1     -10.172   8.938  67.712  1.00  0.00    -0.283 A  
HETATM   22  N   UNL     1      -7.858  10.624  70.014  1.00  0.00     0.063 NA 
HETATM   23  O   UNL     1      -7.345   9.871  71.055  1.00  0.00    -0.312 OA 
HETATM   24  C   UNL     1     -10.133   7.667  68.345  1.00  0.00    -0.208 A  
HETATM   25  C   UNL     1      -9.364   7.399  69.491  1.00  0.00    -0.156 A  
HETATM   26  C   UNL     1      -8.624   8.496  69.966  1.00  0.00    -0.134 A  
HETATM   27  N   UNL     1      -7.813   8.570  71.029  1.00  0.00    -0.098 NA 
ENDBRANCH  12  19
ENDBRANCH   3   5
ENDBRANCH   2   3
TORSDOF 6
ENDMDL
MODEL      209
REMARK 921   NORMALIZED FREE ENERGY PREDICTED BY IDOCK:   -0.69 KCAL/MOL
REMARK 922        TOTAL FREE ENERGY PREDICTED BY IDOCK:   -2.39 KCAL/MOL
REMARK 923 INTER-LIGAND FREE ENERGY PREDICTED BY IDOCK:   -3.27 KCAL/MOL
REMARK 924 INTRA-LIGAND FREE ENERGY PREDICTED BY IDOCK:    0.88 KCAL/MOL
REMARK 927      BINDING AFFINITY PREDICTED BY RF-SCORE:    0.00 PKD
ROOT
HETATM    1  C   UNL     1     -11.163   6.315  66.710  1.00  0.00    -0.022 C  
HETATM    2  O   UNL     1     -10.845   7.045  67.899  1.00  0.00    -0.218 OA 
ENDROOT
BRANCH   2   3
HETATM    3  C   UNL     1     -10.652   8.376  67.783  1.00  0.00    -0.171 C  
HETATM    4  O   UNL     1     -11.501   9.182  67.431  1.00  0.00     0.639 OA 
BRANCH   3   5
HETATM    5  C   UNL     1      -9.238   8.735  68.094  1.00  0.00    -0.145 C  
HETATM    6  C   UNL     1      -8.399   9.022  67.068  1.00  0.00    -0.116 C  
HETATM    7  C   UNL     1      -8.696   8.874  65.592  1.00  0.00    -0.213 C  
HETATM    8  N   UNL     1      -7.130   9.495  67.333  1.00  0.00    -0.085 NA 
HETATM    9  C   UNL     1      -6.570   9.630  68.586  1.00  0.00    -0.051 C  
HETATM   10  C   UNL     1      -5.136  10.111  68.591  1.00  0.00    -0.035 C  
HETATM   11  C   UNL     1      -7.302   9.343  69.692  1.00  0.00    -0.077 C  
HETATM   12  C   UNL     1      -8.780   8.921  69.564  1.00  0.00    -0.142 C  
BRANCH  11  13
HETATM   13  C   UNL     1      -6.618   9.346  71.016  1.00  0.00    -0.081 C  
HETATM   14  O   UNL     1      -5.399   9.419  71.139  1.00  0.00    -0.040 OA 
BRANCH  13  15
HETATM   15  O   UNL     1      -7.471   9.200  72.059  1.00  0.00    -0.336 OA 
BRANCH  15  16
HETATM   16  C   UNL     1      -6.930   8.437  73.164  1.00  0.00    -0.076 C  
HETATM   17  C   UNL     1      -6.368   7.129  72.629  1.00  0.00    -0.052 C  
HETATM   18  C   UNL     1      -8.023   8.179  74.198  1.00  0.00    -0.305 C  
ENDBRANCH  15  16
ENDBRANCH  13  15
ENDBRANCH  11  13
BRANCH  12  19
HETATM   19  C   UNL     1      -9.109   7.724  70.439  1.00  0.00    -0.155 A  
HETATM   20  C   UNL     1     -10.190   7.700  71.361  1.00  0.00    -0.185 A  
HETATM   21  C   UNL     1      -8.392   6.499  70.382  1.00  0.00    -0.127 A  
HETATM   22  N   UNL     1     -11.076   8.660  71.656  1.00  0.00    -0.281 NA 
HETATM   23  O   UNL     1     -11.925   8.117  72.603  1.00  0.00    -0.381 OA 
HETATM   24  C   UNL     1      -8.713   5.361  71.169  1.00  0.00    -0.135 A  
HETATM   25  C   UNL     1      -9.783   5.330  72.081  1.00  0.00    -0.202 A  
HETATM   26  C   UNL     1     -10.517   6.526  72.159  1.00  0.00    -0.205 A  
HETATM   27  N   UNL     1     -11.587   6.813  72.912  1.00  0.00    -0.073 NA 
ENDBRANCH  12  19
ENDBRANCH   3   5
ENDBRANCH   2   3
TORSDOF 6
ENDMDL
MODEL      210
REMARK 921   NORMALIZED FREE ENERGY PREDICTED BY IDOCK:   -0.37 KCAL/MOL
REMARK 922        TOTAL FREE ENERGY PREDICTED BY IDOCK:   -1.95 KCAL/MOL
REMARK 923 INTER-LIGAND FREE ENERGY PREDICTED BY IDOCK:   -2.81 KCAL/MOL
REMARK 924 INTRA-LIGAND FREE ENERGY PREDICTED BY IDOCK:    0.86 KCAL/MOL
REMARK 927      BINDING AFFINITY PREDICTED BY RF-SCORE:    0.00 PKD
ROOT
HETATM    1  C   UNL     1     -12.082  13.224  68.700  1.00  0.00    -0.222 C  
HETATM    2  O   UNL     1     -10.743  12.876  69.065  1.00  0.00    -0.195 OA 
ENDROOT
BRANCH   2   3
HETATM    3  C   UNL     1      -9.755  13.721  68.698  1.00  0.00    -0.140 C  
HETATM    4  O   UNL     1      -9.706  14.909  68.979  1.00  0.00    -0.216 OA 
BRANCH   3   5
HETATM    5  C   UNL     1      -8.746  13.020  67.853  1.00  0.00    -0.189 C  
HETATM    6  C   UNL     1      -7.474  12.915  68.311  1.00  0.00    -0.125 C  
HETATM    7  C   UNL     1      -6.904  13.572  69.549  1.00  0.00     0.048 C  
HETATM    8  N   UNL     1      -6.558  12.150  67.618  1.00  0.00    -0.101 NA 
HETATM    9  C   UNL     1      -6.785  11.526  66.410  1.00  0.00     0.057 C  
HETATM   10  C   UNL     1      -5.587  10.804  65.835  1.00  0.00    -0.141 C  
HETATM   11  C   UNL     1      -8.013  11.586  65.834  1.00  0.00     0.267 C  
HETATM   12  C   UNL     1      -9.178  12.300  66.549  1.00  0.00    -0.219 C  
BRANCH  11  13
HETATM   13  C   UNL     1      -8.178  11.038  64.458  1.00  0.00     0.325 C  
HETATM   14  O   UNL     1      -8.829  11.605  63.586  1.00  0.00     0.201 OA 
BRANCH  13  15
HETATM   15  O   UNL     1      -7.590   9.828  64.290  1.00  0.00    -0.123 OA 
BRANCH  15  16
HETATM   16  C   UNL     1      -8.514   8.761  63.968  1.00  0.00    -0.107 C  
HETATM   17  C   UNL     1      -8.804   7.964  65.231  1.00  0.00     0.036 C  
HETATM   18  C   UNL     1      -7.914   7.869  62.885  1.00  0.00    -0.145 C  
ENDBRANCH  15  16
ENDBRANCH  13  15
ENDBRANCH  11  13
BRANCH  12  19
HETATM   19  C   UNL     1      -9.957  13.202  65.608  1.00  0.00    -0.237 A  
HETATM   20  C   UNL     1     -11.048  12.753  64.815  1.00  0.00    -0.302 A  
HETATM   21  C   UNL     1      -9.695  14.591  65.468  1.00  0.00    -0.232 A  
HETATM   22  N   UNL     1     -11.576  11.526  64.715  1.00  0.00    -0.099 NA 
HETATM   23  O   UNL     1     -12.627  11.635  63.822  1.00  0.00    -0.344 OA 
HETATM   24  C   UNL     1     -10.440  15.451  64.618  1.00  0.00    -0.010 A  
HETATM   25  C   UNL     1     -11.522  15.014  63.833  1.00  0.00     0.448 A  
HETATM   26  C   UNL     1     -11.811  13.643  63.952  1.00  0.00    -0.374 A  
HETATM   27  N   UNL     1     -12.774  12.929  63.355  1.00  0.00    -0.671 NA 
ENDBRANCH  12  19
ENDBRANCH   3   5
ENDBRANCH   2   3
TORSDOF 6
ENDMDL
MODEL      211
REMARK 921   NORMALIZED FREE ENERGY PREDICTED BY IDOCK:    0.14 KCAL/MOL
REMARK 922        TOTAL FREE ENERGY PREDICTED BY IDOCK:   -1.26 KCAL/MOL
REMARK 923 INTER-LIGAND FREE ENERGY PREDICTED BY IDOCK:   -3.30 KCAL/MOL
REMARK 924 INTRA-LIGAND FREE ENERGY PREDICTED BY IDOCK:    2.04 KCAL/MOL
REMARK 927      BINDING AFFINITY PREDICTED BY RF-SCORE:    0.00 PKD
ROOT
HETATM    1  C   UNL     1      -5.795  18.471  66.279  1.00  0.00    -0.160 C  
HETATM    2  O   UNL     1      -7.026  18.208  66.959  1.00  0.00    -0.187 OA 
ENDROOT
BRANCH   2   3
HETATM    3  C   UNL     1      -7.012  17.285  67.944  1.00  0.00    -0.166 C  
HETATM    4  O   UNL     1      -6.095  17.114  68.734  1.00  0.00    -0.148 OA 
BRANCH   3   5
HETATM    5  C   UNL     1      -8.252  16.457  67.912  1.00  0.00    -0.170 C  
HETATM    6  C   UNL     1      -9.429  17.036  68.257  1.00  0.00    -0.265 C  
HETATM    7  C   UNL     1      -9.620  18.423  68.829  1.00  0.00    -0.345 C  
HETATM    8  N   UNL     1     -10.608  16.335  68.099  1.00  0.00    -0.294 NA 
HETATM    9  C   UNL     1     -10.712  15.022  67.692  1.00  0.00    -0.274 C  
HETATM   10  C   UNL     1     -12.123  14.476  67.666  1.00  0.00    -0.266 C  
HETATM   11  C   UNL     1      -9.598  14.326  67.350  1.00  0.00    -0.214 C  
HETATM   12  C   UNL     1      -8.216  15.011  67.354  1.00  0.00    -0.215 C  
BRANCH  11  13
HETATM   13  C   UNL     1      -9.730  12.868  67.070  1.00  0.00    -0.230 C  
HETATM   14  O   UNL     1     -10.554  12.152  67.630  1.00  0.00    -0.204 OA 
BRANCH  13  15
HETATM   15  O   UNL     1      -8.813  12.408  66.184  1.00  0.00    -0.056 OA 
BRANCH  15  16
HETATM   16  C   UNL     1      -8.843  10.974  65.994  1.00  0.00    -0.191 C  
HETATM   17  C   UNL     1      -7.925  10.612  64.836  1.00  0.00     0.012 C  
HETATM   18  C   UNL     1     -10.274  10.520  65.717  1.00  0.00    -0.310 C  
ENDBRANCH  15  16
ENDBRANCH  13  15
ENDBRANCH  11  13
BRANCH  12  19
HETATM   19  C   UNL     1      -7.156  14.149  68.018  1.00  0.00    -0.148 A  
HETATM   20  C   UNL     1      -6.892  14.169  69.415  1.00  0.00    -0.104 A  
HETATM   21  C   UNL     1      -6.363  13.208  67.310  1.00  0.00     0.091 A  
HETATM   22  N   UNL     1      -7.459  14.909  70.376  1.00  0.00     0.385 NA 
HETATM   23  O   UNL     1      -6.851  14.530  71.559  1.00  0.00     0.762 OA 
HETATM   24  C   UNL     1      -5.395  12.371  67.926  1.00  0.00    -0.083 A  
HETATM   25  C   UNL     1      -5.130  12.384  69.307  1.00  0.00    -0.068 A  
HETATM   26  C   UNL     1      -5.903  13.302  70.040  1.00  0.00    -0.136 A  
HETATM   27  N   UNL     1      -5.900  13.546  71.357  1.00  0.00    -0.320 NA 
ENDBRANCH  12  19
ENDBRANCH   3   5
ENDBRANCH   2   3
TORSDOF 6
ENDMDL
MODEL      212
REMARK 921   NORMALIZED FREE ENERGY PREDICTED BY IDOCK:    0.40 KCAL/MOL
REMARK 922        TOTAL FREE ENERGY PREDICTED BY IDOCK:   -0.91 KCAL/MOL
REMARK 923 INTER-LIGAND FREE ENERGY PREDICTED BY IDOCK:   -1.88 KCAL/MOL
REMARK 924 INTRA-LIGAND FREE ENERGY PREDICTED BY IDOCK:    0.97 KCAL/MOL
REMARK 927      BINDING AFFINITY PREDICTED BY RF-SCORE:    0.00 PKD
ROOT
HETATM    1  C   UNL     1     -13.276  14.530  69.306  1.00  0.00     1.704 C  
HETATM    2  O   UNL     1     -12.437  15.687  69.219  1.00  0.00    -0.149 OA 
ENDROOT
BRANCH   2   3
HETATM    3  C   UNL     1     -11.105  15.504  69.340  1.00  0.00    -0.291 C  
HETATM    4  O   UNL     1     -10.308  16.359  69.696  1.00  0.00    -0.279 OA 
BRANCH   3   5
HETATM    5  C   UNL     1     -10.720  14.123  68.930  1.00  0.00    -0.270 C  
HETATM    6  C   UNL     1     -11.102  13.082  69.711  1.00  0.00     0.174 C  
HETATM    7  C   UNL     1     -11.766  13.168  71.068  1.00  0.00     0.611 C  
HETATM    8  N   UNL     1     -10.885  11.788  69.282  1.00  0.00    -0.182 NA 
HETATM    9  C   UNL     1     -10.213  11.426  68.134  1.00  0.00    -0.187 C  
HETATM   10  C   UNL     1     -10.058   9.935  67.933  1.00  0.00    -0.210 C  
HETATM   11  C   UNL     1      -9.754  12.382  67.286  1.00  0.00    -0.201 C  
HETATM   12  C   UNL     1     -10.029  13.873  67.564  1.00  0.00    -0.240 C  
BRANCH  11  13
HETATM   13  C   UNL     1      -8.896  11.961  66.141  1.00  0.00    -0.063 C  
HETATM   14  O   UNL     1      -7.756  11.529  66.283  1.00  0.00    -0.069 OA 
BRANCH  13  15
HETATM   15  O   UNL     1      -9.479  12.161  64.934  1.00  0.00    -0.051 OA 
BRANCH  15  16
HETATM   16  C   UNL     1     -10.326  11.070  64.499  1.00  0.00    -0.354 C  
HETATM   17  C   UNL     1      -9.559  10.224  63.494  1.00  0.00    -0.321 C  
HETATM   18  C   UNL     1     -11.606  11.626  63.880  1.00  0.00    -0.403 C  
ENDBRANCH  15  16
ENDBRANCH  13  15
ENDBRANCH  11  13
BRANCH  12  19
HETATM   19  C   UNL     1      -8.789  14.727  67.367  1.00  0.00    -0.203 A  
HETATM   20  C   UNL     1      -7.602  14.575  68.133  1.00  0.00    -0.125 A  
HETATM   21  C   UNL     1      -8.685  15.728  66.364  1.00  0.00    -0.372 A  
HETATM   22  N   UNL     1      -7.341  13.725  69.135  1.00  0.00    -0.039 NA 
HETATM   23  O   UNL     1      -6.037  13.979  69.521  1.00  0.00    -0.096 OA 
HETATM   24  C   UNL     1      -7.518  16.507  66.146  1.00  0.00     0.083 A  
HETATM   25  C   UNL     1      -6.339  16.360  66.899  1.00  0.00    -0.109 A  
HETATM   26  C   UNL     1      -6.406  15.373  67.899  1.00  0.00    -0.153 A  
HETATM   27  N   UNL     1      -5.463  14.985  68.766  1.00  0.00    -0.085 NA 
ENDBRANCH  12  19
ENDBRANCH   3   5
ENDBRANCH   2   3
TORSDOF 6
ENDMDL
MODEL      213
REMARK 921   NORMALIZED FREE ENERGY PREDICTED BY IDOCK:    0.69 KCAL/MOL
REMARK 922        TOTAL FREE ENERGY PREDICTED BY IDOCK:   -0.52 KCAL/MOL
REMARK 923 INTER-LIGAND FREE ENERGY PREDICTED BY IDOCK:    0.07 KCAL/MOL
REMARK 924 INTRA-LIGAND FREE ENERGY PREDICTED BY IDOCK:   -0.59 KCAL/MOL
REMARK 927      BINDING AFFINITY PREDICTED BY RF-SCORE:    0.00 PKD
ROOT
HETATM    1  C   UNL     1      -6.519  17.623  70.866  1.00  0.00     1.823 C  
HETATM    2  O   UNL     1      -7.809  17.766  70.264  1.00  0.00     1.924 OA 
ENDROOT
BRANCH   2   3
HETATM    3  C   UNL     1      -7.884  17.687  68.918  1.00  0.00    -0.186 C  
HETATM    4  O   UNL     1      -8.340  18.554  68.187  1.00  0.00    -0.279 OA 
BRANCH   3   5
HETATM    5  C   UNL     1      -7.379  16.369  68.435  1.00  0.00    -0.168 C  
HETATM    6  C   UNL     1      -6.224  16.336  67.725  1.00  0.00    -0.135 C  
HETATM    7  C   UNL     1      -5.439  17.527  67.222  1.00  0.00    -0.155 C  
HETATM    8  N   UNL     1      -5.661  15.121  67.391  1.00  0.00    -0.332 NA 
HETATM    9  C   UNL     1      -6.218  13.884  67.638  1.00  0.00    -0.095 C  
HETATM   10  C   UNL     1      -5.422  12.713  67.107  1.00  0.00     0.074 C  
HETATM   11  C   UNL     1      -7.391  13.790  68.315  1.00  0.00    -0.118 C  
HETATM   12  C   UNL     1      -8.081  15.055  68.865  1.00  0.00    -0.176 C  
BRANCH  11  13
HETATM   13  C   UNL     1      -8.042  12.453  68.424  1.00  0.00    -0.143 C  
HETATM   14  O   UNL     1      -8.016  11.778  69.448  1.00  0.00     0.226 OA 
BRANCH  13  15
HETATM   15  O   UNL     1      -8.608  12.038  67.264  1.00  0.00    -0.162 OA 
BRANCH  15  16
HETATM   16  C   UNL     1      -9.931  11.473  67.422  1.00  0.00    -0.190 C  
HETATM   17  C   UNL     1      -9.818  10.163  68.186  1.00  0.00    -0.164 C  
HETATM   18  C   UNL     1     -10.564  11.251  66.051  1.00  0.00    -0.314 C  
ENDBRANCH  15  16
ENDBRANCH  13  15
ENDBRANCH  11  13
BRANCH  12  19
HETATM   19  C   UNL     1      -9.572  15.062  68.576  1.00  0.00    -0.210 A  
HETATM   20  C   UNL     1     -10.565  15.172  69.586  1.00  0.00    -0.263 A  
HETATM   21  C   UNL     1     -10.110  15.006  67.263  1.00  0.00    -0.235 A  
HETATM   22  N   UNL     1     -10.420  15.265  70.914  1.00  0.00     0.011 NA 
HETATM   23  O   UNL     1     -11.698  15.365  71.432  1.00  0.00    -0.322 OA 
HETATM   24  C   UNL     1     -11.501  15.048  66.979  1.00  0.00    -0.288 A  
HETATM   25  C   UNL     1     -12.489  15.159  67.973  1.00  0.00     0.626 A  
HETATM   26  C   UNL     1     -11.990  15.222  69.286  1.00  0.00    -0.299 A  
HETATM   27  N   UNL     1     -12.660  15.341  70.439  1.00  0.00    -0.380 NA 
ENDBRANCH  12  19
ENDBRANCH   3   5
ENDBRANCH   2   3
TORSDOF 6
ENDMDL
MODEL      214
REMARK 921   NORMALIZED FREE ENERGY PREDICTED BY IDOCK:    0.84 KCAL/MOL
REMARK 922        TOTAL FREE ENERGY PREDICTED BY IDOCK:   -0.32 KCAL/MOL
REMARK 923 INTER-LIGAND FREE ENERGY PREDICTED BY IDOCK:   -1.36 KCAL/MOL
REMARK 924 INTRA-LIGAND FREE ENERGY PREDICTED BY IDOCK:    1.03 KCAL/MOL
REMARK 927      BINDING AFFINITY PREDICTED BY RF-SCORE:    0.00 PKD
ROOT
HETATM    1  C   UNL     1      -5.125  13.583  67.183  1.00  0.00     0.640 C  
HETATM    2  O   UNL     1      -6.534  13.748  67.373  1.00  0.00    -0.292 OA 
ENDROOT
BRANCH   2   3
HETATM    3  C   UNL     1      -7.070  13.276  68.519  1.00  0.00    -0.105 C  
HETATM    4  O   UNL     1      -6.435  12.813  69.454  1.00  0.00    -0.111 OA 
BRANCH   3   5
HETATM    5  C   UNL     1      -8.560  13.343  68.474  1.00  0.00    -0.074 C  
HETATM    6  C   UNL     1      -9.252  12.228  68.134  1.00  0.00    -0.197 C  
HETATM    7  C   UNL     1      -8.671  10.922  67.638  1.00  0.00    -0.127 C  
HETATM    8  N   UNL     1     -10.629  12.222  68.224  1.00  0.00    -0.219 NA 
HETATM    9  C   UNL     1     -11.415  13.306  68.553  1.00  0.00    -0.312 C  
HETATM   10  C   UNL     1     -12.904  13.044  68.514  1.00  0.00     1.597 C  
HETATM   11  C   UNL     1     -10.837  14.490  68.882  1.00  0.00    -0.262 C  
HETATM   12  C   UNL     1      -9.302  14.619  68.950  1.00  0.00    -0.160 C  
BRANCH  11  13
HETATM   13  C   UNL     1     -11.716  15.678  69.076  1.00  0.00    -0.395 C  
HETATM   14  O   UNL     1     -11.700  16.651  68.328  1.00  0.00    -0.024 OA 
BRANCH  13  15
HETATM   15  O   UNL     1     -12.485  15.599  70.189  1.00  0.00    -0.389 OA 
BRANCH  15  16
HETATM   16  C   UNL     1     -11.849  16.111  71.385  1.00  0.00    -0.430 C  
HETATM   17  C   UNL     1     -10.407  15.628  71.420  1.00  0.00     0.998 C  
HETATM   18  C   UNL     1     -12.613  15.637  72.619  1.00  0.00    -0.532 C  
ENDBRANCH  15  16
ENDBRANCH  13  15
ENDBRANCH  11  13
BRANCH  12  19
HETATM   19  C   UNL     1      -8.807  15.880  68.264  1.00  0.00    -0.179 A  
HETATM   20  C   UNL     1      -7.872  16.776  68.850  1.00  0.00    -0.244 A  
HETATM   21  C   UNL     1      -9.196  16.255  66.950  1.00  0.00    -0.237 A  
HETATM   22  N   UNL     1      -7.284  16.723  70.052  1.00  0.00     0.635 NA 
HETATM   23  O   UNL     1      -6.452  17.826  70.119  1.00  0.00     0.032 OA 
HETATM   24  C   UNL     1      -8.711  17.412  66.285  1.00  0.00    -0.242 A  
HETATM   25  C   UNL     1      -7.785  18.302  66.859  1.00  0.00    -0.242 A  
HETATM   26  C   UNL     1      -7.374  17.957  68.158  1.00  0.00    -0.241 A  
HETATM   27  N   UNL     1      -6.504  18.581  68.962  1.00  0.00    -0.245 NA 
ENDBRANCH  12  19
ENDBRANCH   3   5
ENDBRANCH   2   3
TORSDOF 6
ENDMDL
MODEL      215
REMARK 921   NORMALIZED FREE ENERGY PREDICTED BY IDOCK:    1.22 KCAL/MOL
REMARK 922        TOTAL FREE ENERGY PREDICTED BY IDOCK:    0.19 KCAL/MOL
REMARK 923 INTER-LIGAND FREE ENERGY PREDICTED BY IDOCK:   -3.28 KCAL/MOL
REMARK 924 INTRA-LIGAND FREE ENERGY PREDICTED BY IDOCK:    3.48 KCAL/MOL
REMARK 927      BINDING AFFINITY PREDICTED BY RF-SCORE:    0.00 PKD
ROOT
HETATM    1  C   UNL     1      -9.583  15.100  70.405  1.00  0.00     0.615 C  
HETATM    2  O   UNL     1      -9.023  15.750  69.260  1.00  0.00    -0.243 OA 
ENDROOT
BRANCH   2   3
HETATM    3  C   UNL     1      -9.713  16.781  68.726  1.00  0.00    -0.261 C  
HETATM    4  O   UNL     1      -9.879  17.867  69.261  1.00  0.00    -0.194 OA 
BRANCH   3   5
HETATM    5  C   UNL     1     -10.298  16.401  67.407  1.00  0.00    -0.295 C  
HETATM    6  C   UNL     1     -10.544  17.378  66.500  1.00  0.00    -0.184 C  
HETATM    7  C   UNL     1     -10.429  18.870  66.726  1.00  0.00    -0.497 C  
HETATM    8  N   UNL     1     -10.948  17.041  65.224  1.00  0.00    -0.416 NA 
HETATM    9  C   UNL     1     -11.225  15.765  64.781  1.00  0.00    -0.366 C  
HETATM   10  C   UNL     1     -11.715  15.682  63.353  1.00  0.00     1.875 C  
HETATM   11  C   UNL     1     -11.047  14.705  65.610  1.00  0.00    -0.338 C  
HETATM   12  C   UNL     1     -10.480  14.908  67.030  1.00  0.00    -0.272 C  
BRANCH  11  13
HETATM   13  C   UNL     1     -11.507  13.363  65.153  1.00  0.00    -0.296 C  
HETATM   14  O   UNL     1     -12.349  12.703  65.755  1.00  0.00    -0.594 OA 
BRANCH  13  15
HETATM   15  O   UNL     1     -10.858  12.923  64.047  1.00  0.00    -0.387 OA 
BRANCH  15  16
HETATM   16  C   UNL     1      -9.922  11.848  64.299  1.00  0.00    -0.246 C  
HETATM   17  C   UNL     1     -10.136  10.757  63.261  1.00  0.00    -0.314 C  
HETATM   18  C   UNL     1     -10.127  11.306  65.711  1.00  0.00    -0.294 C  
ENDBRANCH  15  16
ENDBRANCH  13  15
ENDBRANCH  11  13
BRANCH  12  19
HETATM   19  C   UNL     1     -11.261  14.128  68.072  1.00  0.00    -0.302 A  
HETATM   20  C   UNL     1     -10.891  12.831  68.520  1.00  0.00    -0.253 A  
HETATM   21  C   UNL     1     -12.409  14.644  68.732  1.00  0.00    -0.041 A  
HETATM   22  N   UNL     1      -9.865  12.060  68.137  1.00  0.00    -0.196 NA 
HETATM   23  O   UNL     1      -9.951  10.905  68.894  1.00  0.00    -0.189 OA 
HETATM   24  C   UNL     1     -13.126  13.937  69.734  1.00  0.00     0.786 A  
HETATM   25  C   UNL     1     -12.764  12.655  70.183  1.00  0.00     0.183 A  
HETATM   26  C   UNL     1     -11.627  12.116  69.554  1.00  0.00    -0.315 A  
HETATM   27  N   UNL     1     -11.027  10.938  69.762  1.00  0.00    -0.250 NA 
ENDBRANCH  12  19
ENDBRANCH   3   5
ENDBRANCH   2   3
TORSDOF 6
ENDMDL
MODEL      216
REMARK 921   NORMALIZED FREE ENERGY PREDICTED BY IDOCK:    1.56 KCAL/MOL
REMARK 922        TOTAL FREE ENERGY PREDICTED BY IDOCK:    0.65 KCAL/MOL
REMARK 923 INTER-LIGAND FREE ENERGY PREDICTED BY IDOCK:   -0.80 KCAL/MOL
REMARK 924 INTRA-LIGAND FREE ENERGY PREDICTED BY IDOCK:    1.45 KCAL/MOL
REMARK 927      BINDING AFFINITY PREDICTED BY RF-SCORE:    0.00 PKD
ROOT
HETATM    1  C   UNL     1      -5.829  10.646  65.764  1.00  0.00    -0.138 C  
HETATM    2  O   UNL     1      -6.960  11.500  65.567  1.00  0.00     0.561 OA 
ENDROOT
BRANCH   2   3
HETATM    3  C   UNL     1      -8.186  10.969  65.764  1.00  0.00    -0.064 C  
HETATM    4  O   UNL     1      -9.083  10.944  64.934  1.00  0.00    -0.197 OA 
BRANCH   3   5
HETATM    5  C   UNL     1      -8.325  10.458  67.159  1.00  0.00    -0.126 C  
HETATM    6  C   UNL     1      -8.389  11.353  68.176  1.00  0.00    -0.149 C  
HETATM    7  C   UNL     1      -8.185  12.849  68.076  1.00  0.00    -0.168 C  
HETATM    8  N   UNL     1      -8.661  10.916  69.456  1.00  0.00     0.108 NA 
HETATM    9  C   UNL     1      -8.792   9.599  69.842  1.00  0.00    -0.221 C  
HETATM   10  C   UNL     1      -9.023   9.392  71.323  1.00  0.00     0.081 C  
HETATM   11  C   UNL     1      -8.714   8.608  68.918  1.00  0.00    -0.131 C  
HETATM   12  C   UNL     1      -8.539   8.945  67.423  1.00  0.00    -0.119 C  
BRANCH  11  13
HETATM   13  C   UNL     1      -8.700   7.195  69.391  1.00  0.00    -0.134 C  
HETATM   14  O   UNL     1      -7.738   6.448  69.239  1.00  0.00    -0.097 OA 
BRANCH  13  15
HETATM   15  O   UNL     1      -9.873   6.806  69.948  1.00  0.00    -0.164 OA 
BRANCH  15  16
HETATM   16  C   UNL     1     -10.765   6.127  69.033  1.00  0.00    -0.312 C  
HETATM   17  C   UNL     1      -9.936   5.411  67.978  1.00  0.00    -0.199 C  
HETATM   18  C   UNL     1     -11.711   7.138  68.389  1.00  0.00     1.010 C  
ENDBRANCH  15  16
ENDBRANCH  13  15
ENDBRANCH  11  13
BRANCH  12  19
HETATM   19  C   UNL     1      -7.482   8.077  66.763  1.00  0.00    -0.090 A  
HETATM   20  C   UNL     1      -7.574   7.611  65.424  1.00  0.00    -0.094 A  
HETATM   21  C   UNL     1      -6.279   7.688  67.411  1.00  0.00    -0.053 A  
HETATM   22  N   UNL     1      -8.547   7.803  64.523  1.00  0.00     0.121 NA 
HETATM   23  O   UNL     1      -8.136   7.153  63.373  1.00  0.00    -0.103 OA 
HETATM   24  C   UNL     1      -5.268   6.906  66.792  1.00  0.00    -0.017 A  
HETATM   25  C   UNL     1      -5.352   6.445  65.466  1.00  0.00    -0.014 A  
HETATM   26  C   UNL     1      -6.529   6.817  64.793  1.00  0.00    -0.042 A  
HETATM   27  N   UNL     1      -6.902   6.550  63.535  1.00  0.00    -0.047 NA 
ENDBRANCH  12  19
ENDBRANCH   3   5
ENDBRANCH   2   3
TORSDOF 6
ENDMDL
MODEL      217
REMARK 921   NORMALIZED FREE ENERGY PREDICTED BY IDOCK:    2.68 KCAL/MOL
REMARK 922        TOTAL FREE ENERGY PREDICTED BY IDOCK:    2.16 KCAL/MOL
REMARK 923 INTER-LIGAND FREE ENERGY PREDICTED BY IDOCK:    1.94 KCAL/MOL
REMARK 924 INTRA-LIGAND FREE ENERGY PREDICTED BY IDOCK:    0.22 KCAL/MOL
REMARK 927      BINDING AFFINITY PREDICTED BY RF-SCORE:    0.00 PKD
ROOT
HETATM    1  C   UNL     1      -5.726  17.897  72.881  1.00  0.00     3.608 C  
HETATM    2  O   UNL     1      -6.516  17.616  71.721  1.00  0.00     2.742 OA 
ENDROOT
BRANCH   2   3
HETATM    3  C   UNL     1      -5.868  17.222  70.604  1.00  0.00     0.209 C  
HETATM    4  O   UNL     1      -5.143  16.241  70.520  1.00  0.00    -0.165 OA 
BRANCH   3   5
HETATM    5  C   UNL     1      -6.114  18.177  69.485  1.00  0.00    -0.248 C  
HETATM    6  C   UNL     1      -5.704  19.462  69.625  1.00  0.00    -0.238 C  
HETATM    7  C   UNL     1      -5.141  20.098  70.877  1.00  0.00    -0.268 C  
HETATM    8  N   UNL     1      -5.788  20.328  68.553  1.00  0.00    -0.252 NA 
HETATM    9  C   UNL     1      -6.350  20.036  67.329  1.00  0.00    -0.197 C  
HETATM   10  C   UNL     1      -6.372  21.189  66.350  1.00  0.00    -0.312 C  
HETATM   11  C   UNL     1      -6.826  18.789  67.079  1.00  0.00    -0.211 C  
HETATM   12  C   UNL     1      -6.690  17.674  68.136  1.00  0.00    -0.205 C  
BRANCH  11  13
HETATM   13  C   UNL     1      -7.569  18.555  65.808  1.00  0.00    -0.038 C  
HETATM   14  O   UNL     1      -7.016  18.473  64.716  1.00  0.00    -0.058 OA 
BRANCH  13  15
HETATM   15  O   UNL     1      -8.913  18.503  65.976  1.00  0.00    -0.491 OA 
BRANCH  15  16
HETATM   16  C   UNL     1      -9.532  19.793  66.194  1.00  0.00    -0.383 C  
HETATM   17  C   UNL     1     -10.167  19.806  67.576  1.00  0.00    -0.572 C  
HETATM   18  C   UNL     1     -10.575  20.053  65.111  1.00  0.00     0.243 C  
ENDBRANCH  15  16
ENDBRANCH  13  15
ENDBRANCH  11  13
BRANCH  12  19
HETATM   19  C   UNL     1      -7.978  16.887  68.302  1.00  0.00    -0.211 A  
HETATM   20  C   UNL     1      -8.192  15.604  67.728  1.00  0.00    -0.145 A  
HETATM   21  C   UNL     1      -9.071  17.341  69.087  1.00  0.00     0.008 A  
HETATM   22  N   UNL     1      -7.378  14.871  66.957  1.00  0.00    -0.091 NA 
HETATM   23  O   UNL     1      -8.061  13.700  66.685  1.00  0.00     0.170 OA 
HETATM   24  C   UNL     1     -10.266  16.597  69.278  1.00  0.00    -0.291 A  
HETATM   25  C   UNL     1     -10.483  15.326  68.716  1.00  0.00    -0.237 A  
HETATM   26  C   UNL     1      -9.417  14.844  67.936  1.00  0.00    -0.200 A  
HETATM   27  N   UNL     1      -9.307  13.680  67.284  1.00  0.00    -0.224 NA 
ENDBRANCH  12  19
ENDBRANCH   3   5
ENDBRANCH   2   3
TORSDOF 6
ENDMDL
MODEL      218
REMARK 921   NORMALIZED FREE ENERGY PREDICTED BY IDOCK:    2.81 KCAL/MOL
REMARK 922        TOTAL FREE ENERGY PREDICTED BY IDOCK:    2.35 KCAL/MOL
REMARK 923 INTER-LIGAND FREE ENERGY PREDICTED BY IDOCK:   -2.48 KCAL/MOL
REMARK 924 INTRA-LIGAND FREE ENERGY PREDICTED BY IDOCK:    4.82 KCAL/MOL
REMARK 927      BINDING AFFINITY PREDICTED BY RF-SCORE:    0.00 PKD
ROOT
HETATM    1  C   UNL     1     -10.328   9.882  66.015  1.00  0.00    -0.132 C  
HETATM    2  O   UNL     1     -10.159  11.088  66.767  1.00  0.00    -0.206 OA 
ENDROOT
BRANCH   2   3
HETATM    3  C   UNL     1      -9.185  11.938  66.376  1.00  0.00    -0.215 C  
HETATM    4  O   UNL     1      -7.989  11.764  66.551  1.00  0.00    -0.119 OA 
BRANCH   3   5
HETATM    5  C   UNL     1      -9.769  13.156  65.742  1.00  0.00    -0.151 C  
HETATM    6  C   UNL     1     -10.409  13.027  64.553  1.00  0.00    -0.364 C  
HETATM    7  C   UNL     1     -10.477  11.782  63.696  1.00  0.00    -0.490 C  
HETATM    8  N   UNL     1     -11.080  14.107  64.016  1.00  0.00     0.052 NA 
HETATM    9  C   UNL     1     -11.095  15.382  64.540  1.00  0.00    -0.256 C  
HETATM   10  C   UNL     1     -11.856  16.397  63.716  1.00  0.00     1.504 C  
HETATM   11  C   UNL     1     -10.462  15.643  65.712  1.00  0.00    -0.383 C  
HETATM   12  C   UNL     1      -9.771  14.510  66.498  1.00  0.00    -0.301 C  
BRANCH  11  13
HETATM   13  C   UNL     1     -10.364  17.060  66.165  1.00  0.00    -0.319 C  
HETATM   14  O   UNL     1     -10.619  18.014  65.437  1.00  0.00    -0.648 OA 
BRANCH  13  15
HETATM   15  O   UNL     1      -9.909  17.185  67.436  1.00  0.00    -0.253 OA 
BRANCH  15  16
HETATM   16  C   UNL     1      -9.898  18.546  67.928  1.00  0.00    -0.325 C  
HETATM   17  C   UNL     1      -8.460  19.038  67.981  1.00  0.00    -0.336 C  
HETATM   18  C   UNL     1     -10.544  18.599  69.311  1.00  0.00     0.609 C  
ENDBRANCH  15  16
ENDBRANCH  13  15
ENDBRANCH  11  13
BRANCH  12  19
HETATM   19  C   UNL     1      -8.392  14.915  66.987  1.00  0.00    -0.246 A  
HETATM   20  C   UNL     1      -7.638  15.975  66.416  1.00  0.00     0.085 A  
HETATM   21  C   UNL     1      -7.748  14.299  68.093  1.00  0.00    -0.141 A  
HETATM   22  N   UNL     1      -7.943  16.777  65.388  1.00  0.00     0.822 NA 
HETATM   23  O   UNL     1      -6.877  17.647  65.252  1.00  0.00    -0.135 OA 
HETATM   24  C   UNL     1      -6.474  14.693  68.582  1.00  0.00    -0.085 A  
HETATM   25  C   UNL     1      -5.724  15.744  68.023  1.00  0.00    -0.141 A  
HETATM   26  C   UNL     1      -6.336  16.379  66.929  1.00  0.00    -0.074 A  
HETATM   27  N   UNL     1      -5.893  17.407  66.194  1.00  0.00    -0.227 NA 
ENDBRANCH  12  19
ENDBRANCH   3   5
ENDBRANCH   2   3
TORSDOF 6
ENDMDL
MODEL      219
REMARK 921   NORMALIZED FREE ENERGY PREDICTED BY IDOCK:    6.92 KCAL/MOL
REMARK 922        TOTAL FREE ENERGY PREDICTED BY IDOCK:    7.90 KCAL/MOL
REMARK 923 INTER-LIGAND FREE ENERGY PREDICTED BY IDOCK:    3.25 KCAL/MOL
REMARK 924 INTRA-LIGAND FREE ENERGY PREDICTED BY IDOCK:    4.65 KCAL/MOL
REMARK 927      BINDING AFFINITY PREDICTED BY RF-SCORE:    0.00 PKD
ROOT
HETATM    1  C   UNL     1     -10.169   8.965  73.929  1.00  0.00     4.390 C  
HETATM    2  O   UNL     1      -9.731   7.790  73.239  1.00  0.00    -0.256 OA 
ENDROOT
BRANCH   2   3
HETATM    3  C   UNL     1      -9.870   7.766  71.895  1.00  0.00    -0.170 C  
HETATM    4  O   UNL     1     -10.866   8.123  71.285  1.00  0.00    -0.229 OA 
BRANCH   3   5
HETATM    5  C   UNL     1      -8.655   7.191  71.248  1.00  0.00    -0.124 C  
HETATM    6  C   UNL     1      -7.757   6.532  72.021  1.00  0.00    -0.098 C  
HETATM    7  C   UNL     1      -7.766   6.432  73.530  1.00  0.00    -0.093 C  
HETATM    8  N   UNL     1      -6.701   5.868  71.428  1.00  0.00    -0.056 NA 
HETATM    9  C   UNL     1      -6.401   5.879  70.083  1.00  0.00    -0.031 C  
HETATM   10  C   UNL     1      -5.147   5.121  69.707  1.00  0.00     0.000 C  
HETATM   11  C   UNL     1      -7.210   6.533  69.211  1.00  0.00    -0.090 C  
HETATM   12  C   UNL     1      -8.501   7.219  69.705  1.00  0.00    -0.136 C  
BRANCH  11  13
HETATM   13  C   UNL     1      -6.771   6.658  67.792  1.00  0.00    -0.071 C  
HETATM   14  O   UNL     1      -7.101   7.593  67.070  1.00  0.00    -0.080 OA 
BRANCH  13  15
HETATM   15  O   UNL     1      -6.025   5.608  67.369  1.00  0.00    -0.017 OA 
BRANCH  15  16
HETATM   16  C   UNL     1      -5.901   5.514  65.930  1.00  0.00    -0.018 C  
HETATM   17  C   UNL     1      -6.124   6.891  65.326  1.00  0.00    -0.036 C  
HETATM   18  C   UNL     1      -6.916   4.510  65.389  1.00  0.00    -0.062 C  
ENDBRANCH  15  16
ENDBRANCH  13  15
ENDBRANCH  11  13
BRANCH  12  19
HETATM   19  C   UNL     1      -8.665   8.611  69.121  1.00  0.00    -0.136 A  
HETATM   20  C   UNL     1      -9.890   9.100  68.593  1.00  0.00    -0.164 A  
HETATM   21  C   UNL     1      -7.618   9.571  69.094  1.00  0.00    -0.075 A  
HETATM   22  N   UNL     1     -11.073   8.483  68.481  1.00  0.00     0.226 NA 
HETATM   23  O   UNL     1     -11.934   9.407  67.916  1.00  0.00     1.472 OA 
HETATM   24  C   UNL     1      -7.770  10.887  68.583  1.00  0.00    -0.122 A  
HETATM   25  C   UNL     1      -8.980  11.378  68.061  1.00  0.00    -0.163 A  
HETATM   26  C   UNL     1     -10.040  10.454  68.079  1.00  0.00    -0.163 A  
HETATM   27  N   UNL     1     -11.305  10.613  67.670  1.00  0.00    -0.448 NA 
ENDBRANCH  12  19
ENDBRANCH   3   5
ENDBRANCH   2   3
TORSDOF 6
ENDMDL
MODEL      220
REMARK 921   NORMALIZED FREE ENERGY PREDICTED BY IDOCK:    7.86 KCAL/MOL
REMARK 922        TOTAL FREE ENERGY PREDICTED BY IDOCK:    9.16 KCAL/MOL
REMARK 923 INTER-LIGAND FREE ENERGY PREDICTED BY IDOCK:    6.40 KCAL/MOL
REMARK 924 INTRA-LIGAND FREE ENERGY PREDICTED BY IDOCK:    2.76 KCAL/MOL
REMARK 927      BINDING AFFINITY PREDICTED BY RF-SCORE:    0.00 PKD
ROOT
HETATM    1  C   UNL     1     -12.312  10.849  70.171  1.00  0.00    -0.322 C  
HETATM    2  O   UNL     1     -11.129  10.044  70.131  1.00  0.00    -0.265 OA 
ENDROOT
BRANCH   2   3
HETATM    3  C   UNL     1      -9.944  10.679  70.012  1.00  0.00     0.308 C  
HETATM    4  O   UNL     1      -9.580  11.623  70.697  1.00  0.00     3.618 OA 
BRANCH   3   5
HETATM    5  C   UNL     1      -9.147  10.107  68.888  1.00  0.00    -0.165 C  
HETATM    6  C   UNL     1      -8.622  10.953  67.967  1.00  0.00    -0.131 C  
HETATM    7  C   UNL     1      -8.877  12.440  67.858  1.00  0.00    -0.180 C  
HETATM    8  N   UNL     1      -7.764  10.466  67.002  1.00  0.00    -0.103 NA 
HETATM    9  C   UNL     1      -7.439   9.139  66.813  1.00  0.00    -0.087 C  
HETATM   10  C   UNL     1      -6.525   8.871  65.638  1.00  0.00    -0.063 C  
HETATM   11  C   UNL     1      -7.930   8.193  67.653  1.00  0.00    -0.122 C  
HETATM   12  C   UNL     1      -8.804   8.595  68.859  1.00  0.00    -0.138 C  
BRANCH  11  13
HETATM   13  C   UNL     1      -7.690   6.759  67.325  1.00  0.00    -0.109 C  
HETATM   14  O   UNL     1      -7.259   5.950  68.141  1.00  0.00    -0.075 OA 
BRANCH  13  15
HETATM   15  O   UNL     1      -7.936   6.459  66.026  1.00  0.00    -0.106 OA 
BRANCH  15  16
HETATM   16  C   UNL     1      -6.776   5.993  65.297  1.00  0.00    -0.044 C  
HETATM   17  C   UNL     1      -7.199   4.860  64.374  1.00  0.00    -0.055 C  
HETATM   18  C   UNL     1      -5.704   5.526  66.278  1.00  0.00    -0.017 C  
ENDBRANCH  15  16
ENDBRANCH  13  15
ENDBRANCH  11  13
BRANCH  12  19
HETATM   19  C   UNL     1     -10.031   7.710  68.993  1.00  0.00    -0.181 A  
HETATM   20  C   UNL     1     -10.562   7.290  70.243  1.00  0.00    -0.229 A  
HETATM   21  C   UNL     1     -10.790   7.259  67.880  1.00  0.00    -0.184 A  
HETATM   22  N   UNL     1     -10.121   7.545  71.481  1.00  0.00    -0.181 NA 
HETATM   23  O   UNL     1     -11.006   6.916  72.338  1.00  0.00    -0.228 OA 
HETATM   24  C   UNL     1     -11.959   6.461  67.996  1.00  0.00     2.118 A  
HETATM   25  C   UNL     1     -12.491   6.044  69.229  1.00  0.00     3.994 A  
HETATM   26  C   UNL     1     -11.766   6.479  70.353  1.00  0.00    -0.375 A  
HETATM   27  N   UNL     1     -12.014   6.265  71.651  1.00  0.00    -0.276 NA 
ENDBRANCH  12  19
ENDBRANCH   3   5
ENDBRANCH   2   3
TORSDOF 6
ENDMDL
MODEL      221
REMARK 921   NORMALIZED FREE ENERGY PREDICTED BY IDOCK:    8.32 KCAL/MOL
REMARK 922        TOTAL FREE ENERGY PREDICTED BY IDOCK:    9.78 KCAL/MOL
REMARK 923 INTER-LIGAND FREE ENERGY PREDICTED BY IDOCK:   10.29 KCAL/MOL
REMARK 924 INTRA-LIGAND FREE ENERGY PREDICTED BY IDOCK:   -0.51 KCAL/MOL
REMARK 927      BINDING AFFINITY PREDICTED BY RF-SCORE:    0.00 PKD
ROOT
HETATM    1  C   UNL     1      -6.359  18.209  71.293  1.00  0.00     1.922 C  
HETATM    2  O   UNL     1      -7.501  19.001  70.954  1.00  0.00     1.949 OA 
ENDROOT
BRANCH   2   3
HETATM    3  C   UNL     1      -7.559  19.513  69.705  1.00  0.00     0.234 C  
HETATM    4  O   UNL     1      -7.968  20.629  69.421  1.00  0.00     0.888 OA 
BRANCH   3   5
HETATM    5  C   UNL     1      -7.102  18.510  68.700  1.00  0.00    -0.298 C  
HETATM    6  C   UNL     1      -6.076  18.836  67.875  1.00  0.00    -0.191 C  
HETATM    7  C   UNL     1      -5.415  20.191  67.750  1.00  0.00    -0.207 C  
HETATM    8  N   UNL     1      -5.541  17.879  67.037  1.00  0.00    -0.133 NA 
HETATM    9  C   UNL     1      -6.016  16.595  66.880  1.00  0.00    -0.117 C  
HETATM   10  C   UNL     1      -5.284  15.770  65.845  1.00  0.00     4.045 C  
HETATM   11  C   UNL     1      -7.062  16.160  67.628  1.00  0.00    -0.170 C  
HETATM   12  C   UNL     1      -7.690  17.074  68.701  1.00  0.00    -0.251 C  
BRANCH  11  13
HETATM   13  C   UNL     1      -7.650  14.826  67.320  1.00  0.00    -0.165 C  
HETATM   14  O   UNL     1      -7.692  13.909  68.134  1.00  0.00    -0.117 OA 
BRANCH  13  15
HETATM   15  O   UNL     1      -8.074  14.712  66.037  1.00  0.00     0.996 OA 
BRANCH  15  16
HETATM   16  C   UNL     1      -9.388  14.121  65.899  1.00  0.00    -0.001 C  
HETATM   17  C   UNL     1      -9.263  12.824  65.114  1.00  0.00     0.618 C  
HETATM   18  C   UNL     1     -10.322  15.099  65.192  1.00  0.00    -0.416 C  
ENDBRANCH  15  16
ENDBRANCH  13  15
ENDBRANCH  11  13
BRANCH  12  19
HETATM   19  C   UNL     1      -9.207  17.058  68.646  1.00  0.00    -0.266 A  
HETATM   20  C   UNL     1     -10.010  16.174  69.415  1.00  0.00    -0.243 A  
HETATM   21  C   UNL     1      -9.966  17.961  67.853  1.00  0.00    -0.329 A  
HETATM   22  N   UNL     1      -9.636  15.219  70.277  1.00  0.00     0.166 NA 
HETATM   23  O   UNL     1     -10.806  14.665  70.765  1.00  0.00     0.032 OA 
HETATM   24  C   UNL     1     -11.385  17.979  67.822  1.00  0.00     0.555 A  
HETATM   25  C   UNL     1     -12.186  17.108  68.583  1.00  0.00     2.392 A  
HETATM   26  C   UNL     1     -11.466  16.204  69.383  1.00  0.00    -0.296 A  
HETATM   27  N   UNL     1     -11.926  15.267  70.221  1.00  0.00    -0.304 NA 
ENDBRANCH  12  19
ENDBRANCH   3   5
ENDBRANCH   2   3
TORSDOF 6
ENDMDL
MODEL      222
REMARK 921   NORMALIZED FREE ENERGY PREDICTED BY IDOCK:   10.53 KCAL/MOL
REMARK 922        TOTAL FREE ENERGY PREDICTED BY IDOCK:   12.77 KCAL/MOL
REMARK 923 INTER-LIGAND FREE ENERGY PREDICTED BY IDOCK:    9.81 KCAL/MOL
REMARK 924 INTRA-LIGAND FREE ENERGY PREDICTED BY IDOCK:    2.96 KCAL/MOL
REMARK 927      BINDING AFFINITY PREDICTED BY RF-SCORE:    0.00 PKD
ROOT
HETATM    1  C   UNL     1      -6.301  18.341  73.645  1.00  0.00     7.881 C  
HETATM    2  O   UNL     1      -6.802  17.800  72.419  1.00  0.00     5.167 OA 
ENDROOT
BRANCH   2   3
HETATM    3  C   UNL     1      -5.900  17.377  71.507  1.00  0.00     1.194 C  
HETATM    4  O   UNL     1      -5.135  16.437  71.659  1.00  0.00    -0.288 OA 
BRANCH   3   5
HETATM    5  C   UNL     1      -5.923  18.249  70.297  1.00  0.00    -0.073 C  
HETATM    6  C   UNL     1      -5.697  19.578  70.448  1.00  0.00    -0.253 C  
HETATM    7  C   UNL     1      -5.567  20.328  71.756  1.00  0.00    -0.378 C  
HETATM    8  N   UNL     1      -5.570  20.382  69.333  1.00  0.00    -0.293 NA 
HETATM    9  C   UNL     1      -5.742  19.975  68.028  1.00  0.00    -0.205 C  
HETATM   10  C   UNL     1      -5.610  21.075  66.998  1.00  0.00    -0.293 C  
HETATM   11  C   UNL     1      -6.004  18.672  67.751  1.00  0.00    -0.188 C  
HETATM   12  C   UNL     1      -6.053  17.625  68.883  1.00  0.00    -0.197 C  
BRANCH  11  13
HETATM   13  C   UNL     1      -6.341  18.299  66.348  1.00  0.00    -0.194 C  
HETATM   14  O   UNL     1      -7.053  17.340  66.063  1.00  0.00    -0.267 OA 
BRANCH  13  15
HETATM   15  O   UNL     1      -5.736  19.086  65.425  1.00  0.00    -0.163 OA 
BRANCH  15  16
HETATM   16  C   UNL     1      -6.634  19.616  64.420  1.00  0.00     0.244 C  
HETATM   17  C   UNL     1      -5.872  20.608  63.555  1.00  0.00    -0.316 C  
HETATM   18  C   UNL     1      -7.827  20.286  65.097  1.00  0.00     0.523 C  
ENDBRANCH  15  16
ENDBRANCH  13  15
ENDBRANCH  11  13
BRANCH  12  19
HETATM   19  C   UNL     1      -7.251  16.702  68.754  1.00  0.00    -0.206 A  
HETATM   20  C   UNL     1      -8.595  17.163  68.709  1.00  0.00    -0.236 A  
HETATM   21  C   UNL     1      -7.136  15.293  68.618  1.00  0.00    -0.116 A  
HETATM   22  N   UNL     1      -9.066  18.414  68.786  1.00  0.00    -0.287 NA 
HETATM   23  O   UNL     1     -10.441  18.312  68.674  1.00  0.00    -0.322 OA 
HETATM   24  C   UNL     1      -8.248  14.423  68.460  1.00  0.00    -0.151 A  
HETATM   25  C   UNL     1      -9.580  14.873  68.412  1.00  0.00    -0.209 A  
HETATM   26  C   UNL     1      -9.729  16.266  68.539  1.00  0.00    -0.224 A  
HETATM   27  N   UNL     1     -10.849  17.000  68.521  1.00  0.00    -0.342 NA 
ENDBRANCH  12  19
ENDBRANCH   3   5
ENDBRANCH   2   3
TORSDOF 6
ENDMDL
MODEL      223
REMARK 921   NORMALIZED FREE ENERGY PREDICTED BY IDOCK:   11.05 KCAL/MOL
REMARK 922        TOTAL FREE ENERGY PREDICTED BY IDOCK:   13.47 KCAL/MOL
REMARK 923 INTER-LIGAND FREE ENERGY PREDICTED BY IDOCK:   11.18 KCAL/MOL
REMARK 924 INTRA-LIGAND FREE ENERGY PREDICTED BY IDOCK:    2.29 KCAL/MOL
REMARK 927      BINDING AFFINITY PREDICTED BY RF-SCORE:    0.00 PKD
ROOT
HETATM    1  C   UNL     1      -6.299  18.342  73.644  1.00  0.00     7.881 C  
HETATM    2  O   UNL     1      -6.804  17.797  72.421  1.00  0.00     5.167 OA 
ENDROOT
BRANCH   2   3
HETATM    3  C   UNL     1      -5.906  17.376  71.505  1.00  0.00     1.194 C  
HETATM    4  O   UNL     1      -5.140  16.435  71.653  1.00  0.00    -0.288 OA 
BRANCH   3   5
HETATM    5  C   UNL     1      -5.932  18.250  70.297  1.00  0.00    -0.073 C  
HETATM    6  C   UNL     1      -5.706  19.578  70.450  1.00  0.00    -0.253 C  
HETATM    7  C   UNL     1      -5.572  20.326  71.758  1.00  0.00    -0.378 C  
HETATM    8  N   UNL     1      -5.583  20.384  69.336  1.00  0.00    -0.293 NA 
HETATM    9  C   UNL     1      -5.759  19.980  68.030  1.00  0.00    -0.205 C  
HETATM   10  C   UNL     1      -5.630  21.082  67.002  1.00  0.00    -0.293 C  
HETATM   11  C   UNL     1      -6.021  18.677  67.752  1.00  0.00    -0.188 C  
HETATM   12  C   UNL     1      -6.066  17.629  68.882  1.00  0.00    -0.197 C  
BRANCH  11  13
HETATM   13  C   UNL     1      -6.363  18.307  66.349  1.00  0.00    -0.194 C  
HETATM   14  O   UNL     1      -7.076  17.349  66.065  1.00  0.00    -0.283 OA 
BRANCH  13  15
HETATM   15  O   UNL     1      -5.760  19.095  65.426  1.00  0.00    -0.159 OA 
BRANCH  15  16
HETATM   16  C   UNL     1      -6.610  19.457  64.312  1.00  0.00     0.581 C  
HETATM   17  C   UNL     1      -5.751  20.070  63.216  1.00  0.00    -0.307 C  
HETATM   18  C   UNL     1      -7.681  20.440  64.779  1.00  0.00     0.901 C  
ENDBRANCH  15  16
ENDBRANCH  13  15
ENDBRANCH  11  13
BRANCH  12  19
HETATM   19  C   UNL     1      -7.265  16.705  68.755  1.00  0.00    -0.206 A  
HETATM   20  C   UNL     1      -7.161  15.289  68.706  1.00  0.00    -0.127 A  
HETATM   21  C   UNL     1      -8.606  17.172  68.721  1.00  0.00    -0.236 A  
HETATM   22  N   UNL     1      -6.068  14.515  68.737  1.00  0.00    -0.085 NA 
HETATM   23  O   UNL     1      -6.523  13.210  68.678  1.00  0.00    -0.075 OA 
HETATM   24  C   UNL     1      -9.736  16.316  68.639  1.00  0.00    -0.235 A  
HETATM   25  C   UNL     1      -9.641  14.914  68.593  1.00  0.00    -0.222 A  
HETATM   26  C   UNL     1      -8.326  14.417  68.630  1.00  0.00    -0.147 A  
HETATM   27  N   UNL     1      -7.902  13.147  68.614  1.00  0.00    -0.100 NA 
ENDBRANCH  12  19
ENDBRANCH   3   5
ENDBRANCH   2   3
TORSDOF 6
ENDMDL
MODEL      224
REMARK 921   NORMALIZED FREE ENERGY PREDICTED BY IDOCK:   11.63 KCAL/MOL
REMARK 922        TOTAL FREE ENERGY PREDICTED BY IDOCK:   14.26 KCAL/MOL
REMARK 923 INTER-LIGAND FREE ENERGY PREDICTED BY IDOCK:   11.99 KCAL/MOL
REMARK 924 INTRA-LIGAND FREE ENERGY PREDICTED BY IDOCK:    2.27 KCAL/MOL
REMARK 927      BINDING AFFINITY PREDICTED BY RF-SCORE:    0.00 PKD
ROOT
HETATM    1  C   UNL     1     -11.623  10.206  69.876  1.00  0.00    -0.223 C  
HETATM    2  O   UNL     1     -10.610   9.224  70.116  1.00  0.00    -0.206 OA 
ENDROOT
BRANCH   2   3
HETATM    3  C   UNL     1      -9.362   9.665  70.384  1.00  0.00    -0.211 C  
HETATM    4  O   UNL     1      -9.070  10.451  71.273  1.00  0.00     1.727 OA 
BRANCH   3   5
HETATM    5  C   UNL     1      -8.382   9.102  69.411  1.00  0.00    -0.124 C  
HETATM    6  C   UNL     1      -7.359   9.888  68.991  1.00  0.00    -0.080 C  
HETATM    7  C   UNL     1      -7.170  11.359  69.288  1.00  0.00    -0.075 C  
HETATM    8  N   UNL     1      -6.360   9.348  68.206  1.00  0.00    -0.053 NA 
HETATM    9  C   UNL     1      -6.337   8.063  67.709  1.00  0.00    -0.052 C  
HETATM   10  C   UNL     1      -5.155   7.748  66.818  1.00  0.00    -0.024 C  
HETATM   11  C   UNL     1      -7.325   7.191  68.034  1.00  0.00    -0.097 C  
HETATM   12  C   UNL     1      -8.448   7.607  69.006  1.00  0.00    -0.132 C  
BRANCH  11  13
HETATM   13  C   UNL     1      -7.353   5.865  67.353  1.00  0.00    -0.077 C  
HETATM   14  O   UNL     1      -7.513   5.737  66.143  1.00  0.00    -0.080 OA 
BRANCH  13  15
HETATM   15  O   UNL     1      -7.245   4.821  68.211  1.00  0.00    -0.063 OA 
BRANCH  15  16
HETATM   16  C   UNL     1      -8.409   3.962  68.247  1.00  0.00    -0.091 C  
HETATM   17  C   UNL     1      -8.105   2.757  69.123  1.00  0.00    -0.069 C  
HETATM   18  C   UNL     1      -8.773   3.528  66.829  1.00  0.00    -0.124 C  
ENDBRANCH  15  16
ENDBRANCH  13  15
ENDBRANCH  11  13
BRANCH  12  19
HETATM   19  C   UNL     1      -9.819   7.193  68.502  1.00  0.00    -0.155 A  
HETATM   20  C   UNL     1     -10.870   6.758  69.355  1.00  0.00    -0.271 A  
HETATM   21  C   UNL     1     -10.194   7.248  67.133  1.00  0.00    -0.339 A  
HETATM   22  N   UNL     1     -10.876   6.608  70.686  1.00  0.00    -0.239 NA 
HETATM   23  O   UNL     1     -12.148   6.178  71.015  1.00  0.00    -0.091 OA 
HETATM   24  C   UNL     1     -11.485   6.898  66.655  1.00  0.00     1.037 A  
HETATM   25  C   UNL     1     -12.529   6.470  67.494  1.00  0.00     5.844 A  
HETATM   26  C   UNL     1     -12.193   6.409  68.857  1.00  0.00     2.411 A  
HETATM   27  N   UNL     1     -12.956   6.056  69.900  1.00  0.00     3.848 NA 
ENDBRANCH  12  19
ENDBRANCH   3   5
ENDBRANCH   2   3
TORSDOF 6
ENDMDL
MODEL      225
REMARK 921   NORMALIZED FREE ENERGY PREDICTED BY IDOCK:   14.82 KCAL/MOL
REMARK 922        TOTAL FREE ENERGY PREDICTED BY IDOCK:   18.56 KCAL/MOL
REMARK 923 INTER-LIGAND FREE ENERGY PREDICTED BY IDOCK:   -2.73 KCAL/MOL
REMARK 924 INTRA-LIGAND FREE ENERGY PREDICTED BY IDOCK:   21.29 KCAL/MOL
REMARK 927      BINDING AFFINITY PREDICTED BY RF-SCORE:    0.00 PKD
ROOT
HETATM    1  C   UNL     1     -13.085  14.448  70.291  1.00  0.00     0.049 C  
HETATM    2  O   UNL     1     -11.714  14.591  69.909  1.00  0.00    -0.267 OA 
ENDROOT
BRANCH   2   3
HETATM    3  C   UNL     1     -11.197  13.665  69.074  1.00  0.00    -0.273 C  
HETATM    4  O   UNL     1     -11.817  12.728  68.593  1.00  0.00    -0.304 OA 
BRANCH   3   5
HETATM    5  C   UNL     1      -9.741  13.904  68.853  1.00  0.00    -0.013 C  
HETATM    6  C   UNL     1      -9.207  15.082  69.261  1.00  0.00    -0.159 C  
HETATM    7  C   UNL     1      -9.962  16.277  69.799  1.00  0.00    -0.052 C  
HETATM    8  N   UNL     1      -7.841  15.271  69.200  1.00  0.00    -0.188 NA 
HETATM    9  C   UNL     1      -6.932  14.385  68.662  1.00  0.00    -0.102 C  
HETATM   10  C   UNL     1      -5.499  14.869  68.661  1.00  0.00    -0.093 C  
HETATM   11  C   UNL     1      -7.352  13.183  68.190  1.00  0.00    -0.119 C  
HETATM   12  C   UNL     1      -8.834  12.773  68.304  1.00  0.00    -0.168 C  
BRANCH  11  13
HETATM   13  C   UNL     1      -6.370  12.321  67.473  1.00  0.00    -0.139 C  
HETATM   14  O   UNL     1      -5.249  12.704  67.156  1.00  0.00    -0.310 OA 
BRANCH  13  15
HETATM   15  O   UNL     1      -6.864  11.098  67.156  1.00  0.00    -0.091 OA 
BRANCH  15  16
HETATM   16  C   UNL     1      -7.666  10.496  68.200  1.00  0.00    -0.096 C  
HETATM   17  C   UNL     1      -7.633   8.985  68.035  1.00  0.00    -0.092 C  
HETATM   18  C   UNL     1      -9.096  11.023  68.120  1.00  0.00    -0.155 C  
ENDBRANCH  15  16
ENDBRANCH  13  15
ENDBRANCH  11  13
BRANCH  12  19
HETATM   19  C   UNL     1      -9.359  12.171  67.012  1.00  0.00    -0.201 A  
HETATM   20  C   UNL     1      -9.533  12.916  65.814  1.00  0.00     0.013 A  
HETATM   21  C   UNL     1      -9.679  10.795  66.869  1.00  0.00    -0.209 A  
HETATM   22  N   UNL     1      -9.312  14.217  65.583  1.00  0.00     0.053 NA 
HETATM   23  O   UNL     1      -9.624  14.427  64.252  1.00  0.00     0.838 OA 
HETATM   24  C   UNL     1     -10.136  10.214  65.656  1.00  0.00    -0.324 A  
HETATM   25  C   UNL     1     -10.308  10.945  64.467  1.00  0.00    -0.417 A  
HETATM   26  C   UNL     1      -9.995  12.312  64.572  1.00  0.00    -0.191 A  
HETATM   27  N   UNL     1     -10.041  13.264  63.631  1.00  0.00     0.282 NA 
ENDBRANCH  12  19
ENDBRANCH   3   5
ENDBRANCH   2   3
TORSDOF 6
ENDMDL
MODEL      226
REMARK 921   NORMALIZED FREE ENERGY PREDICTED BY IDOCK:   17.80 KCAL/MOL
REMARK 922        TOTAL FREE ENERGY PREDICTED BY IDOCK:   22.59 KCAL/MOL
REMARK 923 INTER-LIGAND FREE ENERGY PREDICTED BY IDOCK:   12.84 KCAL/MOL
REMARK 924 INTRA-LIGAND FREE ENERGY PREDICTED BY IDOCK:    9.75 KCAL/MOL
REMARK 927      BINDING AFFINITY PREDICTED BY RF-SCORE:    0.00 PKD
ROOT
HETATM    1  C   UNL     1      -8.047  14.991  66.067  1.00  0.00     1.504 C  
HETATM    2  O   UNL     1      -7.278  14.812  67.260  1.00  0.00    -0.192 OA 
ENDROOT
BRANCH   2   3
HETATM    3  C   UNL     1      -7.757  15.354  68.401  1.00  0.00    -0.120 C  
HETATM    4  O   UNL     1      -7.182  16.196  69.074  1.00  0.00    -0.169 OA 
BRANCH   3   5
HETATM    5  C   UNL     1      -9.069  14.747  68.765  1.00  0.00    -0.191 C  
HETATM    6  C   UNL     1      -9.402  14.656  70.077  1.00  0.00     0.727 C  
HETATM    7  C   UNL     1      -8.511  14.973  71.258  1.00  0.00     3.505 C  
HETATM    8  N   UNL     1     -10.666  14.233  70.435  1.00  0.00     0.386 NA 
HETATM    9  C   UNL     1     -11.639  13.789  69.565  1.00  0.00    -0.297 C  
HETATM   10  C   UNL     1     -12.915  13.319  70.227  1.00  0.00     0.242 C  
HETATM   11  C   UNL     1     -11.412  13.802  68.227  1.00  0.00    -0.348 C  
HETATM   12  C   UNL     1     -10.091  14.365  67.663  1.00  0.00    -0.222 C  
BRANCH  11  13
HETATM   13  C   UNL     1     -12.420  13.168  67.330  1.00  0.00     0.249 C  
HETATM   14  O   UNL     1     -12.842  13.708  66.312  1.00  0.00    -0.262 OA 
BRANCH  13  15
HETATM   15  O   UNL     1     -12.863  11.971  67.785  1.00  0.00     1.276 OA 
BRANCH  15  16
HETATM   16  C   UNL     1     -11.819  10.985  67.968  1.00  0.00    -0.072 C  
HETATM   17  C   UNL     1     -12.359   9.618  67.576  1.00  0.00     5.678 C  
HETATM   18  C   UNL     1     -11.353  10.992  69.422  1.00  0.00    -0.352 C  
ENDBRANCH  15  16
ENDBRANCH  13  15
ENDBRANCH  11  13
BRANCH  12  19
HETATM   19  C   UNL     1      -9.497  13.464  66.595  1.00  0.00    -0.264 A  
HETATM   20  C   UNL     1      -8.742  12.296  66.887  1.00  0.00    -0.197 A  
HETATM   21  C   UNL     1      -9.683  13.680  65.203  1.00  0.00     0.016 A  
HETATM   22  N   UNL     1      -8.396  11.783  68.074  1.00  0.00    -0.146 NA 
HETATM   23  O   UNL     1      -7.680  10.632  67.799  1.00  0.00    -0.098 OA 
HETATM   24  C   UNL     1      -9.162  12.823  64.197  1.00  0.00     1.262 A  
HETATM   25  C   UNL     1      -8.417  11.664  64.479  1.00  0.00     0.956 A  
HETATM   26  C   UNL     1      -8.219  11.418  65.849  1.00  0.00     0.086 A  
HETATM   27  N   UNL     1      -7.571  10.405  66.440  1.00  0.00    -0.117 NA 
ENDBRANCH  12  19
ENDBRANCH   3   5
ENDBRANCH   2   3
TORSDOF 6
ENDMDL
MODEL      227
REMARK 921   NORMALIZED FREE ENERGY PREDICTED BY IDOCK:   21.49 KCAL/MOL
REMARK 922        TOTAL FREE ENERGY PREDICTED BY IDOCK:   27.57 KCAL/MOL
REMARK 923 INTER-LIGAND FREE ENERGY PREDICTED BY IDOCK:   18.08 KCAL/MOL
REMARK 924 INTRA-LIGAND FREE ENERGY PREDICTED BY IDOCK:    9.49 KCAL/MOL
REMARK 927      BINDING AFFINITY PREDICTED BY RF-SCORE:    0.00 PKD
ROOT
HETATM    1  C   UNL     1     -10.224  10.393  66.289  1.00  0.00    -0.222 C  
HETATM    2  O   UNL     1     -10.597  11.295  67.335  1.00  0.00    -0.202 OA 
ENDROOT
BRANCH   2   3
HETATM    3  C   UNL     1      -9.686  12.212  67.725  1.00  0.00    -0.197 C  
HETATM    4  O   UNL     1      -8.543  11.962  68.076  1.00  0.00    -0.152 OA 
BRANCH   3   5
HETATM    5  C   UNL     1     -10.278  13.581  67.722  1.00  0.00    -0.242 C  
HETATM    6  C   UNL     1     -11.430  13.790  67.038  1.00  0.00    -0.346 C  
HETATM    7  C   UNL     1     -12.131  12.805  66.129  1.00  0.00    -0.429 C  
HETATM    8  N   UNL     1     -12.074  15.007  67.137  1.00  0.00    -0.032 NA 
HETATM    9  C   UNL     1     -11.603  16.110  67.817  1.00  0.00     0.075 C  
HETATM   10  C   UNL     1     -12.476  17.341  67.709  1.00  0.00     3.480 C  
HETATM   11  C   UNL     1     -10.442  16.034  68.514  1.00  0.00    -0.258 C  
HETATM   12  C   UNL     1      -9.669  14.702  68.604  1.00  0.00    -0.220 C  
BRANCH  11  13
HETATM   13  C   UNL     1      -9.884  17.285  69.102  1.00  0.00    -0.174 C  
HETATM   14  O   UNL     1      -8.741  17.365  69.543  1.00  0.00     0.290 OA 
BRANCH  13  15
HETATM   15  O   UNL     1     -10.782  18.298  69.154  1.00  0.00     0.169 OA 
BRANCH  15  16
HETATM   16  C   UNL     1     -10.752  19.174  68.003  1.00  0.00    -0.223 C  
HETATM   17  C   UNL     1     -11.294  20.537  68.407  1.00  0.00     1.781 C  
HETATM   18  C   UNL     1     -11.584  18.570  66.873  1.00  0.00     1.507 C  
ENDBRANCH  15  16
ENDBRANCH  13  15
ENDBRANCH  11  13
BRANCH  12  19
HETATM   19  C   UNL     1      -8.180  14.891  68.371  1.00  0.00    -0.151 A  
HETATM   20  C   UNL     1      -7.611  15.128  67.091  1.00  0.00    -0.168 A  
HETATM   21  C   UNL     1      -7.223  14.896  69.421  1.00  0.00    -0.182 A  
HETATM   22  N   UNL     1      -8.211  15.209  65.896  1.00  0.00     1.080 NA 
HETATM   23  O   UNL     1      -7.206  15.469  64.981  1.00  0.00     6.767 OA 
HETATM   24  C   UNL     1      -5.833  15.108  69.219  1.00  0.00    -0.097 A  
HETATM   25  C   UNL     1      -5.264  15.345  67.955  1.00  0.00    -0.134 A  
HETATM   26  C   UNL     1      -6.185  15.352  66.893  1.00  0.00     0.809 A  
HETATM   27  N   UNL     1      -5.967  15.559  65.588  1.00  0.00     5.554 NA 
ENDBRANCH  12  19
ENDBRANCH   3   5
ENDBRANCH   2   3
TORSDOF 6
ENDMDL
MODEL      228
REMARK 921   NORMALIZED FREE ENERGY PREDICTED BY IDOCK:   22.60 KCAL/MOL
REMARK 922        TOTAL FREE ENERGY PREDICTED BY IDOCK:   29.07 KCAL/MOL
REMARK 923 INTER-LIGAND FREE ENERGY PREDICTED BY IDOCK:   18.31 KCAL/MOL
REMARK 924 INTRA-LIGAND FREE ENERGY PREDICTED BY IDOCK:   10.76 KCAL/MOL
REMARK 927      BINDING AFFINITY PREDICTED BY RF-SCORE:    0.00 PKD
ROOT
HETATM    1  C   UNL     1     -11.082   9.468  69.523  1.00  0.00    -0.142 C  
HETATM    2  O   UNL     1     -10.202   8.347  69.652  1.00  0.00    -0.199 OA 
ENDROOT
BRANCH   2   3
HETATM    3  C   UNL     1      -8.895   8.600  69.873  1.00  0.00    -0.144 C  
HETATM    4  O   UNL     1      -8.453   9.251  70.808  1.00  0.00    -0.197 OA 
BRANCH   3   5
HETATM    5  C   UNL     1      -8.052   8.021  68.787  1.00  0.00    -0.125 C  
HETATM    6  C   UNL     1      -6.908   8.661  68.440  1.00  0.00    -0.065 C  
HETATM    7  C   UNL     1      -6.443  10.012  68.937  1.00  0.00    -0.048 C  
HETATM    8  N   UNL     1      -6.040   8.072  67.542  1.00  0.00    -0.049 NA 
HETATM    9  C   UNL     1      -6.265   6.893  66.865  1.00  0.00    -0.041 C  
HETATM   10  C   UNL     1      -5.177   6.506  65.888  1.00  0.00    -0.017 C  
HETATM   11  C   UNL     1      -7.392   6.176  67.104  1.00  0.00    -0.076 C  
HETATM   12  C   UNL     1      -8.402   6.640  68.174  1.00  0.00    -0.117 C  
BRANCH  11  13
HETATM   13  C   UNL     1      -7.678   4.994  66.242  1.00  0.00    -0.092 C  
HETATM   14  O   UNL     1      -7.879   5.080  65.035  1.00  0.00    -0.085 OA 
BRANCH  13  15
HETATM   15  O   UNL     1      -7.751   3.832  66.935  1.00  0.00    -0.079 OA 
BRANCH  15  16
HETATM   16  C   UNL     1      -7.274   2.677  66.205  1.00  0.00    -0.066 C  
HETATM   17  C   UNL     1      -7.263   1.475  67.137  1.00  0.00    -0.046 C  
HETATM   18  C   UNL     1      -5.877   2.955  65.656  1.00  0.00    -0.019 C  
ENDBRANCH  15  16
ENDBRANCH  13  15
ENDBRANCH  11  13
BRANCH  12  19
HETATM   19  C   UNL     1      -9.835   6.562  67.677  1.00  0.00    -0.146 A  
HETATM   20  C   UNL     1     -10.183   6.243  66.336  1.00  0.00    -0.017 A  
HETATM   21  C   UNL     1     -10.962   6.755  68.519  1.00  0.00    -0.258 A  
HETATM   22  N   UNL     1      -9.387   5.982  65.291  1.00  0.00     0.259 NA 
HETATM   23  O   UNL     1     -10.229   5.718  64.226  1.00  0.00     2.052 OA 
HETATM   24  C   UNL     1     -12.306   6.649  68.073  1.00  0.00     4.316 A  
HETATM   25  C   UNL     1     -12.657   6.331  66.748  1.00  0.00     6.820 A  
HETATM   26  C   UNL     1     -11.564   6.128  65.888  1.00  0.00     2.532 A  
HETATM   27  N   UNL     1     -11.561   5.805  64.589  1.00  0.00     4.363 NA 
ENDBRANCH  12  19
ENDBRANCH   3   5
ENDBRANCH   2   3
TORSDOF 6
ENDMDL
MODEL      229
REMARK 921   NORMALIZED FREE ENERGY PREDICTED BY IDOCK:   26.37 KCAL/MOL
REMARK 922        TOTAL FREE ENERGY PREDICTED BY IDOCK:   34.16 KCAL/MOL
REMARK 923 INTER-LIGAND FREE ENERGY PREDICTED BY IDOCK:   24.24 KCAL/MOL
REMARK 924 INTRA-LIGAND FREE ENERGY PREDICTED BY IDOCK:    9.92 KCAL/MOL
REMARK 927      BINDING AFFINITY PREDICTED BY RF-SCORE:    0.00 PKD
ROOT
HETATM    1  C   UNL     1     -10.228  10.387  66.245  1.00  0.00    -0.222 C  
HETATM    2  O   UNL     1     -10.500  11.502  67.099  1.00  0.00    -0.209 OA 
ENDROOT
BRANCH   2   3
HETATM    3  C   UNL     1      -9.568  12.477  67.171  1.00  0.00    -0.208 C  
HETATM    4  O   UNL     1      -8.500  12.473  66.577  1.00  0.00    -0.070 OA 
BRANCH   3   5
HETATM    5  C   UNL     1      -9.992  13.546  68.121  1.00  0.00    -0.240 C  
HETATM    6  C   UNL     1     -11.257  13.517  68.610  1.00  0.00    -0.278 C  
HETATM    7  C   UNL     1     -12.369  12.585  68.182  1.00  0.00     0.392 C  
HETATM    8  N   UNL     1     -11.629  14.407  69.598  1.00  0.00    -0.277 NA 
HETATM    9  C   UNL     1     -10.844  15.423  70.098  1.00  0.00    -0.309 C  
HETATM   10  C   UNL     1     -11.521  16.297  71.130  1.00  0.00    -0.364 C  
HETATM   11  C   UNL     1      -9.568  15.574  69.662  1.00  0.00    -0.264 C  
HETATM   12  C   UNL     1      -8.964  14.579  68.650  1.00  0.00    -0.181 C  
BRANCH  11  13
HETATM   13  C   UNL     1      -8.804  16.775  70.104  1.00  0.00     1.983 C  
HETATM   14  O   UNL     1      -7.759  17.137  69.572  1.00  0.00     0.049 OA 
BRANCH  13  15
HETATM   15  O   UNL     1      -9.347  17.386  71.185  1.00  0.00     5.127 OA 
BRANCH  15  16
HETATM   16  C   UNL     1     -10.297  18.429  70.860  1.00  0.00     2.617 C  
HETATM   17  C   UNL     1     -10.360  19.414  72.017  1.00  0.00     3.487 C  
HETATM   18  C   UNL     1     -11.668  17.813  70.592  1.00  0.00     4.425 C  
ENDBRANCH  15  16
ENDBRANCH  13  15
ENDBRANCH  11  13
BRANCH  12  19
HETATM   19  C   UNL     1      -8.212  15.285  67.536  1.00  0.00    -0.191 A  
HETATM   20  C   UNL     1      -8.853  15.953  66.458  1.00  0.00    -0.305 A  
HETATM   21  C   UNL     1      -6.795  15.384  67.495  1.00  0.00    -0.223 A  
HETATM   22  N   UNL     1     -10.160  16.080  66.195  1.00  0.00    -0.305 NA 
HETATM   23  O   UNL     1     -10.246  16.835  65.039  1.00  0.00    -0.519 OA 
HETATM   24  C   UNL     1      -6.083  16.073  66.477  1.00  0.00     1.012 A  
HETATM   25  C   UNL     1      -6.712  16.738  65.409  1.00  0.00     2.551 A  
HETATM   26  C   UNL     1      -8.116  16.665  65.423  1.00  0.00     1.975 A  
HETATM   27  N   UNL     1      -8.997  17.195  64.566  1.00  0.00     4.790 NA 
ENDBRANCH  12  19
ENDBRANCH   3   5
ENDBRANCH   2   3
TORSDOF 6
ENDMDL
MODEL      230
REMARK 921   NORMALIZED FREE ENERGY PREDICTED BY IDOCK:   26.68 KCAL/MOL
REMARK 922        TOTAL FREE ENERGY PREDICTED BY IDOCK:   34.59 KCAL/MOL
REMARK 923 INTER-LIGAND FREE ENERGY PREDICTED BY IDOCK:   31.45 KCAL/MOL
REMARK 924 INTRA-LIGAND FREE ENERGY PREDICTED BY IDOCK:    3.14 KCAL/MOL
REMARK 927      BINDING AFFINITY PREDICTED BY RF-SCORE:    0.00 PKD
ROOT
HETATM    1  C   UNL     1      -5.670  17.256  72.909  1.00  0.00     3.329 C  
HETATM    2  O   UNL     1      -6.908  17.924  73.174  1.00  0.00     5.383 OA 
ENDROOT
BRANCH   2   3
HETATM    3  C   UNL     1      -7.328  18.842  72.277  1.00  0.00     5.916 C  
HETATM    4  O   UNL     1      -7.935  19.866  72.551  1.00  0.00     2.103 OA 
BRANCH   3   5
HETATM    5  C   UNL     1      -6.997  18.415  70.887  1.00  0.00     2.596 C  
HETATM    6  C   UNL     1      -6.198  19.212  70.134  1.00  0.00    -0.134 C  
HETATM    7  C   UNL     1      -5.707  20.596  70.496  1.00  0.00    -0.217 C  
HETATM    8  N   UNL     1      -5.760  18.773  68.901  1.00  0.00    -0.203 NA 
HETATM    9  C   UNL     1      -6.136  17.596  68.289  1.00  0.00    -0.165 C  
HETATM   10  C   UNL     1      -5.559  17.389  66.906  1.00  0.00    -0.201 C  
HETATM   11  C   UNL     1      -6.960  16.729  68.931  1.00  0.00    -0.207 C  
HETATM   12  C   UNL     1      -7.435  17.020  70.369  1.00  0.00     2.473 C  
BRANCH  11  13
HETATM   13  C   UNL     1      -7.471  15.548  68.179  1.00  0.00    -0.114 C  
HETATM   14  O   UNL     1      -7.219  14.391  68.499  1.00  0.00    -0.104 OA 
BRANCH  13  15
HETATM   15  O   UNL     1      -8.188  15.884  67.078  1.00  0.00    -0.179 OA 
BRANCH  15  16
HETATM   16  C   UNL     1      -9.486  15.249  67.002  1.00  0.00    -0.223 C  
HETATM   17  C   UNL     1      -9.312  13.837  66.466  1.00  0.00    -0.249 C  
HETATM   18  C   UNL     1     -10.408  16.066  66.099  1.00  0.00    -0.340 C  
ENDBRANCH  15  16
ENDBRANCH  13  15
ENDBRANCH  11  13
BRANCH  12  19
HETATM   19  C   UNL     1      -8.922  16.769  70.539  1.00  0.00     3.271 A  
HETATM   20  C   UNL     1      -9.523  15.489  70.391  1.00  0.00     0.738 A  
HETATM   21  C   UNL     1      -9.845  17.783  70.910  1.00  0.00     3.790 A  
HETATM   22  N   UNL     1      -8.959  14.317  70.072  1.00  0.00     1.159 NA 
HETATM   23  O   UNL     1      -9.982  13.387  70.077  1.00  0.00     1.490 OA 
HETATM   24  C   UNL     1     -11.233  17.552  71.107  1.00  0.00     1.938 A  
HETATM   25  C   UNL     1     -11.833  16.288  70.964  1.00  0.00    -0.246 A  
HETATM   26  C   UNL     1     -10.946  15.259  70.603  1.00  0.00    -0.284 A  
HETATM   27  N   UNL     1     -11.197  13.959  70.403  1.00  0.00     0.125 NA 
ENDBRANCH  12  19
ENDBRANCH   3   5
ENDBRANCH   2   3
TORSDOF 6
ENDMDL
MODEL      231
REMARK 921   NORMALIZED FREE ENERGY PREDICTED BY IDOCK:   28.06 KCAL/MOL
REMARK 922        TOTAL FREE ENERGY PREDICTED BY IDOCK:   36.44 KCAL/MOL
REMARK 923 INTER-LIGAND FREE ENERGY PREDICTED BY IDOCK:    3.20 KCAL/MOL
REMARK 924 INTRA-LIGAND FREE ENERGY PREDICTED BY IDOCK:   33.24 KCAL/MOL
REMARK 927      BINDING AFFINITY PREDICTED BY RF-SCORE:    0.00 PKD
ROOT
HETATM    1  C   UNL     1      -5.588  13.887  66.526  1.00  0.00     3.339 C  
HETATM    2  O   UNL     1      -5.153  15.163  67.005  1.00  0.00    -0.047 OA 
ENDROOT
BRANCH   2   3
HETATM    3  C   UNL     1      -6.033  15.896  67.721  1.00  0.00    -0.147 C  
HETATM    4  O   UNL     1      -5.753  16.891  68.372  1.00  0.00    -0.126 OA 
BRANCH   3   5
HETATM    5  C   UNL     1      -7.398  15.297  67.655  1.00  0.00    -0.201 C  
HETATM    6  C   UNL     1      -7.559  14.115  67.009  1.00  0.00     0.227 C  
HETATM    7  C   UNL     1      -6.515  13.382  66.196  1.00  0.00     4.524 C  
HETATM    8  N   UNL     1      -8.778  13.470  67.057  1.00  0.00    -0.211 NA 
HETATM    9  C   UNL     1      -9.924  13.963  67.644  1.00  0.00    -0.237 C  
HETATM   10  C   UNL     1     -11.143  13.080  67.495  1.00  0.00    -0.297 C  
HETATM   11  C   UNL     1      -9.896  15.154  68.294  1.00  0.00    -0.223 C  
HETATM   12  C   UNL     1      -8.574  15.938  68.436  1.00  0.00    -0.178 C  
BRANCH  11  13
HETATM   13  C   UNL     1     -11.183  15.730  68.776  1.00  0.00    -0.342 C  
HETATM   14  O   UNL     1     -11.348  16.133  69.923  1.00  0.00    -0.325 OA 
BRANCH  13  15
HETATM   15  O   UNL     1     -12.163  15.706  67.840  1.00  0.00     0.200 OA 
BRANCH  15  16
HETATM   16  C   UNL     1     -12.162  14.518  67.013  1.00  0.00    -0.164 C  
HETATM   17  C   UNL     1     -12.120  13.293  67.914  1.00  0.00    -0.270 C  
HETATM   18  C   UNL     1     -10.960  14.545  66.073  1.00  0.00    -0.324 C  
ENDBRANCH  15  16
ENDBRANCH  13  15
ENDBRANCH  11  13
BRANCH  12  19
HETATM   19  C   UNL     1      -8.752  17.414  68.127  1.00  0.00    -0.256 A  
HETATM   20  C   UNL     1      -7.966  18.439  68.720  1.00  0.00    -0.256 A  
HETATM   21  C   UNL     1      -9.690  17.903  67.180  1.00  0.00    -0.289 A  
HETATM   22  N   UNL     1      -6.985  18.339  69.627  1.00  0.00     0.020 NA 
HETATM   23  O   UNL     1      -6.541  19.630  69.852  1.00  0.00    -0.320 OA 
HETATM   24  C   UNL     1      -9.840  19.278  66.857  1.00  0.00    -0.424 A  
HETATM   25  C   UNL     1      -9.064  20.297  67.438  1.00  0.00    -0.483 A  
HETATM   26  C   UNL     1      -8.120  19.846  68.378  1.00  0.00    -0.204 A  
HETATM   27  N   UNL     1      -7.232  20.553  69.089  1.00  0.00     0.214 NA 
ENDBRANCH  12  19
ENDBRANCH   3   5
ENDBRANCH   2   3
TORSDOF 6
ENDMDL
MODEL      232
REMARK 921   NORMALIZED FREE ENERGY PREDICTED BY IDOCK:   28.08 KCAL/MOL
REMARK 922        TOTAL FREE ENERGY PREDICTED BY IDOCK:   36.48 KCAL/MOL
REMARK 923 INTER-LIGAND FREE ENERGY PREDICTED BY IDOCK:   33.84 KCAL/MOL
REMARK 924 INTRA-LIGAND FREE ENERGY PREDICTED BY IDOCK:    2.64 KCAL/MOL
REMARK 927      BINDING AFFINITY PREDICTED BY RF-SCORE:    0.00 PKD
ROOT
HETATM    1  C   UNL     1      -9.658  14.321  71.751  1.00  0.00     6.298 C  
HETATM    2  O   UNL     1      -8.669  14.832  70.853  1.00  0.00     1.800 OA 
ENDROOT
BRANCH   2   3
HETATM    3  C   UNL     1      -9.057  15.775  69.967  1.00  0.00     0.402 C  
HETATM    4  O   UNL     1      -9.924  16.612  70.166  1.00  0.00     0.292 OA 
BRANCH   3   5
HETATM    5  C   UNL     1      -8.317  15.627  68.680  1.00  0.00    -0.177 C  
HETATM    6  C   UNL     1      -7.589  16.677  68.224  1.00  0.00    -0.181 C  
HETATM    7  C   UNL     1      -7.553  18.072  68.809  1.00  0.00    -0.277 C  
HETATM    8  N   UNL     1      -6.783  16.521  67.115  1.00  0.00    -0.180 NA 
HETATM    9  C   UNL     1      -6.704  15.387  66.335  1.00  0.00     2.139 C  
HETATM   10  C   UNL     1      -5.789  15.505  65.136  1.00  0.00    10.957 C  
HETATM   11  C   UNL     1      -7.413  14.279  66.672  1.00  0.00     1.181 C  
HETATM   12  C   UNL     1      -8.264  14.256  67.957  1.00  0.00    -0.153 C  
BRANCH  11  13
HETATM   13  C   UNL     1      -7.428  13.131  65.722  1.00  0.00     4.201 C  
HETATM   14  O   UNL     1      -7.518  13.269  64.506  1.00  0.00     9.051 OA 
BRANCH  13  15
HETATM   15  O   UNL     1      -7.393  11.925  66.340  1.00  0.00     0.083 OA 
BRANCH  15  16
HETATM   16  C   UNL     1      -6.107  11.593  66.917  1.00  0.00    -0.148 C  
HETATM   17  C   UNL     1      -6.331  10.817  68.205  1.00  0.00    -0.057 C  
HETATM   18  C   UNL     1      -5.315  12.872  67.180  1.00  0.00     0.227 C  
ENDBRANCH  15  16
ENDBRANCH  13  15
ENDBRANCH  11  13
BRANCH  12  19
HETATM   19  C   UNL     1      -9.641  13.663  67.717  1.00  0.00    -0.224 A  
HETATM   20  C   UNL     1      -9.953  12.293  67.930  1.00  0.00    -0.202 A  
HETATM   21  C   UNL     1     -10.760  14.435  67.303  1.00  0.00    -0.285 A  
HETATM   22  N   UNL     1      -9.158  11.294  68.336  1.00  0.00    -0.166 NA 
HETATM   23  O   UNL     1      -9.958  10.168  68.394  1.00  0.00    -0.150 OA 
HETATM   24  C   UNL     1     -12.060  13.898  67.110  1.00  0.00    -0.422 A  
HETATM   25  C   UNL     1     -12.375  12.543  67.321  1.00  0.00     0.419 A  
HETATM   26  C   UNL     1     -11.291  11.751  67.738  1.00  0.00    -0.289 A  
HETATM   27  N   UNL     1     -11.263  10.445  68.030  1.00  0.00    -0.298 NA 
ENDBRANCH  12  19
ENDBRANCH   3   5
ENDBRANCH   2   3
TORSDOF 6
ENDMDL
MODEL      233
REMARK 921   NORMALIZED FREE ENERGY PREDICTED BY IDOCK:   31.46 KCAL/MOL
REMARK 922        TOTAL FREE ENERGY PREDICTED BY IDOCK:   41.04 KCAL/MOL
REMARK 923 INTER-LIGAND FREE ENERGY PREDICTED BY IDOCK:   33.73 KCAL/MOL
REMARK 924 INTRA-LIGAND FREE ENERGY PREDICTED BY IDOCK:    7.31 KCAL/MOL
REMARK 927      BINDING AFFINITY PREDICTED BY RF-SCORE:    0.00 PKD
ROOT
HETATM    1  C   UNL     1      -5.841  16.665  71.710  1.00  0.00     1.419 C  
HETATM    2  O   UNL     1      -5.608  16.293  70.348  1.00  0.00    -0.179 OA 
ENDROOT
BRANCH   2   3
HETATM    3  C   UNL     1      -6.488  15.446  69.771  1.00  0.00    -0.171 C  
HETATM    4  O   UNL     1      -6.628  14.269  70.067  1.00  0.00    -0.142 OA 
BRANCH   3   5
HETATM    5  C   UNL     1      -7.241  16.128  68.678  1.00  0.00    -0.160 C  
HETATM    6  C   UNL     1      -6.685  16.184  67.443  1.00  0.00    -0.184 C  
HETATM    7  C   UNL     1      -5.285  15.754  67.063  1.00  0.00     0.445 C  
HETATM    8  N   UNL     1      -7.418  16.680  66.384  1.00  0.00    -0.269 NA 
HETATM    9  C   UNL     1      -8.680  17.228  66.470  1.00  0.00    -0.262 C  
HETATM   10  C   UNL     1      -9.232  17.758  65.165  1.00  0.00     2.340 C  
HETATM   11  C   UNL     1      -9.328  17.258  67.662  1.00  0.00    -0.237 C  
HETATM   12  C   UNL     1      -8.689  16.628  68.916  1.00  0.00    -0.238 C  
BRANCH  11  13
HETATM   13  C   UNL     1     -10.619  17.999  67.750  1.00  0.00    -0.394 C  
HETATM   14  O   UNL     1     -11.275  18.318  66.763  1.00  0.00     0.198 OA 
BRANCH  13  15
HETATM   15  O   UNL     1     -10.957  18.335  69.018  1.00  0.00     0.541 OA 
BRANCH  15  16
HETATM   16  C   UNL     1     -11.310  19.729  69.187  1.00  0.00     2.762 C  
HETATM   17  C   UNL     1     -12.190  20.158  68.022  1.00  0.00     3.687 C  
HETATM   18  C   UNL     1     -10.042  20.577  69.253  1.00  0.00     0.260 C  
ENDBRANCH  15  16
ENDBRANCH  13  15
ENDBRANCH  11  13
BRANCH  12  19
HETATM   19  C   UNL     1      -8.809  17.531  70.131  1.00  0.00     2.537 A  
HETATM   20  C   UNL     1      -7.800  18.452  70.526  1.00  0.00     3.259 A  
HETATM   21  C   UNL     1      -9.963  17.573  70.959  1.00  0.00     3.729 A  
HETATM   22  N   UNL     1      -6.606  18.692  69.970  1.00  0.00     0.040 NA 
HETATM   23  O   UNL     1      -6.024  19.690  70.732  1.00  0.00    -0.241 OA 
HETATM   24  C   UNL     1     -10.100  18.440  72.076  1.00  0.00     5.333 A  
HETATM   25  C   UNL     1      -9.107  19.354  72.470  1.00  0.00     5.259 A  
HETATM   26  C   UNL     1      -7.952  19.343  71.668  1.00  0.00     4.191 A  
HETATM   27  N   UNL     1      -6.846  20.090  71.770  1.00  0.00     0.209 NA 
ENDBRANCH  12  19
ENDBRANCH   3   5
ENDBRANCH   2   3
TORSDOF 6
ENDMDL
MODEL      234
REMARK 921   NORMALIZED FREE ENERGY PREDICTED BY IDOCK:   32.64 KCAL/MOL
REMARK 922        TOTAL FREE ENERGY PREDICTED BY IDOCK:   42.63 KCAL/MOL
REMARK 923 INTER-LIGAND FREE ENERGY PREDICTED BY IDOCK:   20.93 KCAL/MOL
REMARK 924 INTRA-LIGAND FREE ENERGY PREDICTED BY IDOCK:   21.70 KCAL/MOL
REMARK 927      BINDING AFFINITY PREDICTED BY RF-SCORE:    0.00 PKD
ROOT
HETATM    1  C   UNL     1      -7.891  15.156  66.177  1.00  0.00     1.480 C  
HETATM    2  O   UNL     1      -6.966  15.098  67.267  1.00  0.00    -0.191 OA 
ENDROOT
BRANCH   2   3
HETATM    3  C   UNL     1      -7.472  15.116  68.519  1.00  0.00    -0.121 C  
HETATM    4  O   UNL     1      -7.341  14.224  69.344  1.00  0.00    -0.102 OA 
BRANCH   3   5
HETATM    5  C   UNL     1      -8.266  16.358  68.751  1.00  0.00    -0.234 C  
HETATM    6  C   UNL     1      -9.523  16.243  69.247  1.00  0.00    -0.202 C  
HETATM    7  C   UNL     1     -10.294  14.959  69.462  1.00  0.00    -0.168 C  
HETATM    8  N   UNL     1     -10.224  17.377  69.605  1.00  0.00    -0.012 NA 
HETATM    9  C   UNL     1      -9.796  18.675  69.422  1.00  0.00     0.066 C  
HETATM   10  C   UNL     1     -10.789  19.735  69.844  1.00  0.00     1.484 C  
HETATM   11  C   UNL     1      -8.566  18.918  68.903  1.00  0.00    -0.264 C  
HETATM   12  C   UNL     1      -7.613  17.752  68.569  1.00  0.00    -0.276 C  
BRANCH  11  13
HETATM   13  C   UNL     1      -8.201  20.325  68.572  1.00  0.00     0.187 C  
HETATM   14  O   UNL     1      -7.264  20.915  69.100  1.00  0.00     0.594 OA 
BRANCH  13  15
HETATM   15  O   UNL     1      -9.044  20.899  67.678  1.00  0.00    -0.195 OA 
BRANCH  15  16
HETATM   16  C   UNL     1      -9.114  20.211  66.407  1.00  0.00    -0.282 C  
HETATM   17  C   UNL     1     -10.329  20.715  65.642  1.00  0.00     0.435 C  
HETATM   18  C   UNL     1      -9.201  18.705  66.639  1.00  0.00    -0.321 C  
ENDBRANCH  15  16
ENDBRANCH  13  15
ENDBRANCH  11  13
BRANCH  12  19
HETATM   19  C   UNL     1      -6.958  17.924  67.210  1.00  0.00    -0.204 A  
HETATM   20  C   UNL     1      -7.422  17.282  66.030  1.00  0.00    -0.197 A  
HETATM   21  C   UNL     1      -5.848  18.781  66.983  1.00  0.00    -0.163 A  
HETATM   22  N   UNL     1      -8.446  16.433  65.871  1.00  0.00    -0.350 NA 
HETATM   23  O   UNL     1      -8.476  16.119  64.524  1.00  0.00     4.443 OA 
HETATM   24  C   UNL     1      -5.251  18.977  65.710  1.00  0.00    -0.174 A  
HETATM   25  C   UNL     1      -5.707  18.347  64.538  1.00  0.00     0.003 A  
HETATM   26  C   UNL     1      -6.809  17.494  64.726  1.00  0.00     3.175 A  
HETATM   27  N   UNL     1      -7.477  16.767  63.822  1.00  0.00    12.516 NA 
ENDBRANCH  12  19
ENDBRANCH   3   5
ENDBRANCH   2   3
TORSDOF 6
ENDMDL
MODEL      235
REMARK 921   NORMALIZED FREE ENERGY PREDICTED BY IDOCK:   33.58 KCAL/MOL
REMARK 922        TOTAL FREE ENERGY PREDICTED BY IDOCK:   43.90 KCAL/MOL
REMARK 923 INTER-LIGAND FREE ENERGY PREDICTED BY IDOCK:   38.22 KCAL/MOL
REMARK 924 INTRA-LIGAND FREE ENERGY PREDICTED BY IDOCK:    5.69 KCAL/MOL
REMARK 927      BINDING AFFINITY PREDICTED BY RF-SCORE:    0.00 PKD
ROOT
HETATM    1  C   UNL     1      -5.841  16.665  71.710  1.00  0.00     1.419 C  
HETATM    2  O   UNL     1      -5.608  16.293  70.348  1.00  0.00    -0.179 OA 
ENDROOT
BRANCH   2   3
HETATM    3  C   UNL     1      -6.488  15.446  69.771  1.00  0.00    -0.171 C  
HETATM    4  O   UNL     1      -6.628  14.269  70.067  1.00  0.00    -0.142 OA 
BRANCH   3   5
HETATM    5  C   UNL     1      -7.241  16.128  68.678  1.00  0.00    -0.160 C  
HETATM    6  C   UNL     1      -6.685  16.184  67.443  1.00  0.00    -0.184 C  
HETATM    7  C   UNL     1      -5.285  15.754  67.063  1.00  0.00     0.445 C  
HETATM    8  N   UNL     1      -7.418  16.680  66.384  1.00  0.00    -0.269 NA 
HETATM    9  C   UNL     1      -8.680  17.228  66.470  1.00  0.00    -0.262 C  
HETATM   10  C   UNL     1      -9.232  17.758  65.165  1.00  0.00     2.340 C  
HETATM   11  C   UNL     1      -9.328  17.258  67.662  1.00  0.00    -0.237 C  
HETATM   12  C   UNL     1      -8.689  16.628  68.916  1.00  0.00    -0.238 C  
BRANCH  11  13
HETATM   13  C   UNL     1     -10.619  17.999  67.750  1.00  0.00    -0.394 C  
HETATM   14  O   UNL     1     -11.275  18.318  66.763  1.00  0.00     0.198 OA 
BRANCH  13  15
HETATM   15  O   UNL     1     -10.957  18.335  69.018  1.00  0.00     0.541 OA 
BRANCH  15  16
HETATM   16  C   UNL     1     -11.310  19.729  69.187  1.00  0.00     2.762 C  
HETATM   17  C   UNL     1     -12.190  20.158  68.022  1.00  0.00     3.687 C  
HETATM   18  C   UNL     1     -10.042  20.577  69.253  1.00  0.00     0.260 C  
ENDBRANCH  15  16
ENDBRANCH  13  15
ENDBRANCH  11  13
BRANCH  12  19
HETATM   19  C   UNL     1      -8.809  17.531  70.131  1.00  0.00     2.537 A  
HETATM   20  C   UNL     1      -9.930  17.527  71.004  1.00  0.00     3.760 A  
HETATM   21  C   UNL     1      -7.787  18.432  70.534  1.00  0.00     3.232 A  
HETATM   22  N   UNL     1     -11.052  16.798  70.942  1.00  0.00     0.127 NA 
HETATM   23  O   UNL     1     -11.808  17.166  72.041  1.00  0.00     0.389 OA 
HETATM   24  C   UNL     1      -7.872  19.255  71.688  1.00  0.00     4.462 A  
HETATM   25  C   UNL     1      -8.978  19.254  72.557  1.00  0.00     6.131 A  
HETATM   26  C   UNL     1     -10.007  18.368  72.191  1.00  0.00     6.248 A  
HETATM   27  N   UNL     1     -11.170  18.125  72.806  1.00  0.00     1.915 NA 
ENDBRANCH  12  19
ENDBRANCH   3   5
ENDBRANCH   2   3
TORSDOF 6
ENDMDL
MODEL      236
REMARK 921   NORMALIZED FREE ENERGY PREDICTED BY IDOCK:   72.75 KCAL/MOL
REMARK 922        TOTAL FREE ENERGY PREDICTED BY IDOCK:   96.82 KCAL/MOL
REMARK 923 INTER-LIGAND FREE ENERGY PREDICTED BY IDOCK:   83.42 KCAL/MOL
REMARK 924 INTRA-LIGAND FREE ENERGY PREDICTED BY IDOCK:   13.40 KCAL/MOL
REMARK 927      BINDING AFFINITY PREDICTED BY RF-SCORE:    0.00 PKD
ROOT
HETATM    1  C   UNL     1      -7.382  16.666  66.130  1.00  0.00     0.075 C  
HETATM    2  O   UNL     1      -7.850  16.494  64.789  1.00  0.00     3.996 OA 
ENDROOT
BRANCH   2   3
HETATM    3  C   UNL     1      -8.678  17.436  64.290  1.00  0.00     9.182 C  
HETATM    4  O   UNL     1      -8.913  17.608  63.103  1.00  0.00    17.071 OA 
BRANCH   3   5
HETATM    5  C   UNL     1      -9.237  18.282  65.384  1.00  0.00     1.412 C  
HETATM    6  C   UNL     1      -9.279  19.627  65.208  1.00  0.00     1.190 C  
HETATM    7  C   UNL     1      -8.674  20.407  64.062  1.00  0.00     4.598 C  
HETATM    8  N   UNL     1      -9.921  20.419  66.140  1.00  0.00    -0.298 NA 
HETATM    9  C   UNL     1     -10.471  19.978  67.324  1.00  0.00    -0.366 C  
HETATM   10  C   UNL     1     -11.056  21.067  68.196  1.00  0.00     2.057 C  
HETATM   11  C   UNL     1     -10.461  18.654  67.627  1.00  0.00    -0.468 C  
HETATM   12  C   UNL     1      -9.891  17.627  66.628  1.00  0.00    -0.309 C  
BRANCH  11  13
HETATM   13  C   UNL     1     -10.919  18.233  68.982  1.00  0.00     1.049 C  
HETATM   14  O   UNL     1     -10.174  17.713  69.807  1.00  0.00     0.051 OA 
BRANCH  13  15
HETATM   15  O   UNL     1     -12.245  18.428  69.183  1.00  0.00     5.122 OA 
BRANCH  15  16
HETATM   16  C   UNL     1     -12.570  18.994  70.474  1.00  0.00    19.187 C  
HETATM   17  C   UNL     1     -13.163  20.379  70.269  1.00  0.00    15.550 C  
HETATM   18  C   UNL     1     -11.314  19.061  71.339  1.00  0.00     5.999 C  
ENDBRANCH  15  16
ENDBRANCH  13  15
ENDBRANCH  11  13
BRANCH  12  19
HETATM   19  C   UNL     1      -8.985  16.615  67.306  1.00  0.00    -0.211 A  
HETATM   20  C   UNL     1      -8.948  15.238  66.958  1.00  0.00    -0.233 A  
HETATM   21  C   UNL     1      -8.053  16.963  68.320  1.00  0.00    -0.217 A  
HETATM   22  N   UNL     1      -9.665  14.574  66.042  1.00  0.00    -0.309 NA 
HETATM   23  O   UNL     1      -9.230  13.262  66.094  1.00  0.00    -0.131 OA 
HETATM   24  C   UNL     1      -7.175  16.032  68.936  1.00  0.00    -0.168 A  
HETATM   25  C   UNL     1      -7.132  14.669  68.595  1.00  0.00    -0.115 A  
HETATM   26  C   UNL     1      -8.039  14.291  67.589  1.00  0.00    -0.179 A  
HETATM   27  N   UNL     1      -8.235  13.087  67.038  1.00  0.00    -0.117 NA 
ENDBRANCH  12  19
ENDBRANCH   3   5
ENDBRANCH   2   3
TORSDOF 6
ENDMDL
